#------------------------------------------------------------------------------
#$Date: 2017-10-05 10:17:37 +0300 (Thu, 05 Oct 2017) $
#$Revision: 201718 $
#$URL: file:///home/coder/svn-repositories/cod/cif/1/54/75/1547567.cif $
#------------------------------------------------------------------------------
#
# This file is available in the Crystallography Open Database (COD),
# http://www.crystallography.net/
#
# All data on this site have been placed in the public domain by the
# contributors.
#
data_1547567
loop_
_publ_author_name
'Xia, Jingzhao'
'Nie, Yu'
'Yang, Guoqiang'
'Liu, Yangang'
'Zhang, Wanbin'
_publ_section_title
;
 Iridium-Catalyzed Asymmetric Hydrogenation of 2H-Chromenes: A Highly
 Enantioselective Approach to Isoflavan Derivatives.
;
_journal_issue                   18
_journal_name_full               'Organic letters'
_journal_page_first              4884
_journal_page_last               4887
_journal_paper_doi               10.1021/acs.orglett.7b02341
_journal_volume                  19
_journal_year                    2017
_chemical_absolute_configuration ad
_chemical_formula_moiety         'C15 H14 O3 S'
_chemical_formula_sum            'C15 H14 O3 S'
_chemical_formula_weight         274.32
_space_group_crystal_system      triclinic
_space_group_IT_number           1
_space_group_name_Hall           'P 1'
_space_group_name_H-M_alt        'P 1'
_symmetry_space_group_name_Hall  'P 1'
_symmetry_space_group_name_H-M   'P 1'
_atom_sites_solution_hydrogens   geom
_audit_creation_method           SHELXL-2014/7
_cell_angle_alpha                76.583(2)
_cell_angle_beta                 88.533(2)
_cell_angle_gamma                75.925(2)
_cell_formula_units_Z            2
_cell_length_a                   7.8451(4)
_cell_length_b                   8.3042(4)
_cell_length_c                   11.0600(6)
_cell_measurement_reflns_used    9995
_cell_measurement_temperature    173(2)
_cell_measurement_theta_max      68.38
_cell_measurement_theta_min      5.65
_cell_volume                     679.46(6)
_computing_structure_refinement  'SHELXL-2014/7 (Sheldrick, 2014)'
_diffrn_ambient_temperature      173(2)
_diffrn_measured_fraction_theta_full 0.994
_diffrn_measured_fraction_theta_max 0.993
_diffrn_measurement_device_type  'Bruker D8 VENTURE CMOS photon 100'
_diffrn_measurement_method       '\f and \w scans'
_diffrn_radiation_type           CuK\a
_diffrn_radiation_wavelength     1.54178
_diffrn_reflns_av_R_equivalents  0.0364
_diffrn_reflns_av_unetI/netI     0.0427
_diffrn_reflns_Laue_measured_fraction_full 0.994
_diffrn_reflns_Laue_measured_fraction_max 0.993
_diffrn_reflns_limit_h_max       9
_diffrn_reflns_limit_h_min       -9
_diffrn_reflns_limit_k_max       9
_diffrn_reflns_limit_k_min       -9
_diffrn_reflns_limit_l_max       13
_diffrn_reflns_limit_l_min       -13
_diffrn_reflns_number            13299
_diffrn_reflns_point_group_measured_fraction_full 0.994
_diffrn_reflns_point_group_measured_fraction_max 0.993
_diffrn_reflns_theta_full        67.679
_diffrn_reflns_theta_max         68.373
_diffrn_reflns_theta_min         5.648
_exptl_absorpt_coefficient_mu    2.131
_exptl_crystal_colour            colorless
_exptl_crystal_density_diffrn    1.341
_exptl_crystal_description       block
_exptl_crystal_F_000             288
_exptl_crystal_size_max          0.200
_exptl_crystal_size_mid          0.200
_exptl_crystal_size_min          0.200
_refine_diff_density_max         0.381
_refine_diff_density_min         -0.287
_refine_diff_density_rms         0.050
_refine_ls_abs_structure_details
;
 Refined as an inversion twin.
;
_refine_ls_abs_structure_Flack   0.07(2)
_refine_ls_extinction_method     none
_refine_ls_goodness_of_fit_ref   1.032
_refine_ls_hydrogen_treatment    constr
_refine_ls_matrix_type           full
_refine_ls_number_parameters     346
_refine_ls_number_reflns         4652
_refine_ls_number_restraints     3
_refine_ls_restrained_S_all      1.032
_refine_ls_R_factor_all          0.0451
_refine_ls_R_factor_gt           0.0414
_refine_ls_shift/su_max          0.000
_refine_ls_shift/su_mean         0.000
_refine_ls_structure_factor_coef Fsqd
_refine_ls_weighting_details
'w=1/[\s^2^(Fo^2^)+(0.1000P)^2^] where P=(Fo^2^+2Fc^2^)/3'
_refine_ls_weighting_scheme      calc
_refine_ls_wR_factor_gt          0.1217
_refine_ls_wR_factor_ref         0.1269
_reflns_Friedel_coverage         1.000
_reflns_Friedel_fraction_full    0.994
_reflns_Friedel_fraction_max     0.993
_reflns_number_gt                4353
_reflns_number_total             4652
_reflns_threshold_expression     'I > 2\s(I)'
_cod_data_source_file            ol7b02341_si_003.cif
_cod_data_source_block           t_a
_cod_database_code               1547567
_shelx_shelxl_version_number     2014/7
_shelx_space_group_comment
;
The symmetry employed for this shelxl refinement is uniquely defined
by the following loop, which should always be used as a source of
symmetry information in preference to the above space-group names.
They are only intended as comments.
;
_shelx_estimated_absorpt_t_min   0.675
_shelx_estimated_absorpt_t_max   0.675
_shelx_res_file
;

    t_a.res created by SHELXL-2014/7


TITL t_a.res in P1
REM Old TITL t in P1

REM SHELXT solution in P1
REM R1 0.228,  Rweak 0.036,  Alpha 0.000,  Orientation as input
REM Flack x =  0.331 ( 0.009 ) from Parsons' quotients
REM Formula found by SHELXT:  C31 O6 S

CELL  1.54178   7.8451   8.3042  11.0600   76.583   88.533   75.925
ZERR   2.000   0.0004   0.0004   0.0006    0.002    0.002    0.002
LATT -1
SFAC C H O S
UNIT 30 28 6 2
TEMP -100.150
L.S. 100
ACTA
SIZE 0.20 0.20 0.20
CONF
TWIN
BOND $H
LIST 6
FMAP 2
PLAN 20
WGHT    0.100000
BASF   0.07124
FVAR       1.36970
S1    4    0.807623    0.822331    0.545530    11.00000    0.04222    0.03133 =
         0.04327   -0.01468   -0.01454   -0.00367
C1    1    0.819963    0.965539    0.310770    11.00000    0.03182    0.03766 =
         0.04468   -0.01796   -0.01001   -0.00020
O1    3    0.967326    0.695386    0.555779    11.00000    0.03960    0.04584 =
         0.06850   -0.02542   -0.01764   -0.00003
O3    3    0.815664    0.981473    0.436168    11.00000    0.05705    0.03417 =
         0.04523   -0.01762   -0.00633   -0.01117
C3    1    0.881449    1.092499    0.103371    11.00000    0.04083    0.05199 =
         0.04757   -0.00829    0.00236   -0.00549
AFIX  43
H3    2    0.925310    1.175797    0.045795    11.00000   -1.20000
AFIX   0
S2    4    0.183736    0.233463    0.467315    11.00000    0.03547    0.03256 =
         0.03501   -0.00907   -0.01153   -0.00646
C2    1    0.886053    1.086018    0.228642    11.00000    0.04377    0.03634 =
         0.05695   -0.01314   -0.00732   -0.01100
AFIX  43
H2    2    0.934589    1.164260    0.258496    11.00000   -1.20000
AFIX   0
O2    3    0.752512    0.896880    0.649123    11.00000    0.05503    0.04056 =
         0.04577   -0.02055   -0.01101   -0.00570
O4    3    0.308551    0.110316    0.422123    11.00000    0.04233    0.04516 =
         0.05237   -0.02228   -0.00916   -0.00216
C4    1    0.811313    0.974754    0.062153    11.00000    0.04057    0.06546 =
         0.04892   -0.01983   -0.00213   -0.01354
AFIX  43
H4    2    0.806239    0.978454   -0.024204    11.00000   -1.20000
AFIX   0
O6    3    0.095808    0.142259    0.586027    11.00000    0.03401    0.05369 =
         0.04202   -0.00750   -0.00974   -0.01388
C6    1    0.751396    0.844167    0.274032    11.00000    0.02368    0.04041 =
         0.04727   -0.01895   -0.00433   -0.00213
O5    3    0.037152    0.336191    0.389327    11.00000    0.03661    0.03737 =
         0.05043   -0.01019   -0.01494   -0.00196
C5    1    0.749008    0.852400    0.146683    11.00000    0.03237    0.05893 =
         0.04712   -0.02478   -0.00263   -0.00930
AFIX  43
H5    2    0.703511    0.772090    0.117076    11.00000   -1.20000
AFIX   0
C9    1    0.555373    0.636459    0.310765    11.00000    0.02998    0.03634 =
         0.03959   -0.01376   -0.00581   -0.00480
C8    1    0.636229    0.753859    0.487241    11.00000    0.03254    0.02702 =
         0.04472   -0.01307   -0.01001    0.00023
AFIX  23
H8A   2    0.610238    0.656320    0.548950    11.00000   -1.20000
H8B   2    0.528206    0.847798    0.471247    11.00000   -1.20000
AFIX   0
C7    1    0.694428    0.700454    0.366906    11.00000    0.02735    0.03505 =
         0.04501   -0.01475   -0.01335   -0.00224
AFIX  13
H7    2    0.800433    0.602611    0.388328    11.00000   -1.20000
AFIX   0
C10   1    0.381459    0.730397    0.289444    11.00000    0.03122    0.03023 =
         0.03603   -0.00912   -0.00406   -0.00461
AFIX  43
H10   2    0.343582    0.835115    0.314429    11.00000   -1.20000
AFIX   0
C11   1    0.262823    0.668827    0.230714    11.00000    0.02780    0.04334 =
         0.03628   -0.00439   -0.00517   -0.00631
AFIX  43
H11   2    0.143369    0.731149    0.218447    11.00000   -1.20000
AFIX   0
C12   1    0.316199    0.518866    0.190159    11.00000    0.03944    0.05094 =
         0.03218   -0.00834   -0.00698   -0.01925
C13   1    0.487543    0.425377    0.214987    11.00000    0.04389    0.05625 =
         0.06513   -0.03625   -0.01180   -0.00477
AFIX  43
H13   2    0.525346    0.319670    0.191376    11.00000   -1.20000
AFIX   0
C14   1    0.605315    0.484508    0.274240    11.00000    0.03390    0.05077 =
         0.07023   -0.03650   -0.01322   -0.00074
AFIX  43
H14   2    0.723172    0.418633    0.289985    11.00000   -1.20000
AFIX   0
C15   1    0.190342    0.458489    0.120392    11.00000    0.05701    0.07132 =
         0.03975   -0.01472   -0.01405   -0.03125
AFIX 137
H15A  2    0.219452    0.476553    0.032346    11.00000   -1.50000
H15B  2    0.069818    0.523058    0.128370    11.00000   -1.50000
H15C  2    0.200090    0.336678    0.155189    11.00000   -1.50000
AFIX   0
C16   1    0.191994    0.072997    0.700929    11.00000    0.03153    0.03595 =
         0.03566   -0.00787   -0.00750   -0.00291
C17   1    0.118982   -0.039827    0.785627    11.00000    0.03975    0.03960 =
         0.05113   -0.00830   -0.00190   -0.01302
AFIX  43
H17   2    0.018930   -0.073038    0.762954    11.00000   -1.20000
AFIX   0
C18   1    0.193771   -0.102770    0.902880    11.00000    0.03920    0.04423 =
         0.04510   -0.00181    0.00040   -0.00394
AFIX  43
H18   2    0.145806   -0.181284    0.961944    11.00000   -1.20000
AFIX   0
C19   1    0.338261   -0.053255    0.936152    11.00000    0.05351    0.05953 =
         0.03796   -0.00014   -0.00852   -0.01334
AFIX  43
H19   2    0.387053   -0.093671    1.018518    11.00000   -1.20000
AFIX   0
C20   1    0.410548    0.055413    0.848355    11.00000    0.03703    0.05915 =
         0.04528   -0.00771   -0.01189   -0.00968
AFIX  43
H20   2    0.514292    0.083327    0.870223    11.00000   -1.20000
AFIX   0
C21   1    0.337697    0.125927    0.728926    11.00000    0.03193    0.03785 =
         0.03514   -0.01033   -0.00321   -0.00721
C22   1    0.423492    0.241876    0.631819    11.00000    0.03134    0.03730 =
         0.03463   -0.01229   -0.00452   -0.00499
AFIX  13
H22   2    0.513033    0.167692    0.589387    11.00000   -1.20000
AFIX   0
C23   1    0.287449    0.360912    0.532505    11.00000    0.03666    0.02822 =
         0.03947   -0.01069   -0.01002   -0.00462
AFIX  23
H23A  2    0.346341    0.429432    0.467111    11.00000   -1.20000
H23B  2    0.199390    0.439967    0.570719    11.00000   -1.20000
AFIX   0
C24   1    0.518256    0.344922    0.692071    11.00000    0.03139    0.03877 =
         0.03449   -0.01180   -0.00539   -0.00716
C25   1    0.430563    0.466708    0.752488    11.00000    0.03569    0.06440 =
         0.06817   -0.04569    0.00038   -0.00373
AFIX  43
H25   2    0.305676    0.495903    0.751275    11.00000   -1.20000
AFIX   0
C26   1    0.523493    0.548107    0.815770    11.00000    0.04728    0.07527 =
         0.06985   -0.05094   -0.00338   -0.00286
AFIX  43
H26   2    0.460710    0.633876    0.855193    11.00000   -1.20000
AFIX   0
C27   1    0.706577    0.505048    0.821684    11.00000    0.04613    0.04936 =
         0.03657   -0.01218   -0.01001   -0.01422
C28   1    0.791459    0.383814    0.759530    11.00000    0.03450    0.04091 =
         0.03935   -0.01005   -0.01226   -0.00601
AFIX  43
H28   2    0.916341    0.353367    0.760866    11.00000   -1.20000
AFIX   0
C29   1    0.699536    0.304763    0.694904    11.00000    0.03461    0.03555 =
         0.03978   -0.01163   -0.00400   -0.00623
AFIX  43
H29   2    0.762135    0.222512    0.652418    11.00000   -1.20000
AFIX   0
C30   1    0.804831    0.585598    0.896018    11.00000    0.07183    0.06259 =
         0.05112   -0.02359   -0.01740   -0.02169
AFIX 137
H30A  2    0.921676    0.584364    0.862139    11.00000   -1.50000
H30B  2    0.817094    0.521230    0.982938    11.00000   -1.50000
H30C  2    0.739833    0.703756    0.891478    11.00000   -1.50000
AFIX   0
HKLF 4

REM  t_a.res in P1
REM R1 =  0.0414 for    4353 Fo > 4sig(Fo)  and  0.0451 for all    4652 data
REM    346 parameters refined using      3 restraints

END

WGHT      0.0692      0.1644

REM Highest difference peak  0.381,  deepest hole -0.287,  1-sigma level  0.050
Q1    1   0.2279  0.0413  0.5789  11.00000  0.05    0.38
Q2    1   0.3994  0.2785  0.5191  11.00000  0.05    0.33
Q3    1   0.2842  0.1793  0.4514  11.00000  0.05    0.33
Q4    1   0.9741  0.8677  0.4189  11.00000  0.05    0.32
Q5    1   0.3096  0.1291  0.3452  11.00000  0.05    0.32
Q6    1   0.0597  0.3206  0.4636  11.00000  0.05    0.31
Q7    1   0.9070  0.7492  0.5383  11.00000  0.05    0.27
Q8    1   0.3061  0.1439  0.8545  11.00000  0.05    0.25
Q9    1   0.3179  0.3305  0.6419  11.00000  0.05    0.24
Q10   1   1.0260  0.6844  0.6181  11.00000  0.05    0.24
Q11   1   0.7488  0.9463  0.5688  11.00000  0.05    0.23
Q12   1   0.7407  0.6708  0.4511  11.00000  0.05    0.22
Q13   1   0.4129  0.5883  0.7233  11.00000  0.05    0.21
Q14   1   0.7423  0.8965  0.2759  11.00000  0.05    0.20
Q15   1   0.6195  0.3111  0.7193  11.00000  0.05    0.20
Q16   1   0.5148  0.4960  0.1668  11.00000  0.05    0.20
Q17   1  -0.0676 -0.1372  0.7184  11.00000  0.05    0.20
Q18   1  -0.0247  0.2061  0.6156  11.00000  0.05    0.20
Q19   1   0.2624  0.0829  0.9422  11.00000  0.05    0.20
Q20   1   0.5274  0.7109  0.2793  11.00000  0.05    0.20
;
_shelx_res_checksum              77761
_shelx_hkl_file
;
  -1   0   0  359.66   17.20
  -1   0   0  312.07   17.20
  -1   0   0  344.37   18.00
  -1   0   0  344.37   17.60
   1   0   0  310.57   17.10
   1   0   0  297.27   17.30
   1   0   0  298.17   17.90
   2   0   0 6132.49  319.67
   2   0   0 6351.86  321.57
   2   0   0 6228.78  319.47
   2   0   0 5673.43  319.37
  -3   0   0 1644.54   84.29
  -3   0   0 1631.54   82.79
  -3   0   0 1789.92   83.09
   3   0   0 1443.36   82.49
   3   0   0 1524.75   82.49
   3   0   0 1493.75   82.89
   3   0   0 1471.35   82.29
   3   0   0 1515.75   85.59
   3   0   0 1576.54   82.89
  -4   0   0  367.36   22.70
  -4   0   0  342.57   20.60
  -4   0   0  412.06   21.00
   4   0   0  372.86   20.90
   4   0   0  365.86   19.80
   4   0   0  360.46   20.40
   4   0   0  335.67   20.50
   4   0   0  363.16   20.00
  -5   0   0  331.37   21.10
  -5   0   0  355.86   20.10
   5   0   0  359.16   19.20
   5   0   0  356.76   20.10
   5   0   0  333.97   19.20
   5   0   0  361.26   19.60
   5   0   0  332.97   20.20
  -6   0   0  145.59    9.80
  -6   0   0  139.49    9.90
  -6   0   0  137.99   11.90
  -6   0   0  139.99   10.60
   6   0   0  144.09   10.00
   6   0   0  128.59   10.00
   6   0   0  137.09    8.50
   6   0   0  134.39   15.30
   6   0   0  144.89   10.70
   6   0   0  141.29    9.60
  -7   0   0   20.50    3.40
  -7   0   0   16.70    4.70
  -7   0   0   17.70    3.40
  -7   0   0   29.60    5.80
   7   0   0   25.10    5.00
   7   0   0   15.70    2.80
   7   0   0   18.00    5.60
   7   0   0   16.90    2.80
   7   0   0   19.10    3.90
  -8   0   0  174.88   12.00
  -8   0   0  177.28   11.70
  -8   0   0  166.98   10.40
   8   0   0  152.78   11.10
   8   0   0  182.78   11.40
   8   0   0  174.98   11.50
   8   0   0  171.88   11.10
  -9   0   0   38.30    3.90
  -9   0   0   27.90    3.50
   9   0   0   36.70    4.50
   8  -1   0   13.50    2.70
   8  -1   0   11.60    2.80
  -8   1   0   17.60    3.30
  -8   1   0   18.00    2.80
  -8   1   0   13.90    3.20
   7  -1   0   98.19    7.50
   7  -1   0   77.29   12.00
   7  -1   0  103.09   10.10
   7  -1   0   96.89    8.80
  -7   1   0  101.39    8.10
  -7   1   0   94.29    7.80
  -7   1   0   96.79   10.20
   6  -1   0  216.28   14.00
   6  -1   0  225.28   12.60
   6  -1   0  224.08   14.60
   6  -1   0  198.48   16.20
  -6   1   0  215.68   14.00
  -6   1   0  231.88   13.60
   5  -1   0  203.08   11.80
   5  -1   0  176.88   13.70
   5  -1   0  203.38   11.20
   5  -1   0  211.38   12.00
   5  -1   0  198.48   13.20
  -5   1   0  180.28   12.40
  -5   1   0  202.48   12.50
  -5   1   0  202.18   13.20
   4  -1   0 1197.68   63.89
   4  -1   0 1178.08   64.19
   4  -1   0 1210.88   63.69
   4  -1   0 1225.48   63.89
  -4   1   0 1215.38   67.29
   3  -1   0 1304.47   65.79
   3  -1   0 1287.47   66.09
   3  -1   0 1195.68   65.79
   3  -1   0 1224.98   68.49
   3  -1   0 1214.18   65.59
   3  -1   0 1292.47   70.89
  -3   1   0 1210.58   66.19
   2  -1   0 3342.17  168.18
   2  -1   0 3138.59  165.08
   2  -1   0 3236.38  165.18
   2  -1   0 3105.39  166.48
  -2   1   0 2907.41  165.28
   0  -1   0  415.56   22.40
   0   1   0  436.66   22.60
  -1  -1   0  618.94   32.50
  -1  -1   0  620.04   32.70
  -1  -1   0  632.34   32.60
   1   1   0  597.74   32.50
   1   1   0  595.74   32.30
  -2  -1   0 2756.52  149.79
  -2  -1   0 2901.01  148.99
  -2  -1   0 3009.20  148.89
   2   1   0 2877.41  148.99
   2   1   0 2843.02  149.59
   2   1   0 2679.43  148.49
   2   1   0 2785.62  148.79
   2   1   0 2792.62  148.59
  -3  -1   0  296.77   15.00
  -3  -1   0  264.27   15.90
  -3  -1   0  267.57   15.20
   3   1   0  269.47   15.10
   3   1   0  255.47   14.40
   3   1   0  252.57   14.80
   3   1   0  264.57   16.60
   3   1   0  260.87   14.50
   3   1   0  248.68   14.70
  -4  -1   0   41.20    4.70
   4   1   0   55.49   11.00
   4   1   0   50.19    3.90
   4   1   0   48.60    7.00
   4   1   0   52.29    5.90
   4   1   0   56.49    4.70
   4   1   0   57.09    4.20
   4   1   0   48.20    5.30
  -5  -1   0  297.77   16.20
  -5  -1   0  290.87   17.00
   5   1   0  261.97   15.40
   5   1   0  240.68   15.80
   5   1   0  260.77   15.90
   5   1   0  262.17   15.00
   5   1   0  250.57   15.00
  -6  -1   0  109.99   10.30
  -6  -1   0  125.59    9.10
  -6  -1   0  108.09    9.30
  -6  -1   0  115.29    9.00
  -6  -1   0  120.79   10.10
   6   1   0  114.89    9.50
   6   1   0  119.49    8.90
   6   1   0  115.49    8.80
   6   1   0  110.59    7.30
   6   1   0  110.79    8.00
   6   1   0  110.89   12.90
  -7  -1   0  382.46   20.70
  -7  -1   0  355.66   21.00
  -7  -1   0  353.26   21.00
  -7  -1   0  372.56   20.50
   7   1   0  358.96   20.20
   7   1   0  334.77   21.70
   7   1   0  364.66   20.50
   7   1   0  341.67   21.70
   7   1   0  355.36   21.90
   7   1   0  368.16   21.40
  -8  -1   0   92.99    7.80
  -8  -1   0   83.89    7.20
  -8  -1   0   75.69   10.30
   8   1   0   70.79    7.50
   8   1   0   88.09   11.30
   8   1   0   91.29    7.80
   8   1   0   89.69    7.90
  -9  -1   0   78.49    6.40
  -9  -1   0  103.39    6.30
   9   1   0   95.19    7.40
   9   1   0   95.99   10.30
   8  -2   0    5.70    4.70
  -8   2   0   10.00    1.80
  -8   2   0   11.90    2.70
   7  -2   0   24.60    4.50
   7  -2   0   23.40    5.10
   7  -2   0   32.90    7.00
  -7   2   0   33.90    5.50
  -7   2   0   31.80    5.10
  -7   2   0   38.90    8.00
   6  -2   0   19.50    3.50
   6  -2   0   17.20    2.60
   6  -2   0   14.90    4.20
   6  -2   0   15.80    4.40
  -6   2   0   13.60    3.60
  -6   2   0   13.40    3.50
  -6   2   0   14.60    3.20
   5  -2   0  288.47   16.30
   5  -2   0  285.57   17.00
   5  -2   0  285.27   17.10
   5  -2   0  253.27   18.60
  -5   2   0  331.67   17.30
  -5   2   0  314.87   17.90
  -5   2   0  315.37   18.50
   4  -2   0 1324.57   71.39
   4  -2   0 1380.66   71.19
   4  -2   0 1349.77   71.69
  -4   2   0 1341.07   72.19
   3  -2   0 1861.71   98.39
   3  -2   0 1822.12   98.39
  -3   2   0 1953.00  101.69
  -3   2   0 1852.21   99.19
   2  -2   0 1734.53   94.69
   2  -2   0 1637.24   92.69
  -2   2   0 1740.23   90.79
  -2   2   0 1759.72   92.49
   1  -2   0  807.92   43.80
   1  -2   0  781.02   42.10
  -1   2   0  802.62   42.40
   0  -2   0  253.37   15.00
   0   2   0  313.47   15.60
  -1  -2   0 2493.05  123.49
  -1  -2   0 2329.47  122.89
  -1  -2   0 2343.97  123.39
  -1  -2   0 2159.68  122.89
   1   2   0 2372.86  122.99
   1   2   0 2277.37  123.29
   1   2   0 2407.86  123.39
   1   2   0 2365.96  123.19
  -2  -2   0    4.50    1.90
  -2  -2   0    5.10    0.80
  -2  -2   0    4.10    1.00
  -2  -2   0    6.40    1.80
   2   2   0    4.50    1.20
   2   2   0    5.00    1.00
   2   2   0    5.80    1.40
   2   2   0    5.10    1.40
  -3  -2   0  615.14   35.20
  -3  -2   0  628.54   34.60
  -3  -2   0  682.83   34.10
  -3  -2   0  551.84   33.50
  -3  -2   0  572.64   33.20
   3   2   0  644.14   33.90
   3   2   0  640.04   33.50
   3   2   0  674.53   34.40
   3   2   0  632.64   33.40
   3   2   0  632.74   33.70
   4   2   0   16.50    3.50
   4   2   0   12.90    5.00
   4   2   0   15.70    2.80
   4   2   0   23.30    5.70
   4   2   0   10.00    3.00
  -5  -2   0  163.28   13.60
  -5  -2   0  179.58   13.50
  -5  -2   0  188.68   12.20
  -5  -2   0  170.28   14.90
   5   2   0  211.88   12.00
   5   2   0  201.28   12.50
   5   2   0  195.38   11.40
   5   2   0  211.58   12.50
   5   2   0  206.58   11.40
  -6  -2   0  109.39   12.20
  -6  -2   0   88.49    9.80
  -6  -2   0   98.79    9.10
   6   2   0  113.79    7.60
   6   2   0  126.09   11.60
   6   2   0  120.69    8.10
   6   2   0  117.99    8.70
   6   2   0  121.29    9.00
   6   2   0  118.99    9.40
  -7  -2   0   77.79    7.30
  -7  -2   0   68.79    9.50
  -7  -2   0   75.29    7.60
   7   2   0   71.49    8.70
   7   2   0   74.69    7.00
   7   2   0   66.99    6.80
   7   2   0   59.59   10.20
   7   2   0   65.79    8.40
   7   2   0   70.59    9.00
  -8  -2   0   60.89    6.90
  -8  -2   0   59.79    6.50
  -8  -2   0   67.29    7.00
   8   2   0   42.70    7.40
   8   2   0   45.00    7.10
   8   2   0   57.39    8.50
   8   2   0   46.30    8.30
  -9  -2   0   81.29    6.00
  -9  -2   0   74.29    5.90
   9   2   0   93.99    6.70
   9   2   0   80.89   12.00
  -8   3   0    6.90    2.70
   7  -3   0   61.99    5.90
   7  -3   0   68.09    8.20
  -7   3   0   63.79    6.70
  -7   3   0   66.09    5.00
   6  -3   0   33.80    7.40
   6  -3   0   37.00    7.60
   6  -3   0   42.80    5.20
  -6   3   0   55.99    8.20
  -6   3   0   50.69    5.70
   5  -3   0  242.08   14.60
  -5   3   0  271.87   16.30
  -5   3   0  278.07   15.90
  -5   3   0  276.67   17.10
   4  -3   0  115.19    7.10
   4  -3   0  115.79    7.50
   4  -3   0  120.09    6.40
  -4   3   0   97.59    9.40
  -4   3   0   90.29    8.80
  -4   3   0   92.39    8.30
  -4   3   0  104.39    8.00
   3  -3   0  596.64   32.70
   3  -3   0  596.94   33.10
  -3   3   0  656.23   33.90
   2  -3   0  200.58   11.20
  -2   3   0  201.88   11.70
   1  -3   0  141.19   12.20
   1  -3   0  157.68   13.30
   1  -3   0  143.69    8.10
   0   3   0   65.69    4.40
   0   3   0   64.39    5.00
  -1  -3   0   86.69    5.60
  -1  -3   0   93.89    6.20
  -1  -3   0   90.59    5.40
  -1  -3   0   85.99    4.60
   1   3   0   73.89    4.80
   1   3   0   70.09    5.30
   1   3   0   69.29    5.80
  -2  -3   0 1631.54   85.49
  -2  -3   0 1641.44   84.39
  -2  -3   0 1549.74   84.49
  -2  -3   0 1653.83   85.39
  -2  -3   0 1688.83   85.29
   2   3   0 1448.36   84.49
   2   3   0 1620.64   84.49
  -3  -3   0  484.05   26.60
  -3  -3   0  502.35   28.20
  -3  -3   0  487.35   26.70
  -3  -3   0  548.75   27.70
   3   3   0  470.05   27.20
   3   3   0  497.15   26.90
   3   3   0  502.05   27.30
  -4  -3   0   83.09    6.40
   4   3   0   88.59    8.10
   4   3   0   89.89    5.70
   4   3   0   95.89    6.40
   4   3   0   89.79    6.80
   4   3   0   86.39    8.00
  -5  -3   0  135.99   12.50
  -5  -3   0  155.68   10.10
  -5  -3   0  118.39   12.10
  -5  -3   0  156.78   11.80
   5   3   0  149.29    9.50
   5   3   0  150.38   10.00
   5   3   0  151.58   14.30
   5   3   0  146.69    9.00
  -6  -3   0   47.30    7.20
  -6  -3   0   39.50    6.00
  -6  -3   0   38.60    5.20
  -6  -3   0   31.20    6.50
  -6  -3   0   49.30    7.70
   6   3   0   43.70    6.30
   6   3   0   41.40    7.30
   6   3   0   44.90    7.30
   6   3   0   37.30    5.30
   6   3   0   35.20    5.60
   6   3   0   43.70    5.90
  -7  -3   0  281.87   15.50
   7   3   0  241.08   15.30
   7   3   0  246.28   16.80
   7   3   0  254.57   16.20
   7   3   0  237.58   15.70
   7   3   0  238.68   15.30
   7   3   0  238.78   16.10
  -8  -3   0  103.39    8.90
  -8  -3   0  116.89    8.90
   8   3   0  105.79   10.70
   8   3   0  123.09   10.20
   8   3   0  128.99   11.80
   8   3   0  119.69   10.00
   8   3   0   98.09   12.70
  -9  -3   0   72.09    5.50
  -9  -3   0   75.29    5.30
   9   3   0   68.99    6.20
   7  -4   0    3.70    3.60
  -7   4   0   11.10    1.70
  -7   4   0   11.50    2.30
   6  -4   0   51.29    5.60
   6  -4   0   66.99    8.30
   6  -4   0   51.49    4.40
  -6   4   0   58.79    8.90
   5  -4   0  257.37   14.10
   5  -4   0  262.67   13.60
   5  -4   0  235.38   14.90
  -5   4   0  230.88   14.80
  -5   4   0  246.08   16.00
   4  -4   0  398.76   23.70
   4  -4   0  408.66   23.10
   4  -4   0  401.06   23.90
  -4   4   0  463.65   25.30
  -4   4   0  454.35   25.60
  -4   4   0  475.35   25.80
   3  -4   0    9.20    1.80
   3  -4   0    8.30    1.20
  -3   4   0   10.50    3.50
  -3   4   0   10.50    7.50
  -3   4   0    6.70    2.80
  -3   4   0   10.20    4.30
   2  -4   0  190.98   11.00
   2  -4   0  201.18   10.60
  -2   4   0  196.18   12.00
   1  -4   0  552.64   28.90
   1  -4   0  550.34   29.10
  -1   4   0  535.55   30.00
   0  -4   0   16.30    2.20
   0  -4   0   20.00    1.80
   0  -4   0   22.10    2.60
   0   4   0   24.10    2.90
  -1  -4   0  185.88   11.20
  -1  -4   0  216.48   11.90
  -1  -4   0  198.98   10.70
  -1  -4   0  201.18   13.30
  -1  -4   0  197.58   10.60
   1   4   0  191.48   11.40
   1   4   0  172.58   11.30
   1   4   0  191.58   10.80
  -2  -4   0  186.58   11.30
  -2  -4   0  176.08   11.00
  -2  -4   0  178.98   10.00
   2   4   0  180.68   10.80
   2   4   0  181.78   10.30
  -3  -4   0   52.79    4.30
  -3  -4   0   56.39    3.80
  -3  -4   0   54.39    4.60
  -3  -4   0   45.90    5.10
   3   4   0   49.40    5.10
   3   4   0   44.10    4.50
  -4  -4   0 1440.76   76.19
  -4  -4   0 1463.55   76.09
  -4  -4   0 1476.45   75.99
  -4  -4   0 1489.55   77.49
   4   4   0 1472.55   76.79
   4   4   0 1373.16   76.39
   4   4   0 1439.56   76.29
   4   4   0 1344.97   76.69
  -5  -4   0  144.19   13.00
  -5  -4   0  143.49   10.80
  -5  -4   0  140.69   10.20
  -5  -4   0  146.99   12.00
   5   4   0  154.78   11.70
   5   4   0  137.89    9.10
   5   4   0  149.88   13.50
   5   4   0  141.69   11.10
   5   4   0  144.99   11.70
   5   4   0  137.39   14.70
   5   4   0  144.19    9.80
  -6  -4   0   39.70    6.00
  -6  -4   0   36.60    7.00
  -6  -4   0   37.80    5.50
   6   4   0   40.80    7.10
   6   4   0   39.70    9.10
   6   4   0   31.20    5.00
   6   4   0   33.10    6.00
   6   4   0   34.20    6.20
  -7  -4   0   13.00    4.20
  -7  -4   0    7.00    4.00
  -7  -4   0    2.20    5.60
  -7  -4   0    3.60    7.20
   7   4   0    3.00    4.60
   7   4   0    4.00    4.90
   7   4   0    5.10    8.30
   7   4   0    0.10    4.80
   7   4   0    6.50    5.10
  -8  -4   0  171.58   10.60
   8   4   0  140.79   13.70
  -9  -4   0   32.80    4.00
  -9  -4   0   32.50    4.10
   9   4   0   27.20    5.10
   6  -5   0   43.80    5.70
  -6   5   0   34.50    3.80
  -6   5   0   37.60    5.00
   5  -5   0  173.08   10.30
   5  -5   0  165.18    9.90
  -5   5   0  178.28   11.90
   4  -5   0  274.07   14.40
   4  -5   0  265.17   14.60
  -4   5   0  277.07   16.60
  -4   5   0  247.28   15.60
  -4   5   0  255.07   18.20
  -4   5   0  252.77   19.10
   3  -5   0 1038.20   53.39
   3  -5   0 1011.20   53.69
   3  -5   0 1049.59   53.09
  -3   5   0  956.40   54.69
  -3   5   0 1002.70   55.99
  -3   5   0  971.90   56.39
   2  -5   0   20.30    3.50
   2  -5   0   21.40    2.20
   2  -5   0   18.90    3.70
  -2   5   0   26.40    5.10
  -2   5   0   20.20    3.70
  -2   5   0   31.30    6.50
   1  -5   0   95.69    5.90
   1  -5   0   82.39    7.40
   1  -5   0   91.79    5.50
  -1   5   0   97.09    7.50
  -1   5   0   86.49    8.50
  -1   5   0   90.09   12.30
   0  -5   0  211.68   13.40
   0  -5   0  155.48   10.30
   0  -5   0  181.98   11.40
   0  -5   0  162.68    9.70
  -1  -5   0  224.48   11.70
  -1  -5   0  201.78   12.40
  -1  -5   0  216.18   13.10
   1   5   0  203.98   13.10
  -2  -5   0  237.48   14.60
  -2  -5   0  250.77   13.40
  -2  -5   0  219.38   14.30
  -2  -5   0  235.28   13.50
   2   5   0  252.37   13.80
   2   5   0  237.98   14.60
   2   5   0  249.28   14.70
  -3  -5   0  903.31   44.90
  -3  -5   0  799.72   45.80
  -3  -5   0  886.11   46.60
  -3  -5   0  887.41   45.10
  -3  -5   0  801.92   46.40
   3   5   0  849.41   45.70
   3   5   0  843.92   45.10
   3   5   0  772.62   46.10
  -4  -5   0 1088.19   56.79
  -4  -5   0 1023.80   56.89
  -4  -5   0 1117.49   56.19
  -4  -5   0 1059.19   56.19
  -4  -5   0 1058.29   57.79
   4   5   0 1010.00   57.19
   4   5   0  993.90   57.59
   4   5   0 1064.39   56.29
   4   5   0 1042.30   57.29
   4   5   0 1072.89   56.79
  -5  -5   0  889.61   48.10
  -5  -5   0  880.01   49.80
  -5  -5   0  917.31   49.00
  -5  -5   0  877.61   48.30
  -5  -5   0  855.81   49.50
  -5  -5   0  865.71   47.90
   5   5   0  964.10   49.60
   5   5   0  873.31   48.50
   5   5   0  889.51   48.00
   5   5   0  891.11   49.10
   5   5   0  900.11   49.00
  -6  -5   0  307.27   18.00
  -6  -5   0  320.77   19.10
  -6  -5   0  306.27   17.80
   6   5   0  264.47   17.90
   6   5   0  286.37   19.10
   6   5   0  296.47   18.10
   6   5   0  287.87   19.10
  -7  -5   0  244.88   14.80
  -7  -5   0  248.08   15.30
  -7  -5   0  239.78   15.40
   7   5   0  247.28   15.80
   7   5   0  224.18   16.60
   7   5   0  199.18   15.70
  -8  -5   0   37.70    5.20
  -8  -5   0   49.99    5.40
   8   5   0   36.50    6.30
   8   5   0   44.60    9.30
  -9  -5   0   13.70    2.80
  -9  -5   0   11.80    2.30
   9   5   0   12.70    2.80
  -5   6   0   23.30    4.10
   4  -6   0  105.19    7.70
  -4   6   0   88.39    8.60
  -4   6   0   85.19    8.60
   3  -6   0   14.00    2.00
  -3   6   0   15.40    3.40
  -3   6   0   16.30    4.80
  -3   6   0    9.40    7.60
   2  -6   0   15.50    4.90
   2  -6   0   23.20    4.20
   2  -6   0   17.50    2.70
  -2   6   0   10.50    5.10
   1  -6   0  316.07   17.40
   1  -6   0  317.57   18.40
   1  -6   0  323.77   20.00
  -1   6   0  323.67   19.70
   0  -6   0   18.50    3.20
   0  -6   0   23.30    4.90
   0  -6   0   27.70    2.50
   0   6   0   18.60    3.60
   0   6   0   21.80    5.80
   0   6   0   24.90    5.30
   0   6   0   25.20    6.10
  -1  -6   0  278.07   21.60
  -1  -6   0  287.17   17.60
  -1  -6   0  280.37   15.40
  -1  -6   0  251.67   16.20
   1   6   0  280.07   17.40
   1   6   0  312.57   19.50
   1   6   0  276.77   17.50
   1   6   0  287.77   17.50
  -2  -6   0   46.00    7.40
  -2  -6   0   37.00    5.20
  -2  -6   0   40.90    4.50
  -2  -6   0   39.80    3.50
  -2  -6   0   40.40    5.90
   2   6   0   29.60    5.20
   2   6   0   31.30    7.90
   2   6   0   35.80    6.90
  -3  -6   0  146.19    8.50
  -3  -6   0  137.29   12.70
  -3  -6   0  145.19    9.40
  -3  -6   0  139.69   10.70
  -3  -6   0  141.39   10.30
  -3  -6   0  146.09    9.30
   3   6   0  128.69   11.30
   3   6   0  136.79   11.40
   3   6   0  132.29   17.90
  -4  -6   0 1744.13   88.79
  -4  -6   0 1755.02   88.69
  -4  -6   0 1669.33   90.69
  -4  -6   0 1593.44   89.99
  -4  -6   0 1737.33   88.39
   4   6   0 1636.94   90.49
   4   6   0 1607.94   89.39
   4   6   0 1621.04   89.09
   4   6   0 1582.44   88.69
   4   6   0 1768.22   92.29
  -5  -6   0   45.80    8.30
  -5  -6   0   35.70    9.10
  -5  -6   0   36.00    7.40
  -5  -6   0   32.80    7.10
  -5  -6   0   30.60    4.90
   5   6   0   50.69   11.00
   5   6   0   31.00    5.50
   5   6   0   33.40    5.50
   5   6   0   35.70    7.60
  -6  -6   0  157.88   11.40
  -6  -6   0  156.48   11.00
  -6  -6   0  167.28   14.00
   6   6   0  120.69   13.30
   6   6   0  155.28   13.90
   6   6   0  138.19   17.40
   6   6   0  161.88   12.20
  -7  -6   0  114.69    9.50
  -7  -6   0  107.89    9.50
  -7  -6   0  104.19   10.00
   7   6   0  135.29   11.40
   7   6   0   98.59   13.00
   7   6   0  131.39    9.60
  -8  -6   0   40.30    5.20
  -8  -6   0   33.30    4.80
   8   6   0   30.00    4.50
   8   6   0   37.90    6.50
   3  -7   0   15.00    4.00
   3  -7   0   16.20    2.90
  -3   7   0    9.70    3.30
   2  -7   0  352.46   20.20
  -2   7   0  374.66   22.70
  -2   7   0  382.26   22.10
   1  -7   0    8.60    5.20
   1  -7   0    7.10    3.30
   1  -7   0    6.10    2.00
  -1   7   0   11.10    4.50
  -1   7   0    8.20    7.10
   0  -7   0  341.07   21.20
   0  -7   0  341.17   17.80
   0  -7   0  293.77   18.40
   0   7   0  329.97   20.50
   0   7   0  299.97   20.60
   0   7   0  321.67   19.70
  -1  -7   0  319.57   19.50
  -1  -7   0  313.87   22.50
  -1  -7   0  322.37   17.90
  -1  -7   0  317.97   20.30
  -1  -7   0  337.87   17.60
   1   7   0  326.57   19.20
   1   7   0  284.87   18.90
   1   7   0  293.47   20.30
   1   7   0  330.97   20.70
  -2  -7   0  191.28   11.00
  -2  -7   0  184.08   15.30
  -2  -7   0  182.68   11.10
  -2  -7   0  176.28   13.40
  -2  -7   0  189.38   11.90
   2   7   0  193.28   15.00
   2   7   0  167.98   14.40
   2   7   0  178.28   12.80
   2   7   0  196.38   12.90
  -3  -7   0  524.85   28.20
  -3  -7   0  519.65   27.60
  -3  -7   0  518.05   29.40
  -3  -7   0  506.15   28.40
  -3  -7   0  469.75   30.10
  -3  -7   0  504.65   27.70
   3   7   0  505.25   28.70
   3   7   0  509.85   31.00
   3   7   0  442.26   30.40
   3   7   0  556.04   28.80
  -4  -7   0  145.89   10.00
  -4  -7   0  134.59    9.30
  -4  -7   0  107.49   11.50
  -4  -7   0  135.39   10.80
  -4  -7   0  134.19    9.00
  -4  -7   0  137.39   11.70
   4   7   0  147.09   11.20
   4   7   0  122.29   10.70
   4   7   0  113.09   15.60
  -5  -7   0   32.10    5.20
  -5  -7   0   29.00    4.40
  -5  -7   0   30.40    6.30
  -5  -7   0   41.90    7.40
   5   7   0   42.40   10.30
   5   7   0   22.40    5.10
   5   7   0   36.30   20.30
  -6  -7   0  204.18   16.10
  -6  -7   0  209.78   15.30
  -6  -7   0  233.88   14.50
   6   7   0  241.78   15.00
  -7  -7   0   52.69    6.10
  -7  -7   0   54.59    6.50
  -7  -7   0   69.89    7.90
   7   7   0   70.19    6.60
  -8  -7   0   11.10    3.20
  -8  -7   0   13.90    3.20
   8   7   0    8.20    3.30
  -3   8   0   50.19    5.20
   2  -8   0   -4.20    3.20
  -2   8   0    4.10    2.70
   1  -8   0  124.69    8.50
   1  -8   0   97.09   10.80
   1  -8   0  121.89    9.00
  -1   8   0  131.19    9.10
   0  -8   0  264.07   16.20
   0  -8   0  277.37   16.80
   0   8   0  280.67   17.90
   0   8   0  298.77   17.80
  -1  -8   0   22.90    5.00
  -1  -8   0   38.40    5.30
  -1  -8   0   37.80    8.50
  -1  -8   0   22.60    3.30
   1   8   0   35.80    7.90
   1   8   0   35.10    8.20
  -2  -8   0  126.09    9.10
  -2  -8   0  127.69   13.70
  -2  -8   0  124.79    9.10
  -2  -8   0  134.69   10.80
  -2  -8   0  134.19    9.10
   2   8   0  151.88   12.30
   2   8   0  148.29   10.60
   2   8   0  140.69   10.60
  -3  -8   0   59.39    8.40
  -3  -8   0   51.39    5.90
  -3  -8   0   60.09   10.20
  -3  -8   0   56.39    7.10
  -3  -8   0   57.89    6.30
   3   8   0   61.59   11.50
   3   8   0   43.20    7.60
   3   8   0   55.19    7.90
  -4  -8   0    9.10    3.30
  -4  -8   0   16.90    4.90
  -4  -8   0   21.50    5.10
  -4  -8   0   11.90    7.40
  -4  -8   0   15.00    2.60
   4   8   0    7.40    4.10
   4   8   0    8.80    5.10
  -5  -8   0  116.99    9.40
  -5  -8   0  126.39    9.30
  -5  -8   0  123.09    9.30
   5   8   0  145.39    9.00
  -6  -8   0   18.00    3.00
  -6  -8   0   24.70    3.80
   6   8   0   19.90    3.10
  -7  -8   0   20.30    6.20
  -7  -8   0   35.90    5.50
   7   8   0   35.60    4.40
   1  -9   0   52.89    6.80
  -1   9   0   63.69    5.10
   0  -9   0    6.90    5.20
   0  -9   0    7.20    2.50
   0  -9   0    6.50    3.10
   0   9   0    8.80    2.60
  -1  -9   0  114.59    7.90
  -1  -9   0  116.79    9.00
  -1  -9   0   94.29    8.20
   1   9   0   98.59    7.60
  -2  -9   0    3.20    4.80
  -2  -9   0    7.10    3.10
  -2  -9   0    0.40    4.10
   2   9   0   -0.10    2.20
   2   9   0    8.60    3.60
  -3  -9   0   53.89    5.80
  -3  -9   0   53.79    7.90
  -3  -9   0   42.50    7.20
  -3  -9   0   44.30    7.00
   3   9   0   58.79    6.20
  -4  -9   0   15.50    3.40
  -4  -9   0   12.70    4.20
  -4  -9   0   14.40    7.40
   4   9   0   14.50    3.00
  -5  -9   0   16.60    2.90
  -5  -9   0   13.70    4.50
   5   9  -1    1.00    2.30
  -5  -9   1   -4.10    3.20
   4   9  -1    8.10    2.60
  -4  -9   1    7.20    3.00
  -4  -9   1    5.80    3.30
  -4  -9   1    6.70    3.30
   3   9  -1    6.00    3.00
  -3  -9   1   13.90    3.90
  -3  -9   1   10.60    3.90
  -3  -9   1    9.10    3.50
   2   9  -1   69.89    6.70
   2   9  -1   61.69    6.90
  -2  -9   1   53.39    7.60
  -2  -9   1   56.99    6.30
  -2  -9   1   61.09    9.10
  -2  -9   1   64.59    6.00
   1   9  -1  105.69    7.20
   1   9  -1  114.49    7.80
  -1  -9   1   92.89    7.70
  -1  -9   1   90.49    8.50
   0   9  -1  104.29    7.50
   0  -9   1  102.69    8.10
   0  -9   1  117.09    8.10
   6   8  -1    1.30    2.90
  -6  -8   1    3.20    2.90
  -6  -8   1    2.40    2.80
   5   8  -1   27.00    3.50
  -5  -8   1   21.50    3.60
  -5  -8   1   20.50    3.70
   4   8  -1  111.59   10.10
   4   8  -1   87.59   10.90
  -4  -8   1   87.99    9.10
  -4  -8   1   95.79   10.80
  -4  -8   1   98.79    8.10
  -4  -8   1  104.19    7.80
   3   8  -1    6.40    4.30
   3   8  -1    7.40    5.90
   3   8  -1    4.80    3.10
  -3  -8   1   -2.50    4.10
  -3  -8   1    1.80    3.00
  -3  -8   1    2.00    2.30
  -3  -8   1    6.10    4.30
  -3  -8   1    6.90    5.30
   2   8  -1   75.09    8.00
   2   8  -1   80.99   10.60
   2   8  -1   70.19    8.30
  -2  -8   1   52.99    7.00
  -2  -8   1   59.49    7.90
  -2  -8   1   61.49    6.40
  -2  -8   1   54.39    6.00
  -2  -8   1   58.79   11.50
   1   8  -1   14.10    5.00
   1   8  -1   19.80    5.40
   1   8  -1    6.90    3.70
  -1  -8   1   12.80    3.20
  -1  -8   1   11.00    2.50
   0   8  -1  112.29    9.10
   0   8  -1  116.19   14.10
   0  -8   1   97.59   14.40
   0  -8   1  105.99    8.10
  -1   8  -1   87.49    7.70
   1  -8   1   69.09    9.40
   1  -8   1   64.19    7.40
  -2   8  -1    8.00    2.70
   2  -8   1    1.00    4.10
   2  -8   1    4.70    3.30
  -3   8  -1   -3.80    2.60
   7   7  -1   15.80    3.60
  -7  -7   1   17.50    3.30
  -7  -7   1   12.00    3.30
  -7  -7   1   21.90    4.30
   6   7  -1   40.90    6.80
  -6  -7   1   46.70    6.30
  -6  -7   1   41.10    6.50
  -6  -7   1   39.70    5.70
   5   7  -1  104.89   10.80
  -5  -7   1  123.89   10.90
  -5  -7   1  100.59    9.10
  -5  -7   1  119.99    9.30
  -5  -7   1  102.89   21.50
   4   7  -1   11.10    4.90
   4   7  -1   11.10   11.10
  -4  -7   1    7.80    3.10
  -4  -7   1    9.50    4.70
  -4  -7   1   17.80    5.20
  -4  -7   1    7.20    6.00
  -4  -7   1   14.70    4.30
   3   7  -1   94.99   13.30
   3   7  -1  134.69   16.10
   3   7  -1  121.49   10.00
  -3  -7   1  106.79    7.70
  -3  -7   1   91.69   10.40
  -3  -7   1  107.09    9.00
  -3  -7   1  102.09    8.60
  -3  -7   1  110.89   11.50
  -3  -7   1  101.29    7.80
   2   7  -1   34.20    7.20
   2   7  -1   55.39   11.50
   2   7  -1   27.40    8.00
   2   7  -1   47.30    7.70
  -2  -7   1   33.10    4.60
  -2  -7   1   33.90    4.70
  -2  -7   1   43.20    6.30
  -2  -7   1   37.40    6.50
  -2  -7   1   29.50    8.20
   1   7  -1  232.48   16.20
   1   7  -1  195.08   16.10
   1   7  -1  220.78   14.30
   1   7  -1  205.38   14.10
  -1  -7   1  191.18   17.30
  -1  -7   1  207.48   15.40
  -1  -7   1  217.18   12.40
  -1  -7   1  237.78   15.30
  -1  -7   1  210.68   12.80
   0   7  -1   66.09   10.80
   0  -7   1   83.29   15.70
   0  -7   1   60.49    5.10
   0  -7   1   53.79    9.20
  -1   7  -1    1.00    9.70
  -1   7  -1   11.20    5.30
   1  -7   1    4.80    3.10
   1  -7   1   10.80    5.70
  -2   7  -1  107.39   10.00
   2  -7   1   81.79    6.40
   2  -7   1   78.39    8.60
  -3   7  -1   76.19    7.20
   3  -7   1   76.29    9.30
  -4   7  -1    9.00    3.90
   8   6  -1   12.90    4.50
   8   6  -1   12.30    3.70
  -8  -6   1    5.70    2.90
  -8  -6   1    8.80    3.00
   7   6  -1  113.89    9.90
   7   6  -1  109.49   10.00
   7   6  -1   95.79   14.80
  -7  -6   1  105.79    9.20
  -7  -6   1  127.39    8.30
  -7  -6   1  119.29    9.30
   6   6  -1   27.80    7.40
   6   6  -1   38.70    6.10
   6   6  -1   36.20    6.70
  -6  -6   1   29.90    4.70
  -6  -6   1   40.30    7.00
  -6  -6   1   39.50    8.10
   5   6  -1  329.67   19.50
   5   6  -1  319.57   28.80
   5   6  -1  287.07   19.50
   5   6  -1  294.07   21.00
   5   6  -1  307.37   19.30
  -5  -6   1  337.97   19.10
  -5  -6   1  266.57   19.80
  -5  -6   1  308.87   18.30
  -5  -6   1  304.97   18.50
  -5  -6   1  287.57   22.00
   4   6  -1  830.82   44.80
   4   6  -1  869.51   46.40
   4   6  -1  766.22   44.60
  -4  -6   1  866.41   44.80
  -4  -6   1  769.62   43.80
  -4  -6   1  715.53   46.00
  -4  -6   1  845.92   44.30
  -4  -6   1  813.72   43.90
  -4  -6   1  839.82   43.60
   3   6  -1   85.49   17.80
   3   6  -1   81.19    9.60
   3   6  -1  101.09    9.40
  -3  -6   1   72.99    7.60
  -3  -6   1   86.39    5.90
  -3  -6   1   76.89    8.40
  -3  -6   1   79.19    7.00
  -3  -6   1   80.19    6.90
  -3  -6   1   74.79   10.50
   2   6  -1  317.17   18.30
   2   6  -1  263.57   18.30
   2   6  -1  307.97   21.80
   2   6  -1  307.57   18.80
  -2  -6   1  286.87   19.70
  -2  -6   1  303.37   16.50
  -2  -6   1  298.67   17.60
  -2  -6   1  284.97   18.50
  -2  -6   1  297.67   17.00
   1   6  -1  231.28   14.90
   1   6  -1  222.98   17.40
   1   6  -1  242.98   14.70
   1   6  -1  231.48   15.00
  -1  -6   1  224.28   17.50
  -1  -6   1  188.78   13.50
  -1  -6   1  216.48   14.60
  -1  -6   1  223.08   12.50
   0   6  -1   80.39    9.00
   0   6  -1   90.09   11.70
   0   6  -1   87.39    8.60
   0   6  -1   94.79    9.40
   0  -6   1   76.79   15.20
   0  -6   1   78.09    5.20
   0  -6   1   80.69    7.70
   0  -6   1   72.09    7.40
  -1   6  -1  509.85   30.10
  -1   6  -1  497.65   28.70
   1  -6   1  477.65   27.00
   1  -6   1  516.75   27.70
   1  -6   1  511.85   28.80
  -2   6  -1  122.39   10.10
  -2   6  -1  121.79   12.10
  -2   6  -1  111.89   12.20
   2  -6   1  148.69    7.70
  -3   6  -1  127.09   12.30
  -3   6  -1  130.99   10.60
   3  -6   1  149.59    8.80
   3  -6   1  144.49    8.30
  -4   6  -1   81.39    8.10
   4  -6   1   68.09    8.80
   4  -6   1   72.69    5.80
  -5   6  -1    4.80    1.60
   8   5  -1   57.49    6.70
   8   5  -1   45.70    7.10
  -8  -5   1   43.40    5.20
  -8  -5   1   50.59    5.60
   7   5  -1    6.80    6.90
   7   5  -1    7.80    5.10
   7   5  -1   10.00    6.00
  -7  -5   1    5.10    4.20
  -7  -5   1   10.00    5.20
  -7  -5   1    9.00    4.10
   6   5  -1   91.69    9.20
   6   5  -1   69.79    9.20
   6   5  -1   90.69   11.30
   6   5  -1   94.09   11.90
  -6  -5   1   87.89    8.20
  -6  -5   1   75.09   10.50
  -6  -5   1   83.19    9.70
   5   5  -1 1420.36   75.59
   5   5  -1 1412.56   75.09
  -5  -5   1 1349.47   76.79
  -5  -5   1 1375.56   75.89
  -5  -5   1 1476.15   75.19
   4   5  -1   37.00    6.00
   4   5  -1   37.60    7.60
   4   5  -1   35.60    5.20
   4   5  -1   26.20    6.10
  -4  -5   1   40.70    6.90
  -4  -5   1   29.40    5.50
  -4  -5   1   36.10    5.80
  -4  -5   1   30.50    5.40
  -4  -5   1   36.20    5.70
  -4  -5   1   32.80    5.70
  -4  -5   1   33.10    9.60
   3   5  -1  348.17   19.90
   3   5  -1  366.26   21.00
   3   5  -1  316.17   21.60
  -3  -5   1  369.96   20.00
  -3  -5   1  365.06   22.10
  -3  -5   1  367.06   21.30
  -3  -5   1  347.17   20.90
  -3  -5   1  393.16   19.90
  -3  -5   1  360.76   20.20
   2   5  -1  650.53   38.40
   2   5  -1  685.43   38.20
   2   5  -1  734.43   37.30
  -2  -5   1  678.03   37.20
  -2  -5   1  696.93   38.70
  -2  -5   1  683.63   37.80
  -2  -5   1  723.33   37.00
   1   5  -1   39.20    5.50
  -1  -5   1   27.70    4.10
  -1  -5   1   36.70    3.00
  -1  -5   1   25.90    4.60
  -1  -5   1   39.30    6.30
   0   5  -1   33.00    7.60
   0  -5   1   15.20    2.80
   0  -5   1   23.00    3.90
   0  -5   1   22.60    2.50
   1  -5   1   21.80    3.10
   1  -5   1   20.00    2.10
  -2   5  -1   29.80    7.00
   2  -5   1   29.50    3.60
   2  -5   1   28.70    2.40
   2  -5   1   23.20    4.00
  -3   5  -1  369.16   22.80
  -3   5  -1  377.96   23.90
  -3   5  -1  355.86   22.20
   3  -5   1  377.46   20.40
   3  -5   1  373.36   21.40
   3  -5   1  393.16   22.80
   3  -5   1  373.86   20.10
  -4   5  -1  305.07   20.70
  -4   5  -1  300.17   17.80
  -4   5  -1  308.07   18.90
   4  -5   1  332.77   17.10
   4  -5   1  275.77   18.60
   4  -5   1  332.27   16.90
  -5   5  -1   25.20    6.60
  -5   5  -1   28.40    4.00
   5  -5   1   34.20    3.70
  -6   5  -1   85.89    6.60
  -6   5  -1   90.19    6.10
   9   4  -1  170.78   10.30
  -9  -4   1  166.58    9.70
  -9  -4   1  158.98    9.80
   8   4  -1   21.10    6.40
   8   4  -1   44.70    6.70
  -8  -4   1   31.40    5.20
  -8  -4   1   36.00    5.00
   7   4  -1  288.77   17.90
   7   4  -1  269.87   18.40
   7   4  -1  269.57   18.80
   7   4  -1  285.97   25.70
   7   4  -1  260.07   18.20
   7   4  -1  279.17   18.40
  -7  -4   1  311.57   17.40
  -7  -4   1  309.57   17.60
   6   4  -1  740.23   44.50
   6   4  -1  782.02   42.50
   6   4  -1  835.82   43.40
   6   4  -1  773.52   43.00
   6   4  -1  813.72   42.90
   6   4  -1  800.12   42.50
  -6  -4   1  767.92   42.40
  -6  -4   1  754.82   42.90
  -6  -4   1  738.73   42.60
   5   4  -1  594.84   31.90
   5   4  -1  599.34   33.50
   5   4  -1  573.94   32.40
   5   4  -1  557.34   32.50
   5   4  -1  596.84   32.30
   5   4  -1  597.94   32.60
   5   4  -1  566.24   34.40
  -5  -4   1  563.94   33.20
  -5  -4   1  570.74   32.70
  -5  -4   1  599.44   32.30
   4   4  -1 1213.88   64.19
   4   4  -1 1115.79   65.09
   4   4  -1 1219.38   63.89
   4   4  -1 1174.98   64.29
   4   4  -1 1259.77   64.49
   4   4  -1 1238.08   63.79
  -4  -4   1 1112.59   64.59
  -4  -4   1 1173.58   63.69
  -4  -4   1 1241.28   63.59
  -4  -4   1 1223.98   64.99
  -4  -4   1 1233.48   64.29
  -4  -4   1 1176.08   63.59
   3   4  -1 1037.40   55.29
  -3  -4   1 1021.10   54.69
  -3  -4   1 1048.20   55.89
  -3  -4   1 1049.59   54.59
  -3  -4   1 1037.90   57.19
  -3  -4   1  986.90   54.79
   2   4  -1  162.28   10.70
   2   4  -1  163.68   10.20
   2   4  -1  171.58    9.60
  -2  -4   1  164.48    9.20
  -2  -4   1  150.78    9.60
  -2  -4   1  164.98   10.30
  -2  -4   1  170.98   11.50
  -2  -4   1  160.48    9.50
   1   4  -1  336.07   17.20
   1   4  -1  338.27   18.30
   1   4  -1  337.47   18.00
  -1  -4   1  309.57   19.00
  -1  -4   1  299.67   17.10
  -1  -4   1  303.67   18.90
  -1  -4   1  291.37   17.00
   0   4  -1  227.68   13.30
   0   4  -1  204.48   12.70
   0  -4   1  218.58   12.00
   0  -4   1  222.08   11.80
  -1   4  -1   76.79    7.20
  -1   4  -1   76.29    6.40
   1  -4   1   91.09    5.30
   1  -4   1   91.19    5.00
   1  -4   1   90.29    5.30
  -2   4  -1  636.94   37.70
  -2   4  -1  703.93   37.10
   2  -4   1  678.43   36.00
   2  -4   1  670.93   36.10
   2  -4   1  694.73   35.80
  -3   4  -1  237.38   15.10
  -3   4  -1  228.78   15.60
  -3   4  -1  242.88   15.10
  -3   4  -1  222.08   19.10
   3  -4   1  256.07   13.70
   3  -4   1  252.37   13.80
   3  -4   1  264.67   13.30
  -4   4  -1  480.15   26.90
  -4   4  -1  487.45   29.50
  -4   4  -1  479.35   27.80
   4  -4   1  499.15   26.80
   4  -4   1  447.16   26.30
   4  -4   1  473.25   26.90
   4  -4   1  502.25   25.70
  -5   4  -1  237.78   16.00
  -5   4  -1  237.78   14.50
   5  -4   1  254.97   13.40
   5  -4   1  227.88   14.80
   5  -4   1  239.28   14.90
   5  -4   1  261.97   13.80
  -6   4  -1   21.50    5.40
  -6   4  -1   22.20    3.50
   6  -4   1   24.00    3.40
   6  -4   1   35.60    6.80
  -7   4  -1   72.29    6.10
  -7   4  -1   80.19    4.90
   7  -4   1   53.39    9.50
   9   3  -1   71.69    7.40
   9   3  -1   80.69    6.50
  -9  -3   1   74.49    5.40
  -9  -3   1   76.09    5.60
   8   3  -1    9.50    4.90
   8   3  -1    6.60    5.70
   8   3  -1    4.10    3.50
   8   3  -1    9.30    4.70
   8   3  -1   15.30    6.40
  -8  -3   1    8.50    4.10
  -8  -3   1   14.70    3.70
   7   3  -1  297.87   18.40
   7   3  -1  318.67   19.70
   7   3  -1  307.47   18.30
   7   3  -1  314.57   19.30
   7   3  -1  291.97   18.80
   7   3  -1  304.47   19.20
  -7  -3   1  321.67   18.60
  -7  -3   1  321.67   18.40
   6   3  -1   97.89    8.20
   6   3  -1   93.69    7.60
   6   3  -1  107.69    9.70
   6   3  -1   97.59    7.60
   6   3  -1  100.29    9.00
  -6  -3   1   82.39   11.20
  -6  -3   1   77.99   11.30
  -6  -3   1   91.49   12.30
   5   3  -1   97.99    7.40
   5   3  -1  101.89    6.70
   5   3  -1   95.09    8.60
   5   3  -1   83.29   12.40
   5   3  -1  104.29    7.40
   5   3  -1  110.49    8.20
  -5  -3   1   91.19    7.70
  -5  -3   1   88.69    9.00
  -5  -3   1   91.09    9.80
   4   3  -1  190.08   11.70
   4   3  -1  181.88   13.40
   4   3  -1  183.08   10.80
   4   3  -1  194.98   11.10
   4   3  -1  167.68   12.20
   4   3  -1  184.58   11.70
  -4  -3   1  169.38   12.30
  -4  -3   1  191.18   11.50
  -4  -3   1  207.28   11.80
  -4  -3   1  184.38   11.10
  -4  -3   1  194.08   15.60
   3   3  -1  117.49    8.80
   3   3  -1  120.19    7.90
   3   3  -1  119.19    7.30
   3   3  -1  118.89    8.40
   3   3  -1  114.79    7.60
  -3  -3   1  128.39    8.10
  -3  -3   1  121.59    9.50
  -3  -3   1  118.99    7.10
  -3  -3   1  120.39    7.50
   2   3  -1  378.56   21.80
   2   3  -1  372.46   21.90
   2   3  -1  392.56   21.60
   2   3  -1  410.66   22.50
   2   3  -1  378.06   22.20
  -2  -3   1  428.76   22.40
  -2  -3   1  397.76   21.50
  -2  -3   1  434.96   23.10
  -2  -3   1  428.06   22.90
  -2  -3   1  406.16   21.60
  -2  -3   1  393.16   21.60
   1   3  -1   80.69    5.40
   1   3  -1   75.19    5.20
   1   3  -1   72.49    5.60
   1   3  -1   74.99    4.60
  -1  -3   1   77.39    5.90
  -1  -3   1   75.59    4.30
  -1  -3   1   78.49    5.30
  -1  -3   1   63.99    5.10
  -1  -3   1   76.29    4.40
   0   3  -1  213.68   13.10
   0   3  -1  217.08   13.50
   0  -3   1  249.78   12.70
   0  -3   1  249.97   12.50
   0  -3   1  241.98   16.00
   0  -3   1  232.98   12.70
   1  -3   1   27.60    2.60
   1  -3   1   31.30    2.30
   1  -3   1   30.00    2.00
  -2   3  -1   24.80    5.00
   2  -3   1   28.20    2.60
   2  -3   1   24.40    3.10
   2  -3   1   28.50    2.10
  -3   3  -1  724.83   36.30
   3  -3   1  624.84   35.30
   3  -3   1  662.13   35.10
   3  -3   1  640.44   35.50
  -4   3  -1  821.52   45.50
  -4   3  -1  801.52   45.10
  -4   3  -1  823.62   46.00
  -4   3  -1  806.12   45.70
   4  -3   1  851.71   44.70
   4  -3   1  859.61   44.40
   4  -3   1  848.42   44.00
  -5   3  -1  140.19    9.60
  -5   3  -1  136.99   10.80
   5  -3   1  121.69   10.20
   5  -3   1  133.99    7.90
   5  -3   1  136.69    9.10
   5  -3   1  133.89    8.40
   6  -3   1   28.70    6.20
   6  -3   1   27.40    4.20
   6  -3   1   26.80    3.50
   6  -3   1   21.00    4.60
  -7   3  -1   65.89    6.70
  -7   3  -1   65.79    5.00
   7  -3   1   81.89    7.60
   7  -3   1   66.19    6.00
   9   2  -1   13.80    3.00
   9   2  -1   17.30    4.00
  -9  -2   1   16.80    2.70
   8   2  -1  417.06   24.50
   8   2  -1  373.36   25.00
   8   2  -1  381.76   23.80
   8   2  -1  435.46   23.90
   8   2  -1  399.26   23.80
  -8  -2   1  472.35   23.50
  -8  -2   1  463.15   23.90
  -8  -2   1  409.46   23.60
   7   2  -1   14.50    4.20
   7   2  -1   16.20    3.30
   7   2  -1   26.80    5.60
   7   2  -1   18.40    4.20
   7   2  -1   22.20    3.20
   7   2  -1   22.30    4.30
  -7  -2   1   23.20    5.90
  -7  -2   1   36.10    6.30
  -7  -2   1   31.70    6.30
  -7  -2   1   22.30    4.10
   6   2  -1   10.70    2.60
   6   2  -1    9.20    3.20
   6   2  -1   13.50    6.10
   6   2  -1    8.20    3.10
   6   2  -1    8.60    3.00
   6   2  -1    6.80    2.20
  -6  -2   1   14.80    4.00
  -6  -2   1   12.10    6.60
   5   2  -1    7.40    1.80
   5   2  -1   -0.10    7.60
   5   2  -1    6.40    3.00
   5   2  -1    8.80    2.80
   5   2  -1   10.60    2.20
   5   2  -1    8.70    2.60
  -5  -2   1    4.60    2.50
  -5  -2   1    5.80    4.30
  -5  -2   1    5.60    4.70
  -5  -2   1    6.30    4.60
   4   2  -1   25.40    2.80
   4   2  -1   30.40    3.30
   4   2  -1   24.90    4.30
   4   2  -1   27.80    4.00
   4   2  -1   28.30    5.80
  -4  -2   1   25.80    6.90
  -4  -2   1   24.00    7.80
  -4  -2   1   30.50    3.90
   3   2  -1 1167.98   61.79
   3   2  -1 1167.48   60.79
   3   2  -1 1142.19   61.09
   3   2  -1 1144.19   60.69
   3   2  -1 1110.59   60.89
  -3  -2   1 1033.30   60.49
  -3  -2   1 1247.38   61.39
  -3  -2   1 1144.79   61.69
  -3  -2   1 1177.48   63.19
   2   2  -1  184.48   10.80
   2   2  -1  187.68   10.80
   2   2  -1  175.38   10.20
   2   2  -1  180.58   10.20
   2   2  -1  179.68   10.50
  -2  -2   1  180.28   10.00
  -2  -2   1  187.88   11.00
  -2  -2   1  185.58   11.30
  -2  -2   1  195.28   10.60
   1   2  -1  377.16   20.60
   1   2  -1  383.86   21.00
   1   2  -1  371.16   20.80
   1   2  -1  367.76   21.00
   1   2  -1  332.87   20.60
  -1  -2   1  391.16   20.50
  -1  -2   1  418.26   20.50
  -1  -2   1  432.16   21.10
  -1  -2   1  407.16   21.00
   0   2  -1 6077.29  318.77
  -1   2  -1  161.28    9.30
  -1   2  -1  167.88    9.80
   1  -2   1  163.98    8.90
   1  -2   1  173.98   11.30
   1  -2   1  164.38    9.10
  -2   2  -1  797.12   41.40
  -2   2  -1  741.23   41.30
   2  -2   1  748.53   43.70
   2  -2   1  797.82   41.10
   2  -2   1  781.62   40.80
  -3   2  -1  117.89   10.30
  -3   2  -1  129.69    7.70
   3  -2   1  121.49    7.40
   3  -2   1  134.89    7.00
   3  -2   1  101.39    8.20
  -4   2  -1  228.58   14.40
  -4   2  -1  234.68   13.60
  -4   2  -1  229.38   13.80
   4  -2   1  202.08   14.70
   4  -2   1  217.38   12.80
   4  -2   1  226.48   12.90
   4  -2   1  226.68   12.50
  -5   2  -1  126.99    9.70
  -5   2  -1  141.09    9.30
  -5   2  -1  120.09   10.60
  -5   2  -1  132.59    9.70
   5  -2   1  132.99    8.90
   5  -2   1  134.29    8.60
   5  -2   1  128.79   10.30
   5  -2   1  129.19    7.80
  -6   2  -1  174.38   12.70
  -6   2  -1  171.38   11.00
  -6   2  -1  151.08   11.30
  -6   2  -1  158.78   11.10
   6  -2   1  177.68   11.60
   6  -2   1  181.08   12.30
   6  -2   1  171.78   10.50
   6  -2   1  177.38   10.00
  -7   2  -1   12.60    2.70
  -7   2  -1   14.00    3.70
   7  -2   1   23.00    4.70
   7  -2   1   12.30    2.80
  -8   2  -1   10.80    2.50
   8  -2   1    7.40    2.50
   8  -2   1    9.20    2.90
   9   1  -1   29.60    6.00
   9   1  -1   35.10    3.90
  -9  -1   1   24.00    4.30
   8   1  -1   69.09    7.30
   8   1  -1   77.99    7.90
   8   1  -1   57.39    9.60
   8   1  -1   61.89    7.60
  -8  -1   1   72.29    6.70
  -8  -1   1   84.29    7.40
   7   1  -1   86.69    9.40
   7   1  -1   99.39    9.40
   7   1  -1   74.59    9.60
   7   1  -1   82.89    6.70
   7   1  -1   76.49   11.50
   7   1  -1   79.49    7.30
  -7  -1   1   71.29    8.40
  -7  -1   1   80.99    7.60
  -7  -1   1   87.99    7.70
  -7  -1   1   80.39    8.70
   6   1  -1  150.28    9.90
   6   1  -1  145.39   10.50
   6   1  -1  156.98    9.20
   6   1  -1  162.58   10.80
   6   1  -1  167.28   11.30
   6   1  -1  137.39   14.50
  -6  -1   1  149.88   11.80
  -6  -1   1  153.68   12.00
  -6  -1   1  138.39   10.80
  -6  -1   1  137.49   11.10
  -6  -1   1  160.08   10.80
   5   1  -1  184.48   10.80
   5   1  -1  184.58   11.90
   5   1  -1  165.28   12.10
   5   1  -1  167.68   14.80
   5   1  -1  184.68   11.30
   5   1  -1  183.08   10.90
  -5  -1   1  200.28   11.70
  -5  -1   1  186.88   12.90
  -5  -1   1  185.68   16.80
  -5  -1   1  196.98   18.50
   4   1  -1  435.86   26.70
   4   1  -1  496.25   25.90
   4   1  -1  516.15   27.20
   4   1  -1  501.25   26.60
   4   1  -1  500.45   26.10
  -4  -1   1  486.55   26.70
  -4  -1   1  426.46   28.30
   3   1  -1  250.07   14.20
   3   1  -1  245.48   13.70
   3   1  -1  260.37   13.90
   3   1  -1  236.78   14.00
   3   1  -1  255.47   14.50
   3   1  -1  253.27   15.90
  -3  -1   1  271.87   14.30
  -3  -1   1  245.98   14.60
  -3  -1   1  246.08   15.40
  -3  -1   1  250.17   16.30
   2   1  -1  786.72   43.70
   2   1  -1  847.22   44.00
   2   1  -1  831.22   43.60
   2   1  -1  872.01   44.70
   2   1  -1  793.02   43.80
   2   1  -1  769.42   43.50
  -2  -1   1  851.61   44.00
  -2  -1   1  829.32   45.10
  -2  -1   1  842.62   43.80
   1   1  -1 1398.46   77.99
   1   1  -1 1498.65   77.79
   1   1  -1 1365.36   77.79
   1   1  -1 1490.35   78.09
  -1  -1   1 1456.35   77.89
  -1  -1   1 1586.14   78.09
  -1  -1   1 1550.34   78.09
  -1  -1   1 1509.95   77.79
   0   1  -1 1831.62   93.69
   0  -1   1 1719.13   93.39
   0  -1   1 1796.32   93.49
  -1   1  -1  910.01   44.70
  -1   1  -1  921.91   43.80
   1  -1   1  774.42   44.60
   1  -1   1  744.13   43.50
   1  -1   1  793.52   43.70
  -2   1  -1 1810.72   98.29
  -2   1  -1 1953.30   99.59
   2  -1   1 1878.31   99.79
   2  -1   1 1811.62   98.09
   2  -1   1 1913.81   97.89
   2  -1   1 1830.02   97.99
  -3   1  -1 1151.38   58.99
  -3   1  -1 1205.08   60.99
   3  -1   1 1085.09   58.39
   3  -1   1 1153.18   63.89
   3  -1   1 1052.69   58.69
   3  -1   1 1019.30   58.59
   3  -1   1 1164.58   65.49
   3  -1   1 1040.60   58.39
  -4   1  -1   18.20    7.60
   4  -1   1   11.20    1.70
   4  -1   1   10.80    2.80
   4  -1   1    8.90    1.90
   4  -1   1   10.40    2.00
   4  -1   1    7.30    3.50
  -5   1  -1   23.50    3.90
  -5   1  -1   21.50    3.70
   5  -1   1   19.90    2.80
   5  -1   1   15.70    2.70
   5  -1   1   16.20    2.60
   5  -1   1   15.40    3.30
   5  -1   1   28.90    9.90
  -6   1  -1   60.29    6.60
  -6   1  -1   63.19    6.70
  -6   1  -1   67.69    6.80
   6  -1   1   64.59    5.00
   6  -1   1   56.49    8.80
   6  -1   1   65.59    7.80
   6  -1   1   64.69    5.80
   6  -1   1   67.79    6.80
  -7   1  -1  214.88   13.10
  -7   1  -1  234.08   14.90
  -7   1  -1  225.28   13.30
  -7   1  -1  234.18   13.40
   7  -1   1  205.38   14.40
   7  -1   1  191.08   12.70
   7  -1   1  197.38   14.90
   7  -1   1  211.28   13.30
   7  -1   1  195.88   12.40
  -8   1  -1   10.20    2.90
   8  -1   1   11.60    2.60
   8  -1   1   14.30    2.70
   9   0  -1   65.49    9.80
  -9   0   1   69.59    5.00
  -9   0   1   59.19    4.80
   8   0  -1  134.09   10.10
   8   0  -1  148.99   10.20
   8   0  -1  152.48   10.70
  -8   0   1  145.89   12.00
  -8   0   1  141.09    9.40
  -8   0   1  168.58    9.70
   7   0  -1   93.89    7.50
   7   0  -1   91.79    9.70
   7   0  -1   84.79    6.90
   7   0  -1   98.39   12.30
   7   0  -1   86.09   11.60
  -7   0   1   84.59    8.10
  -7   0   1   91.99    9.10
  -7   0   1   83.39    7.40
  -7   0   1   90.19   10.70
  -7   0   1   90.59    8.00
   6   0  -1   79.69   15.40
   6   0  -1   73.09    6.90
   6   0  -1   67.69    5.50
   6   0  -1   71.39    7.20
   6   0  -1   72.69    8.60
   6   0  -1   61.99    7.50
  -6   0   1   86.89    8.30
  -6   0   1   84.89    7.40
  -6   0   1   85.29    9.40
   5   0  -1   51.29    5.30
   5   0  -1   46.00    7.80
   5   0  -1   49.60    4.50
   5   0  -1   51.89    6.10
   5   0  -1   53.89   11.70
   5   0  -1   55.39    4.50
  -5   0   1   38.30    6.20
  -5   0   1   58.59    7.50
   4   0  -1   92.69    5.60
   4   0  -1   90.59    6.50
   4   0  -1   87.99    6.20
   4   0  -1   96.89    6.00
  -4   0   1   82.79    7.90
  -4   0   1   80.59    9.10
  -4   0   1   91.99    6.90
   3   0  -1 1113.29   64.39
   3   0  -1 1207.48   67.59
   3   0  -1 1152.38   64.79
   3   0  -1 1207.78   64.99
   3   0  -1 1152.38   64.29
   3   0  -1 1214.08   64.49
  -3   0   1 1282.67   67.79
  -3   0   1 1342.67   64.99
  -3   0   1 1263.47   64.69
  -3   0   1 1269.67   66.29
   2   0  -1   77.99    5.50
   2   0  -1   75.89    7.70
   2   0  -1   82.39    5.20
  -2   0   1  103.29    6.20
  -2   0   1  105.19    7.10
  -2   0   1  103.19    5.50
   1   0  -1  610.54   32.50
   1   0  -1  603.54   31.70
  -1   0   1  606.74   31.70
  -1   0   1  634.34   31.70
  -1   0   1  565.84   32.00
  -1   0   1  577.14   32.50
  -1   0  -1  260.07   12.70
  -1   0  -1  240.28   12.20
   1   0   1  210.18   12.60
   1   0   1  203.78   12.10
  -2   0  -1  658.43   32.60
   2   0   1  559.54   31.50
   2   0   1  588.34   31.50
   2   0   1  566.84   31.70
   2   0   1  605.34   33.70
  -3   0  -1  890.51   41.80
  -3   0  -1  783.02   42.70
   3   0   1  718.63   41.00
   3   0   1  764.42   40.90
   3   0   1  734.83   40.90
   3   0   1  753.82   41.20
   3   0   1  765.02   44.50
  -4   0  -1  528.15   30.30
  -4   0  -1  564.84   30.20
   4   0   1  505.45   27.20
   4   0   1  506.65   27.50
   4   0   1  499.85   27.30
   4   0   1  448.56   28.10
   4   0   1  504.15   27.70
  -5   0  -1  345.77   20.40
  -5   0  -1  318.07   20.30
  -5   0  -1  347.97   21.10
   5   0   1  388.36   19.70
   5   0   1  367.46   20.50
   5   0   1  382.36   20.00
   5   0   1  350.66   19.70
   5   0   1  351.46   20.40
  -6   0  -1  232.48   13.70
  -6   0  -1  243.68   14.20
  -6   0  -1  206.78   16.40
  -6   0  -1  236.78   14.50
   6   0   1  214.08   14.50
   6   0   1  211.18   16.40
   6   0   1  221.08   13.00
   6   0   1  233.18   14.00
   6   0   1  228.98   13.90
   6   0   1  226.08   14.10
   6   0   1  225.98   14.50
  -7   0  -1   60.19    6.40
  -7   0  -1   66.49    6.80
  -7   0  -1   65.19    6.40
   7   0   1   58.79    8.20
   7   0   1   52.59    5.70
   7   0   1   47.70    8.50
   7   0   1   51.99    9.10
   7   0   1   68.59    6.10
  -8   0  -1   79.09    7.00
  -8   0  -1  102.89    8.50
  -8   0  -1   89.39    6.70
  -8   0  -1   87.29    6.40
   8   0   1  103.79    7.80
   8   0   1   87.09    7.60
   8   0   1   92.59    7.90
   8   0   1  106.19   10.10
  -9   0  -1    6.20    3.30
  -9   0  -1    7.10    1.70
   9   0   1    4.90    4.10
   9   0   1   -0.50    3.00
   8  -1  -1   33.60    6.00
   8  -1  -1   37.60    7.30
  -8   1   1   34.10    8.00
  -8   1   1   33.10    4.00
  -8   1   1   35.50    4.60
   7  -1  -1  102.69    7.70
   7  -1  -1   99.29    9.10
   7  -1  -1   93.69   10.40
  -7   1   1   90.59    8.00
  -7   1   1   99.79   10.80
  -7   1   1   91.09    8.00
   6  -1  -1  405.36   24.40
   6  -1  -1  418.36   22.70
   6  -1  -1  417.16   24.40
  -6   1   1  403.96   23.90
  -6   1   1  410.66   23.50
  -6   1   1  425.56   23.40
   5  -1  -1   21.90    4.30
   5  -1  -1   26.80    6.10
   5  -1  -1   32.30    3.30
   5  -1  -1   20.30    4.80
   5  -1  -1   35.30    4.90
  -5   1   1   31.90    6.30
  -5   1   1   29.90    4.90
  -5   1   1   23.40    5.90
  -5   1   1   25.50    4.50
   4  -1  -1  200.78   13.10
   4  -1  -1  216.28   13.20
   4  -1  -1  216.28   12.60
   4  -1  -1  218.58   12.30
  -4   1   1  253.37   16.60
   3  -1  -1  810.02   40.90
   3  -1  -1  790.42   45.80
   3  -1  -1  828.72   41.20
  -3   1   1  747.73   44.70
  -3   1   1  701.13   41.50
   2  -1  -1 2114.69  110.29
   2  -1  -1 2131.99  108.89
   2  -1  -1 2137.79  111.59
  -2   1   1 1989.10  110.19
  -2   1   1 1992.60  109.19
   0  -1  -1  880.41   47.80
   0   1   1  911.11   47.40
   0   1   1  910.71   47.80
   1   1   1 6945.21  363.96
  -2  -1  -1 3288.87  188.78
  -2  -1  -1 3932.01  189.28
  -2  -1  -1 3841.12  189.38
   2   1   1 3549.54  188.88
   2   1   1 3360.96  188.88
   2   1   1 3607.94  189.18
   2   1   1 3635.84  190.08
  -3  -1  -1 1055.99   49.70
  -3  -1  -1  949.21   49.70
  -3  -1  -1  946.91   50.49
   3   1   1  860.81   48.90
   3   1   1  902.91   51.09
   3   1   1  906.21   49.30
   3   1   1  856.51   49.10
   3   1   1  925.61   49.00
  -4  -1  -1  167.38    9.90
  -4  -1  -1  144.69   11.90
  -4  -1  -1  129.49   11.50
   4   1   1  157.08    8.90
   4   1   1  153.98    8.70
   4   1   1  154.38    9.40
   4   1   1  145.89   10.20
   4   1   1  149.59   14.90
  -5  -1  -1  200.88   14.10
  -5  -1  -1  201.68   14.70
  -5  -1  -1  231.08   13.70
   5   1   1  217.98   12.60
   5   1   1  232.48   13.60
   5   1   1  226.58   12.60
   5   1   1  223.38   13.00
   5   1   1  216.38   13.50
  -6  -1  -1   52.49    9.20
  -6  -1  -1   67.69    7.30
  -6  -1  -1   65.89    8.20
  -6  -1  -1   68.89    7.30
   6   1   1   72.19    5.60
   6   1   1   82.49   10.60
   6   1   1   67.39    7.00
   6   1   1   73.39    7.60
   6   1   1   75.29    6.50
   6   1   1   74.19    7.00
  -7  -1  -1  600.44   31.70
  -7  -1  -1  561.94   31.70
  -7  -1  -1  593.34   31.40
   7   1   1  568.94   32.20
   7   1   1  589.24   31.20
   7   1   1  582.14   32.10
   7   1   1  551.74   31.40
   7   1   1  554.34   32.20
   7   1   1  568.94   32.60
   7   1   1  546.95   32.40
  -8  -1  -1   28.10    5.60
  -8  -1  -1   28.70    5.20
  -8  -1  -1   32.80    5.90
   8   1   1   37.00    6.50
   8   1   1   36.80    6.20
   8   1   1   34.60    6.00
  -9  -1  -1   27.90    4.60
  -9  -1  -1   36.70    3.90
   9   1   1   29.20    5.00
   9   1   1   30.60    4.80
   8  -2  -1    0.40    2.80
   8  -2  -1   -1.10    3.50
  -8   2   1    3.70    1.60
  -8   2   1    2.30    3.20
   7  -2  -1  109.29    7.80
   7  -2  -1  109.09   10.10
   7  -2  -1  104.79    8.20
  -7   2   1  123.99    8.60
  -7   2   1  112.79   10.90
  -7   2   1  113.09    8.50
   6  -2  -1    1.90    2.50
   6  -2  -1    3.10    4.30
   6  -2  -1    4.50    1.90
   6  -2  -1   -0.90    3.70
  -6   2   1    1.00    3.20
  -6   2   1    4.10    3.00
  -6   2   1    5.00    3.30
   5  -2  -1  847.32   44.80
   5  -2  -1  868.11   45.40
  -5   2   1  829.92   46.30
  -5   2   1  804.02   46.10
  -5   2   1  860.71   45.60
   4  -2  -1  725.73   38.80
   4  -2  -1  743.73   39.20
   4  -2  -1  736.13   39.90
  -4   2   1  675.43   39.80
  -4   2   1  776.42   46.60
   3  -2  -1  767.42   41.10
   3  -2  -1  773.02   40.60
  -3   2   1  754.22   41.20
  -3   2   1  761.42   43.70
   2  -2  -1  872.51   44.50
   2  -2  -1  871.81   48.70
   2  -2  -1  853.51   46.80
  -2   2   1  800.92   46.50
  -2   2   1  817.22   44.90
   1  -2  -1 2620.14  137.29
   1  -2  -1 2669.53  138.19
  -1   2   1 2475.65  136.09
   0  -2  -1 4321.07  228.18
   0   2   1 4314.47  227.28
   0   2   1 4361.26  227.08
  -1  -2  -1 5220.38  260.67
  -1  -2  -1 4593.64  259.97
   1   2   1 5030.70  260.27
   1   2   1 5012.80  260.17
  -2  -2  -1 1966.00  102.49
  -2  -2  -1 1850.91  101.69
  -2  -2  -1 2087.49  102.29
   2   2   1 1962.40  101.89
   2   2   1 1943.81  102.09
   2   2   1 1813.02  101.79
  -3  -2  -1   21.60    2.20
  -3  -2  -1   26.00    3.20
   3   2   1   16.30    2.30
   3   2   1   25.90    3.10
   3   2   1   22.20    3.50
   3   2   1   20.00    2.40
  -4  -2  -1 1050.19   54.79
  -4  -2  -1  907.01   52.79
  -4  -2  -1 1086.59   55.99
   4   2   1  879.91   54.09
   4   2   1  958.90   53.49
   4   2   1  974.30   55.29
   4   2   1 1065.69   53.69
   4   2   1 1021.10   53.79
   4   2   1 1051.89   52.99
  -5  -2  -1    7.60    2.40
  -5  -2  -1   16.00    5.70
  -5  -2  -1   11.80    5.10
   5   2   1    9.20    1.80
   5   2   1   11.80    2.90
   5   2   1    9.10    2.40
   5   2   1   11.90    2.30
   5   2   1    8.20    2.80
  -6  -2  -1  542.35   31.60
  -6  -2  -1  535.25   32.20
  -6  -2  -1  592.34   31.60
  -6  -2  -1  508.35   32.40
   6   2   1  588.34   31.80
   6   2   1  579.94   31.90
   6   2   1  594.14   31.00
   6   2   1  593.74   31.40
   6   2   1  598.24   31.60
   6   2   1  571.54   32.40
  -7  -2  -1   53.29    8.10
  -7  -2  -1   46.50    6.90
  -7  -2  -1   52.19    6.80
   7   2   1   53.89    6.20
   7   2   1   47.50    6.30
   7   2   1   59.29    9.10
   7   2   1   59.69    8.00
   7   2   1   57.29    8.30
   7   2   1   65.39    9.70
   7   2   1   44.10    8.40
  -8  -2  -1  108.59    8.30
  -8  -2  -1  127.39    8.70
  -8  -2  -1  115.79    9.00
   8   2   1  124.09    9.40
   8   2   1   91.19   14.00
   8   2   1  122.69    9.90
   8   2   1  108.69    9.90
   8   2   1  123.89    9.00
  -9  -2  -1  148.19   12.60
  -9  -2  -1  158.28   10.30
  -9  -2  -1  186.88   10.40
   9   2   1  204.18   15.00
   9   2   1  200.58   10.80
  -8   3   1   59.89    4.20
   7  -3  -1   67.09    9.20
   7  -3  -1   68.49    6.70
  -7   3   1   86.19    7.30
  -7   3   1   79.29    5.70
   6  -3  -1  206.48   14.70
   6  -3  -1  223.08   13.70
  -6   3   1  251.67   15.50
  -6   3   1  240.48   14.50
   5  -3  -1  574.54   31.40
   5  -3  -1  567.34   31.80
   5  -3  -1  578.24   30.70
  -5   3   1  588.44   31.60
  -5   3   1  571.54   32.40
  -5   3   1  559.14   32.10
   4  -3  -1  320.07   18.60
  -4   3   1  338.77   20.10
  -4   3   1  337.77   19.20
  -4   3   1  334.87   19.70
  -4   3   1  330.97   20.00
   3  -3  -1  794.02   45.50
  -3   3   1  912.11   46.20
   2  -3  -1  233.08   12.60
  -2   3   1  220.08   12.90
   1  -3  -1   17.10    6.70
   1  -3  -1   18.10    6.10
   1  -3  -1   13.50    1.70
   0  -3  -1  499.85   29.30
   0   3   1  509.35   27.40
   0   3   1  531.65   27.70
  -1  -3  -1  228.18   13.10
  -1  -3  -1  223.68   12.60
   1   3   1  222.38   12.10
   1   3   1  216.98   12.30
  -2  -3  -1  279.57   14.70
  -2  -3  -1  267.77   15.50
  -2  -3  -1  238.28   13.90
  -2  -3  -1  254.57   13.80
   2   3   1  255.27   14.00
   2   3   1  246.88   14.30
  -3  -3  -1 1249.57   67.69
  -3  -3  -1 1409.86   68.79
  -3  -3  -1 1227.48   67.79
   3   3   1 1337.57   68.39
   3   3   1 1243.58   67.89
   3   3   1 1190.18   68.09
   3   3   1 1338.87   67.99
  -4  -3  -1  343.27   19.70
  -4  -3  -1  320.57   20.10
  -4  -3  -1  342.17   19.50
  -4  -3  -1  377.76   20.70
   4   3   1  383.96   19.80
   4   3   1  395.66   20.50
   4   3   1  376.96   19.90
   4   3   1  330.37   20.60
   4   3   1  378.06   20.20
  -5  -3  -1  181.88   14.10
  -5  -3  -1  173.78   14.70
  -5  -3  -1  180.58   13.80
  -5  -3  -1  191.68   12.70
   5   3   1  203.28   13.80
   5   3   1  230.88   12.30
   5   3   1  218.38   11.90
   5   3   1  207.18   14.10
   5   3   1  195.58   15.70
   5   3   1  219.48   12.60
  -6  -3  -1  361.66   21.00
  -6  -3  -1  374.26   20.60
  -6  -3  -1  338.67   21.00
  -6  -3  -1  321.57   21.40
   6   3   1  347.07   21.70
   6   3   1  355.86   20.60
   6   3   1  370.26   19.80
   6   3   1  368.06   20.80
   6   3   1  304.17   25.90
   6   3   1  359.46   20.10
   6   3   1  361.86   20.60
  -7  -3  -1   13.80    6.20
  -7  -3  -1   37.30    6.50
  -7  -3  -1   36.30    6.60
   7   3   1   26.90    6.70
   7   3   1   20.80    4.20
   7   3   1   26.00    5.00
   7   3   1   14.50    4.30
   7   3   1   21.10    4.30
   7   3   1   22.30    3.70
   7   3   1   18.80    4.20
  -8  -3  -1  216.48   13.40
  -8  -3  -1  213.18   13.20
   8   3   1  209.18   15.00
   8   3   1  219.88   14.00
   8   3   1  227.28   13.90
   8   3   1  190.58   15.70
  -9  -3  -1    0.40    2.50
  -9  -3  -1    3.60    2.00
   9   3   1    1.30    2.50
  -7   4   1   50.69    5.90
  -7   4   1   50.29    4.00
   6  -4  -1   30.80    5.50
   6  -4  -1   30.70    3.80
  -6   4   1   34.90    5.30
  -6   4   1   46.60    8.00
   5  -4  -1  224.18   12.30
   5  -4  -1  216.78   14.00
  -5   4   1  217.38   14.00
  -5   4   1  225.48   14.60
   4  -4  -1  408.56   24.80
  -4   4   1  475.65   26.50
  -4   4   1  467.15   25.80
   3  -4  -1    7.50    1.90
  -3   4   1   10.00    3.40
  -3   4   1   14.00    6.60
  -3   4   1    4.20    2.90
  -3   4   1    5.00    4.40
   2  -4  -1    6.90    1.70
  -2   4   1    4.10    2.30
   1  -4  -1  319.37   19.50
  -1   4   1  412.16   20.60
   0  -4  -1  188.18   10.20
   0  -4  -1  183.98   15.20
   0  -4  -1  195.48   11.50
   0   4   1  190.28   11.10
  -1  -4  -1  453.45   24.60
  -1  -4  -1  439.56   23.70
  -1  -4  -1  418.36   23.00
  -1  -4  -1  450.65   24.80
  -1  -4  -1  450.15   22.60
   1   4   1  415.56   22.70
   1   4   1  379.06   23.30
   1   4   1  392.06   23.00
  -2  -4  -1   81.69    5.00
  -2  -4  -1   82.29    6.00
  -2  -4  -1   77.19    5.30
   2   4   1   85.29    5.30
   2   4   1   86.89    5.90
  -3  -4  -1   59.29    4.70
  -3  -4  -1   55.19    3.90
  -3  -4  -1   55.59    4.20
  -3  -4  -1   51.79    5.20
  -4  -4  -1  456.85   24.80
  -4  -4  -1  474.55   26.00
  -4  -4  -1  474.95   24.70
  -4  -4  -1  429.16   25.00
   4   4   1  445.46   24.90
   4   4   1  459.35   25.60
  -5  -4  -1   77.39    7.70
  -5  -4  -1   74.29   11.80
  -5  -4  -1   68.79    8.50
  -5  -4  -1   64.79    9.00
  -5  -4  -1   69.09    6.60
   5   4   1   89.79   11.90
   5   4   1   80.79    6.50
   5   4   1   82.09   11.20
   5   4   1   76.09    5.80
   5   4   1   71.39    9.50
  -6  -4  -1   22.60    5.20
  -6  -4  -1   16.10    4.40
  -6  -4  -1   15.30    4.30
   6   4   1   17.40    5.50
   6   4   1   16.60    3.60
   6   4   1   16.30    3.60
   6   4   1   11.70    5.00
   6   4   1   12.00    4.30
  -7  -4  -1  408.06   23.90
  -7  -4  -1  396.86   24.20
  -7  -4  -1  413.06   24.40
   7   4   1  439.56   26.20
   7   4   1  439.96   24.70
   7   4   1  406.96   24.20
   7   4   1  442.36   24.50
  -8  -4  -1   -0.40    3.20
   8   4   1   -5.80    5.60
  -9  -4  -1   18.20    3.40
  -9  -4  -1   15.50    2.80
   9   4   1   24.40    4.70
  -6   5   1    4.10    2.00
  -6   5   1    4.20    1.80
  -5   5   1  197.38   12.80
  -5   5   1  212.88   13.50
  -4   5   1  105.19    8.60
  -4   5   1   93.99   11.10
  -4   5   1  102.59    8.70
  -4   5   1   98.69   11.60
  -3   5   1  554.24   32.50
  -3   5   1  532.85   31.70
  -3   5   1  584.44   31.80
  -2   5   1  532.15   29.50
  -2   5   1  513.85   30.50
  -2   5   1  518.05   29.40
   1  -5  -1   53.39    3.70
  -1   5   1   56.69    7.00
  -1   5   1   51.39   10.90
  -1   5   1   58.09    5.70
   0  -5  -1  316.57   16.50
   0  -5  -1  323.97   18.00
   0   5   1  277.27   17.70
  -1  -5  -1    8.20    1.30
  -1  -5  -1    9.00    2.60
   1   5   1   15.70    4.20
  -2  -5  -1   11.60    2.30
   2   5   1    8.00    2.80
   2   5   1    7.10    3.00
   2   5   1    6.40    2.30
  -3  -5  -1  831.22   44.40
  -3  -5  -1  862.21   44.60
  -3  -5  -1  817.22   44.70
  -3  -5  -1  846.62   45.90
   3   5   1  856.81   44.60
   3   5   1  868.21   45.20
   3   5   1  766.22   45.70
  -4  -5  -1    9.30    5.20
  -4  -5  -1    7.90    2.20
  -4  -5  -1   10.80    2.20
  -4  -5  -1    7.20    2.40
  -4  -5  -1    4.30    5.00
   4   5   1   13.10    5.30
   4   5   1   26.30    7.90
   4   5   1   11.50    4.00
   4   5   1    5.30    2.40
   4   5   1    5.90    3.00
  -5  -5  -1   18.50    7.50
  -5  -5  -1   14.80    3.40
  -5  -5  -1    9.00    4.90
  -5  -5  -1   19.50    5.40
  -5  -5  -1   18.40    3.20
  -5  -5  -1   13.20    4.60
  -5  -5  -1   11.70    3.00
   5   5   1   23.50    6.50
   5   5   1   23.00    5.50
   5   5   1   17.90    3.00
   5   5   1   11.90    4.80
   5   5   1   22.90    5.20
  -6  -5  -1   92.99    8.90
  -6  -5  -1  108.39    9.10
  -6  -5  -1   96.29   10.80
  -6  -5  -1   88.49    9.80
   6   5   1   96.79    8.80
   6   5   1  108.19    8.80
   6   5   1   91.49   10.50
   6   5   1  114.89   11.10
  -7  -5  -1   32.90    4.90
  -7  -5  -1   21.70    7.90
  -7  -5  -1   39.30    7.70
  -7  -5  -1   36.50    5.00
   7   5   1   21.70    5.80
   7   5   1   24.80    5.10
   7   5   1   33.60    5.20
   7   5   1   31.10    6.10
  -8  -5  -1   20.90    3.30
  -8  -5  -1   27.20    5.00
   8   5   1   39.00    8.10
   8   5   1   29.10    6.00
   8   5   1   28.90    9.10
  -9  -5  -1    6.10    2.10
   9   5   1    6.90    2.70
  -5   6   1   92.59    6.90
  -4   6   1  240.48   14.40
  -4   6   1  201.78   15.30
   3  -6  -1   94.19   10.90
  -3   6   1   90.59   11.30
  -3   6   1   93.19    9.60
  -3   6   1   95.29    8.40
   2  -6  -1  177.28   10.10
   2  -6  -1  182.38   13.10
  -2   6   1  183.08   12.20
  -2   6   1  186.78   13.80
  -2   6   1  177.88   13.20
   1  -6  -1  261.47   15.90
   1  -6  -1  255.97   13.50
   1  -6  -1  264.47   14.80
  -1   6   1  228.58   15.40
  -1   6   1  235.08   17.00
  -1   6   1  234.88   15.80
   0  -6  -1   18.30    6.10
   0  -6  -1   19.00    3.20
   0  -6  -1   20.40    2.30
   0  -6  -1   23.90    4.60
   0   6   1   17.60    5.40
   0   6   1   13.10    3.80
  -1  -6  -1   11.70    2.30
  -1  -6  -1   18.10    2.20
  -1  -6  -1   14.60    4.00
   1   6   1   16.10    3.20
   1   6   1   20.50    5.40
  -2  -6  -1    5.00    1.30
  -2  -6  -1    4.00    2.20
  -2  -6  -1    7.60    2.50
  -2  -6  -1    9.70    7.50
  -2  -6  -1    6.20    1.90
   2   6   1   11.40    4.00
   2   6   1   10.70    6.50
   2   6   1    8.30    4.80
   2   6   1    0.70    3.00
  -3  -6  -1  308.07   19.00
  -3  -6  -1  318.07   17.80
  -3  -6  -1  328.47   17.60
  -3  -6  -1  310.37   19.10
  -3  -6  -1  317.07   17.10
  -3  -6  -1  316.77   20.10
   3   6   1  305.37   19.00
   3   6   1  295.27   17.70
   3   6   1  306.67   19.20
   3   6   1  281.77   22.80
   3   6   1  323.67   18.70
  -4  -6  -1  285.67   15.50
  -4  -6  -1  303.57   16.20
  -4  -6  -1  289.07   17.60
  -4  -6  -1  271.87   17.50
  -4  -6  -1  300.67   16.10
   4   6   1  244.18   16.20
   4   6   1  254.97   16.60
   4   6   1  259.37   17.70
  -5  -6  -1   18.30    3.70
  -5  -6  -1   15.40    4.50
  -5  -6  -1   15.60    3.20
  -5  -6  -1   22.90    9.40
  -5  -6  -1   13.20    4.60
  -5  -6  -1    9.50    5.00
  -5  -6  -1   15.30    3.00
   5   6   1   15.60    4.40
   5   6   1   16.70    4.20
   5   6   1   22.60    4.70
   5   6   1   19.00    4.60
   5   6   1   10.30    7.10
  -6  -6  -1   60.19   11.20
  -6  -6  -1   55.69    7.40
  -6  -6  -1   35.50    9.90
  -6  -6  -1   58.39    7.60
   6   6   1   50.99    9.00
   6   6   1   43.50    6.20
   6   6   1   43.30    8.50
   6   6   1   34.70    6.40
  -7  -6  -1   62.49    8.90
   7   6   1   84.69   10.70
  -8  -6  -1    7.30    3.00
  -8  -6  -1    9.60    3.20
   8   6   1   10.40    3.50
   8   6   1   17.10    3.90
  -3   7   1   46.90    6.00
   2  -7  -1  399.66   22.20
   2  -7  -1  375.66   23.60
  -2   7   1  403.56   24.30
  -2   7   1  459.45   24.20
   1  -7  -1   -3.80    3.20
   1  -7  -1    2.20    1.90
   1  -7  -1    2.50    4.60
  -1   7   1    6.20    6.30
  -1   7   1   -1.30    4.20
   0  -7  -1  210.28   14.00
   0  -7  -1  247.78   16.30
   0  -7  -1  252.47   13.40
   0   7   1  222.78   16.20
   0   7   1  246.78   15.60
   0   7   1  254.27   16.50
  -1  -7  -1   19.00    4.00
  -1  -7  -1   15.40    4.00
  -1  -7  -1   17.50    3.20
  -1  -7  -1   10.80    3.60
   1   7   1   18.90    5.30
  -2  -7  -1  166.78    9.60
  -2  -7  -1  173.68   10.40
  -2  -7  -1  155.28   15.50
  -2  -7  -1  155.48   11.70
  -2  -7  -1  163.28    9.20
  -2  -7  -1  152.68   12.80
   2   7   1  147.99   13.20
   2   7   1  129.39   11.30
   2   7   1  144.39   11.50
   2   7   1  155.18   13.10
  -3  -7  -1  684.93   34.90
  -3  -7  -1  654.23   36.30
  -3  -7  -1  647.94   35.70
  -3  -7  -1  685.63   34.70
  -3  -7  -1  689.93   35.20
  -3  -7  -1  646.24   37.10
   3   7   1  623.74   35.50
   3   7   1  590.74   35.50
   3   7   1  583.34   37.10
   3   7   1  625.14   37.00
  -4  -7  -1  199.48   12.00
  -4  -7  -1  190.98   14.20
  -4  -7  -1  170.88   14.40
  -4  -7  -1  182.38   14.00
  -4  -7  -1  194.58   11.90
  -4  -7  -1  209.88   12.70
   4   7   1  197.68   17.40
   4   7   1  213.48   13.50
   4   7   1  227.18   13.90
  -5  -7  -1  228.18   13.00
  -5  -7  -1  192.78   13.80
  -5  -7  -1  223.28   13.40
  -5  -7  -1  212.28   14.60
  -5  -7  -1  226.98   14.30
   5   7   1  183.68   21.10
   5   7   1  227.98   15.10
   5   7   1  222.38   14.10
   5   7   1  188.48   16.60
  -6  -7  -1  118.49   12.60
  -6  -7  -1   93.19   14.80
  -6  -7  -1  108.49    9.10
   6   7   1   73.59   14.40
   6   7   1  107.49    9.40
  -7  -7  -1   45.50    7.70
  -7  -7  -1   48.10    5.80
  -7  -7  -1   43.80    6.00
   7   7   1   31.00    5.70
  -8  -7  -1   18.40    3.80
  -8  -7  -1   16.20    3.90
   8   7   1   26.20    4.80
  -3   8   1   89.19    6.50
   1  -8  -1  355.16   22.70
  -1   8   1  413.26   26.70
  -1   8   1  399.66   23.70
   0  -8  -1  167.28   10.90
   0  -8  -1  158.38   11.60
   0  -8  -1  179.68   10.80
   0   8   1  199.78   13.40
   0   8   1  174.08   12.60
  -1  -8  -1  233.28   16.60
  -1  -8  -1  237.38   14.10
  -1  -8  -1  242.98   13.90
  -1  -8  -1  216.88   20.90
  -1  -8  -1  239.68   13.70
   1   8   1  244.58   15.90
   1   8   1  248.48   16.20
  -2  -8  -1  117.89    8.20
  -2  -8  -1  121.49    7.80
  -2  -8  -1  126.79   11.30
  -2  -8  -1  120.79    7.90
  -2  -8  -1  106.29   13.60
  -2  -8  -1  104.19   11.90
   2   8   1  105.89   10.50
   2   8   1   94.99    9.50
  -3  -8  -1   13.00    2.50
  -3  -8  -1   17.00    6.00
  -3  -8  -1   15.40    5.40
  -3  -8  -1    8.70    3.10
  -3  -8  -1   11.70    2.60
   3   8   1    9.10    3.00
   3   8   1   21.80    6.00
   3   8   1   18.50    4.00
  -4  -8  -1    8.10    2.40
  -4  -8  -1   15.10    4.90
  -4  -8  -1   10.30    2.90
  -4  -8  -1   11.50   10.80
  -4  -8  -1   11.70    4.00
   4   8   1    4.90    3.20
   4   8   1    8.60    3.90
  -5  -8  -1  102.99   10.50
  -5  -8  -1  112.19    9.10
  -5  -8  -1  113.49    9.30
  -5  -8  -1  122.09    8.60
   5   8   1  110.89    8.90
   5   8   1  116.39    9.20
  -6  -8  -1  118.19    7.80
  -6  -8  -1  106.99    8.90
   6   8   1  107.49    7.70
  -7  -8  -1    2.90    2.70
   7   8   1   -0.30    2.30
  -1   9   1   81.29    5.70
  -1   9   1   68.59    7.50
   0  -9  -1   40.30    6.40
   0  -9  -1   44.80    7.00
   0   9   1   42.90    4.90
  -1  -9  -1   62.49    6.30
  -1  -9  -1   55.09    6.80
   1   9   1   63.19    6.00
  -2  -9  -1  135.69    9.20
  -2  -9  -1  140.59   11.40
  -2  -9  -1  138.89    8.90
   2   9   1  110.89    8.70
   2   9   1  127.59    9.10
  -3  -9  -1   21.80    4.90
  -3  -9  -1   16.60    4.10
  -3  -9  -1   17.00    3.30
   3   9   1   14.90    4.10
   3   9   1   12.30    2.50
  -4  -9  -1   72.29    7.00
  -4  -9  -1   64.19    8.20
  -4  -9  -1   65.49    6.30
   4   9   1   62.69    5.70
   4   9   1   68.49    6.60
  -5  -9  -1   18.60    2.90
  -5  -9  -1    9.70    3.60
   5   9   1   16.90    2.50
   4   9  -2   -4.20    3.90
  -4  -9   2    9.90    4.00
  -4  -9   2    8.60    3.00
  -3  -9   2   14.90    2.90
  -3  -9   2   19.40    3.70
  -3  -9   2   13.10    3.00
   2   9  -2    6.90    4.50
  -2  -9   2    9.40    2.40
  -2  -9   2    9.30    4.20
  -2  -9   2    7.30    2.80
   1   9  -2   77.29    6.90
  -1  -9   2   75.99   10.30
  -1  -9   2   84.49    6.50
  -1  -9   2   99.29    6.90
   0  -9   2   80.69    6.10
   6   8  -2    3.20    2.90
  -6  -8   2    2.00    2.50
  -6  -8   2   -1.60    2.70
   5   8  -2   15.20    3.30
  -5  -8   2   25.10    4.70
  -5  -8   2   17.10    3.50
   4   8  -2   55.49    6.50
  -4  -8   2   55.19    6.60
  -4  -8   2   42.80    5.70
  -4  -8   2   37.50    7.30
  -4  -8   2   33.20    5.70
   3   8  -2   15.70    6.40
  -3  -8   2    2.80    5.80
  -3  -8   2    2.60    4.20
  -3  -8   2    8.50    3.10
  -3  -8   2    4.10    2.30
  -3  -8   2    5.20    3.50
   2   8  -2  125.59   10.90
   2   8  -2  137.39    9.50
  -2  -8   2  130.09   11.20
  -2  -8   2  131.19    8.80
  -2  -8   2  115.39   10.00
  -2  -8   2  129.69    9.00
  -2  -8   2  117.29    9.00
   1   8  -2   89.29    9.00
   1   8  -2   92.39    8.30
   1   8  -2   91.79    8.10
  -1  -8   2  105.89   10.90
  -1  -8   2   98.79    8.40
  -1  -8   2   87.99    8.40
  -1  -8   2  110.99    7.20
   0  -8   2   32.10    5.70
  -1   8  -2   60.59    6.60
  -1   8  -2   43.00    5.80
  -2   8  -2   59.99    6.40
   2  -8   2   57.69    9.20
   7   7  -2    2.40    3.60
  -7  -7   2    9.00    3.30
  -7  -7   2    1.20    4.10
  -7  -7   2    3.90    2.60
   6   7  -2    9.00    3.90
  -6  -7   2    0.50    5.60
  -6  -7   2    3.70    3.00
  -6  -7   2    0.60    3.40
   5   7  -2  201.88   14.00
  -5  -7   2  183.98   14.00
  -5  -7   2  167.78   12.30
  -5  -7   2  203.28   17.10
   4   7  -2    3.40    4.80
  -4  -7   2    8.50    5.10
  -4  -7   2    0.80    3.90
  -4  -7   2    7.70    7.20
  -4  -7   2    4.40    3.60
  -4  -7   2   -1.90    6.30
  -4  -7   2    1.40    2.80
   3   7  -2   19.10    9.80
   3   7  -2    8.90    9.40
   3   7  -2    8.70    4.60
  -3  -7   2    9.90    3.70
  -3  -7   2    4.50    5.60
  -3  -7   2   18.30    5.50
  -3  -7   2   14.40    4.00
  -3  -7   2   11.60    2.80
   2   7  -2   36.10    5.30
   2   7  -2   30.10    9.50
   2   7  -2   37.40    7.60
  -2  -7   2   40.20    4.90
  -2  -7   2   33.00    5.30
  -2  -7   2   32.70    8.60
  -2  -7   2   31.50    6.40
   1   7  -2   58.69    8.00
   1   7  -2   68.59   10.60
  -1  -7   2   49.70    5.20
  -1  -7   2   53.09   11.20
  -1  -7   2   49.50    9.30
   0   7  -2   96.19    9.70
   0   7  -2   90.39    9.40
   0   7  -2   87.89   10.80
   0  -7   2   79.89   11.10
   0  -7   2  102.99   11.60
   0  -7   2  105.59    7.80
   0  -7   2  101.59   13.70
  -1   7  -2   -3.30    4.50
   1  -7   2    4.70    2.30
   1  -7   2    5.20    8.30
  -3   7  -2   63.89    6.80
  -4   7  -2    5.80    4.30
   8   6  -2    4.50    3.60
   8   6  -2   -0.90    5.10
  -8  -6   2    8.80    2.90
  -8  -6   2    9.00    2.70
  -7  -6   2   44.20    7.80
  -7  -6   2   39.30    7.00
  -7  -6   2   37.80    5.10
   6   6  -2  167.68   17.30
   6   6  -2  205.58   16.00
   6   6  -2  224.28   15.60
  -6  -6   2  214.78   15.90
  -6  -6   2  193.58   13.20
  -6  -6   2  185.18   13.90
   5   6  -2    4.00    7.00
   5   6  -2    5.30    5.40
   5   6  -2    7.00    7.50
  -5  -6   2    3.40    4.00
  -5  -6   2    2.60    4.90
  -5  -6   2    7.10    6.50
   4   6  -2  361.76   22.30
   4   6  -2  380.46   25.30
  -4  -6   2  345.37   22.70
  -4  -6   2  374.06   21.10
  -4  -6   2  361.16   20.90
  -4  -6   2  357.16   21.30
  -4  -6   2  389.46   22.50
  -4  -6   2  357.16   20.80
  -4  -6   2  386.86   27.20
   3   6  -2   67.79   13.60
   3   6  -2   67.09    9.00
  -3  -6   2   75.39    9.90
  -3  -6   2   64.29    7.60
  -3  -6   2   61.59    7.40
  -3  -6   2   66.09    6.60
  -3  -6   2   58.79    7.10
  -3  -6   2   56.19    5.70
   2   6  -2   82.99    9.70
   2   6  -2   71.39   10.40
  -2  -6   2   81.49    6.90
  -2  -6   2   67.19    5.60
  -2  -6   2   72.49    7.50
   1   6  -2   64.79    8.80
  -1  -6   2   51.89    4.30
  -1  -6   2   61.19   12.60
  -1  -6   2   43.50    6.70
  -1  -6   2   53.29    6.50
   0   6  -2   21.70    6.70
   0   6  -2   16.40    4.70
   0   6  -2   15.80    5.80
   0  -6   2   14.20    2.70
   0  -6   2   11.90    2.50
   0  -6   2   14.70    4.30
  -1   6  -2  139.69   11.50
  -1   6  -2  123.29   12.50
  -1   6  -2  149.79   11.10
  -1   6  -2  150.38   13.60
   1  -6   2  155.58    9.40
   1  -6   2  142.19   11.50
   1  -6   2  138.99   11.80
   1  -6   2  136.39   16.60
   1  -6   2  147.09    8.40
  -2   6  -2  670.53   36.80
  -2   6  -2  631.84   38.20
   2  -6   2  685.13   35.70
   2  -6   2  616.14   38.20
   2  -6   2  707.23   36.90
   2  -6   2  648.24   35.30
  -3   6  -2   24.90    6.40
  -3   6  -2   19.90    5.80
   3  -6   2   17.70    2.30
  -4   6  -2  202.78   12.30
  -4   6  -2  178.68   13.10
   4  -6   2  214.18   12.10
   8   5  -2    5.60    3.50
  -8  -5   2   11.80    2.80
  -8  -5   2    8.20    2.70
   7   5  -2   11.50    6.50
   7   5  -2    7.40    5.20
   7   5  -2    9.00    6.70
  -7  -5   2    5.40    4.10
  -7  -5   2    6.60    5.30
  -7  -5   2    2.80    4.40
   6   5  -2   95.59   11.90
   6   5  -2  105.39   10.70
   6   5  -2   87.19   13.20
  -6  -5   2   95.79    8.80
  -6  -5   2   92.09   10.60
  -6  -5   2   92.99   10.60
   5   5  -2  517.15   31.00
   5   5  -2  513.25   31.00
   5   5  -2  506.65   29.90
  -5  -5   2  525.95   30.20
  -5  -5   2  545.35   29.70
  -5  -5   2  556.64   31.40
  -5  -5   2  527.05   34.50
   4   5  -2   -1.90    6.80
   4   5  -2    2.80    3.90
   4   5  -2    4.20    3.40
   4   5  -2    3.20    5.40
  -4  -5   2   11.30    4.00
  -4  -5   2   19.90    8.40
  -4  -5   2    7.20    3.10
  -4  -5   2    4.90    3.50
  -4  -5   2    5.60    3.30
  -4  -5   2    8.40    5.20
  -4  -5   2    4.50    2.80
   3   5  -2  144.49   11.40
   3   5  -2  134.99   12.00
   3   5  -2  130.89    9.10
   3   5  -2  126.99   16.30
  -3  -5   2  127.29    8.90
  -3  -5   2  139.29    8.50
  -3  -5   2  131.99   12.10
  -3  -5   2  127.09    9.50
  -3  -5   2  133.59    8.80
  -3  -5   2  127.49   10.00
   2   5  -2  535.25   29.50
   2   5  -2  529.55   29.50
   2   5  -2  507.55   34.80
   2   5  -2  498.05   29.70
  -2  -5   2  526.15   29.00
  -2  -5   2  525.25   28.50
  -2  -5   2  506.15   29.80
  -2  -5   2  556.84   28.70
  -2  -5   2  513.85   30.00
   1   5  -2   11.00    3.10
   1   5  -2   19.30    5.00
   1   5  -2   17.40    4.40
  -1  -5   2    9.90    2.50
  -1  -5   2    9.60    2.40
  -1  -5   2   14.80    2.80
  -1  -5   2   18.90    6.70
   0   5  -2  678.23   37.40
   0   5  -2  648.74   37.40
   0   5  -2  708.43   37.40
   0   5  -2  638.44   37.80
   0  -5   2  633.44   37.00
   0  -5   2  717.93   36.00
   0  -5   2  669.63   36.10
   0  -5   2  733.03   36.60
   0  -5   2  709.93   38.10
   0  -5   2  609.34   38.60
  -1   5  -2  410.36   23.90
  -1   5  -2  423.16   23.70
  -1   5  -2  404.06   23.40
  -1   5  -2  399.66   23.40
   1  -5   2  402.26   21.70
   1  -5   2  430.76   22.80
   1  -5   2  365.46   22.00
   1  -5   2  402.56   22.10
  -2   5  -2  261.77   16.90
  -2   5  -2  258.97   25.60
  -2   5  -2  246.58   17.20
   2  -5   2  301.97   15.40
   2  -5   2  295.17   16.10
   2  -5   2  258.87   15.60
   2  -5   2  290.17   15.00
  -3   5  -2  365.96   22.80
  -3   5  -2  361.76   20.60
   3  -5   2  299.77   19.30
   3  -5   2  354.16   19.60
   3  -5   2  334.97   18.50
   3  -5   2  338.67   18.70
  -4   5  -2   40.40    7.60
  -4   5  -2   27.80    5.80
  -4   5  -2   36.90    6.60
   4  -5   2   37.50    3.30
   4  -5   2   38.80    4.00
  -5   5  -2    0.90    1.90
   5  -5   2    1.30    1.90
   5  -5   2    1.00    1.90
  -6   5  -2   79.39    6.30
   6  -5   2   97.49   12.00
   9   4  -2   32.70    5.40
  -9  -4   2   24.70    4.00
  -9  -4   2   27.20    3.70
   8   4  -2   37.40    8.50
  -8  -4   2   49.60    5.60
  -8  -4   2   55.59    5.30
   7   4  -2    5.20    6.30
   7   4  -2   11.40    4.30
   7   4  -2   11.00    5.20
   7   4  -2    1.90    6.00
   7   4  -2   10.10    5.30
  -7  -4   2   10.00    4.30
  -7  -4   2    8.00    4.20
   6   4  -2  343.27   21.00
   6   4  -2  354.96   20.40
   6   4  -2  322.77   25.60
   6   4  -2  348.77   21.50
   6   4  -2  369.26   21.10
   6   4  -2  354.86   21.00
   6   4  -2  350.06   22.00
  -6  -4   2  325.67   21.00
  -6  -4   2  367.46   20.50
  -6  -4   2  331.57   21.50
   5   4  -2   50.69    6.60
   5   4  -2   61.89   10.10
   5   4  -2   53.39   11.00
   5   4  -2   55.19    9.60
   5   4  -2   60.19    8.00
   5   4  -2   55.29    5.90
   5   4  -2   40.60    9.20
  -5  -4   2   67.69    9.90
  -5  -4   2   53.49    7.10
  -5  -4   2   61.79    7.50
  -5  -4   2   55.89   10.10
  -5  -4   2   53.39   10.30
   4   4  -2  181.58   13.60
   4   4  -2  182.18   13.70
   4   4  -2  180.38   16.10
   4   4  -2  190.38   12.50
   4   4  -2  202.58   12.40
   4   4  -2  185.58   10.80
   4   4  -2  161.18   15.00
  -4  -4   2  178.78   11.40
  -4  -4   2  174.08   11.60
  -4  -4   2  149.99   16.30
  -4  -4   2  187.88   12.30
  -4  -4   2  173.88   11.70
  -4  -4   2  178.38   11.80
  -4  -4   2  166.88   16.20
  -4  -4   2  166.78   14.30
   3   4  -2 1398.86   75.09
   3   4  -2 1453.35   74.89
   3   4  -2 1383.46   76.19
   3   4  -2 1452.85   74.29
  -3  -4   2 1428.46   74.09
  -3  -4   2 1372.76   75.39
  -3  -4   2 1496.05   78.69
  -3  -4   2 1337.47   74.19
  -3  -4   2 1293.87   74.29
   2   4  -2  519.15   27.90
   2   4  -2  515.35   28.80
   2   4  -2  512.45   27.50
   2   4  -2  530.75   26.90
  -2  -4   2  484.55   27.90
  -2  -4   2  451.75   27.50
  -2  -4   2  513.15   27.00
  -2  -4   2  480.25   26.60
  -2  -4   2  462.25   26.90
  -2  -4   2  505.35   29.90
   1   4  -2  481.25   27.30
   1   4  -2  452.35   27.10
  -1  -4   2  524.25   26.60
  -1  -4   2  510.35   26.00
  -1  -4   2  472.45   26.10
  -1  -4   2  476.75   27.20
   0   4  -2  319.77   20.00
   0   4  -2  340.87   19.90
   0  -4   2  344.47   18.30
   0  -4   2  337.97   18.60
   0  -4   2  349.77   19.30
   0  -4   2  355.96   18.60
  -1   4  -2  305.37   18.70
  -1   4  -2  321.97   18.20
   1  -4   2  317.77   17.10
   1  -4   2  314.37   17.20
   1  -4   2  321.67   17.00
   1  -4   2  313.47   17.60
  -2   4  -2  715.03   40.40
  -2   4  -2  758.62   40.30
  -2   4  -2  675.73   39.60
  -2   4  -2  717.93   39.60
   2  -4   2  766.42   38.60
   2  -4   2  729.93   38.80
   2  -4   2  700.23   38.90
   2  -4   2  744.63   38.60
  -3   4  -2   42.10    6.30
  -3   4  -2   54.99    7.90
  -3   4  -2   50.19    7.60
  -3   4  -2   48.10    7.30
   3  -4   2   51.19    4.40
   3  -4   2   55.79    3.50
   3  -4   2   55.99    5.90
   3  -4   2   56.59    4.30
  -4   4  -2  107.29   14.40
  -4   4  -2  100.59    7.90
  -4   4  -2  103.19    9.60
   4  -4   2  110.29    6.30
   4  -4   2  115.29    6.80
   4  -4   2  105.09    7.70
   4  -4   2  108.69    8.30
  -5   4  -2  175.78   11.20
  -5   4  -2  176.48   12.80
   5  -4   2  191.68   11.40
   5  -4   2  187.98   10.50
   5  -4   2  173.98   12.40
   5  -4   2  175.38   10.20
  -6   4  -2   53.09    5.80
  -6   4  -2   51.19    4.20
   6  -4   2   53.89    7.00
   6  -4   2   45.10    5.70
   6  -4   2   50.09    4.90
  -7   4  -2  147.39    9.30
   7  -4   2  148.99   11.90
   9   3  -2   -0.90    2.90
  -9  -3   2    0.50    2.40
  -9  -3   2    3.60    2.10
   8   3  -2   14.40    4.90
   8   3  -2   12.00    4.90
   8   3  -2   14.40    7.80
   8   3  -2   18.70    6.30
  -8  -3   2   15.30    3.30
  -8  -3   2   19.50    3.70
   7   3  -2  224.08   19.80
   7   3  -2  221.28   14.40
   7   3  -2  210.88   14.60
   7   3  -2  228.98   15.50
   7   3  -2  226.98   14.10
   7   3  -2  213.68   14.90
  -7  -3   2  194.98   13.90
  -7  -3   2  199.58   13.60
  -7  -3   2  191.38   14.30
   6   3  -2  255.97   15.60
   6   3  -2  271.57   17.00
   6   3  -2  269.97   16.00
   6   3  -2  245.78   18.10
   6   3  -2  259.57   16.40
  -6  -3   2  264.77   16.60
  -6  -3   2  263.17   16.70
  -6  -3   2  272.47   16.30
   5   3  -2  156.08   10.80
   5   3  -2  152.78    9.10
   5   3  -2  156.08   10.50
   5   3  -2  152.28   13.20
   5   3  -2  149.29    9.90
  -5  -3   2  129.89    9.80
  -5  -3   2  131.69   12.00
  -5  -3   2  111.29   14.30
  -5  -3   2  133.59   10.60
  -5  -3   2  113.99   11.70
   4   3  -2  711.93   38.10
   4   3  -2  684.53   37.30
   4   3  -2  705.53   37.30
   4   3  -2  660.23   37.80
   4   3  -2  702.43   37.60
   4   3  -2  643.94   39.30
  -4  -3   2  701.73   38.10
  -4  -3   2  729.63   42.80
   3   3  -2  499.95   26.70
   3   3  -2  492.95   28.10
   3   3  -2  485.05   27.40
   3   3  -2  498.55   27.10
   3   3  -2  447.26   27.50
   3   3  -2  515.05   27.20
   3   3  -2  510.65   26.70
  -3  -3   2  449.46   26.90
  -3  -3   2  519.85   27.60
  -3  -3   2  488.75   26.40
  -3  -3   2  480.25   26.60
  -3  -3   2  524.75   30.10
   2   3  -2    3.30    2.10
   2   3  -2    2.60    3.10
   2   3  -2    3.40    2.30
   2   3  -2    5.10    2.20
   2   3  -2    1.30    1.40
  -2  -3   2    2.60    1.50
  -2  -3   2    3.20    1.30
  -2  -3   2    2.50    3.70
  -2  -3   2    3.70    1.10
  -2  -3   2    4.60    1.70
  -2  -3   2    4.10    2.70
   1   3  -2 1875.51   94.79
   1   3  -2 1873.41   95.49
   1   3  -2 1829.92   95.09
   1   3  -2 1953.30   95.69
  -1  -3   2 1752.92   95.69
  -1  -3   2 1922.21   95.29
  -1  -3   2 1681.53   95.09
  -1  -3   2 1665.63   94.79
  -1  -3   2 1674.53   94.69
   0   3  -2  136.89    9.20
   0   3  -2  144.19    8.60
   0  -3   2  144.99    8.00
   0  -3   2  151.48    7.90
   0  -3   2  138.29   12.40
   0  -3   2  143.89    8.00
  -1   3  -2  134.69   10.20
  -1   3  -2  135.09    9.20
   1  -3   2  175.98    8.70
   1  -3   2  169.78    8.80
   1  -3   2  175.68    8.90
  -2   3  -2   33.30    3.50
  -2   3  -2   31.20    6.00
   2  -3   2   31.70    2.30
   2  -3   2   30.90    2.50
   2  -3   2   28.50    2.90
   2  -3   2   26.00    5.40
  -3   3  -2  739.73   39.90
  -3   3  -2  698.23   38.90
  -3   3  -2  699.03   39.40
  -3   3  -2  769.22   38.60
   3  -3   2  694.43   37.60
   3  -3   2  641.14   38.00
   3  -3   2  718.43   37.40
   3  -3   2  684.13   37.80
  -4   3  -2  460.45   27.00
  -4   3  -2  480.65   28.30
  -4   3  -2  472.55   27.20
   4  -3   2  475.85   27.00
   4  -3   2  507.45   26.80
   4  -3   2  520.25   26.70
   4  -3   2  513.25   26.20
  -5   3  -2   37.20    5.00
  -5   3  -2   36.30    7.50
  -5   3  -2   44.90    6.60
   5  -3   2   35.20    4.10
   5  -3   2   39.40    3.30
   5  -3   2   35.80    5.40
   5  -3   2   36.60    6.40
  -6   3  -2   89.69    9.10
  -6   3  -2   92.19    6.70
   6  -3   2   78.99    6.20
   6  -3   2   76.39    5.60
   6  -3   2   73.59    7.40
  -7   3  -2  149.49    8.40
  -7   3  -2  134.49    9.40
   7  -3   2  121.69    8.80
   7  -3   2  150.78   10.20
   9   2  -2   35.50    4.70
   9   2  -2   45.70    5.70
  -9  -2   2   38.40    4.20
   8   2  -2  107.39   10.60
   8   2  -2  115.89    9.70
   8   2  -2  111.59    9.50
   8   2  -2  101.59   12.60
  -8  -2   2  112.79    9.00
   7   2  -2   25.10    4.80
   7   2  -2   30.40    6.00
   7   2  -2   29.60    6.40
   7   2  -2   43.80    8.30
   7   2  -2   47.70    8.90
   7   2  -2   37.50    6.30
  -7  -2   2   37.60    6.90
  -7  -2   2   47.40    7.60
  -7  -2   2   27.90    6.60
  -7  -2   2   40.80    6.80
   6   2  -2    9.60    2.40
   6   2  -2    9.20    3.40
   6   2  -2   10.80    6.40
   6   2  -2    7.80    3.10
   6   2  -2   10.20    3.50
   6   2  -2    4.70    2.90
  -6  -2   2   15.50    4.40
  -6  -2   2   11.20    4.90
  -6  -2   2   10.30    4.20
  -6  -2   2    7.80    4.80
  -6  -2   2    0.80   11.10
   5   2  -2   29.90    7.40
   5   2  -2   21.10    5.40
   5   2  -2   27.60    4.70
   5   2  -2   32.20    3.80
   5   2  -2   25.90    5.40
  -5  -2   2   35.60    6.80
  -5  -2   2   36.50    5.10
  -5  -2   2   31.60    5.20
  -5  -2   2   34.50    5.50
   4   2  -2  259.27   16.40
   4   2  -2  276.07   15.40
   4   2  -2  278.37   15.40
   4   2  -2  268.67   17.30
   4   2  -2  287.97   16.30
   4   2  -2  278.97   15.80
  -4  -2   2  283.87   16.30
  -4  -2   2  263.47   19.80
  -4  -2   2  283.27   19.00
   3   2  -2   66.59    5.50
   3   2  -2   69.49    4.90
   3   2  -2   65.99    5.50
   3   2  -2   67.29    6.90
   3   2  -2   68.69    4.70
   3   2  -2   61.69    6.00
  -3  -2   2   72.69    5.20
  -3  -2   2   79.19    7.60
   2   2  -2  334.87   19.20
   2   2  -2  336.27   18.90
   2   2  -2  339.17   19.40
   2   2  -2  352.66   18.90
   2   2  -2  351.36   19.60
  -2  -2   2  365.26   19.40
  -2  -2   2  359.36   18.90
  -2  -2   2  358.36   18.80
  -2  -2   2  365.96   19.60
  -2  -2   2  309.87   19.00
  -2  -2   2  380.66   20.90
   1   2  -2 4013.90  207.18
   1   2  -2 4087.69  207.58
   1   2  -2 4115.59  207.78
   1   2  -2 3914.41  207.18
   1   2  -2 3896.41  207.38
  -1  -2   2 4284.07  207.48
  -1  -2   2 3641.44  207.08
  -1  -2   2 4042.70  207.68
  -1  -2   2 3805.32  207.18
  -1  -2   2 3702.13  207.38
   0   2  -2 2704.43  137.99
   0   2  -2 2626.64  137.69
   0  -2   2 2591.94  137.29
   0  -2   2 2507.95  137.29
   0  -2   2 2660.03  137.39
  -1   2  -2  476.75   26.70
  -1   2  -2  500.35   25.80
   1  -2   2  465.75   25.30
   1  -2   2  489.85   25.50
   1  -2   2  446.86   25.40
   1  -2   2  499.55   27.70
  -2   2  -2  650.23   33.20
  -2   2  -2  644.34   32.90
   2  -2   2  607.24   32.60
   2  -2   2  585.04   32.50
   2  -2   2  604.24   32.40
   2  -2   2  583.84   35.70
  -3   2  -2 1385.56   77.59
  -3   2  -2 1482.15   77.49
   3  -2   2 1527.45   77.09
   3  -2   2 1335.87   77.39
   3  -2   2 1501.15   76.89
   3  -2   2 1529.35   77.29
  -4   2  -2  102.09    9.00
  -4   2  -2  121.09    8.50
  -4   2  -2  112.19    8.80
   4  -2   2  117.39    7.30
   4  -2   2  108.49    8.50
   4  -2   2  115.99    7.20
  -5   2  -2  230.58   17.00
  -5   2  -2  268.07   15.60
  -5   2  -2  281.87   17.00
   5  -2   2  276.07   14.80
   5  -2   2  270.37   15.50
   5  -2   2  267.87   15.90
   5  -2   2  244.08   17.70
   5  -2   2  283.77   15.50
  -6   2  -2  465.75   25.50
  -6   2  -2  458.65   27.10
  -6   2  -2  471.35   25.90
   6  -2   2  419.56   26.60
   6  -2   2  464.85   25.40
   6  -2   2  476.15   25.10
   6  -2   2  474.45   26.20
   6  -2   2  472.15   26.10
  -7   2  -2   51.79    6.50
   7  -2   2   40.70    4.70
   7  -2   2   44.20    5.00
   7  -2   2   32.90    4.70
   7  -2   2   40.10    6.40
  -8   2  -2   97.99    5.80
  -8   2  -2   82.09    7.20
   9   1  -2   55.49    9.50
  -9  -1   2   59.59    4.60
  -9  -1   2   42.00    5.80
   8   1  -2   40.10    7.30
   8   1  -2   24.20    7.60
   8   1  -2   39.00    7.20
   8   1  -2   33.30    4.90
   8   1  -2   35.70    6.80
  -8  -1   2   41.20    5.80
  -8  -1   2   43.90    4.90
  -8  -1   2   60.29   10.30
   7   1  -2   59.29    6.60
   7   1  -2   61.69    9.10
   7   1  -2   58.39    9.10
   7   1  -2   59.09    6.00
   7   1  -2   63.79    8.80
   7   1  -2   55.49    7.40
  -7  -1   2   52.69    7.80
  -7  -1   2   68.49    7.10
  -7  -1   2   48.60    8.50
  -7  -1   2   56.29    7.00
   6   1  -2   12.40    2.90
   6   1  -2   12.50    3.20
   6   1  -2   11.80    3.40
   6   1  -2   10.60    3.40
   6   1  -2   13.00    7.30
   6   1  -2   11.40    2.20
  -6  -1   2   21.30    5.50
   5   1  -2   23.90    3.50
   5   1  -2   20.10    3.70
   5   1  -2   25.00    5.40
   5   1  -2   26.10    3.80
   5   1  -2   26.70    4.70
  -5  -1   2   24.30    4.80
  -5  -1   2   18.30    5.30
  -5  -1   2   40.10    7.80
  -5  -1   2   20.30    4.80
   4   1  -2   19.30    4.10
   4   1  -2   16.80    2.80
   4   1  -2   29.50    6.60
   4   1  -2   21.60    3.70
   4   1  -2   22.50    4.20
   4   1  -2   22.40    2.70
  -4  -1   2   16.30    3.90
  -4  -1   2   13.30    4.70
   3   1  -2   14.70    2.10
   3   1  -2   19.50    2.40
   3   1  -2   15.40    3.70
   3   1  -2   17.40    3.10
   3   1  -2   17.00    2.90
  -3  -1   2   10.70    3.90
   2   1  -2  256.17   13.20
   2   1  -2  225.38   12.80
   2   1  -2  236.58   12.40
   2   1  -2  231.28   13.00
   2   1  -2  253.07   12.60
  -2  -1   2  214.28   12.70
  -2  -1   2  210.78   14.20
  -2  -1   2  212.98   12.90
   0   1  -2 2701.03  134.59
   0   1  -2 2549.44  134.29
   0  -1   2 2430.36  134.19
   0  -1   2 2564.74  134.39
  -1   1  -2 1669.03   82.59
  -1   1  -2 1482.05   82.39
   1  -1   2 1664.93   83.69
   1  -1   2 1484.05   82.29
   1  -1   2 1542.55   82.39
  -2   1  -2  324.07   20.50
  -2   1  -2  329.67   19.50
  -2   1  -2  334.17   19.30
   2  -1   2  357.86   19.30
   2  -1   2  389.16   21.30
   2  -1   2  373.96   19.10
   2  -1   2  390.06   19.30
   2  -1   2  348.87   19.20
   2  -1   2  376.46   19.10
  -3   1  -2  840.02   45.50
   3  -1   2  814.72   43.00
   3  -1   2  803.62   42.90
   3  -1   2  777.12   43.10
   3  -1   2  791.52   43.20
   3  -1   2  849.02   43.30
  -4   1  -2  298.77   20.80
   4  -1   2  294.97   16.50
   4  -1   2  299.17   16.50
   4  -1   2  275.67   17.10
   4  -1   2  302.47   16.60
   4  -1   2  313.67   16.30
  -5   1  -2  269.17   15.70
  -5   1  -2  260.57   15.50
  -5   1  -2  281.47   15.90
   5  -1   2  263.97   15.20
   5  -1   2  251.57   15.70
   5  -1   2  265.57   14.60
   5  -1   2  276.67   15.30
   5  -1   2  234.48   18.10
  -6   1  -2   42.80    6.10
  -6   1  -2   40.30    5.60
  -6   1  -2   35.30    6.10
   6  -1   2   37.30    5.80
   6  -1   2   48.20    6.80
   6  -1   2   43.70    6.10
   6  -1   2   51.99    4.20
   6  -1   2   47.50    4.90
  -7   1  -2  310.17   17.10
  -7   1  -2  300.07   18.50
  -7   1  -2  299.47   16.90
  -7   1  -2  299.67   16.70
   7  -1   2  279.87   16.30
   7  -1   2  283.97   16.70
   7  -1   2  281.47   17.00
   7  -1   2  272.17   17.70
  -8   1  -2    1.90    2.50
  -8   1  -2    5.30    1.70
   8  -1   2    1.10    2.50
   8  -1   2    4.20    2.50
   8  -1   2   -0.10    3.20
   9   0  -2   44.10    9.50
  -9   0   2   37.30    4.10
  -9   0   2   39.50    4.20
   8   0  -2  140.09   10.30
   8   0  -2  130.79    9.60
  -8   0   2  131.09    8.60
  -8   0   2  121.39    9.20
  -8   0   2  118.99    8.50
   7   0  -2   31.30    5.80
   7   0  -2   25.60    6.00
   7   0  -2   32.20    6.50
   7   0  -2   33.20    6.60
   7   0  -2   34.20    7.60
   7   0  -2   40.10    5.10
  -7   0   2   37.20    6.60
  -7   0   2   37.70    6.20
  -7   0   2   46.10    6.70
  -7   0   2   32.20    4.60
   6   0  -2   32.90    6.40
   6   0  -2   38.10    5.90
   6   0  -2   26.20    6.00
   6   0  -2   28.50    9.50
   6   0  -2   29.10    3.90
   6   0  -2   34.70    8.10
  -6   0   2   33.90    4.90
  -6   0   2   28.80    4.80
  -6   0   2   29.20    4.30
  -6   0   2   24.20    5.10
   5   0  -2  417.96   23.70
   5   0  -2  421.76   22.60
   5   0  -2  439.26   22.80
   5   0  -2  418.36   26.60
   5   0  -2  451.55   23.70
  -5   0   2  371.96   24.40
  -5   0   2  377.46   23.50
  -5   0   2  365.36   24.00
   4   0  -2   92.89    8.70
   4   0  -2  100.99    7.40
   4   0  -2   87.79    7.40
   4   0  -2   95.59    6.20
  -4   0   2  102.89   10.10
  -4   0   2  117.59    7.50
  -4   0   2   98.09   11.30
   3   0  -2   45.20    7.10
   3   0  -2   45.60    4.40
   3   0  -2   43.30    3.30
   3   0  -2   41.80    3.90
   3   0  -2   41.40    3.00
  -3   0   2   44.40    3.70
  -3   0   2   39.00    5.10
  -3   0   2   42.20    4.30
  -3   0   2   39.30    5.90
   2   0  -2  687.63   35.10
   2   0  -2  616.34   34.50
   2   0  -2  656.53   36.40
  -2   0   2  641.04   34.90
  -2   0   2  670.73   36.90
  -2   0   2  655.73   34.90
  -2   0   2  651.53   35.60
   1   0  -2 1470.25   82.99
   1   0  -2 1410.16   83.09
   1   0  -2 1659.03   83.39
  -1   0   2 1690.63   83.19
  -1   0   2 1604.84   84.49
  -1   0   2 1666.63   83.29
   0   0  -2  537.85   29.80
   0   0  -2  547.65   29.90
   0   0   2  615.24   29.90
  -1   0  -2 3687.63  201.78
  -1   0  -2 3794.42  201.68
  -1   0  -2 3896.31  202.08
   1   0   2 3941.11  201.78
   1   0   2 3842.32  202.38
   1   0   2 3682.83  201.68
   1   0   2 3918.51  201.78
   1   0   2 4038.60  201.88
  -2   0  -2  127.89    7.90
  -2   0  -2  116.99    7.10
  -2   0  -2  137.19    7.50
   2   0   2  120.89    7.20
   2   0   2  119.89    7.40
   2   0   2  122.49    7.00
   2   0   2  121.49    6.90
   2   0   2  123.29    6.90
  -3   0  -2  560.94   34.50
  -3   0  -2  614.34   33.70
   3   0   2  615.64   33.10
   3   0   2  634.44   32.90
   3   0   2  645.64   33.20
   3   0   2  631.64   37.40
   3   0   2  617.54   33.40
   3   0   2  642.44   33.00
  -4   0  -2  122.59   10.30
   4   0   2  105.19    6.70
   4   0   2  105.29    6.90
   4   0   2  109.19    6.60
   4   0   2   93.69    7.90
   4   0   2  108.89    7.30
   4   0   2  112.09    6.70
  -5   0  -2  386.16   23.40
  -5   0  -2  402.46   23.50
  -5   0  -2  421.76   23.90
   5   0   2  380.56   25.00
   5   0   2  433.66   23.10
   5   0   2  415.76   22.90
   5   0   2  449.56   23.20
   5   0   2  415.46   23.50
   5   0   2  433.46   23.80
   5   0   2  440.06   22.90
  -6   0  -2  832.92   45.80
  -6   0  -2  842.82   45.10
  -6   0  -2  821.22   44.70
   6   0   2  829.92   45.00
   6   0   2  830.92   44.30
   6   0   2  819.72   44.90
   6   0   2  816.92   46.40
  -7   0  -2   27.80    4.90
  -7   0  -2   27.10    4.20
  -7   0  -2   30.90    5.70
   7   0   2   28.40    4.60
   7   0   2   28.40    5.00
   7   0   2   23.90    5.20
  -8   0  -2   95.39    8.70
  -8   0  -2  111.89    7.10
  -8   0  -2  108.89    6.80
  -8   0  -2   99.89    7.10
   8   0   2   97.99    7.70
   8   0   2  108.89    8.20
   8   0   2   99.39    7.70
   8   0   2  107.59    8.10
  -9   0  -2   -3.20    2.80
  -9   0  -2   -1.50    2.00
   9   0   2   -3.10    2.90
   8  -1  -2    6.90    3.30
   8  -1  -2    4.30    3.00
  -8   1   2    3.70    2.10
  -8   1   2   -2.00    2.70
   7  -1  -2   11.20    2.90
   7  -1  -2    9.30    3.40
   7  -1  -2   17.90    3.00
  -7   1   2   13.40    4.40
  -7   1   2   24.00    4.20
  -7   1   2   22.80    4.00
  -7   1   2   18.20    5.10
   6  -1  -2  333.67   18.90
   6  -1  -2  338.47   20.70
   6  -1  -2  341.77   18.40
   6  -1  -2  330.27   19.70
   6  -1  -2  339.57   20.00
  -6   1   2  307.57   19.70
  -6   1   2  329.87   19.30
  -6   1   2  309.97   20.00
   5  -1  -2   79.09    5.10
   5  -1  -2   73.79    8.10
   5  -1  -2   81.39    6.50
   5  -1  -2   75.09    6.00
  -5   1   2   55.39    8.50
  -5   1   2   63.69    8.30
  -5   1   2   66.99    7.80
  -5   1   2   62.79   11.00
  -5   1   2   83.89    9.70
   4  -1  -2  319.47   20.20
   4  -1  -2  345.17   19.40
   4  -1  -2  333.47   18.30
  -4   1   2  351.86   22.30
  -3   1   2   90.79    6.50
  -3   1   2   98.39    9.30
  -3   1   2   86.59    5.80
  -3   1   2   94.09    8.40
   2  -1  -2  381.96   19.90
   2  -1  -2  364.06   20.80
   2  -1  -2  371.26   22.20
  -2   1   2  365.16   22.20
  -2   1   2  349.37   20.70
  -2   1   2  360.16   19.80
  -2   1   2  364.56   19.90
   1  -1  -2  768.82   45.80
   1  -1  -2  789.42   46.20
   1  -1  -2  843.32   47.10
  -1   1   2  932.81   47.50
  -1   1   2  954.80   46.50
  -1   1   2  913.91   45.80
   0  -1  -2  770.42   37.90
   0  -1  -2  645.94   37.70
   0   1   2  689.43   37.90
   0   1   2  719.43   38.60
   0   1   2  751.22   37.80
   0   1   2  737.03   38.00
  -1  -1  -2   30.20    2.00
  -1  -1  -2   32.20    2.40
   1   1   2   34.90    2.20
   1   1   2   31.80    2.50
   1   1   2   34.90    2.00
  -2  -1  -2 1623.34   92.69
  -2  -1  -2 1657.93   93.59
  -2  -1  -2 1738.93   93.69
  -2  -1  -2 1928.01   93.29
   2   1   2 1784.32   92.89
   2   1   2 1739.43   92.79
   2   1   2 1825.22   93.09
   2   1   2 1838.72   92.89
  -3  -1  -2  169.88   10.90
  -3  -1  -2  178.48   10.70
  -3  -1  -2  152.68    9.50
   3   1   2  172.58   12.60
   3   1   2  163.38    9.40
   3   1   2  159.68    9.70
   3   1   2  177.28    9.40
   3   1   2  171.38    9.80
  -4  -1  -2 1082.99   62.69
  -4  -1  -2 1136.69   63.69
  -4  -1  -2 1185.08   62.09
   4   1   2 1164.88   61.29
   4   1   2 1127.69   66.29
   4   1   2 1200.68   61.69
   4   1   2 1218.28   61.29
   4   1   2 1086.09   61.49
   4   1   2 1202.68   61.19
  -5  -1  -2  418.96   23.00
  -5  -1  -2  394.46   22.60
  -5  -1  -2  427.46   23.50
  -5  -1  -2  384.46   22.60
   5   1   2  386.76   21.80
   5   1   2  401.66   22.00
   5   1   2  347.67   23.80
   5   1   2  383.06   21.70
   5   1   2  404.26   21.70
   5   1   2  400.96   22.50
  -6  -1  -2  775.02   42.10
  -6  -1  -2  781.32   42.50
  -6  -1  -2  771.02   42.20
   6   1   2  803.62   42.30
   6   1   2  733.63   42.60
   6   1   2  763.52   42.50
   6   1   2  785.52   41.70
   6   1   2  787.82   42.40
   6   1   2  795.12   42.20
   6   1   2  774.92   42.00
  -7  -1  -2  198.48   11.80
  -7  -1  -2  198.68   12.00
  -7  -1  -2  200.18   11.70
   7   1   2  181.08   11.20
   7   1   2  158.48   12.80
   7   1   2  184.38   12.60
   7   1   2  162.48   12.80
   7   1   2  179.48   11.40
   7   1   2  170.58   15.20
  -8  -1  -2  142.29    8.60
   8   1   2  136.69    9.40
   8   1   2  139.39   10.80
   8   1   2  133.29    9.50
   8   1   2  129.19    9.80
  -9  -1  -2    2.60    3.10
  -9  -1  -2    2.60    2.30
   9   1   2    6.10    5.10
   9   1   2    3.50    2.40
   8  -2  -2    0.00    3.40
   8  -2  -2   -0.40    2.90
   7  -2  -2  198.98   12.60
   7  -2  -2  197.08   12.10
   7  -2  -2  207.28   14.30
  -7   2   2  209.88   12.90
  -7   2   2  205.18   13.10
   6  -2  -2    5.60    2.10
   6  -2  -2    1.90    2.60
  -6   2   2   10.20    4.90
  -6   2   2    8.20    3.50
  -6   2   2    7.10    3.90
  -6   2   2    7.80    3.20
   5  -2  -2  198.58   15.30
   5  -2  -2  200.18   11.00
  -5   2   2  194.78   13.30
  -5   2   2  175.18   14.60
  -5   2   2  188.48   14.00
  -5   2   2  190.78   12.90
   4  -2  -2   55.29    7.00
  -4   2   2   71.09    5.60
  -4   2   2   62.79    8.80
  -4   2   2   59.49   13.90
   3  -2  -2  206.58   10.80
  -3   2   2  190.48   14.40
  -3   2   2  168.98   12.80
   2  -2  -2  856.01   49.00
   2  -2  -2  864.01   50.59
  -2   2   2  908.41   49.00
  -2   2   2  927.61   47.40
   1  -2  -2 2955.30  159.78
   1  -2  -2 3102.99  161.78
   1  -2  -2 3093.09  160.98
  -1   2   2 3061.19  161.78
  -1   2   2 3002.00  159.88
   0  -2  -2 1072.19   58.59
   0  -2  -2 1152.88   59.29
   0   2   2 1162.48   58.49
   0   2   2 1069.39   58.49
   0   2   2 1092.79   59.39
  -1  -2  -2 2314.07  127.09
  -1  -2  -2 2478.65  127.59
   1   2   2 2447.66  127.19
   1   2   2 2457.65  127.39
  -2  -2  -2 5078.69  253.17
  -2  -2  -2 4576.84  252.47
  -2  -2  -2 4521.15  252.47
  -2  -2  -2 4961.40  253.37
   2   2   2 4978.60  252.67
   2   2   2 4621.44  252.47
   2   2   2 4986.20  252.87
  -3  -2  -2  247.18   15.00
  -3  -2  -2  218.68   15.90
   3   2   2  294.17   14.60
   3   2   2  270.87   15.70
   3   2   2  288.27   15.00
   3   2   2  264.27   14.80
  -4  -2  -2 2710.13  130.69
  -4  -2  -2 2608.14  132.39
  -4  -2  -2 2125.89  129.29
  -4  -2  -2 2318.97  129.39
   4   2   2 2522.65  129.49
   4   2   2 2295.47  129.79
   4   2   2 2614.64  130.19
   4   2   2 2539.45  129.89
   4   2   2 2423.36  132.09
  -5  -2  -2  233.58   14.50
  -5  -2  -2  224.38   15.40
  -5  -2  -2  218.08   15.20
   5   2   2  237.18   13.40
   5   2   2  252.67   14.40
   5   2   2  220.48   16.50
   5   2   2  219.58   14.70
   5   2   2  251.47   13.60
   5   2   2  245.58   13.90
  -6  -2  -2  154.58   10.20
  -6  -2  -2  124.59   10.30
  -6  -2  -2  146.39   11.20
  -6  -2  -2  147.29   10.40
  -6  -2  -2  155.38   15.20
   6   2   2  129.79    9.50
   6   2   2  140.79   10.30
   6   2   2  131.99    9.60
   6   2   2  135.49    9.90
   6   2   2  129.29   11.70
   6   2   2  137.59    8.80
   6   2   2  131.79    9.20
  -7  -2  -2  300.77   19.60
  -7  -2  -2  326.57   19.70
  -7  -2  -2  345.17   19.60
   7   2   2  333.57   19.30
   7   2   2  367.66   20.20
   7   2   2  349.87   19.20
   7   2   2  333.77   20.50
   7   2   2  352.76   20.60
   7   2   2  329.37   20.20
   7   2   2  329.27   20.40
  -8  -2  -2   93.69    8.40
  -8  -2  -2   86.09    7.90
   8   2   2  116.29    9.10
   8   2   2  101.89    9.70
   8   2   2  111.79    8.40
   8   2   2  108.59    8.60
   8   2   2   78.09   15.10
  -9  -2  -2   45.70    7.20
  -9  -2  -2   49.70    4.90
  -9  -2  -2   43.10    4.70
   9   2   2   61.39    5.10
   9   2   2   58.19    7.10
  -8   3   2   58.19    4.20
   7  -3  -2    3.40    2.90
  -7   3   2    3.90    1.90
  -7   3   2   -0.70    2.80
   6  -3  -2  264.97   17.80
   6  -3  -2  296.47   16.70
  -6   3   2  290.87   17.40
  -6   3   2  292.17   18.20
   5  -3  -2  211.58   14.30
   5  -3  -2  223.38   13.00
  -5   3   2  243.88   15.50
  -5   3   2  243.68   15.00
  -5   3   2  240.28   14.50
  -4   3   2  113.29    9.70
  -4   3   2  122.29    8.80
  -4   3   2  114.39   10.30
  -4   3   2  123.19   10.20
   3  -3  -2  563.54   29.40
  -3   3   2  527.45   30.00
  -2   3   2  894.41   47.90
   1  -3  -2 1394.06   76.39
   1  -3  -2 1494.15   77.39
  -1   3   2 1329.57   74.39
   0  -3  -2 1960.00  110.89
   0  -3  -2 2004.90  112.39
   0  -3  -2 2129.49  112.09
   0   3   2 2360.36  110.69
   0   3   2 2063.89  110.89
  -1  -3  -2 1341.67   70.59
  -1  -3  -2 1178.78   69.99
  -1  -3  -2 1229.58   69.99
   1   3   2 1439.06   70.09
   1   3   2 1403.56   70.39
   1   3   2 1393.46   70.29
  -2  -3  -2  236.98   14.50
  -2  -3  -2  230.78   12.60
  -2  -3  -2  249.08   13.40
  -2  -3  -2  221.48   12.80
   2   3   2  231.58   12.80
   2   3   2  231.98   13.10
  -3  -3  -2 8865.71  495.55
  -3  -3  -2 8878.01  495.45
  -3  -3  -2 9999.00  496.75
   3   3   2 9408.16  495.65
   3   3   2 9900.91  496.15
   3   3   2 9695.93  495.85
  -4  -3  -2  112.79    7.00
  -4  -3  -2  107.99    8.10
  -4  -3  -2  121.19    7.90
   4   3   2  118.59    9.40
   4   3   2  125.69    8.10
   4   3   2  116.69    7.10
   4   3   2  111.59    7.70
   4   3   2  114.29    8.40
  -5  -3  -2  558.14   31.20
  -5  -3  -2  524.25   31.20
  -5  -3  -2  491.95   31.30
  -5  -3  -2  488.65   30.60
   5   3   2  602.84   30.40
   5   3   2  605.74   30.10
   5   3   2  564.54   31.50
   5   3   2  588.24   33.80
   5   3   2  482.95   32.70
   5   3   2  610.94   30.10
  -6  -3  -2  134.39   10.50
  -6  -3  -2  127.39   10.60
  -6  -3  -2  118.99   10.80
   6   3   2  146.89   10.70
   6   3   2  134.89    9.60
   6   3   2  139.99   15.10
   6   3   2  139.79   10.70
   6   3   2  136.99    9.30
   6   3   2  137.89    9.20
   6   3   2  124.19   11.70
   6   3   2  139.69   10.20
  -7  -3  -2  634.74   33.90
  -7  -3  -2  583.34   33.70
   7   3   2  592.14   34.00
   7   3   2  645.94   34.10
   7   3   2  601.94   33.70
   7   3   2  617.84   33.70
   7   3   2  633.04   34.20
   7   3   2  600.34   34.50
  -8  -3  -2  101.39    9.70
  -8  -3  -2  112.69    8.30
   8   3   2  117.89    9.40
   8   3   2   76.39   11.20
   8   3   2  102.19   11.90
   8   3   2   95.89   10.50
  -9  -3  -2   24.30    3.70
  -9  -3  -2   20.20    2.90
  -7   4   2   65.49    4.80
  -7   4   2   59.79    6.40
  -6   4   2   96.59    7.80
   5  -4  -2  330.97   20.50
  -5   4   2  348.57   20.50
  -5   4   2  363.26   20.80
   4  -4  -2  515.35   28.30
  -4   4   2  517.75   29.60
  -4   4   2  518.05   29.50
  -4   4   2  505.05   29.20
  -3   4   2   42.90    6.10
  -3   4   2   48.80   10.90
  -3   4   2   35.60    6.60
  -3   4   2   46.60    5.10
   2  -4  -2   13.70    2.10
  -2   4   2    9.70    2.50
   1  -4  -2  312.37   24.00
   1  -4  -2  296.67   16.40
   0  -4  -2  176.78   10.60
   0  -4  -2  177.38   13.40
   0  -4  -2  170.78   12.80
   0   4   2  178.48   10.30
  -1  -4  -2   75.99    9.30
  -1  -4  -2   60.19    4.50
  -1  -4  -2   74.49    3.90
   1   4   2   57.59    4.90
   1   4   2   58.59    4.60
   1   4   2   60.79    4.30
  -2  -4  -2  799.82   43.30
  -2  -4  -2  833.12   44.40
  -2  -4  -2  778.02   43.40
   2   4   2  833.62   43.80
   2   4   2  850.91   43.50
  -3  -4  -2  131.99    8.00
  -3  -4  -2  127.39    8.60
  -3  -4  -2  138.29    7.80
  -3  -4  -2  146.89    8.90
   3   4   2  134.09    8.00
   3   4   2  132.69    8.70
  -4  -4  -2   43.30    5.30
  -4  -4  -2   46.50    4.10
  -4  -4  -2   48.40    4.60
  -4  -4  -2   48.50    4.70
   4   4   2   55.99    5.60
   4   4   2   51.69    4.10
  -5  -4  -2    7.40    2.90
  -5  -4  -2    8.40    3.00
  -5  -4  -2    4.40    2.70
  -5  -4  -2    8.90    5.50
  -5  -4  -2   11.30    6.40
  -5  -4  -2    7.60    4.20
  -5  -4  -2    6.60    2.90
   5   4   2   -1.20    5.80
   5   4   2    9.30    5.90
   5   4   2    3.10    2.40
   5   4   2    6.00    2.10
  -6  -4  -2  180.98   11.80
  -6  -4  -2  193.58   12.60
  -6  -4  -2  152.58   12.50
  -6  -4  -2  178.58   12.20
   6   4   2  161.98   12.10
   6   4   2  165.28   11.40
   6   4   2  169.78   13.00
   6   4   2  166.28   15.20
   6   4   2  160.68   13.00
  -7  -4  -2  106.99    9.90
  -7  -4  -2  110.99   10.00
  -7  -4  -2  112.29   11.20
   7   4   2  145.49   10.70
   7   4   2  146.99   12.70
   7   4   2  130.39   10.50
   7   4   2  120.39   10.70
  -8  -4  -2    5.40    3.40
  -8  -4  -2    0.20    5.00
   8   4   2    4.90    5.80
   8   4   2   -0.60    6.10
  -9  -4  -2   79.89    5.70
  -9  -4  -2   76.29    6.00
   9   4   2   86.89    6.20
  -6   5   2   57.59    5.60
  -6   5   2   54.79    4.60
  -5   5   2   53.49    7.00
  -5   5   2   55.19    6.60
  -4   5   2   29.60    5.70
  -4   5   2   28.50    6.60
  -4   5   2   37.30    7.10
  -3   5   2   11.00    4.60
  -3   5   2    9.80    5.00
  -2   5   2  149.29   12.60
  -2   5   2  147.39   10.50
  -2   5   2  156.98   10.40
   1  -5  -2   13.90    3.40
  -1   5   2   17.70    4.00
  -1   5   2   13.20    3.30
  -1   5   2   11.50    5.40
   0  -5  -2  114.69    7.50
   0  -5  -2  115.29    6.10
   0   5   2   89.29    7.50
  -1  -5  -2  277.37   15.50
  -1  -5  -2  243.78   15.70
  -1  -5  -2  267.07   16.70
   1   5   2  326.97   16.50
   1   5   2  320.97   16.80
  -2  -5  -2  283.07   15.40
  -2  -5  -2  264.97   15.80
  -2  -5  -2  292.27   15.30
  -2  -5  -2  291.07   16.60
   2   5   2  272.97   16.50
   2   5   2  277.67   16.10
  -3  -5  -2  169.58   10.90
  -3  -5  -2  176.48   10.30
  -3  -5  -2  179.38   10.50
  -3  -5  -2  181.08   11.50
   3   5   2  208.18   12.40
   3   5   2  182.28   10.50
   3   5   2  188.48   11.60
   3   5   2  156.58   13.50
  -4  -5  -2   65.19    5.80
  -4  -5  -2   57.59    5.90
  -4  -5  -2   69.49   11.30
  -4  -5  -2   67.29    5.30
  -4  -5  -2   60.59    9.60
   4   5   2   76.49    8.40
   4   5   2   57.59    5.20
   4   5   2   62.69    5.80
   4   5   2   63.59    9.10
   4   5   2   47.50    8.90
  -5  -5  -2   24.70    8.10
  -5  -5  -2   20.60    4.50
  -5  -5  -2   20.40    2.90
  -5  -5  -2   26.30    5.60
  -5  -5  -2   20.30    5.70
  -5  -5  -2   22.50    5.20
  -5  -5  -2   18.60    3.00
   5   5   2   18.10    3.40
   5   5   2   18.80    3.10
   5   5   2   18.70    4.10
   5   5   2   23.40    6.20
   5   5   2   15.60    5.10
  -6  -5  -2  298.67   19.70
  -6  -5  -2  305.07   18.50
  -6  -5  -2  290.57   19.00
   6   5   2  326.57   19.50
   6   5   2  319.17   18.80
   6   5   2  307.07   18.50
   6   5   2  348.87   19.30
  -7  -5  -2   18.80    7.50
  -7  -5  -2   43.70    7.80
  -7  -5  -2   33.00    4.50
  -7  -5  -2   39.70    7.40
   7   5   2   30.30    5.10
   7   5   2   43.40    8.40
   7   5   2   22.70    5.00
   7   5   2   29.40    6.20
  -8  -5  -2   91.29    7.70
  -8  -5  -2  104.79    7.50
   8   5   2  110.39    8.90
   8   5   2  109.99    7.90
  -9  -5  -2   63.69    5.10
   9   5   2   70.09    5.90
  -5   6   2   22.20    4.20
  -4   6   2   26.70    5.50
   3  -6  -2  354.56   22.80
  -3   6   2  331.47   22.00
  -3   6   2  348.77   20.30
  -3   6   2  344.67   20.90
  -2   6   2  104.79    9.90
  -2   6   2   99.69    8.30
  -2   6   2  107.49    9.50
   1  -6  -2  549.95   30.10
   1  -6  -2  543.55   27.90
  -1   6   2  506.15   29.80
  -1   6   2  499.75   29.40
  -1   6   2  520.65   30.60
   0  -6  -2   38.30    4.90
   0  -6  -2   24.80    5.40
   0  -6  -2   34.70    2.80
   0   6   2   45.40    5.90
   0   6   2   36.00    8.50
   0   6   2   30.20    6.20
  -1  -6  -2  111.79    7.20
  -1  -6  -2  116.19    6.50
  -1  -6  -2  116.69    8.30
   1   6   2  109.49    8.80
   1   6   2   93.59    8.50
   1   6   2   97.39   11.30
  -2  -6  -2   88.09    7.30
  -2  -6  -2   87.69    5.60
  -2  -6  -2   86.19    7.00
  -2  -6  -2  115.89   15.90
  -2  -6  -2   93.69    6.30
   2   6   2   89.99   11.70
   2   6   2  101.29    9.40
   2   6   2   98.49    9.70
   2   6   2   78.69    8.00
   2   6   2  106.09    8.60
  -3  -6  -2   81.09    7.00
  -3  -6  -2   82.39    6.70
  -3  -6  -2   79.89    5.30
  -3  -6  -2   84.59   11.70
  -3  -6  -2   86.19    6.20
   3   6   2   61.59    8.60
   3   6   2   72.19   13.30
   3   6   2   75.39    7.40
   3   6   2   72.39    6.60
   3   6   2   86.39    8.70
  -4  -6  -2   13.60    2.50
  -4  -6  -2   14.60    5.90
  -4  -6  -2   12.70    2.10
  -4  -6  -2   11.70    2.50
  -4  -6  -2   18.00    5.20
  -4  -6  -2   18.50    6.50
   4   6   2   11.70    4.00
   4   6   2    4.60    3.80
   4   6   2    8.90    6.10
   4   6   2    4.00    5.20
   4   6   2    6.70    3.50
  -5  -6  -2  229.68   12.80
  -5  -6  -2  234.88   13.30
  -5  -6  -2  232.28   12.90
  -5  -6  -2  221.28   14.10
  -5  -6  -2  196.28   14.80
  -5  -6  -2  202.68   15.00
   5   6   2  207.28   14.90
   5   6   2  192.98   13.40
   5   6   2  210.78   17.10
   5   6   2  201.78   13.80
   5   6   2  230.68   14.30
  -6  -6  -2   95.99   12.10
  -6  -6  -2   70.99   10.50
  -6  -6  -2   94.49    9.90
  -6  -6  -2   91.69    8.50
   6   6   2   98.19   11.10
   6   6   2  110.69    9.30
   6   6   2   69.39    9.80
   6   6   2   94.79    9.10
  -7  -6  -2   87.19    8.30
  -7  -6  -2  107.49    9.90
  -7  -6  -2  113.69   14.10
   7   6   2   94.59   10.60
   7   6   2  115.59   10.80
  -8  -6  -2   18.50    3.20
  -8  -6  -2   36.10    7.40
  -8  -6  -2   19.70    3.70
   8   6   2   20.50    3.60
   8   6   2   15.00    3.50
  -4   7   2  127.89    9.20
  -3   7   2   61.99    6.20
   2  -7  -2  479.85   32.40
  -2   7   2  493.25   26.40
  -2   7   2  419.26   30.40
  -2   7   2  402.06   25.90
   1  -7  -2  125.49   11.30
   1  -7  -2  122.99    7.80
  -1   7   2  118.19   11.30
  -1   7   2  145.09   10.60
  -1   7   2  132.99   10.70
   0  -7  -2   34.60    7.50
   0  -7  -2   49.80    4.00
   0   7   2   48.90    8.30
   0   7   2   50.59    6.60
   0   7   2   51.79    7.80
  -1  -7  -2   47.80    7.10
  -1  -7  -2   60.49    5.10
  -1  -7  -2   47.40    7.30
  -1  -7  -2   55.89    4.40
   1   7   2   73.49    7.20
   1   7   2   63.39    9.10
   1   7   2   63.89   10.30
   1   7   2   70.59    8.60
  -2  -7  -2   -3.20    7.40
  -2  -7  -2   -0.10    1.80
  -2  -7  -2    1.60    2.30
  -2  -7  -2    1.90    3.50
  -2  -7  -2    3.40    1.70
   2   7   2    1.70    4.60
   2   7   2    1.90    5.90
   2   7   2    6.10    4.20
  -3  -7  -2   59.29    6.30
  -3  -7  -2   59.69    5.30
  -3  -7  -2   49.20    7.70
  -3  -7  -2   58.89    4.80
  -3  -7  -2   56.19   10.70
   3   7   2   72.19    7.60
   3   7   2   62.29   10.60
   3   7   2   65.59   10.40
  -4  -7  -2   59.49    8.80
  -4  -7  -2   52.79    9.30
  -4  -7  -2   73.59    5.90
  -4  -7  -2   75.49   12.40
  -4  -7  -2   72.49    7.10
  -4  -7  -2   63.89    5.90
   4   7   2   75.79    8.10
   4   7   2   73.29   11.30
   4   7   2   63.99   12.80
   4   7   2   80.09    8.00
  -5  -7  -2   22.90    6.50
  -5  -7  -2   26.40    5.20
  -5  -7  -2   28.00    4.80
  -5  -7  -2   33.90    6.00
  -5  -7  -2   25.20    6.40
  -5  -7  -2   28.00    4.60
   5   7   2   26.80    7.60
   5   7   2   19.80    4.10
   5   7   2   29.00   12.20
   5   7   2   12.60    7.50
  -6  -7  -2  208.28   12.50
  -6  -7  -2  178.98   16.80
  -6  -7  -2  183.08   12.70
   6   7   2  153.18   15.10
   6   7   2  208.58   12.70
  -7  -7  -2   62.99    8.10
  -7  -7  -2   58.19    7.40
  -7  -7  -2   53.29    6.00
   7   7   2   48.50    5.60
  -8  -7  -2   54.69    6.30
   8   7   2   75.89    5.70
  -3   8   2  141.49    9.20
  -3   8   2  162.78    9.80
  -2   8   2   10.60    2.40
   1  -8  -2  127.59    9.10
  -1   8   2  162.98   11.60
  -1   8   2  142.79   10.80
   0  -8  -2   90.09    6.50
   0  -8  -2   74.69    7.70
   0  -8  -2   93.79    6.80
   0   8   2   88.39    8.40
  -1  -8  -2    6.50    6.20
  -1  -8  -2    8.50    2.20
  -1  -8  -2    9.30    2.30
  -1  -8  -2    8.10    2.50
   1   8   2    7.30    3.90
   1   8   2    5.70    3.50
   1   8   2   13.40   12.80
  -2  -8  -2  326.77   17.70
  -2  -8  -2  298.07   20.70
  -2  -8  -2  310.17   21.50
  -2  -8  -2  332.27   18.00
  -2  -8  -2  335.17   17.90
   2   8   2  303.27   19.10
   2   8   2  326.37   19.60
   2   8   2  269.67   22.30
   2   8   2  332.17   18.30
  -3  -8  -2  154.68   15.50
  -3  -8  -2  185.18   11.40
  -3  -8  -2  185.68   11.40
  -3  -8  -2  186.78   11.70
  -3  -8  -2  189.28   14.50
   3   8   2  193.18   12.70
   3   8   2  205.78   12.30
   3   8   2  211.78   14.00
  -4  -8  -2  364.86   20.90
  -4  -8  -2  375.56   20.80
  -4  -8  -2  381.86   20.80
  -4  -8  -2  379.76   21.90
   4   8   2  371.16   21.20
   4   8   2  356.46   21.70
  -5  -8  -2   31.40    4.70
  -5  -8  -2   36.70    6.30
   5   8   2   38.10    6.10
  -6  -8  -2   35.30    5.50
   6   8   2   41.30    4.90
  -7  -8  -2   37.30    4.70
   7   8   2   32.50    4.20
  -1   9   2   19.50    3.40
  -1   9   2   13.70    2.80
   0  -9  -2   36.80    7.40
   0  -9  -2   38.30    6.10
   0   9   2   32.30    4.00
  -1  -9  -2   28.90    5.50
  -1  -9  -2   31.20    5.90
   1   9   2   21.00    4.40
  -2  -9  -2   50.89   10.20
  -2  -9  -2   48.70    5.60
  -2  -9  -2   39.00    5.80
   2   9   2   46.30    5.50
  -3  -9  -2   21.70    4.80
  -3  -9  -2   14.20    2.90
  -3  -9  -2   18.90    4.20
   3   9   2   13.90    3.70
  -4  -9  -2   77.79    8.00
  -4  -9  -2   98.99    7.00
  -4  -9  -2   97.69    7.60
   4   9   2   90.09    6.30
   4   9   2   87.29    7.20
  -5  -9  -2   62.49    5.80
  -5  -9  -2   58.19    7.20
   5   9   2   60.39    4.90
  -6  -9  -2   24.30    4.40
   6   9   2   13.70    2.20
   5   8  -3   19.60    3.30
  -5  -8   3   21.90    4.10
  -5  -8   3   13.40    3.20
   4   8  -3   52.49    6.30
  -4  -8   3   52.89    5.10
  -4  -8   3   36.70    7.00
   3   8  -3    8.30    3.40
  -3  -8   3    7.80    2.60
  -3  -8   3    4.00    4.30
  -3  -8   3    6.10    2.50
  -3  -8   3    7.00    3.90
   2   8  -3  110.39    8.20
   2   8  -3   97.09   10.10
  -2  -8   3   95.39    9.80
  -2  -8   3  113.19    7.60
  -2  -8   3  106.39    7.30
  -2  -8   3  112.79    9.10
   1   8  -3   56.69    8.00
   1   8  -3   58.49    7.30
  -1  -8   3   80.49    7.40
  -1  -8   3   83.39    5.90
  -1  -8   3   86.29    6.00
  -1  -8   3   62.69    9.10
   0   8  -3   38.60    7.80
   0   8  -3   36.10    6.10
   0  -8   3   52.69    6.30
   0  -8   3   55.79    5.40
   0  -8   3   46.20    9.30
  -1   8  -3   86.19    7.10
   1  -8   3  107.69    7.80
   1  -8   3   88.69    8.00
   1  -8   3   68.09    9.50
  -7  -7   3   11.00    2.50
   6   7  -3    9.30    4.00
  -6  -7   3    7.50    2.60
  -6  -7   3    8.00    5.30
  -6  -7   3    6.50    3.30
   5   7  -3   61.69    7.80
  -5  -7   3   50.09    5.30
  -5  -7   3   40.40    7.30
  -5  -7   3   50.39    7.60
   4   7  -3    8.70    4.90
  -4  -7   3    2.10    3.00
  -4  -7   3    0.30    5.10
  -4  -7   3    2.30    3.40
   3   7  -3   59.19    8.40
   3   7  -3   57.29   11.30
  -3  -7   3   46.40    6.40
  -3  -7   3   48.50    5.70
  -3  -7   3   44.70    7.00
  -3  -7   3   40.30    5.50
  -3  -7   3   44.80    6.50
   2   7  -3   78.19   13.80
   2   7  -3   86.99    9.50
  -2  -7   3   98.69   11.30
  -2  -7   3  102.59    7.50
  -2  -7   3   97.29    8.20
  -2  -7   3  114.99    7.20
  -2  -7   3   80.79   11.80
   1   7  -3   49.50    7.90
   1   7  -3   44.80   10.40
  -1  -7   3   51.29   10.10
  -1  -7   3   48.80   10.80
  -1  -7   3   34.40    5.70
   0   7  -3  125.99   12.10
   0   7  -3  114.59   11.40
   0   7  -3  147.39   10.90
   0  -7   3  131.29    8.50
   0  -7   3  112.39   13.20
  -1   7  -3   86.99   10.10
   1  -7   3   81.79   10.40
  -2   7  -3    3.30    3.40
   2  -7   3    6.40    6.10
  -3   7  -3  132.19   10.50
   3  -7   3  171.38   13.50
   3  -7   3  187.48   15.30
   7   6  -3    6.00    4.50
   7   6  -3   10.60    5.10
  -7  -6   3    6.50    2.70
  -7  -6   3    7.60    3.60
  -6  -6   3   84.59   16.00
  -6  -6   3   79.19    7.90
   5   6  -3    4.30    7.30
   5   6  -3   10.70    5.80
  -5  -6   3   -1.90    9.60
  -5  -6   3    4.40    3.90
  -5  -6   3    8.60    7.00
   4   6  -3   29.70    9.10
   4   6  -3   15.30    9.70
   4   6  -3   28.20    5.70
  -4  -6   3   17.90    4.60
  -4  -6   3   41.10    7.80
  -4  -6   3   32.80    5.70
  -4  -6   3   27.30    6.20
  -4  -6   3   42.40    9.40
  -4  -6   3   40.50    6.50
   3   6  -3  116.29   13.70
   3   6  -3  132.29   11.80
   3   6  -3  148.09   22.70
  -3  -6   3  121.79   10.80
  -3  -6   3  138.79    9.30
  -3  -6   3  131.39   12.10
  -3  -6   3  134.19    9.20
  -3  -6   3  146.79    9.70
  -3  -6   3  146.69   10.00
   2   6  -3   79.09   15.30
   2   6  -3   67.59   10.90
   2   6  -3   74.89    9.20
  -2  -6   3   68.19   10.20
  -2  -6   3   76.99    6.00
  -2  -6   3   71.99    8.30
   1   6  -3   24.50    7.70
   1   6  -3   22.70    4.90
   1   6  -3   21.70    8.00
  -1  -6   3   26.40    6.50
  -1  -6   3   31.50    3.80
  -1  -6   3   32.80    5.90
   0   6  -3   -3.30    4.00
   0   6  -3    4.80    7.80
   0   6  -3    3.90    6.50
   0  -6   3   -3.60    3.70
   0  -6   3   -0.10    1.60
   0  -6   3    0.60    5.50
   0  -6   3   -3.80    2.40
  -1   6  -3   26.80    6.50
  -1   6  -3   16.90    3.90
  -1   6  -3   29.40    4.90
   1  -6   3   17.70    2.90
   1  -6   3   19.40    4.70
   1  -6   3   21.80    6.50
  -2   6  -3  425.46   25.00
  -2   6  -3  425.96   22.90
  -2   6  -3  404.66   22.90
   2  -6   3  386.06   22.00
   2  -6   3  362.26   24.60
   2  -6   3  387.46   21.30
   2  -6   3  349.47   24.40
   3  -6   3   33.50    4.50
   3  -6   3   32.80    5.70
  -4   6  -3    9.20    2.00
  -4   6  -3   13.30    4.40
   4  -6   3    4.70    3.10
   8   5  -3    1.10    3.50
  -8  -5   3    8.50    2.70
  -8  -5   3    8.50    2.60
   7   5  -3   90.89   13.20
   7   5  -3   61.79   12.80
  -7  -5   3   76.39    7.60
  -7  -5   3   75.79    7.00
   6   5  -3   -2.70    7.30
   6   5  -3    6.80    7.70
   6   5  -3    0.60    5.90
   6   5  -3   13.90    6.70
  -6  -5   3    5.00    5.10
  -6  -5   3    3.00    5.30
  -6  -5   3    2.30    4.00
   5   5  -3  251.67   17.30
   5   5  -3  293.27   19.20
   5   5  -3  253.27   17.60
   5   5  -3  283.87   19.30
  -5  -5   3  276.07   17.80
  -5  -5   3  282.07   16.60
  -5  -5   3  227.08   17.90
  -5  -5   3  293.77   19.00
   4   5  -3  234.78   17.00
   4   5  -3  199.08   14.30
   4   5  -3  209.48   14.90
  -4  -5   3  222.58   15.00
  -4  -5   3  234.08   14.20
  -4  -5   3  223.38   15.10
  -4  -5   3  223.18   14.10
  -4  -5   3  219.58   15.80
   3   5  -3   29.70    6.10
   3   5  -3   33.80    8.30
   3   5  -3   28.20    5.00
  -3  -5   3   42.20    4.80
  -3  -5   3   37.20    5.00
  -3  -5   3   38.50    6.00
  -3  -5   3   31.70    5.60
  -3  -5   3   38.70   11.00
  -3  -5   3   34.90    5.80
  -3  -5   3   37.50    5.50
   2   5  -3   76.09    9.60
   2   5  -3  106.49   19.00
   2   5  -3   71.79    8.10
   2   5  -3   69.79    8.40
  -2  -5   3   72.09    6.80
  -2  -5   3   63.29    7.10
  -2  -5   3   86.59    7.70
  -2  -5   3   67.39    9.30
  -2  -5   3   70.59    5.10
  -2  -5   3   74.69    6.20
   1   5  -3   88.29    8.20
   1   5  -3   82.59    9.60
   1   5  -3   86.69    8.20
  -1  -5   3   62.79    7.00
  -1  -5   3   67.99   10.30
  -1  -5   3   79.19    5.00
  -1  -5   3   74.09    6.80
  -1  -5   3   79.19    6.40
   0   5  -3  317.07   20.00
   0   5  -3  321.77   19.80
   0   5  -3  313.27   20.90
   0   5  -3  333.87   20.10
   0  -5   3  331.77   18.80
   0  -5   3  341.07   18.30
   0  -5   3  331.07   17.90
   0  -5   3  316.37   20.70
   0  -5   3  352.26   20.00
  -1   5  -3  620.04   33.80
  -1   5  -3  630.74   33.60
  -1   5  -3  601.24   33.10
  -1   5  -3  562.94   33.30
   1  -5   3  618.34   32.80
   1  -5   3  632.34   32.20
   1  -5   3  587.34   31.70
   1  -5   3  553.04   32.00
   1  -5   3  535.05   33.80
  -2   5  -3   49.30    7.50
  -2   5  -3   40.80    7.40
   2  -5   3   51.39    4.00
   2  -5   3   40.70    6.40
   2  -5   3   46.30    3.50
  -3   5  -3  275.77   16.90
  -3   5  -3  276.47   19.40
  -3   5  -3  277.47   16.80
   3  -5   3  251.77   18.00
   3  -5   3  316.87   16.60
   3  -5   3  227.78   16.00
   3  -5   3  271.97   15.10
   3  -5   3  265.37   14.90
  -4   5  -3   55.19    8.60
  -4   5  -3   58.39    7.10
   4  -5   3   58.39    4.70
   4  -5   3   50.69    4.50
  -5   5  -3   53.79    5.30
   5  -5   3   62.09    9.80
   5  -5   3   45.40    5.80
  -6   5  -3   55.89    5.10
   8   4  -3   44.50    7.10
  -8  -4   3   44.50    4.90
  -8  -4   3   51.09    5.20
   7   4  -3   24.30    4.80
   7   4  -3   16.00    6.50
   7   4  -3   24.60    5.90
   7   4  -3   21.40    6.70
  -7  -4   3   22.30    4.50
  -7  -4   3   27.70    4.70
   6   4  -3  103.19   12.70
   6   4  -3  108.69   12.00
   6   4  -3   87.29   10.40
   6   4  -3  115.09   12.70
   6   4  -3   97.49   12.30
   6   4  -3   98.09   10.30
   6   4  -3  105.49   19.30
  -6  -4   3  112.29   12.90
  -6  -4   3  112.19   10.90
  -6  -4   3  122.59    9.20
   5   4  -3   18.20    4.20
   5   4  -3   13.90    7.40
   5   4  -3   17.00    4.90
   5   4  -3   14.00    5.60
   5   4  -3   19.90    3.60
   5   4  -3   17.60    4.80
   5   4  -3   18.20    9.00
  -5  -4   3   25.80    7.30
   4   4  -3   59.89   10.40
   4   4  -3   56.49    8.50
   4   4  -3   81.99   11.70
   4   4  -3   56.99    5.90
   4   4  -3   62.79    6.90
   4   4  -3   54.39    9.60
  -4  -4   3   58.69    8.00
  -4  -4   3   66.59   10.50
  -4  -4   3   57.89    8.30
  -4  -4   3   56.19    7.40
  -4  -4   3   50.49    6.10
   3   4  -3  728.73   38.90
   3   4  -3  729.03   39.80
   3   4  -3  743.33   40.30
   3   4  -3  696.83   41.10
   3   4  -3  682.23   41.20
  -3  -4   3  721.63   39.00
  -3  -4   3  728.03   38.80
  -3  -4   3  751.62   40.10
  -3  -4   3  734.93   45.50
  -3  -4   3  737.03   38.90
  -3  -4   3  701.53   40.30
   2   4  -3  167.78   10.40
   2   4  -3  154.28   13.80
   2   4  -3  168.48   12.00
   2   4  -3  159.88   11.80
  -2  -4   3  167.38   11.10
  -2  -4   3  158.28   14.30
  -2  -4   3  167.98    9.60
  -2  -4   3  155.08    9.80
  -2  -4   3  174.08   10.10
  -2  -4   3  168.98   10.70
   1   4  -3  467.25   25.70
   1   4  -3  448.66   26.20
  -1  -4   3  461.25   24.50
  -1  -4   3  459.35   25.80
  -1  -4   3  456.25   25.10
  -1  -4   3  447.06   24.70
   0   4  -3  380.66   21.20
   0   4  -3  382.96   20.30
   0  -4   3  339.67   20.00
   0  -4   3  355.06   19.40
   0  -4   3  338.27   19.00
   0  -4   3  326.67   19.20
  -1   4  -3  249.48   19.30
  -1   4  -3  255.87   14.90
  -1   4  -3  216.68   15.80
  -1   4  -3  271.77   16.30
   1  -4   3  240.08   13.80
   1  -4   3  252.47   13.70
  -2   4  -3  714.63   38.10
  -2   4  -3  657.83   37.40
  -2   4  -3  666.83   37.20
  -2   4  -3  726.53   37.90
   2  -4   3  643.54   37.50
   2  -4   3  678.13   36.10
   2  -4   3  694.03   36.40
   2  -4   3  677.23   36.60
   2  -4   3  670.33   36.50
  -3   4  -3  340.57   19.50
  -3   4  -3  342.87   20.50
  -3   4  -3  356.26   21.60
   3  -4   3  312.17   20.40
   3  -4   3  349.57   19.10
   3  -4   3  342.07   18.40
   3  -4   3  330.17   18.90
  -4   4  -3    6.80    2.70
  -4   4  -3    5.20    7.20
  -4   4  -3    4.80    3.00
  -4   4  -3   -0.60    3.70
   4  -4   3    5.80    1.50
   4  -4   3    9.90    2.50
   4  -4   3    5.90    1.50
   4  -4   3    8.90    2.80
   4  -4   3    2.20    4.60
  -5   4  -3  177.98   12.60
  -5   4  -3  184.68   11.20
   5  -4   3  175.88   10.50
   5  -4   3  193.08   11.20
   5  -4   3  162.18   10.30
  -6   4  -3    5.20    2.00
   6  -4   3    4.90    2.10
   6  -4   3    9.80    2.80
   9   3  -3   38.10    5.90
  -9  -3   3   40.00    4.00
   8   3  -3   66.79    7.90
   8   3  -3   71.59   11.90
   8   3  -3   68.09   10.00
  -8  -3   3   57.29    5.80
  -8  -3   3   66.79    6.10
   7   3  -3   93.99   11.70
   7   3  -3  105.59   11.00
   7   3  -3   94.69   11.90
   7   3  -3  102.09   10.10
   7   3  -3  105.59   11.10
   7   3  -3  102.29   10.30
  -7  -3   3  115.09    9.20
  -7  -3   3  100.19    9.40
  -7  -3   3  119.39   10.20
   6   3  -3  140.39   10.80
   6   3  -3  149.88   12.40
   6   3  -3  154.28   11.70
   6   3  -3  152.18   13.60
   6   3  -3  150.78   11.30
   6   3  -3  139.09   11.10
  -6  -3   3  156.78   12.00
  -6  -3   3  175.28   11.00
   5   3  -3  128.39   10.20
   5   3  -3  125.99    9.40
   5   3  -3  114.79    8.60
   5   3  -3  101.59   12.60
   5   3  -3  128.59    8.70
   5   3  -3  128.29   10.80
  -5  -3   3  117.89    9.60
  -5  -3   3  134.09   11.60
  -5  -3   3  119.99   14.30
  -5  -3   3  120.29    9.90
  -5  -3   3  124.79   11.00
   4   3  -3  756.02   40.70
   4   3  -3  779.42   41.60
   4   3  -3  791.32   41.00
   4   3  -3  769.82   41.50
   4   3  -3  731.73   42.00
   4   3  -3  796.42   40.70
   4   3  -3  712.73   42.30
  -4  -3   3  738.53   47.50
  -4  -3   3  759.02   41.30
  -4  -3   3  706.63   42.00
  -4  -3   3  743.83   41.20
   3   3  -3  707.03   36.90
   3   3  -3  707.23   36.70
   3   3  -3  689.03   36.20
   3   3  -3  655.63   37.90
   3   3  -3  691.93   37.10
   3   3  -3  654.73   36.90
   3   3  -3  704.23   36.30
  -3  -3   3  708.43   41.20
  -3  -3   3  622.74   36.20
  -3  -3   3  613.54   36.00
  -3  -3   3  609.54   36.30
  -3  -3   3  716.13   37.10
   2   3  -3  636.44   35.80
   2   3  -3  686.73   35.30
   2   3  -3  649.34   36.70
   2   3  -3  667.03   35.80
   2   3  -3  674.03   36.10
   2   3  -3  667.43   36.50
   2   3  -3  656.83   35.40
  -2  -3   3  616.64   35.00
  -2  -3   3  630.04   35.70
  -2  -3   3  638.64   35.20
  -2  -3   3  690.93   38.50
  -2  -3   3  672.73   36.10
  -2  -3   3  672.03   35.40
   1   3  -3 4019.30  205.88
   1   3  -3 4002.00  206.88
   1   3  -3 3909.21  206.18
   1   3  -3 3981.70  206.18
   1   3  -3 4055.99  206.68
  -1  -3   3 3936.81  205.98
  -1  -3   3 3620.54  206.08
  -1  -3   3 3851.51  206.78
  -1  -3   3 4024.90  206.38
  -1  -3   3 3827.62  205.78
   0   3  -3  979.40   51.19
   0   3  -3  956.10   51.59
   0  -3   3  930.91   51.09
   0  -3   3  989.60   50.59
   0  -3   3  945.11   50.79
   0  -3   3  955.40   50.79
  -1   3  -3 1126.99   57.09
  -1   3  -3 1050.29   56.29
   1  -3   3 1070.99   55.79
   1  -3   3 1071.19   55.89
   1  -3   3  989.90   56.09
   1  -3   3 1044.60   55.99
  -2   3  -3  126.59    7.60
   2  -3   3  120.39    6.60
   2  -3   3  113.79    6.80
   2  -3   3  107.29    7.50
   2  -3   3  110.19    6.80
  -3   3  -3  451.75   26.90
  -3   3  -3  463.75   26.50
  -3   3  -3  471.65   28.10
  -3   3  -3  476.45   27.80
  -3   3  -3  448.46   26.50
   3  -3   3  507.55   26.00
   3  -3   3  452.65   27.50
   3  -3   3  515.75   25.80
   3  -3   3  512.15   25.50
   3  -3   3  477.15   26.10
  -4   3  -3  228.88   19.40
  -4   3  -3  238.48   14.70
  -4   3  -3  224.88   14.10
   4  -3   3  234.08   12.70
   4  -3   3  234.98   13.40
   4  -3   3  222.98   13.60
   4  -3   3  232.58   13.70
   4  -3   3  223.08   15.70
  -5   3  -3   85.79    9.00
  -5   3  -3   81.59    6.70
  -5   3  -3   79.79    7.50
   5  -3   3   81.69    7.10
   5  -3   3   86.59    5.80
   5  -3   3   83.79    5.40
   5  -3   3   87.99    7.80
   5  -3   3   91.59    9.50
  -6   3  -3  293.77   16.90
  -6   3  -3  293.07   18.30
   6  -3   3  271.07   17.00
   6  -3   3  309.17   16.40
   6  -3   3  281.97   16.10
   6  -3   3  308.47   16.80
  -7   3  -3   10.60    2.10
   9   2  -3    8.70    3.40
   9   2  -3   13.20    4.50
  -9  -2   3   11.20    2.40
   8   2  -3   42.00    7.80
   8   2  -3   26.70    5.70
   8   2  -3   17.70    6.90
   8   2  -3   37.60    7.50
   8   2  -3   31.30    5.50
  -8  -2   3   22.40    3.10
  -8  -2   3   33.20    6.00
  -8  -2   3   24.00    3.50
   7   2  -3  348.17   22.30
   7   2  -3  345.67   22.10
   7   2  -3  342.67   21.70
   7   2  -3  354.66   20.70
   7   2  -3  350.16   20.40
  -7  -2   3  342.67   26.60
  -7  -2   3  375.86   21.10
  -7  -2   3  357.56   20.70
  -7  -2   3  361.86   20.70
   6   2  -3  101.39   10.10
   6   2  -3   80.69    9.50
   6   2  -3   83.59    7.80
   6   2  -3   79.19   11.70
   6   2  -3   75.79    6.80
   6   2  -3   89.39    8.40
  -6  -2   3   82.69    8.60
  -6  -2   3   92.19    9.40
  -6  -2   3   88.29    8.70
   5   2  -3  353.66   20.90
   5   2  -3  301.67   23.00
   5   2  -3  382.06   20.00
   5   2  -3  357.56   20.20
   5   2  -3  374.76   20.70
   5   2  -3  350.36   21.00
  -5  -2   3  369.66   20.90
  -5  -2   3  362.86   20.90
  -5  -2   3  348.27   21.40
  -5  -2   3  370.86   21.90
   4   2  -3    7.60    1.70
   4   2  -3    6.40    5.40
   4   2  -3    8.50    3.00
   4   2  -3    9.30    3.00
   4   2  -3    9.00    2.30
   4   2  -3    5.20    2.00
  -4  -2   3    9.10    6.50
  -4  -2   3    7.40    7.10
  -4  -2   3    7.20    2.90
   3   2  -3  265.87   13.90
   3   2  -3  252.87   13.70
   3   2  -3  241.08   15.00
   3   2  -3  245.58   15.10
   3   2  -3  253.17   15.30
   3   2  -3  267.67   14.50
  -3  -2   3  218.38   17.20
  -3  -2   3  209.18   14.00
   2   2  -3 3829.52  196.78
   2   2  -3 3787.12  197.08
   2   2  -3 3848.61  197.78
   2   2  -3 3689.33  196.68
   2   2  -3 3819.92  196.88
  -2  -2   3 3387.16  196.58
  -2  -2   3 3856.91  196.78
  -2  -2   3 3527.95  196.48
  -2  -2   3 3783.42  199.58
  -2  -2   3 3989.30  197.28
  -2  -2   3 3685.73  197.18
   1   2  -3   60.29    5.60
   1   2  -3   59.39    4.30
   1   2  -3   57.69    5.30
   1   2  -3   57.59    4.00
   1   2  -3   60.09    4.80
  -1  -2   3   57.89    4.30
  -1  -2   3   59.99    4.70
  -1  -2   3   51.79    4.90
  -1  -2   3   66.99    3.80
   0   2  -3  282.67   17.60
   0   2  -3  282.27   17.10
   0   2  -3  287.97   16.90
   0   2  -3  272.67   17.20
   0  -2   3  342.57   17.00
   0  -2   3  356.26   19.20
   0  -2   3  352.76   17.00
   0  -2   3  343.67   16.80
  -1   2  -3  261.27   16.00
  -1   2  -3  257.77   15.30
   1  -2   3  302.47   15.20
   1  -2   3  293.57   17.90
   1  -2   3  279.37   15.10
   1  -2   3  287.47   15.00
  -2   2  -3  320.87   17.70
  -2   2  -3  287.97   16.60
   2  -2   3  308.17   16.50
   2  -2   3  318.87   16.30
   2  -2   3  284.77   17.00
  -3   2  -3  908.81   53.19
  -3   2  -3  925.21   53.79
   3  -2   3 1068.39   52.79
   3  -2   3  974.90   53.19
   3  -2   3 1053.69   52.99
   3  -2   3 1059.79   53.09
  -4   2  -3   34.20    5.00
  -4   2  -3   32.80    5.60
   4  -2   3   32.30    3.70
   4  -2   3   27.30    5.40
   4  -2   3   27.40    3.30
   4  -2   3   24.70    4.70
   4  -2   3   28.50    2.60
  -5   2  -3  220.48   14.80
  -5   2  -3  216.28   13.40
  -5   2  -3  214.68   13.40
   5  -2   3  232.48   12.80
   5  -2   3  228.78   12.40
   5  -2   3  232.68   13.70
   5  -2   3  204.58   14.70
   5  -2   3  224.28   13.60
  -6   2  -3  481.65   27.10
  -6   2  -3  478.15   25.80
  -6   2  -3  435.36   25.40
   6  -2   3  449.56   26.10
   6  -2   3  445.66   26.20
   6  -2   3  474.45   25.80
   6  -2   3  476.95   25.40
  -7   2  -3  179.08   11.60
  -7   2  -3  194.28   10.50
   7  -2   3  170.48   10.60
   7  -2   3  178.98   11.00
   7  -2   3  162.18   11.20
   7  -2   3  169.68   10.50
  -8   2  -3   66.39    5.70
   8  -2   3   51.09    5.40
   9   1  -3   13.60    4.20
  -9  -1   3   15.80    2.70
   8   1  -3   68.69    7.80
   8   1  -3   58.49    8.50
   8   1  -3   67.59    8.20
   8   1  -3   42.10    9.90
  -8  -1   3   50.79    6.40
  -8  -1   3   55.59    6.50
  -8  -1   3   48.00    5.90
   7   1  -3    6.20    3.00
   7   1  -3    3.60    4.80
   7   1  -3   -4.00    6.10
   7   1  -3    0.80    4.90
   7   1  -3    5.80    3.00
  -7  -1   3    2.40    3.90
  -7  -1   3    1.40    3.50
  -7  -1   3   -3.10    3.80
  -7  -1   3    2.10    4.50
   6   1  -3  219.98   12.80
   6   1  -3  216.88   13.70
   6   1  -3  217.18   14.80
   6   1  -3  213.08   14.20
  -6  -1   3  216.38   14.50
  -6  -1   3  218.98   18.20
  -6  -1   3  211.98   14.10
   5   1  -3  119.79    8.30
   5   1  -3  110.69    7.70
   5   1  -3  120.09   16.90
   5   1  -3  107.09    9.70
   5   1  -3  114.59    8.70
   5   1  -3  116.59    7.20
  -5  -1   3  104.29   10.10
  -5  -1   3  103.79   10.30
  -5  -1   3  116.89    8.80
  -5  -1   3  118.99   11.20
  -5  -1   3  102.59   13.70
   4   1  -3  524.75   28.70
   4   1  -3  516.35   30.60
   4   1  -3  494.35   29.60
   4   1  -3  521.75   28.90
   4   1  -3  523.25   29.00
   4   1  -3  542.65   29.70
  -4  -1   3  545.85   34.30
  -4  -1   3  584.14   32.00
   3   1  -3  540.05   29.50
   3   1  -3  515.95   28.20
   3   1  -3  519.75   28.40
   3   1  -3  488.45   28.90
   3   1  -3  539.75   28.50
  -3  -1   3  551.84   30.20
  -3  -1   3  530.95   28.60
  -3  -1   3  528.45   32.10
   2   1  -3 1853.11   98.89
   2   1  -3 2009.60   99.09
   2   1  -3 1782.22   98.99
   2   1  -3 1890.11   99.19
   2   1  -3 1908.81   99.69
  -2  -1   3 1805.52   99.19
  -2  -1   3 1923.51  101.69
  -2  -1   3 1903.61   99.09
  -2  -1   3 1853.91   99.39
   1   1  -3 1366.16   72.09
   1   1  -3 1487.95   72.49
   1   1  -3 1390.96   71.89
   1   1  -3 1491.95   72.19
  -1  -1   3 1313.37   72.09
  -1  -1   3 1304.37   71.89
  -1  -1   3 1189.58   71.79
  -1  -1   3 1385.56   72.09
   0   1  -3 4082.79  220.38
   0   1  -3 4248.57  220.38
   0   1  -3 4203.78  220.08
   0  -1   3 4152.48  219.98
   0  -1   3 4305.37  220.18
  -1   1  -3  194.18   10.30
   1  -1   3  171.08   10.10
   1  -1   3  189.58   10.10
  -2   1  -3 2208.38  117.49
   2  -1   3 2217.58  117.09
   2  -1   3 2148.19  117.19
   2  -1   3 2407.36  119.39
   2  -1   3 2138.99  117.19
   2  -1   3 2262.17  117.29
  -3   1  -3  434.16   26.80
  -3   1  -3  466.45   25.20
   3  -1   3  462.25   24.50
   3  -1   3  474.25   24.30
   3  -1   3  419.56   24.90
   3  -1   3  472.05   24.60
  -4   1  -3  346.67   20.60
  -4   1  -3  330.77   24.10
  -4   1  -3  354.76   20.50
  -4   1  -3  341.77   20.40
   4  -1   3  353.06   20.00
   4  -1   3  370.66   19.70
   4  -1   3  376.06   19.40
   4  -1   3  380.56   19.70
  -5   1  -3  545.55   29.20
  -5   1  -3  528.25   29.00
  -5   1  -3  561.74   29.30
   5  -1   3  527.55   28.40
   5  -1   3  487.45   29.50
   5  -1   3  511.35   29.10
   5  -1   3  532.35   28.80
   5  -1   3  525.85   28.90
  -6   1  -3  121.79    8.60
  -6   1  -3  125.19    9.10
  -6   1  -3  131.19    9.10
   6  -1   3  132.49    9.20
   6  -1   3  117.49    9.40
   6  -1   3  124.79    7.60
   6  -1   3  111.29    7.90
   6  -1   3  107.99    9.90
  -7   1  -3  298.97   18.40
  -7   1  -3  295.47   16.80
  -7   1  -3  307.67   16.80
   7  -1   3  270.87   16.30
   7  -1   3  284.27   16.50
   7  -1   3  290.97   17.40
   7  -1   3  293.37   16.90
  -8   1  -3   22.20    5.30
   8  -1   3   20.60    3.10
   8  -1   3   12.80    2.70
   8  -1   3   14.40    3.40
   8   0  -3   20.20    3.50
   8   0  -3   17.10    3.40
   8   0  -3   18.20    4.10
  -8   0   3   14.80    3.00
  -8   0   3   15.30    3.00
  -8   0   3   13.60    2.90
   7   0  -3   96.49    8.40
   7   0  -3   84.29   16.90
   7   0  -3  105.79   12.50
   7   0  -3  100.99    9.60
   7   0  -3   87.89   15.30
   7   0  -3   99.79   10.80
  -7   0   3  107.19    9.40
  -7   0   3  110.19    9.20
  -7   0   3  105.39    8.90
   6   0  -3    8.00    3.80
   6   0  -3   39.30   15.80
   6   0  -3   12.80    2.20
   6   0  -3   11.90    3.40
   6   0  -3    5.80    3.20
   6   0  -3    7.00    3.60
  -6   0   3    8.30    4.30
  -6   0   3    7.80    4.20
  -6   0   3   13.00    4.60
   5   0  -3    4.30    2.80
   5   0  -3    3.10    2.10
   5   0  -3    2.70    2.30
   5   0  -3    1.80    1.60
  -5   0   3    6.40    4.60
  -5   0   3    4.00    4.60
  -5   0   3   12.00    4.70
  -5   0   3    4.50    4.40
   4   0  -3   78.19    5.40
   4   0  -3   67.19    9.00
   4   0  -3   72.19   10.60
   4   0  -3   85.89    6.70
   4   0  -3   78.99    5.90
   4   0  -3   79.29    5.50
  -4   0   3   89.39   12.00
  -4   0   3   89.49   10.30
   3   0  -3  531.15   28.60
   3   0  -3  556.14   29.80
   3   0  -3  547.95   29.00
   3   0  -3  517.95   28.80
  -3   0   3  555.84   29.00
  -3   0   3  543.85   30.60
  -3   0   3  509.75   32.70
   2   0  -3  598.04   32.80
   2   0  -3  625.14   32.60
   2   0  -3  591.54   32.70
   2   0  -3  679.13   33.40
  -2   0   3  568.94   33.00
  -2   0   3  624.34   35.50
  -2   0   3  607.14   32.70
  -2   0   3  634.64   33.70
   1   0  -3  489.35   28.00
   1   0  -3  504.65   28.30
   1   0  -3  495.75   27.80
  -1   0   3  541.55   28.30
  -1   0   3  564.54   29.80
  -1   0   3  570.24   28.10
   0   0  -3  993.90   50.99
   0   0  -3  938.31   50.69
   0   0  -3  900.81   50.89
   0   0   3 1030.10   50.89
  -1   0  -3  614.14   33.00
  -1   0  -3  598.34   32.80
   1   0   3  601.54   32.80
   1   0   3  627.14   33.00
   1   0   3  669.53   32.90
  -2   0  -3   56.99    3.50
  -2   0  -3   60.09    4.00
  -2   0  -3   52.29    4.60
   2   0   3   54.09    3.40
   2   0   3   53.09    3.80
   2   0   3   52.29    3.80
   2   0   3   54.99    3.50
   2   0   3   50.39    3.30
  -3   0  -3  366.46   23.20
   3   0   3  418.06   21.50
   3   0   3  431.86   21.70
   3   0   3  395.66   21.70
   3   0   3  400.36   21.60
   3   0   3  419.26   21.40
   3   0   3  368.86   22.60
  -4   0  -3  111.79   12.30
   4   0   3  137.89    7.80
   4   0   3  142.59    8.00
   4   0   3  132.39    8.80
   4   0   3  136.89    8.10
   4   0   3  141.29    8.20
   4   0   3  130.69    8.70
  -5   0  -3   37.60    6.30
  -5   0  -3   48.40    6.10
  -5   0  -3   33.50    6.80
   5   0   3   41.30    5.40
   5   0   3   51.79    5.10
   5   0   3   54.69    6.00
   5   0   3   52.39    4.40
   5   0   3   54.79    3.90
   5   0   3   49.80    7.60
   5   0   3   56.99    8.50
  -6   0  -3  811.72   42.10
  -6   0  -3  836.62   42.40
  -6   0  -3  780.72   42.30
   6   0   3  764.82   41.90
   6   0   3  740.63   42.40
   6   0   3  782.02   42.40
   6   0   3  760.22   42.30
   6   0   3  756.42   41.60
  -7   0  -3   43.60    5.20
  -7   0  -3   39.30    6.20
  -7   0  -3   38.00    6.40
   7   0   3   41.70    7.30
   7   0   3   60.19    9.00
   7   0   3   43.40    5.20
   7   0   3   45.10    5.90
   7   0   3   52.99    5.40
  -8   0  -3   99.69    6.20
  -8   0  -3  101.49    6.50
  -8   0  -3  101.19    7.90
   8   0   3   74.09    7.40
   8   0   3   87.89    8.20
   8   0   3   88.09    7.10
   8  -1  -3   35.90    7.10
   8  -1  -3   41.20    9.00
  -8   1   3   49.40    4.80
  -8   1   3   39.90    6.80
  -8   1   3   53.09    5.20
   7  -1  -3    7.20    3.60
   7  -1  -3    5.90    2.90
   7  -1  -3    9.00    3.00
  -7   1   3    6.20    3.20
  -7   1   3   11.10    4.00
  -7   1   3   10.20    4.20
   6  -1  -3  311.57   19.40
   6  -1  -3  347.87   18.40
   6  -1  -3  328.67   20.30
   6  -1  -3  303.27   19.40
   6  -1  -3  326.77   17.70
  -6   1   3  296.47   19.30
  -6   1   3  310.17   18.80
  -6   1   3  293.97   19.20
   5  -1  -3  192.08   11.70
   5  -1  -3  188.78   11.10
   5  -1  -3  186.98   12.60
   5  -1  -3  193.48   11.90
  -5   1   3  201.98   13.50
  -5   1   3  197.28   13.40
  -5   1   3  183.08   13.60
   4  -1  -3  307.27   16.60
   4  -1  -3  308.07   17.70
   4  -1  -3  300.87   16.90
   4  -1  -3  294.97   19.30
  -4   1   3  306.87   21.20
   3  -1  -3   56.59    6.60
   3  -1  -3   59.99    4.40
   3  -1  -3   59.69    3.70
   2  -1  -3   10.60    2.50
   2  -1  -3   10.40    1.70
   2  -1  -3   12.70    4.40
  -2   1   3    8.40    3.80
  -2   1   3    8.20    2.90
  -2   1   3    8.10    1.60
   1  -1  -3 1651.03   83.39
  -1   1   3 1565.44   85.09
  -1   1   3 1523.15   83.19
   0  -1  -3 1604.54   86.39
   0   1   3 1639.04   86.49
   0   1   3 1695.33   87.79
   0   1   3 1651.73   86.49
  -1  -1  -3   28.70    1.90
  -1  -1  -3   30.30    2.40
   1   1   3   29.90    2.50
   1   1   3   31.00    2.10
  -2  -1  -3  466.15   26.60
  -2  -1  -3  437.26   26.80
  -2  -1  -3  536.25   27.30
  -2  -1  -3  496.65   27.60
   2   1   3  501.25   26.70
   2   1   3  527.85   26.80
   2   1   3  542.65   26.70
   2   1   3  519.25   27.00
  -3  -1  -3  694.23   38.70
  -3  -1  -3  759.42   38.30
  -3  -1  -3  630.14   37.30
  -3  -1  -3  714.93   39.10
  -3  -1  -3  683.43   37.50
   3   1   3  710.13   37.50
   3   1   3  706.43   37.80
   3   1   3  723.83   37.60
   3   1   3  735.93   37.60
   3   1   3  710.13   37.60
  -4  -1  -3  413.56   25.60
  -4  -1  -3  447.36   23.80
   4   1   3  424.56   22.80
   4   1   3  410.96   23.10
   4   1   3  414.06   22.80
   4   1   3  421.96   22.60
   4   1   3  399.16   23.20
  -5  -1  -3  887.51   48.00
  -5  -1  -3  927.31   49.20
  -5  -1  -3  894.61   48.30
  -5  -1  -3  917.81   48.20
   5   1   3  875.21   47.60
   5   1   3  923.01   47.80
   5   1   3  924.91   47.80
   5   1   3  785.42   48.20
   5   1   3  869.21   48.00
   5   1   3  899.51   48.00
   5   1   3  906.61   48.20
  -6  -1  -3  130.99   12.00
  -6  -1  -3  142.39   12.80
  -6  -1  -3  159.08   10.20
   6   1   3  145.99    9.00
   6   1   3  144.99   10.20
   6   1   3  144.59   10.80
   6   1   3  141.49    9.80
   6   1   3  141.59   10.70
   6   1   3  153.58   10.30
  -7  -1  -3   78.59    6.90
  -7  -1  -3   79.19    7.90
  -7  -1  -3   90.79    7.40
   7   1   3   85.19    7.00
   7   1   3   83.29    6.60
   7   1   3   74.39    8.70
   7   1   3   63.09    9.60
  -8  -1  -3   68.99    5.80
  -8  -1  -3   70.39    5.70
  -8  -1  -3   55.99    5.00
   8   1   3   60.19    7.70
   8   1   3   62.79    6.80
   8   1   3   62.89    6.20
  -9  -1  -3    9.90    2.70
   9   1   3   10.20    2.30
   7  -2  -3  214.38   14.50
   7  -2  -3  191.08   12.50
  -7   2   3  194.48   12.70
  -7   2   3  164.88   13.00
  -7   2   3  216.18   15.30
   6  -2  -3  189.98   10.90
   6  -2  -3  176.48   11.60
  -6   2   3  183.78   12.20
  -6   2   3  177.08   12.30
  -6   2   3  165.48   13.50
   5  -2  -3  300.77   15.80
   5  -2  -3  284.17   17.70
   5  -2  -3  284.57   16.70
   5  -2  -3  302.57   16.80
  -5   2   3  267.37   17.30
  -5   2   3  254.87   17.90
  -5   2   3  277.07   17.70
   4  -2  -3  112.09    7.30
   4  -2  -3  118.69    8.60
  -4   2   3   95.09    9.80
   3  -2  -3   75.09    5.10
   3  -2  -3   72.89    7.00
  -3   2   3   67.09    5.30
  -3   2   3   67.39    8.90
   2  -2  -3  688.03   42.10
   2  -2  -3  674.33   40.40
   2  -2  -3  724.03   39.10
  -2   2   3  734.53   39.00
  -2   2   3  783.02   42.60
  -2   2   3  767.42   40.60
   1  -2  -3 1991.50  101.39
   1  -2  -3 1931.91   99.59
  -1   2   3 1756.92   99.39
  -1   2   3 1873.61  101.69
   0  -2  -3  170.68    9.60
   0   2   3  176.88   10.70
   0   2   3  171.08    9.50
  -1  -2  -3 1439.76   77.99
  -1  -2  -3 1554.74   78.49
   1   2   3 1532.75   78.19
   1   2   3 1465.95   78.19
   1   2   3 1477.55   78.29
   1   2   3 1443.46   78.69
  -2  -2  -3 1237.88   59.79
  -2  -2  -3 1105.79   59.09
  -2  -2  -3 1034.30   59.19
   2   2   3 1147.59   59.29
   2   2   3 1143.19   59.49
   2   2   3 1047.30   59.09
   2   2   3 1150.38   59.09
  -3  -2  -3 1515.35   78.99
  -3  -2  -3 1397.06   77.09
  -3  -2  -3 1426.46   77.09
  -3  -2  -3 1619.14   78.19
  -3  -2  -3 1325.77   78.49
   3   2   3 1431.06   77.29
   3   2   3 1538.75   77.19
   3   2   3 1403.06   78.89
   3   2   3 1457.95   77.59
   3   2   3 1536.95   77.39
  -4  -2  -3  220.38   11.90
  -4  -2  -3  196.48   11.30
  -4  -2  -3  188.68   11.30
  -4  -2  -3  190.28   10.80
  -4  -2  -3  175.18   12.40
  -4  -2  -3  209.88   14.40
   4   2   3  184.98   11.50
   4   2   3  190.28   11.10
   4   2   3  174.48   11.80
   4   2   3  183.78   11.30
   4   2   3  184.08   10.90
   4   2   3  188.18   10.90
  -5  -2  -3  597.54   33.80
  -5  -2  -3  580.04   34.00
  -5  -2  -3  572.24   33.70
  -5  -2  -3  604.04   34.10
  -5  -2  -3  591.54   34.00
   5   2   3  646.14   33.00
   5   2   3  617.64   33.00
   5   2   3  629.64   33.10
   5   2   3  569.24   33.90
   5   2   3  668.73   34.00
   5   2   3  620.24   33.40
   5   2   3  625.64   33.00
  -6  -2  -3  186.08   13.00
  -6  -2  -3  209.88   12.80
  -6  -2  -3  216.98   14.60
  -6  -2  -3  209.68   13.00
   6   2   3  186.68   12.30
   6   2   3  181.28   12.40
   6   2   3  183.68   12.50
   6   2   3  185.48   11.90
   6   2   3  176.28   12.00
   6   2   3  178.58   11.40
  -7  -2  -3   93.69    8.50
  -7  -2  -3  121.39    8.50
  -7  -2  -3  114.89    8.90
   7   2   3   86.89   10.70
   7   2   3  108.99    8.20
   7   2   3   92.19   11.10
   7   2   3   99.49    9.30
   7   2   3  110.39    9.50
   7   2   3   93.99   11.00
   7   2   3  100.59    8.40
  -8  -2  -3    6.00    3.10
   8   2   3    9.10    3.70
   8   2   3    9.90    3.30
  -9  -2  -3   49.50    6.50
  -9  -2  -3   41.90    4.40
  -9  -2  -3   38.90    4.50
   9   2   3   36.40    4.60
  -7   3   3    2.10    2.10
   6  -3  -3  128.69    8.40
   6  -3  -3  116.69   11.80
  -6   3   3  145.09    9.90
  -6   3   3  127.39   11.60
  -6   3   3  109.59   12.70
  -5   3   3   77.19   10.40
  -5   3   3   76.09    8.30
  -5   3   3   67.99    8.20
  -5   3   3   73.69    9.40
  -4   3   3  100.09   11.40
  -4   3   3  102.09    9.90
  -4   3   3  111.59    8.20
  -4   3   3  112.49   10.50
  -4   3   3   95.39   10.20
   3  -3  -3  653.03   36.70
  -3   3   3  713.63   37.40
   2  -3  -3 1434.16   75.29
  -2   3   3 1399.96   75.39
   1  -3  -3 1397.86   79.99
   1  -3  -3 1533.85   80.99
   1  -3  -3 1529.85   78.39
  -1   3   3 1459.05   78.29
   0  -3  -3  671.13   38.10
   0  -3  -3  710.73   37.60
   0  -3  -3  694.73   36.70
   0   3   3  660.53   36.50
  -1  -3  -3  426.86   22.40
  -1  -3  -3  382.16   21.90
  -1  -3  -3  391.16   21.70
   1   3   3  407.96   22.10
   1   3   3  426.76   21.90
   1   3   3  421.56   22.20
  -2  -3  -3  490.95   29.60
  -2  -3  -3  556.04   27.80
  -2  -3  -3  540.15   28.00
  -2  -3  -3  592.04   28.80
   2   3   3  478.95   28.20
   2   3   3  487.55   28.00
  -3  -3  -3 1728.13  102.79
  -3  -3  -3 2162.88  103.89
  -3  -3  -3 1856.11  102.59
  -3  -3  -3 1894.41  102.69
   3   3   3 2049.29  103.29
   3   3   3 1955.90  102.59
   3   3   3 2022.10  102.99
  -4  -3  -3   71.19    4.80
  -4  -3  -3   72.69    5.40
  -4  -3  -3   59.09   10.40
  -4  -3  -3   66.89    6.20
  -4  -3  -3   71.29    5.60
   4   3   3   65.19    4.80
   4   3   3   76.59    5.90
   4   3   3   74.79    5.50
   4   3   3   62.09    6.80
   4   3   3   71.09    8.10
   4   3   3   66.39    6.00
  -5  -3  -3   37.40    8.10
  -5  -3  -3   43.00    7.20
  -5  -3  -3   44.20    9.30
  -5  -3  -3   48.20    5.70
   5   3   3   65.89    5.40
   5   3   3   61.99    9.40
   5   3   3   62.59    6.80
   5   3   3   60.89    5.70
   5   3   3   63.29    6.60
   5   3   3   55.99    7.60
   5   3   3   61.89    4.90
  -6  -3  -3  418.76   27.20
  -6  -3  -3  477.05   28.70
   6   3   3  503.55   27.10
   6   3   3  488.65   26.80
   6   3   3  479.95   28.30
   6   3   3  479.15   26.80
   6   3   3  504.95   28.60
   6   3   3  463.55   26.50
   6   3   3  464.95   26.30
   6   3   3  486.45   26.50
  -7  -3  -3  293.97   17.20
  -7  -3  -3  286.57   19.70
  -7  -3  -3  266.97   17.40
   7   3   3  311.07   17.50
   7   3   3  287.67   20.70
   7   3   3  274.17   17.70
   7   3   3  290.87   17.90
   7   3   3  271.37   17.10
  -8  -3  -3   39.10    5.80
   8   3   3   64.09   12.10
  -9  -3  -3  104.49    6.60
  -9  -3  -3   90.39    6.80
   9   3   3  103.89    6.70
  -7   4   3   57.79    4.60
  -6   4   3  128.79    9.70
  -6   4   3  133.69   10.10
  -5   4   3  100.59    8.60
  -5   4   3   92.29    9.00
   4  -4  -3  446.56   24.70
  -4   4   3  454.15   26.50
  -4   4   3  420.86   29.60
  -4   4   3  425.66   26.60
   3  -4  -3  792.02   44.60
  -3   4   3  797.02   45.30
  -3   4   3  888.61   48.70
  -3   4   3  850.71   46.20
  -3   4   3  777.62   45.80
  -3   4   3  898.31   45.70
   2  -4  -3  586.44   32.70
  -2   4   3  630.34   33.40
   1  -4  -3 1519.85   89.09
   1  -4  -3 1612.24   85.09
  -1   4   3 1669.93   85.09
   0  -4  -3  356.96   21.70
   0  -4  -3  353.36   20.00
   0   4   3  364.96   19.90
  -1  -4  -3  161.38    9.00
  -1  -4  -3  176.78    9.90
  -1  -4  -3  168.78    8.70
   1   4   3  148.89    9.40
   1   4   3  139.29    9.30
  -2  -4  -3 4031.20  214.98
  -2  -4  -3 3751.92  215.28
  -2  -4  -3 4231.68  216.08
  -2  -4  -3 3817.82  215.38
   2   4   3 4314.87  215.58
   2   4   3 4253.87  215.68
   2   4   3 4288.07  215.28
  -3  -4  -3  344.07   17.50
  -3  -4  -3  308.07   17.60
  -3  -4  -3  321.17   18.60
  -3  -4  -3  297.97   17.90
   3   4   3  339.37   18.30
   3   4   3  326.27   17.70
  -4  -4  -3  541.05   27.30
  -4  -4  -3  438.76   28.50
  -4  -4  -3  535.35   28.70
  -4  -4  -3  501.95   27.30
  -4  -4  -3  496.05   27.60
   4   4   3  467.15   29.00
   4   4   3  521.55   27.50
   4   4   3  547.15   28.30
  -5  -4  -3  284.47   17.90
  -5  -4  -3  291.57   17.60
  -5  -4  -3  280.47   19.40
  -5  -4  -3  297.77   17.10
  -5  -4  -3  303.87   16.90
  -5  -4  -3  310.57   16.80
  -5  -4  -3  245.88   19.20
   5   4   3  293.57   18.50
   5   4   3  295.57   18.50
   5   4   3  305.47   16.70
   5   4   3  300.67   17.20
  -6  -4  -3  177.98   12.80
  -6  -4  -3  170.18   11.90
  -6  -4  -3  161.78   13.10
   6   4   3  178.18   13.30
   6   4   3  175.28   11.30
   6   4   3  172.28   12.90
   6   4   3  174.58   11.70
  -7  -4  -3  106.29   10.30
  -7  -4  -3  116.29    9.50
  -7  -4  -3   88.79    9.90
   7   4   3   96.09   12.70
   7   4   3  122.39   10.70
   7   4   3  123.49   11.20
   7   4   3  125.79    9.90
  -8  -4  -3   -1.30    3.60
  -8  -4  -3    1.70    2.60
   8   4   3   -2.50    3.00
   8   4   3    5.10    5.10
   8   4   3   -9.10    6.10
  -9  -4  -3   38.80    5.50
  -9  -4  -3   51.79    4.50
   9   4   3   63.59    4.90
  -6   5   3   50.99    6.00
  -6   5   3   56.49    4.80
  -5   5   3   35.10    6.60
  -5   5   3   39.30    6.80
  -4   5   3  149.79   10.60
  -4   5   3  158.78   12.80
  -4   5   3  144.39   11.00
  -3   5   3  108.09   11.40
  -3   5   3  122.59   10.30
  -3   5   3  119.19    9.90
   2  -5  -3  692.03   36.80
  -2   5   3  630.44   36.40
  -2   5   3  683.03   36.80
  -2   5   3  650.43   37.20
   1  -5  -3   94.89    7.30
  -1   5   3  111.19    7.70
  -1   5   3  108.49   10.40
  -1   5   3   99.19    8.30
   0  -5  -3  117.39    8.20
   0  -5  -3  113.79    6.90
   0   5   3  138.49    8.40
  -1  -5  -3  161.18   10.40
  -1  -5  -3  157.18    9.50
  -1  -5  -3  161.98    9.30
   1   5   3  184.48   10.60
  -2  -5  -3   14.20    2.60
  -2  -5  -3   21.10    3.40
  -2  -5  -3   21.30    2.40
  -2  -5  -3   23.90    3.10
   2   5   3   16.40    3.10
   2   5   3   18.80    4.50
   2   5   3   13.40    2.90
  -3  -5  -3  419.86   22.70
  -3  -5  -3  416.06   21.30
  -3  -5  -3  383.96   22.30
  -3  -5  -3  416.26   21.40
   3   5   3  365.56   21.40
   3   5   3  367.66   22.10
   3   5   3  385.66   22.60
   3   5   3  380.36   22.50
  -4  -5  -3  131.49    8.70
  -4  -5  -3  131.49    9.50
  -4  -5  -3  135.39    7.90
  -4  -5  -3  136.39    8.40
  -4  -5  -3  125.29   11.10
   4   5   3  116.19   15.10
   4   5   3  135.89    8.90
   4   5   3  150.38   10.60
   4   5   3  131.89    8.40
   4   5   3  113.39   10.50
  -5  -5  -3    9.90    2.70
  -5  -5  -3    4.30    8.10
  -5  -5  -3   11.90    2.40
  -5  -5  -3   11.70    3.60
  -5  -5  -3   13.70   10.30
  -5  -5  -3   11.40    3.00
   5   5   3    3.60    5.90
   5   5   3    7.90    4.70
   5   5   3    5.70    3.00
   5   5   3    5.60    3.10
  -6  -5  -3  221.78   16.70
  -6  -5  -3  236.78   15.20
  -6  -5  -3  231.08   17.00
   6   5   3  268.07   16.20
   6   5   3  248.38   15.50
   6   5   3  261.37   15.60
   6   5   3  268.77   16.00
  -7  -5  -3   28.40    5.90
  -7  -5  -3   40.70    8.00
  -7  -5  -3   24.70    4.30
   7   5   3   33.40    5.20
   7   5   3   29.20    4.80
   7   5   3   21.70    4.70
  -8  -5  -3  113.79    8.90
  -8  -5  -3  127.69    8.40
   8   5   3  125.99    9.40
   8   5   3  129.99    8.70
  -5   6   3   39.90    5.00
  -4   6   3   80.79    7.40
  -3   6   3  273.47   18.80
  -3   6   3  283.77   16.90
  -3   6   3  285.87   17.30
   2  -6  -3   48.30    9.50
  -2   6   3   56.29    6.20
  -2   6   3   45.20    7.00
  -2   6   3   49.30    7.30
   1  -6  -3  250.87   15.60
  -1   6   3  247.98   15.50
  -1   6   3  250.17   16.30
  -1   6   3  237.38   15.20
   0  -6  -3  154.08   11.30
   0  -6  -3  156.28    9.60
   0   6   3  197.88   13.00
   0   6   3  174.28   11.50
   0   6   3  186.58   11.80
  -1  -6  -3  155.28    9.10
  -1  -6  -3  158.08   10.40
  -1  -6  -3  155.58    8.50
   1   6   3  149.59   11.80
   1   6   3  132.89   12.00
   1   6   3  163.28   10.70
   1   6   3  130.99   10.10
  -2  -6  -3  339.57   19.30
  -2  -6  -3  307.87   18.20
  -2  -6  -3  346.97   17.90
  -2  -6  -3  306.07   24.40
  -2  -6  -3  334.37   17.50
   2   6   3  322.07   19.20
   2   6   3  312.17   20.30
   2   6   3  299.17   18.70
   2   6   3  333.87   19.30
   2   6   3  298.77   19.00
  -3  -6  -3  159.88    9.90
  -3  -6  -3  154.28   14.20
  -3  -6  -3  148.79   10.10
  -3  -6  -3  151.98    9.20
  -3  -6  -3  159.18   11.10
   3   6   3  153.18   13.60
   3   6   3  144.39   11.50
   3   6   3  179.78   11.00
   3   6   3  157.98   10.50
   3   6   3  162.48   10.00
   3   6   3  172.68   12.30
  -4  -6  -3   83.69    8.00
  -4  -6  -3   90.19    6.90
  -4  -6  -3   83.99    6.00
  -4  -6  -3   85.79    7.00
   4   6   3   86.39    7.30
   4   6   3  101.69   10.90
   4   6   3   95.49    7.80
  -5  -6  -3  104.59    7.60
  -5  -6  -3   81.79    8.80
  -5  -6  -3  105.99    6.90
  -5  -6  -3   94.19    8.70
   5   6   3   83.19    8.20
   5   6   3   68.49   12.90
   5   6   3   79.99    8.80
   5   6   3   87.99    9.20
  -6  -6  -3    4.70    7.10
  -6  -6  -3    4.00    3.60
  -6  -6  -3    9.80    7.50
   6   6   3   -3.90    5.00
   6   6   3   -2.50    3.80
   6   6   3    3.40    5.40
   6   6   3   11.20   13.60
  -7  -6  -3   19.50    5.20
   7   6   3   19.60    5.40
  -8  -6  -3   58.39    6.10
   8   6   3   63.59    6.20
   8   6   3   77.39    6.80
  -4   7   3   67.59    6.10
  -3   7   3    5.30    2.40
  -2   7   3  330.87   20.30
  -2   7   3  350.06   20.40
   1  -7  -3  100.29   11.90
  -1   7   3  127.99   11.20
  -1   7   3  133.59   10.00
  -1   7   3  130.39    9.60
   0  -7  -3   97.89    9.70
   0  -7  -3  107.19    7.10
   0  -7  -3  102.29    6.40
   0   7   3   95.59    8.20
   0   7   3  101.79   10.20
   0   7   3  104.99    9.20
  -1  -7  -3  102.49    8.80
  -1  -7  -3  109.29    6.60
  -1  -7  -3  101.99    9.60
  -1  -7  -3  117.79    7.20
   1   7   3   97.09   10.60
   1   7   3  111.39    8.90
   1   7   3  103.89    9.70
  -2  -7  -3  107.79    8.30
  -2  -7  -3  102.09   15.70
  -2  -7  -3  105.59    6.80
  -2  -7  -3   97.59    9.30
  -2  -7  -3  106.69    7.30
   2   7   3  114.09   11.20
   2   7   3  111.19    9.00
   2   7   3  106.49   10.20
   2   7   3  126.39    9.20
  -3  -7  -3   28.90    6.20
  -3  -7  -3   43.90    4.10
  -3  -7  -3   39.40    5.80
  -3  -7  -3   38.40    7.40
  -3  -7  -3   43.90    4.50
   3   7   3   57.09    7.10
   3   7   3   60.29   10.40
  -4  -7  -3  350.36   18.50
  -4  -7  -3  321.07   20.40
  -4  -7  -3  331.37   19.30
  -4  -7  -3  353.36   17.90
  -4  -7  -3  350.76   18.00
   4   7   3  272.57   19.70
   4   7   3  293.47   18.70
   4   7   3  295.77   21.90
   4   7   3  300.47   19.00
  -5  -7  -3   50.29    5.70
  -5  -7  -3   52.29    6.20
  -5  -7  -3   43.60    5.30
  -5  -7  -3   47.30    7.20
   5   7   3   42.40    7.40
   5   7   3   42.90   13.40
   5   7   3   33.00    7.40
   5   7   3   32.00    6.90
   5   7   3   45.70    7.10
  -6  -7  -3   66.39    7.60
   6   7   3   63.09    7.30
  -7  -7  -3   65.29    8.50
  -7  -7  -3   63.99    5.80
   7   7   3   59.79    5.80
  -8  -7  -3   19.50    3.40
  -8  -7  -3   17.30    3.60
  -3   8   3   88.69    6.40
  -3   8   3  108.29    7.00
  -2   8   3   69.59    6.00
  -2   8   3   48.70    5.20
  -1   8   3   25.80    5.80
   0  -8  -3  150.48    9.40
   0  -8  -3  155.08    9.80
   0   8   3  149.29   11.00
  -1  -8  -3  221.88   13.40
  -1  -8  -3  233.78   13.20
  -1  -8  -3  205.38   19.40
  -1  -8  -3  221.08   13.80
   1   8   3  247.38   15.00
   1   8   3  252.07   15.40
   1   8   3  239.78   25.80
  -2  -8  -3  380.66   21.90
  -2  -8  -3  375.36   25.60
  -2  -8  -3  394.06   22.00
  -2  -8  -3  350.36   24.60
  -2  -8  -3  402.86   21.70
   2   8   3  435.36   23.10
   2   8   3  421.76   22.90
   2   8   3  379.46   26.10
  -3  -8  -3  141.19    8.60
  -3  -8  -3  126.19    8.40
  -3  -8  -3  131.89   17.30
  -3  -8  -3  138.69   12.20
  -3  -8  -3  134.19    8.40
   3   8   3  115.99    9.70
   3   8   3  114.89   14.90
   3   8   3  122.29    9.30
   3   8   3  120.09   10.50
  -4  -8  -3   53.79    6.10
  -4  -8  -3   46.70    8.20
  -4  -8  -3   43.70    5.40
  -4  -8  -3   46.10    5.10
   4   8   3   54.69    6.60
   4   8   3   43.20    6.90
  -5  -8  -3  125.29    9.80
  -5  -8  -3  130.89    8.40
  -5  -8  -3  118.89   10.10
  -5  -8  -3  124.49   12.80
   5   8   3  113.99    9.50
  -6  -8  -3   43.70    5.20
   6   8   3   41.50    4.60
  -7  -8  -3   46.60    4.60
   7   8   3   41.80    4.10
  -1   9   3   26.90    3.40
  -1   9   3   28.60    6.10
   0  -9  -3   51.49    7.00
   0   9   3   59.49    5.00
  -1  -9  -3  216.38   12.30
  -1  -9  -3  213.48   12.40
   1   9   3  177.78   12.30
   1   9   3  206.58   12.30
  -2  -9  -3    8.40    2.30
  -2  -9  -3    7.20    2.60
   2   9   3   11.90    2.70
  -3  -9  -3  102.19    9.30
  -3  -9  -3  119.69    8.10
  -3  -9  -3  124.59    7.80
   3   9   3  101.19    7.80
   3   9   3  121.89    8.30
  -4  -9  -3   53.39    6.40
  -4  -9  -3   61.29    5.50
  -4  -9  -3   55.09    6.50
   4   9   3   47.00    5.60
  -5  -9  -3    4.00    2.60
  -5  -9  -3   -0.60    2.60
   5   9   3    0.40    2.10
  -6  -9  -3   63.29    5.20
   6   9   3   65.59    5.80
   5   8  -4   -1.40    2.80
  -5  -8   4   -2.30    2.80
  -5  -8   4   -2.60    2.10
   4   8  -4   14.10    3.20
  -4  -8   4   19.40    3.20
  -4  -8   4   12.30    2.30
   3   8  -4   20.10    3.30
  -3  -8   4   20.20    3.60
  -3  -8   4   19.70    3.60
   2   8  -4   50.19    6.00
   2   8  -4   44.50    8.10
  -2  -8   4   50.99    7.30
  -2  -8   4   51.49    4.40
   1   8  -4   55.49    6.40
   1   8  -4   43.90    7.10
  -1  -8   4   54.69    7.90
  -1  -8   4   68.19    7.60
  -1  -8   4   53.69    4.50
   0   8  -4    5.40    3.20
   0  -8   4    4.40    4.30
   0  -8   4    1.20    2.00
  -1   8  -4   12.40    2.80
   1  -8   4   16.70    5.40
   6   7  -4   12.80    3.80
  -6  -7   4   -1.30    4.60
  -6  -7   4    0.00    3.30
   5   7  -4   82.49    8.00
  -5  -7   4   62.49   11.30
  -5  -7   4   89.99    7.80
  -5  -7   4   78.49    6.00
   4   7  -4   35.90    7.20
  -4  -7   4   29.90   10.90
  -4  -7   4   34.90    4.70
  -4  -7   4   39.70    4.70
   3   7  -4   89.99    9.70
   3   7  -4   78.39   16.70
  -3  -7   4  103.19    7.90
  -3  -7   4   97.99   10.90
  -3  -7   4   90.69   15.50
  -3  -7   4   97.39    7.80
   2   7  -4   49.50   10.30
   2   7  -4   59.89    8.70
  -2  -7   4   67.79    7.30
  -2  -7   4   57.89    8.90
  -2  -7   4   72.79    6.50
  -2  -7   4   72.69    5.90
  -2  -7   4   64.59    9.90
   1   7  -4    7.00    4.40
  -1  -7   4    6.20    4.90
   0   7  -4  161.08   16.90
   0   7  -4  136.69   11.20
   0  -7   4  126.49   12.10
   0  -7   4  148.69    9.60
  -1   7  -4  491.85   28.00
  -1   7  -4  465.15   28.60
   1  -7   4  549.45   28.30
  -2   7  -4  101.49    8.50
   2  -7   4   80.79   10.50
  -3   7  -4  109.29    7.90
  -3   7  -4   88.49    8.90
   7   6  -4   21.50    4.50
   7   6  -4   26.70    5.50
  -7  -6   4   29.60    5.60
  -7  -6   4   24.60    3.90
   6   6  -4   49.20    9.50
   6   6  -4   52.29    9.60
  -6  -6   4   56.39    7.70
  -6  -6   4   54.79    5.20
  -6  -6   4   37.20    8.10
   5   6  -4   32.10    6.60
   5   6  -4   37.70    8.00
  -5  -6   4   33.70    6.00
  -5  -6   4   23.30    5.60
   4   6  -4   15.40    5.60
   4   6  -4   -4.70   18.40
   4   6  -4   24.90    8.70
  -4  -6   4   17.00    8.20
  -4  -6   4   12.30    5.30
  -4  -6   4   11.00    3.50
  -4  -6   4    9.20   10.80
   3   6  -4  214.38   28.10
   3   6  -4  231.88   23.00
   3   6  -4  202.78   14.90
  -3  -6   4  201.38   22.80
  -3  -6   4  213.18   13.30
  -3  -6   4  237.78   13.40
  -3  -6   4  214.88   13.10
  -3  -6   4  199.18   14.90
  -3  -6   4  174.78   14.90
   2   6  -4   77.79   14.90
   2   6  -4   54.59    9.00
  -2  -6   4   72.79    9.50
  -2  -6   4   81.09    7.30
  -2  -6   4   63.49    6.90
  -2  -6   4   73.29    6.50
   1   6  -4  189.18   17.10
   1   6  -4  167.38   13.70
  -1  -6   4  190.08   14.30
  -1  -6   4  193.38   14.20
  -1  -6   4  231.08   12.10
  -1  -6   4  206.68   11.70
   0   6  -4  181.88   15.60
   0   6  -4  178.78   12.70
   0  -6   4  156.18   13.00
   0  -6   4  188.18   11.50
   0  -6   4  169.88   10.30
   0  -6   4  170.38   13.30
  -1   6  -4   13.50    6.00
  -1   6  -4   12.00    4.10
   1  -6   4    3.30    5.10
   1  -6   4    3.10    2.30
   1  -6   4   -2.50    2.70
   1  -6   4    6.10    5.60
  -2   6  -4  323.17   21.00
  -2   6  -4  339.17   19.60
  -2   6  -4  341.47   19.40
   2  -6   4  273.37   18.50
   2  -6   4  314.67   17.60
   2  -6   4  314.07   21.80
  -3   6  -4   37.10    5.60
  -3   6  -4   37.10    7.00
   3  -6   4   42.30    8.80
   3  -6   4   33.80    5.50
  -4   6  -4   16.20    4.50
  -4   6  -4   27.10    4.50
   4  -6   4   24.00    4.90
   4  -6   4   21.10    6.80
   8   5  -4    8.90    3.50
  -8  -5   4    8.50    2.30
  -8  -5   4   11.00    2.40
   7   5  -4    6.40    7.80
   7   5  -4    4.00    4.20
  -7  -5   4    3.50    2.60
   6   5  -4   -6.50    8.10
   6   5  -4    0.20    6.00
   6   5  -4    5.50    8.70
  -6  -5   4    1.60    3.80
  -6  -5   4    0.20    5.90
   5   5  -4    1.10    6.50
   5   5  -4   -2.70    6.90
   5   5  -4   -6.60    6.70
  -5  -5   4    2.50    5.70
  -5  -5   4   -2.20    3.70
  -5  -5   4   -1.70    5.30
   4   5  -4  229.98   17.10
   4   5  -4  191.78   15.80
   4   5  -4  173.88   15.50
  -4  -5   4  228.38   18.30
  -4  -5   4  206.58   14.90
  -4  -5   4  167.78   14.20
  -4  -5   4  214.58   12.90
   3   5  -4    4.10    5.60
   3   5  -4   16.20    5.30
  -3  -5   4    9.40    5.30
  -3  -5   4    9.40    3.70
  -3  -5   4   11.00    3.50
  -3  -5   4    9.60    3.70
  -3  -5   4    9.20    2.80
  -3  -5   4    9.70    4.00
   2   5  -4  138.59   13.30
   2   5  -4  137.99   13.20
   2   5  -4  141.69   12.70
  -2  -5   4  177.18    9.90
  -2  -5   4  189.58   10.60
  -2  -5   4  172.68   11.70
  -2  -5   4  162.18   11.40
  -2  -5   4  160.88   13.90
   1   5  -4   43.60    8.80
   1   5  -4   34.80    9.50
   1   5  -4   50.19    8.20
  -1  -5   4   58.49    9.60
  -1  -5   4   56.49    6.70
  -1  -5   4   39.50    5.80
  -1  -5   4   40.90    5.90
  -1  -5   4   44.50    3.90
  -1  -5   4   50.59    6.00
   0   5  -4   63.29    9.00
   0  -5   4   64.49    7.00
   0  -5   4   70.29    4.70
   0  -5   4   68.19    6.10
  -1   5  -4  370.96   21.20
  -1   5  -4  375.56   22.20
  -1   5  -4  412.36   22.70
   1  -5   4  312.77   21.40
   1  -5   4  342.37   21.50
   1  -5   4  351.76   19.50
   1  -5   4  352.16   20.10
  -2   5  -4  115.79    9.60
  -2   5  -4  117.79   10.30
  -2   5  -4  113.89   14.10
   2  -5   4  117.09    7.60
   2  -5   4  119.69    7.10
   2  -5   4  115.99   10.40
   2  -5   4  140.59   10.70
   2  -5   4   98.79    8.70
  -3   5  -4   57.39    7.50
  -3   5  -4   57.09   10.70
  -3   5  -4   54.09    7.50
   3  -5   4   49.70    8.60
   3  -5   4   55.29    4.20
   3  -5   4   58.39    8.50
   3  -5   4   48.00    4.80
  -4   5  -4   48.20    5.60
  -4   5  -4   37.60    5.70
   4  -5   4   35.80    4.50
   4  -5   4   32.40    5.30
   4  -5   4   50.89    4.40
   4  -5   4   37.30    7.40
   5  -5   4   -0.30    3.50
   8   4  -4   15.00    3.80
  -8  -4   4   16.10    2.60
  -8  -4   4   11.40    2.80
   7   4  -4   25.40    6.90
   7   4  -4   34.80    7.20
  -7  -4   4   48.30    7.00
  -7  -4   4   45.40    7.70
   6   4  -4    4.20    5.70
   6   4  -4   12.30    6.30
   6   4  -4   20.00   17.20
   6   4  -4   13.40    6.00
   6   4  -4    4.60    5.60
   6   4  -4   14.60    6.20
  -6  -4   4    9.10    3.90
  -6  -4   4   13.50    4.90
  -6  -4   4   16.90    5.00
   5   4  -4  117.09   17.50
   5   4  -4  102.69   10.70
   5   4  -4  108.49   12.90
   5   4  -4  110.79   12.80
   5   4  -4  109.19   10.00
   5   4  -4  120.99   12.90
   5   4  -4  109.09   13.00
  -5  -4   4  118.79    9.50
  -5  -4   4  111.09   12.70
  -5  -4   4  116.59   12.50
  -5  -4   4  122.49   11.50
   4   4  -4   10.40    4.10
   4   4  -4   11.80    6.60
   4   4  -4   11.90    3.50
   4   4  -4    1.40    5.20
   4   4  -4    5.50    7.70
   4   4  -4    6.20    6.10
   4   4  -4    8.20    6.30
  -4  -4   4   17.90    6.20
  -4  -4   4   15.00    8.10
  -4  -4   4    9.40    4.20
  -4  -4   4   10.50    4.00
  -4  -4   4    9.60    6.00
   3   4  -4  107.29   10.90
   3   4  -4  103.39   13.90
   3   4  -4  117.69   12.90
   3   4  -4  100.09    8.10
   3   4  -4  124.19   10.50
  -3  -4   4  105.09    8.10
  -3  -4   4   89.69   11.30
  -3  -4   4   98.49    8.60
  -3  -4   4  104.09   13.70
  -3  -4   4  100.89    8.30
  -3  -4   4  108.79    8.80
   2   4  -4  278.57   21.10
   2   4  -4  264.67   19.00
   2   4  -4  280.87   17.30
  -2  -4   4  273.07   22.90
  -2  -4   4  282.67   16.70
  -2  -4   4  264.07   15.80
  -2  -4   4  282.37   15.50
  -2  -4   4  236.88   17.60
  -2  -4   4  304.37   16.40
  -2  -4   4  289.57   15.80
   1   4  -4  102.39   10.30
   1   4  -4  103.49    8.70
   1   4  -4   94.29   12.80
   1   4  -4   90.99   10.50
  -1  -4   4   81.29    7.30
  -1  -4   4   90.89    7.00
  -1  -4   4   96.79    6.20
  -1  -4   4   83.49   10.10
  -1  -4   4   94.99    6.00
   0   4  -4   56.49    8.90
   0   4  -4   64.19    7.70
   0   4  -4   57.29    8.00
   0  -4   4   78.79    9.70
   0  -4   4   77.79    5.90
   0  -4   4   80.49    5.00
   0  -4   4   79.89    4.90
   0  -4   4   65.49    6.90
  -1   4  -4   22.30    5.30
  -1   4  -4   20.50    4.10
  -1   4  -4   27.20    4.40
   1  -4   4   15.80    3.00
   1  -4   4   21.40    4.50
   1  -4   4   21.30    3.20
   1  -4   4   23.00    2.20
  -2   4  -4  179.28   11.60
  -2   4  -4  185.38   13.40
  -2   4  -4  170.58   12.90
   2  -4   4  154.78   11.70
   2  -4   4  158.38    9.40
   2  -4   4  145.69   10.00
   2  -4   4  167.48    9.90
   2  -4   4  185.28   10.60
  -3   4  -4  242.08   14.50
  -3   4  -4  219.48   14.20
  -3   4  -4  225.38   15.10
   3  -4   4  227.18   14.40
   3  -4   4  254.57   13.90
   3  -4   4  212.38   13.60
   3  -4   4  225.78   12.70
   3  -4   4  235.68   13.00
  -4   4  -4    8.00    3.10
  -4   4  -4    2.60    3.40
  -4   4  -4   11.60    7.60
   4  -4   4    6.90    1.60
   4  -4   4   10.90    3.90
   4  -4   4    2.30    3.60
  -5   4  -4   50.29    7.00
   5  -4   4   65.99    5.20
   5  -4   4   57.49    4.80
   5  -4   4   66.19    6.90
   5  -4   4   63.19    6.90
   6  -4   4   -2.50    2.50
   8   3  -4   -1.50    6.20
   8   3  -4   11.30    4.00
   8   3  -4    4.40    4.40
  -8  -3   4    6.60    2.80
  -8  -3   4    7.30    2.70
   7   3  -4   61.09   11.90
   7   3  -4   54.49    9.50
   7   3  -4   73.69   10.40
   7   3  -4   57.79   11.10
   7   3  -4   79.29   11.80
  -7  -3   4   78.79    9.20
  -7  -3   4   72.49    7.60
  -7  -3   4   82.49    8.50
   6   3  -4    0.60    5.80
   6   3  -4    1.30    4.30
   6   3  -4   -0.40    4.50
   6   3  -4    2.10    4.10
   6   3  -4    1.10    4.30
   6   3  -4    2.80    4.60
  -6  -3   4    6.70    4.40
  -6  -3   4    9.90    4.00
  -6  -3   4    5.50    4.50
   5   3  -4   29.80    4.90
   5   3  -4   24.90    4.40
   5   3  -4   32.30    6.10
   5   3  -4   23.80    4.60
   5   3  -4   26.40    3.70
  -5  -3   4   41.00    8.50
  -5  -3   4   22.80    6.30
   4   3  -4   83.49    6.90
   4   3  -4   93.49    8.90
   4   3  -4   81.69   14.10
   4   3  -4   92.89    7.90
   4   3  -4   71.59   12.30
   4   3  -4   89.39    9.60
   4   3  -4   80.99   14.80
  -4  -3   4   79.99   10.50
  -4  -3   4   96.39    8.90
  -4  -3   4   74.99   14.50
  -4  -3   4   87.59    7.70
  -4  -3   4   78.19   13.10
   3   3  -4  254.57   15.80
   3   3  -4  273.97   16.80
   3   3  -4  222.98   19.00
   3   3  -4  273.67   15.90
   3   3  -4  245.18   19.90
   3   3  -4  270.27   15.10
   3   3  -4  246.68   16.20
   3   3  -4  242.88   14.50
  -3  -3   4  251.97   24.10
  -3  -3   4  235.58   21.30
  -3  -3   4  252.97   16.40
  -3  -3   4  252.97   15.00
   2   3  -4   75.79    9.40
   2   3  -4   74.39    6.80
   2   3  -4   66.09    7.40
   2   3  -4   68.79    9.80
   2   3  -4   67.19    7.80
   2   3  -4   77.89    6.20
  -2  -3   4   60.09    5.10
  -2  -3   4   71.59    5.70
  -2  -3   4   72.39    6.80
  -2  -3   4   74.59    5.20
  -2  -3   4   71.79    9.70
  -2  -3   4   78.09    6.40
   1   3  -4 1300.17   71.39
   1   3  -4 1285.17   70.69
   1   3  -4 1344.67   70.19
   1   3  -4 1329.77   71.19
  -1  -3   4 1374.16   71.09
  -1  -3   4 1395.96   70.29
  -1  -3   4 1326.67   69.99
  -1  -3   4 1263.17   70.39
   0   3  -4  345.67   19.90
   0   3  -4  336.07   18.60
   0  -3   4  326.17   18.20
   0  -3   4  311.87   18.80
   0  -3   4  339.27   18.00
   0  -3   4  350.36   18.40
  -1   3  -4  568.94   31.80
  -1   3  -4  629.44   33.20
   1  -3   4  595.14   31.80
   1  -3   4  576.64   31.60
   1  -3   4  586.84   31.50
   1  -3   4  586.54   31.30
  -2   3  -4  420.86   27.00
  -2   3  -4  459.05   25.20
  -2   3  -4  465.45   26.40
  -2   3  -4  382.86   26.00
   2  -3   4  464.85   24.50
   2  -3   4  457.35   24.30
   2  -3   4  484.65   24.20
   2  -3   4  464.75   24.40
   2  -3   4  435.06   25.20
  -3   3  -4  140.09   13.40
  -3   3  -4  156.98   10.40
  -3   3  -4  139.19   10.20
  -3   3  -4  149.59   12.40
   3  -3   4  164.68    9.20
   3  -3   4  148.89   11.00
   3  -3   4  159.98    9.20
   3  -3   4  163.08    9.60
   3  -3   4  154.98    8.70
  -4   3  -4  286.27   16.30
  -4   3  -4  280.27   16.20
  -4   3  -4  288.07   17.70
   4  -3   4  266.67   16.70
   4  -3   4  273.67   15.40
   4  -3   4  277.57   15.20
   4  -3   4  269.47   15.90
   4  -3   4  285.97   16.10
  -5   3  -4  124.69   10.60
  -5   3  -4  126.19    9.10
  -5   3  -4  143.09    8.80
   5  -3   4  108.49    9.10
   5  -3   4  133.89    8.40
   5  -3   4  119.09    9.60
   5  -3   4  118.29    7.90
   5  -3   4  125.59    7.80
  -6   3  -4   76.99    7.00
   6  -3   4   77.99    6.70
   6  -3   4   74.79    6.40
   6  -3   4   64.89    5.90
   6  -3   4   77.59    6.70
   7  -3   4   10.20    3.50
   8   2  -4   60.49    8.50
   8   2  -4   40.60    5.70
   8   2  -4   52.39    8.30
  -8  -2   4   49.30    5.30
  -8  -2   4   57.49    6.30
  -8  -2   4   55.19    5.30
   7   2  -4   54.09    8.20
   7   2  -4   62.69    8.60
   7   2  -4   48.10    7.40
   7   2  -4   60.29   10.60
   7   2  -4   62.29   11.30
   7   2  -4   62.79    8.50
  -7  -2   4   65.29    7.70
  -7  -2   4   69.49    7.50
  -7  -2   4   67.29    8.80
   6   2  -4  172.78   15.10
   6   2  -4  183.88   13.70
   6   2  -4  169.38   12.90
   6   2  -4  179.18   12.60
   6   2  -4  171.58   11.90
   6   2  -4  177.58   11.40
  -6  -2   4  170.58   13.10
  -6  -2   4  172.98   12.20
   5   2  -4  108.29    9.90
   5   2  -4   99.99    8.90
   5   2  -4  101.79    7.50
   5   2  -4   99.29   13.30
   5   2  -4  107.89    9.30
   5   2  -4  106.49    8.10
  -5  -2   4  109.59    9.50
  -5  -2   4  109.39   11.40
  -5  -2   4  110.29   10.10
   4   2  -4   14.40    3.10
   4   2  -4   18.00    4.30
   4   2  -4   26.00    4.60
   4   2  -4   20.40    7.60
   4   2  -4   25.00    4.00
  -4  -2   4   18.90    5.00
  -4  -2   4   27.30    7.30
  -4  -2   4   15.30    5.40
  -4  -2   4   16.80    8.60
  -4  -2   4   13.30    3.80
   3   2  -4 1026.80   54.49
   3   2  -4 1010.80   53.89
   3   2  -4  992.00   54.39
   3   2  -4  985.00   55.49
   3   2  -4 1060.69   54.59
   3   2  -4 1036.80   54.09
   3   2  -4 1030.20   53.79
  -3  -2   4  953.70   54.09
  -3  -2   4  992.20   58.99
   2   2  -4 3641.94  189.38
   2   2  -4 3601.94  188.18
   2   2  -4 3738.63  188.28
   2   2  -4 3321.37  188.48
   2   2  -4 3688.03  188.68
   2   2  -4 3602.44  188.38
  -2  -2   4 3456.45  187.98
  -2  -2   4 3514.45  188.58
  -2  -2   4 3758.62  192.18
  -2  -2   4 3322.17  187.98
  -2  -2   4 3740.23  188.68
   1   2  -4  533.15   30.20
   1   2  -4  563.54   31.10
   1   2  -4  564.54   30.70
   1   2  -4  565.74   30.20
   1   2  -4  578.94   31.00
  -1  -2   4  545.65   30.50
  -1  -2   4  556.44   30.00
  -1  -2   4  597.74   30.20
  -1  -2   4  552.74   30.90
  -1  -2   4  585.24   30.70
   0   2  -4   82.59    8.50
   0   2  -4  103.59    7.20
   0   2  -4   98.69    5.60
   0   2  -4   90.59    6.40
   0  -2   4   74.29    5.00
   0  -2   4   79.49    5.20
   0  -2   4   93.09    6.80
   0  -2   4   80.99    8.90
   0  -2   4   82.09    5.40
  -1   2  -4  277.87   18.00
   1  -2   4  301.77   17.30
   1  -2   4  326.77   16.90
   1  -2   4  314.57   17.20
   1  -2   4  327.17   20.70
   1  -2   4  326.97   16.80
  -2   2  -4  783.62   42.30
   2  -2   4  777.82   41.00
   2  -2   4  784.22   41.10
   2  -2   4  797.62   41.30
   2  -2   4  733.63   41.30
  -3   2  -4   40.40    6.10
  -3   2  -4   45.80    5.90
  -3   2  -4   42.20    9.60
  -3   2  -4   39.40    5.70
   3  -2   4   25.60    5.20
   3  -2   4   35.60    3.60
   3  -2   4   36.70    3.20
   3  -2   4   43.70    4.90
  -4   2  -4  145.49   11.30
  -4   2  -4  150.78    9.50
  -4   2  -4  139.09    9.70
   4  -2   4  141.09    8.10
   4  -2   4  143.49    8.80
   4  -2   4  140.89    8.70
   4  -2   4  141.69    9.30
   4  -2   4  136.39   10.80
  -5   2  -4  371.96   21.70
  -5   2  -4  363.36   22.90
  -5   2  -4  366.16   21.60
   5  -2   4  411.46   21.80
   5  -2   4  389.06   21.70
   5  -2   4  396.76   21.20
   5  -2   4  381.36   22.20
   5  -2   4  404.36   20.90
  -6   2  -4  122.09   10.40
  -6   2  -4  118.09    8.40
  -6   2  -4  133.09    8.50
   6  -2   4  117.89    9.70
   6  -2   4  107.49    7.40
   6  -2   4  109.69    7.60
   6  -2   4  115.19    8.00
  -7   2  -4   66.29    6.40
   7  -2   4   72.59    6.00
   7  -2   4   69.79    6.20
   8   1  -4  122.99   10.20
   8   1  -4   92.39    9.70
   8   1  -4   99.89   10.50
  -8  -1   4  118.79    8.20
  -8  -1   4  102.09    7.50
  -8  -1   4   98.09    8.40
   7   1  -4  161.28   11.30
   7   1  -4  135.19    9.90
   7   1  -4  143.69   13.80
   7   1  -4  116.39   12.90
   7   1  -4  136.59   10.40
   7   1  -4  122.29   14.40
  -7  -1   4  151.48   11.10
  -7  -1   4  128.99   10.00
  -7  -1   4  129.49   12.20
  -7  -1   4  132.99   10.30
   6   1  -4  245.98   15.90
   6   1  -4  267.27   17.20
   6   1  -4  258.37   15.00
   6   1  -4  248.98   16.70
   6   1  -4  261.77   15.60
   6   1  -4  248.98   19.90
  -6  -1   4  268.47   18.10
  -6  -1   4  255.27   16.00
  -6  -1   4  251.07   16.00
  -6  -1   4  255.77   16.70
   5   1  -4  103.89    8.60
   5   1  -4   94.09    7.50
   5   1  -4  103.49   16.20
   5   1  -4   98.89    8.30
   5   1  -4   93.59    9.50
   5   1  -4   94.29    6.70
  -5  -1   4   97.79   10.70
  -5  -1   4   98.79   12.90
  -5  -1   4   96.19    9.70
  -5  -1   4   90.79    9.60
   4   1  -4  256.37   16.00
   4   1  -4  264.27   14.40
   4   1  -4  267.97   15.80
   4   1  -4  253.67   14.60
   4   1  -4  275.47   14.90
  -4  -1   4  219.78   21.80
  -4  -1   4  234.18   18.80
   3   1  -4  626.34   33.20
   3   1  -4  600.24   33.90
   3   1  -4  638.64   32.90
   3   1  -4  664.73   33.20
   3   1  -4  579.44   33.90
   3   1  -4  629.94   34.60
  -3  -1   4  614.84   37.80
  -3  -1   4  609.44   35.70
  -3  -1   4  568.34   33.10
   2   1  -4  341.07   20.00
   2   1  -4  335.27   18.90
   2   1  -4  345.87   19.30
   2   1  -4  351.56   19.70
  -2  -1   4  361.96   22.40
  -2  -1   4  354.46   19.10
  -2  -1   4  358.46   19.20
   1   1  -4  320.97   18.20
   1   1  -4  337.67   18.60
   1   1  -4  333.87   17.90
   1   1  -4  341.07   18.50
  -1  -1   4  333.87   18.10
  -1  -1   4  313.87   18.50
  -1  -1   4  321.47   17.80
  -1  -1   4  348.37   18.00
   0   1  -4 2042.40  107.99
   0   1  -4 1926.11  107.69
   0   1  -4 2019.20  107.89
   0  -1   4 2070.99  107.59
   0  -1   4 2103.79  107.39
   0  -1   4 2117.19  107.59
  -1   1  -4  508.85   29.20
  -1   1  -4  545.65   28.80
  -1   1  -4  544.05   29.20
   1  -1   4  546.65   28.60
   1  -1   4  528.15   28.70
   1  -1   4  567.54   28.80
  -2   1  -4 1151.58   66.89
   2  -1   4 1302.97   66.29
   2  -1   4 1302.27   68.79
   2  -1   4 1184.08   66.59
   2  -1   4 1358.86   66.59
  -3   1  -4  115.59    9.40
   3  -1   4  113.89    6.80
   3  -1   4  111.19    7.60
   3  -1   4  112.49    7.00
   3  -1   4  119.69    6.60
  -4   1  -4  593.64   34.60
  -4   1  -4  610.64   34.80
   4  -1   4  674.73   34.10
   4  -1   4  642.34   34.40
   4  -1   4  672.63   33.80
   4  -1   4  652.73   34.20
   4  -1   4  594.14   34.70
  -5   1  -4  811.32   43.10
  -5   1  -4  798.12   43.40
  -5   1  -4  735.23   43.20
   5  -1   4  795.82   42.90
   5  -1   4  820.22   42.30
   5  -1   4  804.62   42.80
  -6   1  -4   67.19    6.80
   6  -1   4   73.99    5.50
   6  -1   4   78.59    8.00
   6  -1   4   84.99    8.00
   6  -1   4   75.79    5.90
   6  -1   4   75.59    7.30
  -7   1  -4  153.28   10.40
   7  -1   4  166.38   10.70
   7  -1   4  199.38   11.20
   7  -1   4  182.98   11.20
   7  -1   4  179.08   11.00
   8  -1   4   24.00    4.90
   8   0  -4    2.10    5.80
   8   0  -4    2.70    3.60
   8   0  -4   -2.10    3.80
  -8   0   4   -0.80    2.90
  -8   0   4   -1.10    2.60
  -8   0   4    0.60    2.90
   7   0  -4  394.06   22.20
   7   0  -4  393.96   22.80
   7   0  -4  382.96   21.70
   7   0  -4  363.96   24.30
  -7   0   4  386.86   22.20
  -7   0   4  380.86   22.80
  -7   0   4  386.96   22.60
   6   0  -4   11.30    2.80
   6   0  -4    9.40    4.10
   6   0  -4    7.60    4.10
   6   0  -4    4.70   10.00
   6   0  -4    8.90    2.50
   6   0  -4    8.60    3.70
  -6   0   4   10.80    4.50
  -6   0   4    9.00    4.20
  -6   0   4    9.20    4.80
  -6   0   4    9.00    4.30
   5   0  -4  129.39    8.90
   5   0  -4  121.99    9.20
   5   0  -4  128.19    9.80
   5   0  -4  119.09    7.90
   5   0  -4  122.89   11.40
  -5   0   4  139.09   10.90
  -5   0   4  136.19   11.20
  -5   0   4  123.69   11.40
   4   0  -4  107.29   12.30
   4   0  -4  119.39   11.20
   4   0  -4  107.29    7.10
   4   0  -4  114.19    7.00
   4   0  -4  114.09    7.50
  -4   0   4   84.49   14.60
   3   0  -4  139.69    9.40
   3   0  -4  155.08    9.60
   3   0  -4  160.88    8.70
   3   0  -4  154.98   10.90
  -3   0   4  149.99   10.90
  -3   0   4  143.99   13.50
   2   0  -4  675.33   33.80
   2   0  -4  683.63   34.00
   2   0  -4  634.84   35.40
  -2   0   4  648.04   38.10
  -2   0   4  548.45   34.60
   1   0  -4 1991.10  104.49
   1   0  -4 2063.29  105.09
   1   0  -4 1972.60  104.39
  -1   0   4 1948.80  106.89
  -1   0   4 1965.30  104.59
   0   0  -4  185.98   10.10
   0   0  -4  180.28   10.00
   0   0  -4  170.08    9.80
   0   0  -4  185.98   10.10
   0   0   4  164.38    9.80
   0   0   4  193.98    9.90
  -1   0  -4 1075.79   55.89
  -1   0  -4 1031.10   55.99
  -1   0  -4 1042.40   55.79
  -1   0  -4 1062.39   55.69
   1   0   4 1069.29   55.59
   1   0   4 1123.09   55.79
   1   0   4 1001.40   55.69
  -2   0  -4  228.08   12.90
  -2   0  -4  242.58   13.30
  -2   0  -4  219.68   13.30
   2   0   4  237.78   13.00
   2   0   4  241.18   12.80
   2   0   4  254.77   13.00
   2   0   4  240.28   13.30
  -3   0  -4  773.82   44.80
   3   0   4  837.12   44.60
   3   0   4  866.11   44.70
   3   0   4  857.61   44.80
   3   0   4  872.61   44.50
   3   0   4  894.51   44.50
   3   0   4  779.92   44.80
  -4   0  -4  324.07   24.60
  -4   0  -4  365.46   20.40
  -4   0  -4  329.57   20.50
   4   0   4  353.46   19.90
   4   0   4  365.46   19.60
   4   0   4  376.96   19.40
   4   0   4  336.07   21.40
   4   0   4  379.16   19.60
   4   0   4  373.36   20.20
  -5   0  -4   26.40    4.90
  -5   0  -4   30.60    5.50
  -5   0  -4   36.60    6.10
   5   0   4   37.30    5.20
   5   0   4   38.00    7.10
   5   0   4   37.10    4.10
   5   0   4   29.30    4.40
   5   0   4   33.80    3.40
  -6   0  -4  627.34   34.60
  -6   0  -4  675.83   34.60
  -6   0  -4  684.83   34.60
   6   0   4  594.74   34.00
   6   0   4  613.14   34.50
   6   0   4  618.24   33.90
   6   0   4  597.64   34.50
   6   0   4  632.14   34.60
  -7   0  -4  270.87   16.00
  -7   0  -4  272.77   15.90
   7   0   4  270.37   15.50
   7   0   4  283.57   16.30
   7   0   4  274.17   15.70
   7   0   4  248.88   15.40
  -8   0  -4   10.60    2.30
   8  -1  -4   78.09    8.10
  -8   1   4   70.99    5.70
  -8   1   4   66.49    6.90
  -8   1   4   63.29    6.20
   7  -1  -4   11.70    3.30
   7  -1  -4   16.30   10.50
   7  -1  -4   13.20    4.00
   7  -1  -4   20.20    3.50
  -7   1   4   16.00    4.20
  -7   1   4   12.30    3.60
  -7   1   4   17.40    4.80
   6  -1  -4  231.78   17.10
   6  -1  -4  243.68   13.70
   6  -1  -4  228.88   16.50
   6  -1  -4  232.78   14.40
   6  -1  -4  247.08   15.80
  -6   1   4  225.48   15.10
  -6   1   4  231.28   15.50
  -6   1   4  222.48   15.40
   5  -1  -4   98.59    7.90
   5  -1  -4   96.29   13.30
   5  -1  -4  113.99    9.00
   5  -1  -4  105.39    8.20
   5  -1  -4  103.39    6.90
  -5   1   4   87.19   10.70
  -5   1   4  104.89    9.90
  -5   1   4  114.59   10.10
   4  -1  -4   17.10    6.70
   4  -1  -4   10.20    2.10
   4  -1  -4    6.90    2.30
   4  -1  -4   10.10    1.90
  -4   1   4    2.70    8.00
  -4   1   4    6.30    4.90
  -4   1   4    1.70    5.00
   3  -1  -4  184.18   12.60
   3  -1  -4  171.18   10.40
  -3   1   4  215.08   16.30
   2  -1  -4  106.79    8.30
   2  -1  -4  129.59    7.70
   2  -1  -4  121.49    6.90
  -2   1   4  145.79   11.10
   1  -1  -4  202.48   12.50
   1  -1  -4  241.68   13.20
  -1   1   4  260.47   12.90
   0  -1  -4 1191.18   58.19
   0  -1  -4 1037.40   57.69
   0  -1  -4 1032.30   57.69
   0   1   4 1162.18   57.79
   0   1   4 1058.59   59.49
  -1  -1  -4  773.22   44.00
  -1  -1  -4  823.02   44.10
  -1  -1  -4  779.92   44.20
  -1  -1  -4  832.82   43.90
   1   1   4  814.72   43.90
   1   1   4  943.71   44.00
   1   1   4  864.21   44.20
   2   1   4   81.69    4.70
   2   1   4   70.39    4.90
   2   1   4   78.49    4.60
   2   1   4   71.99    4.50
   2   1   4   75.59    5.10
  -3  -1  -4 1095.29   63.69
  -3  -1  -4 1151.28   62.09
  -3  -1  -4 1137.29   63.69
  -3  -1  -4 1209.38   62.99
   3   1   4 1175.28   62.09
   3   1   4 1178.08   62.39
   3   1   4 1117.99   62.29
   3   1   4 1234.58   62.09
   3   1   4 1216.98   61.99
   3   1   4 1234.68   62.19
  -4  -1  -4   48.70   10.50
  -4  -1  -4   50.89    6.40
  -4  -1  -4   46.30    4.70
   4   1   4   48.50    4.50
   4   1   4   45.70    3.80
   4   1   4   51.79    5.30
   4   1   4   42.00    4.90
   4   1   4   48.60    3.90
   4   1   4   46.50    3.70
  -5  -1  -4  403.46   21.60
  -5  -1  -4  391.46   22.10
  -5  -1  -4  436.16   21.70
  -5  -1  -4  394.06   22.70
   5   1   4  357.66   21.20
   5   1   4  362.46   20.60
   5   1   4  371.36   20.90
   5   1   4  348.87   21.90
   5   1   4  351.86   20.90
   5   1   4  378.86   21.10
  -6  -1  -4  885.51   48.40
  -6  -1  -4  828.52   48.50
  -6  -1  -4  902.71   48.40
   6   1   4  917.51   48.80
   6   1   4  896.71   48.10
   6   1   4  884.31   48.50
   6   1   4  894.01   49.40
   6   1   4  924.01   47.90
   6   1   4  915.01   48.40
   6   1   4  924.91   48.50
  -7  -1  -4   55.89    6.70
  -7  -1  -4   44.90    5.70
  -7  -1  -4   46.60    7.30
   7   1   4   53.99    6.60
   7   1   4   54.69   11.10
   7   1   4   64.09    7.40
   7   1   4   60.29    6.50
   7   1   4   59.89    6.10
  -8  -1  -4  128.49    7.90
  -8  -1  -4   97.99    7.60
   8   1   4  107.89    9.00
   8   1   4  122.19   11.10
   8   1   4  135.89    8.10
  -8   2   4    8.80    2.00
   7  -2  -4  124.99   12.90
  -7   2   4  100.39    9.40
  -7   2   4  117.89    8.60
   6  -2  -4  240.28   14.90
   6  -2  -4  227.28   14.00
  -6   2   4  247.58   15.80
  -6   2   4  249.68   16.00
  -6   2   4  245.88   15.40
   5  -2  -4   41.30    8.20
   5  -2  -4   48.10    7.10
   5  -2  -4   49.20    4.70
  -5   2   4   57.89    8.00
  -5   2   4   65.09    9.80
   4  -2  -4  505.85   26.70
  -4   2   4  474.05   28.10
  -4   2   4  475.25   27.80
   3  -2  -4   50.09    8.00
  -3   2   4   56.29    9.00
  -3   2   4   57.49    4.80
  -3   2   4   50.79   10.90
   2  -2  -4  697.23   37.00
   2  -2  -4  622.94   36.40
  -2   2   4  684.03   36.60
  -2   2   4  717.13   40.70
   1  -2  -4  320.77   16.80
  -1   2   4  302.27   19.10
  -1   2   4  281.27   16.40
   0  -2  -4  276.47   15.60
   0  -2  -4  281.77   15.80
   0   2   4  293.97   15.90
   0   2   4  305.97   15.90
   0   2   4  316.67   17.90
  -1  -2  -4  216.28   11.60
  -1  -2  -4  220.88   11.40
  -1  -2  -4  242.88   12.00
   1   2   4  208.28   11.90
   1   2   4  197.78   12.60
   1   2   4  198.88   11.50
   1   2   4  203.28   11.40
  -2  -2  -4 4560.64  234.88
  -2  -2  -4 4325.07  234.18
  -2  -2  -4 4275.27  234.18
   2   2   4 4131.49  234.08
   2   2   4 4760.42  234.38
   2   2   4 4580.24  234.18
   2   2   4 4635.74  234.68
  -3  -2  -4  396.66   20.70
  -3  -2  -4  364.86   21.40
  -3  -2  -4  375.66   19.80
  -3  -2  -4  340.47   20.20
   3   2   4  334.27   23.10
   3   2   4  350.36   19.80
   3   2   4  369.06   19.80
   3   2   4  389.16   19.60
   3   2   4  333.97   19.80
   3   2   4  378.96   20.10
  -4  -2  -4  777.22   45.40
  -4  -2  -4  829.92   45.30
  -4  -2  -4  832.42   48.10
  -4  -2  -4  840.02   46.20
   4   2   4  892.11   45.70
   4   2   4  847.42   45.50
   4   2   4  881.31   45.30
   4   2   4  880.21   45.10
   4   2   4  858.21   45.20
  -5  -2  -4  239.58   15.20
  -5  -2  -4  237.98   15.50
  -5  -2  -4  217.38   15.00
  -5  -2  -4  210.08   16.40
  -5  -2  -4  204.08   15.00
   5   2   4  268.37   14.40
   5   2   4  249.28   17.80
   5   2   4  260.67   14.10
   5   2   4  254.27   14.50
   5   2   4  253.57   13.80
   5   2   4  250.57   13.90
   5   2   4  253.17   14.30
   5   2   4  227.98   15.20
  -6  -2  -4  711.03   38.90
  -6  -2  -4  636.14   39.10
  -6  -2  -4  755.02   40.50
  -6  -2  -4  638.64   38.80
   6   2   4  757.32   38.90
   6   2   4  727.93   39.20
   6   2   4  708.33   39.10
   6   2   4  734.53   38.40
   6   2   4  724.93   38.70
   6   2   4  748.93   39.00
  -7  -2  -4   72.39    8.20
  -7  -2  -4   52.69    6.70
   7   2   4   63.99    6.90
   7   2   4   50.09    7.20
   7   2   4   62.89    7.80
  -8  -2  -4   41.50    4.60
  -8  -2  -4   32.10    5.50
   8   2   4   37.90    5.00
   8   2   4   28.10    4.90
  -9  -2  -4   40.10    4.10
  -9  -2  -4   45.80    5.80
   9   2   4   43.40    4.50
  -7   3   4   35.60    4.40
  -6   3   4   70.99    7.50
  -6   3   4   64.99   10.30
  -5   3   4  282.47   18.80
  -5   3   4  321.17   19.00
   4  -3  -4   81.39    7.30
   4  -3  -4   85.49    8.70
  -4   3   4   79.19    7.00
  -4   3   4   80.09    9.60
  -4   3   4   88.89    8.80
   3  -3  -4  465.55   26.00
   3  -3  -4  447.66   28.30
  -3   3   4  480.85   28.10
  -3   3   4  509.05   26.70
   2  -3  -4  128.59    9.90
  -2   3   4  149.59    8.70
   1  -3  -4  280.77   19.30
   1  -3  -4  300.37   16.30
   1  -3  -4  275.97   18.30
   1  -3  -4  287.67   16.00
  -1   3   4  292.87   18.90
  -1   3   4  285.97   15.90
   0  -3  -4  466.15   22.80
   0  -3  -4  485.55   23.40
   0   3   4  380.46   24.80
   0   3   4  387.76   23.20
  -1  -3  -4  177.28   10.10
  -1  -3  -4  186.38   10.50
  -1  -3  -4  179.78    9.80
   1   3   4  167.58   10.10
   1   3   4  189.98   10.50
  -2  -3  -4 1115.29   61.29
  -2  -3  -4 1112.59   61.39
  -2  -3  -4 1228.38   62.29
   2   3   4 1205.28   61.59
   2   3   4 1157.98   61.69
   2   3   4 1168.78   61.89
  -3  -3  -4    2.50    2.20
  -3  -3  -4    4.40    2.10
  -3  -3  -4    3.30    1.10
  -3  -3  -4    2.80    1.30
   3   3   4    1.90    1.80
   3   3   4    2.30    1.70
   3   3   4    1.00    1.20
  -4  -3  -4  126.79    7.60
  -4  -3  -4  124.59    8.60
  -4  -3  -4  113.39   13.80
  -4  -3  -4  128.39    8.00
  -4  -3  -4  124.19    8.70
   4   3   4  121.19    7.60
   4   3   4  130.39    8.60
   4   3   4  128.49    8.00
  -5  -3  -4  252.77   15.10
  -5  -3  -4  266.67   14.90
  -5  -3  -4  245.38   15.70
  -5  -3  -4  264.37   15.30
   5   3   4  229.08   14.50
   5   3   4  223.08   14.90
   5   3   4  217.08   15.90
   5   3   4  224.38   14.00
   5   3   4  225.18   13.60
   5   3   4  229.08   13.60
   5   3   4  211.58   15.10
  -6  -3  -4  123.09   11.20
  -6  -3  -4  132.79   11.40
   6   3   4  158.98   10.70
   6   3   4  163.38   11.80
   6   3   4  157.18   11.50
   6   3   4  144.49   12.80
   6   3   4  172.88   11.70
   6   3   4  151.68   11.30
  -7  -3  -4   27.50    6.20
  -7  -3  -4   31.40    6.20
  -7  -3  -4   27.60    5.60
   7   3   4   27.30    6.70
   7   3   4   20.80    3.80
   7   3   4   21.90    6.10
   7   3   4    8.20    6.20
   7   3   4   25.80    4.50
  -8  -3  -4   57.69    5.40
   8   3   4   60.99    5.80
  -9  -3  -4   55.79    4.70
   9   3   4   50.69    4.80
  -7   4   4   30.80    3.80
  -6   4   4   13.70    2.60
  -5   4   4    1.80    5.20
  -5   4   4    8.00    3.60
  -5   4   4    8.10    3.60
  -4   4   4  181.98   14.20
  -4   4   4  181.48   12.90
  -4   4   4  190.18   13.30
  -3   4   4  177.08   12.80
  -3   4   4  175.48   13.90
  -3   4   4  182.78   12.80
  -3   4   4  182.68   11.90
  -3   4   4  192.18   13.80
  -2   4   4  786.92   42.70
   1  -4  -4  132.99   10.10
   1  -4  -4  144.59    9.30
  -1   4   4  154.98    9.10
   0  -4  -4  256.67   14.60
   0  -4  -4  221.18   19.80
   0   4   4  280.17   15.70
  -1  -4  -4  960.20   51.29
  -1  -4  -4 1013.60   52.09
  -1  -4  -4  991.80   51.19
   1   4   4  979.60   51.69
   1   4   4  904.11   51.69
  -2  -4  -4  397.36   22.30
  -2  -4  -4  349.57   22.80
  -2  -4  -4  415.46   22.20
  -2  -4  -4  426.06   23.30
   2   4   4  434.36   22.40
   2   4   4  442.06   22.90
   2   4   4  436.06   22.90
  -3  -4  -4   47.10    4.60
  -3  -4  -4   45.00    5.00
  -3  -4  -4   46.00    3.60
  -3  -4  -4   46.40    4.10
   3   4   4   54.29    5.10
   3   4   4   54.39    7.60
   3   4   4   47.60    3.80
  -4  -4  -4   54.79    5.30
  -4  -4  -4   48.10    4.70
  -4  -4  -4   49.40    4.20
  -4  -4  -4   46.20    8.30
  -4  -4  -4   46.90    5.50
   4   4   4   66.19    8.10
   4   4   4   34.60    6.90
   4   4   4   48.60    4.30
   4   4   4   52.69    5.00
   4   4   4   52.59    7.90
  -5  -4  -4  116.19   13.10
  -5  -4  -4  119.49    9.60
  -5  -4  -4  129.19    9.50
  -5  -4  -4  115.39   10.10
   5   4   4  134.09   11.10
   5   4   4  149.29    9.00
  -6  -4  -4   35.10    7.30
  -6  -4  -4   31.20    5.60
   6   4   4   40.50    6.30
   6   4   4   46.20    8.20
   6   4   4   40.60    6.50
   6   4   4   47.00    8.00
  -7  -4  -4   45.40    7.60
  -7  -4  -4   59.39    9.70
  -7  -4  -4   53.89    8.70
   7   4   4   53.99    7.80
   7   4   4   50.59    9.20
  -8  -4  -4   18.10    4.50
  -8  -4  -4   33.40    4.60
   8   4   4   25.30    4.60
   8   4   4   26.20    5.10
  -9  -4  -4   61.09    5.10
   9   4   4   71.89    5.30
  -6   5   4    4.40    2.20
  -5   5   4   14.20    5.10
  -5   5   4   11.00    2.70
  -4   5   4  406.66   25.60
  -4   5   4  428.76   24.80
  -4   5   4  435.06   24.30
  -3   5   4  256.67   17.40
  -3   5   4  250.07   16.00
  -3   5   4  254.77   15.80
  -3   5   4  269.87   16.60
  -2   5   4  687.63   38.90
  -2   5   4  675.13   38.40
  -2   5   4  728.73   38.80
  -2   5   4  712.93   38.80
   1  -5  -4  136.29    9.60
  -1   5   4  154.38    9.50
  -1   5   4  116.99   10.20
  -1   5   4  140.59   10.40
  -1   5   4  152.18   12.60
   0  -5  -4  407.96   21.90
   0   5   4  375.76   22.60
   0   5   4  349.96   22.90
   0   5   4  404.16   21.80
  -1  -5  -4  418.66   23.80
  -1  -5  -4  435.86   22.70
  -1  -5  -4  421.26   22.90
   1   5   4  407.36   24.80
   1   5   4  430.56   23.70
  -2  -5  -4  154.78   10.20
  -2  -5  -4  147.39    9.20
  -2  -5  -4  149.39   10.20
  -2  -5  -4  156.48    8.90
   2   5   4  170.38   10.90
   2   5   4  154.78   15.30
   2   5   4  160.48   10.20
   2   5   4  152.28   10.20
  -3  -5  -4  289.87   16.50
  -3  -5  -4  258.57   18.10
  -3  -5  -4  281.37   15.60
  -3  -5  -4  295.27   15.30
  -3  -5  -4  288.87   15.10
   3   5   4  221.68   18.00
   3   5   4  257.57   15.30
   3   5   4  265.17   16.50
   3   5   4  279.97   16.80
  -4  -5  -4  172.28   12.30
  -4  -5  -4  179.18   10.80
  -4  -5  -4  178.48   10.50
  -4  -5  -4  179.98   10.10
  -4  -5  -4  177.98   11.80
   4   5   4  163.68   10.50
   4   5   4  169.28   12.90
   4   5   4  164.68   12.20
   4   5   4  170.58   11.10
   4   5   4  191.68   12.40
  -5  -5  -4   46.50    9.20
  -5  -5  -4   40.50    7.10
  -5  -5  -4   34.00    5.00
  -5  -5  -4   41.20    6.10
  -5  -5  -4   33.90    6.60
  -5  -5  -4   38.50    6.20
   5   5   4   42.70    5.70
   5   5   4   54.49    7.30
   5   5   4   43.00    5.60
  -6  -5  -4  104.39    8.80
  -6  -5  -4   98.99   11.20
   6   5   4  107.09    8.70
   6   5   4  109.69    9.40
   6   5   4   82.79    8.90
   6   5   4  105.39   10.10
  -7  -5  -4   20.70    4.90
  -7  -5  -4   19.30    4.10
   7   5   4   15.90    5.20
   7   5   4   28.50    4.60
   7   5   4   24.20    4.70
  -8  -5  -4   61.89    5.80
   8   5   4   60.09    6.10
   8   5   4   70.49    6.50
  -5   6   4   41.60    5.20
  -5   6   4   29.20    5.70
  -4   6   4   24.90    4.20
  -3   6   4  453.25   26.40
  -3   6   4  478.15   28.30
  -3   6   4  475.35   26.50
  -2   6   4  118.39   10.00
  -2   6   4  117.09    9.10
  -2   6   4  109.99    8.90
  -1   6   4  367.86   20.50
  -1   6   4  343.17   20.90
  -1   6   4  339.97   21.40
  -1   6   4  297.97   23.10
   0  -6  -4  272.37   17.00
   0  -6  -4  279.77   15.10
   0   6   4  295.07   17.10
   0   6   4  259.27   16.40
   0   6   4  291.37   17.30
   0   6   4  268.57   18.00
  -1  -6  -4   25.70    2.70
  -1  -6  -4   28.10    4.30
  -1  -6  -4   25.80    5.00
   1   6   4   27.00    6.60
   1   6   4   28.30    5.80
   1   6   4   31.00    6.50
  -2  -6  -4  550.84   28.60
  -2  -6  -4  562.94   30.50
  -2  -6  -4  560.84   28.90
  -2  -6  -4  520.95   29.20
   2   6   4  479.65   29.30
   2   6   4  547.75   30.30
   2   6   4  511.75   29.40
   2   6   4  537.75   30.30
   2   6   4  524.15   29.70
  -3  -6  -4  306.87   16.00
  -3  -6  -4  275.87   18.80
  -3  -6  -4  286.87   17.80
  -3  -6  -4  289.87   16.70
  -3  -6  -4  303.37   16.40
   3   6   4  307.87   17.40
   3   6   4  296.77   18.30
   3   6   4  272.37   18.00
   3   6   4  281.97   16.90
   3   6   4  262.17   17.00
  -4  -6  -4   98.49    7.60
  -4  -6  -4   95.09    9.10
  -4  -6  -4  111.39    9.70
  -4  -6  -4   97.09    6.50
  -4  -6  -4   97.79    7.00
   4   6   4  101.89    8.30
   4   6   4  112.39   12.20
   4   6   4   98.99    9.00
   4   6   4   86.59    7.90
   4   6   4  112.99    8.90
  -5  -6  -4  258.67   19.10
  -5  -6  -4  327.87   17.20
  -5  -6  -4  318.47   17.80
  -5  -6  -4  273.27   16.40
  -5  -6  -4  319.97   16.70
   5   6   4  303.97   18.00
   5   6   4  254.97   17.50
   5   6   4  294.87   17.50
   5   6   4  297.17   22.30
   5   6   4  278.97   17.60
  -6  -6  -4   -2.20    3.80
  -6  -6  -4    3.90    6.50
  -6  -6  -4    3.40    7.30
   6   6   4    3.60    3.90
   6   6   4    4.60    5.90
   6   6   4    2.80    4.40
  -7  -6  -4   93.39    9.30
  -7  -6  -4  116.89    7.90
   7   6   4  122.59    7.80
   7   6   4  109.99    9.20
   7   6   4   85.09   10.80
  -8  -6  -4   71.79    6.30
  -8  -6  -4   74.89    7.50
   8   6   4   82.99    6.00
  -4   7   4   85.19    6.50
  -3   7   4   23.30    4.70
  -3   7   4   33.10    4.10
  -2   7   4  230.68   13.90
  -2   7   4  207.18   13.60
  -1   7   4  237.88   16.60
  -1   7   4  229.18   14.60
  -1   7   4  256.67   15.40
   0  -7  -4   34.70    3.70
   0   7   4   34.30    8.20
   0   7   4   34.50    6.30
   0   7   4   45.40    5.80
  -1  -7  -4  592.24   33.60
  -1  -7  -4  618.74   32.90
  -1  -7  -4  586.54   34.80
  -1  -7  -4  625.94   32.70
   1   7   4  617.54   33.90
   1   7   4  636.74   34.30
   1   7   4  607.34   34.90
   1   7   4  600.44   34.20
  -2  -7  -4   38.80    4.40
  -2  -7  -4   39.70    6.20
  -2  -7  -4   37.30    3.70
  -2  -7  -4   33.90    7.90
   2   7   4   45.10    9.60
   2   7   4   40.70    6.60
   2   7   4   46.40    6.90
   2   7   4   29.20    6.00
   2   7   4   37.80    6.80
  -3  -7  -4  381.46   20.90
  -3  -7  -4  385.56   21.40
  -3  -7  -4  366.96   22.90
  -3  -7  -4  351.86   23.10
  -3  -7  -4  402.96   20.70
   3   7   4  335.97   22.40
   3   7   4  379.56   21.50
   3   7   4  380.46   22.20
   3   7   4  396.86   22.00
   3   7   4  397.96   24.00
  -4  -7  -4  221.98   13.60
  -4  -7  -4  232.08   12.60
  -4  -7  -4  192.68   14.70
  -4  -7  -4  227.58   11.70
   4   7   4  163.58   14.10
   4   7   4  176.88   12.60
   4   7   4  164.98   17.60
   4   7   4  205.28   13.20
  -5  -7  -4    3.00    6.70
  -5  -7  -4    3.60    2.60
  -5  -7  -4   -4.60    3.20
  -5  -7  -4   -0.30    3.90
   5   7   4    4.80    5.60
   5   7   4    0.10    2.90
   5   7   4    8.20    3.50
  -6  -7  -4   32.70    7.20
  -6  -7  -4   27.10    4.40
   6   7   4   31.10    6.60
   6   7   4   31.10    6.20
  -7  -7  -4  127.69    7.90
  -7  -7  -4   96.29   10.60
   7   7   4  125.79    7.70
  -3   8   4   58.09    4.70
  -2   8   4   52.69    4.60
  -1   8   4    0.80    3.20
   0  -8  -4  132.79    8.70
   0  -8  -4  120.59    9.30
   0   8   4  139.69   10.10
   0   8   4  163.48   11.20
  -1  -8  -4   60.89    5.40
  -1  -8  -4   69.59    6.00
  -1  -8  -4   66.49    6.90
   1   8   4   69.49    7.00
   1   8   4   61.49    7.80
  -2  -8  -4   92.29    7.00
  -2  -8  -4   95.19    7.60
  -2  -8  -4   92.79    6.90
   2   8   4  120.29   12.30
   2   8   4   99.49    8.30
   2   8   4  114.29    8.40
  -3  -8  -4  203.78   14.30
  -3  -8  -4  204.68   11.50
  -3  -8  -4  199.68   11.80
  -3  -8  -4  205.88   11.60
   3   8   4  178.68   12.60
   3   8   4  177.48   12.90
   3   8   4  191.48   12.10
   3   8   4  211.78   15.50
  -4  -8  -4   24.20    4.80
  -4  -8  -4   24.50    4.60
  -4  -8  -4   24.80    4.70
  -4  -8  -4   21.80    3.40
   4   8   4   24.80    6.10
   4   8   4   26.00    5.20
   4   8   4   19.10    3.60
  -5  -8  -4  111.49    8.30
  -5  -8  -4   77.79   10.70
  -5  -8  -4  111.59    8.00
  -5  -8  -4  105.19    7.60
   5   8   4  103.09    7.90
   5   8   4  114.99    7.30
  -6  -8  -4   80.09    6.30
   6   8   4   77.39    5.60
  -7  -8  -4   11.80    2.30
   7   8   4    8.20    2.00
  -1   9   4   57.09    4.30
   0  -9  -4  193.08   12.50
   0   9   4  218.58   11.80
   0   9   4  185.08   12.10
  -1  -9  -4  130.59    8.60
  -1  -9  -4  117.89    8.90
   1   9   4  136.29    7.90
   1   9   4  105.19    8.00
  -2  -9  -4  106.09    7.60
  -2  -9  -4  120.29    7.80
   2   9   4  112.99    7.40
   2   9   4   95.89    7.50
  -3  -9  -4    5.50    2.20
  -3  -9  -4    8.70    4.20
  -3  -9  -4    5.70    2.60
   3   9   4    2.80    1.70
   3   9   4    6.80    3.00
  -4  -9  -4   55.49    6.30
  -4  -9  -4   59.79    5.30
  -4  -9  -4   61.79    5.90
   4   9   4   43.80    5.30
  -5  -9  -4   29.40    5.80
  -5  -9  -4   42.80    5.10
   5   9   4   31.40    4.50
   5   9   4   33.00    3.80
   3   8  -5   32.70    5.00
  -3  -8   5   38.00    5.50
  -3  -8   5   32.00    3.60
   2   8  -5    8.50    2.80
   2   8  -5    1.90    4.80
  -2  -8   5    4.60    1.80
  -2  -8   5    5.10    3.20
   1   8  -5   54.59    9.40
  -1  -8   5   62.99    6.80
  -1  -8   5   55.39    4.20
   5   7  -5    3.30    3.60
  -5  -7   5    0.00    5.40
  -5  -7   5    2.90    2.20
  -5  -7   5   -3.10    3.30
   4   7  -5   32.40    6.70
  -4  -7   5   37.10    4.20
  -4  -7   5   32.90    9.50
  -4  -7   5   41.10    6.70
   3   7  -5   21.90    3.70
  -3  -7   5   21.90    3.90
  -3  -7   5   15.00    3.70
   2   7  -5    1.20    6.10
   2   7  -5   -2.00    3.20
  -2  -7   5    3.20    2.60
  -2  -7   5    7.60    3.50
  -2  -7   5    5.30    2.30
   1   7  -5   -2.80    4.40
   1   7  -5    0.50    3.30
  -1  -7   5   -3.40    3.40
  -1  -7   5    1.50    3.60
  -1  -7   5    4.30    2.00
   0  -7   5   35.50    7.20
  -1   7  -5   97.39    8.00
   1  -7   5  109.09    9.20
   1  -7   5   97.59    8.80
  -2   7  -5   -1.50    2.70
   2  -7   5   -0.40    5.30
   7   6  -5   33.00    4.40
   7   6  -5   17.80    5.60
  -7  -6   5   23.40    3.40
  -7  -6   5   25.70    5.00
   6   6  -5   48.90    8.90
  -6  -6   5   45.00    4.50
  -6  -6   5   59.89    7.10
   5   6  -5   40.40    6.60
   5   6  -5   45.40    6.10
  -5  -6   5   56.99    5.10
  -5  -6   5   58.49   10.20
  -5  -6   5   56.89    8.00
   4   6  -5   45.10   11.80
   4   6  -5   38.80    6.50
  -4  -6   5   56.99    9.60
  -4  -6   5   45.40    9.20
  -4  -6   5   48.60    6.10
   3   6  -5   25.20    5.60
   3   6  -5   42.40   10.70
  -3  -6   5   33.40    5.30
  -3  -6   5   33.30   13.40
  -3  -6   5   29.10    5.60
   2   6  -5    1.70    4.60
   2   6  -5   17.20    8.80
  -2  -6   5    6.10    2.30
  -2  -6   5    5.10    3.30
  -2  -6   5   -5.30    6.60
  -2  -6   5   -5.40    7.60
  -2  -6   5    3.60    4.40
   1   6  -5  168.98   15.90
   1   6  -5  180.68   13.00
   1   6  -5  145.89   16.60
  -1  -6   5  153.38   14.70
  -1  -6   5  203.18   11.20
  -1  -6   5  172.38   11.20
  -1  -6   5  188.98   12.70
   0   6  -5  250.17   19.30
   0   6  -5  279.67   16.80
   0  -6   5  257.27   15.40
   0  -6   5  282.47   17.00
  -1   6  -5  101.69    9.30
  -1   6  -5   91.69   11.70
   1  -6   5   97.39    7.50
   1  -6   5  118.99   10.10
  -2   6  -5   99.49    7.80
  -2   6  -5   92.99    9.20
   2  -6   5  108.99    8.60
   2  -6   5   85.39    7.40
  -3   6  -5   24.00    4.30
   3  -6   5   18.10    4.10
   7   5  -5   30.70    4.40
  -7  -5   5   38.50    4.30
  -7  -5   5   35.40    5.40
   6   5  -5   13.40    5.80
   6   5  -5   19.00    7.10
  -6  -5   5    9.80    2.80
   5   5  -5   22.20    6.60
   5   5  -5   16.90    7.50
  -5  -5   5   30.70    6.20
  -5  -5   5   18.70    5.90
  -5  -5   5   22.60    3.90
   4   5  -5  156.08   14.50
   4   5  -5  151.18   15.70
  -4  -5   5  161.68   11.00
  -4  -5   5  157.88   13.20
  -4  -5   5  166.58   16.30
   3   5  -5   17.80    6.00
   3   5  -5   21.20    7.90
   3   5  -5    8.70    6.40
  -3  -5   5   20.60    3.70
  -3  -5   5   13.30    5.10
  -3  -5   5    3.60    8.40
   2   5  -5  133.79   18.70
   2   5  -5  132.29   14.30
   2   5  -5  155.28   13.20
  -2  -5   5  172.98   12.30
  -2  -5   5  176.38   10.80
  -2  -5   5  184.98   11.00
  -2  -5   5  189.38   10.80
  -2  -5   5  124.89   20.20
  -2  -5   5  161.78   12.50
  -2  -5   5  162.78   12.50
   1   5  -5  141.69   11.40
   1   5  -5  106.29   12.00
  -1  -5   5  118.29   10.50
  -1  -5   5  129.79    8.30
  -1  -5   5  154.68    9.00
  -1  -5   5  126.59   10.10
  -1  -5   5  129.89   10.70
   0   5  -5   20.50    5.30
   0   5  -5   23.30    4.70
   0  -5   5   19.20    3.60
   0  -5   5   19.70    4.60
   0  -5   5   21.10    7.40
   0  -5   5   25.50    4.10
   0  -5   5   19.90    4.50
  -1   5  -5  623.14   37.00
  -1   5  -5  683.73   35.40
   1  -5   5  595.14   34.70
   1  -5   5  669.63   35.10
   1  -5   5  643.74   34.10
   1  -5   5  604.34   36.30
  -2   5  -5  193.98   11.80
  -2   5  -5  173.18   13.40
  -2   5  -5  174.68   17.70
   2  -5   5  156.08   11.00
   2  -5   5  159.98   11.70
  -3   5  -5   10.50    4.90
  -3   5  -5   17.80    6.40
  -3   5  -5   12.10    4.30
  -4   5  -5   82.19    9.30
  -4   5  -5  100.69    7.40
   4  -5   5   97.79    8.10
   4  -5   5   87.19    7.10
   8   4  -5   -2.00    3.40
  -8  -4   5    0.20    2.30
  -8  -4   5    1.30    2.20
   7   4  -5    3.10    4.30
  -7  -4   5   -1.40    3.00
  -7  -4   5    0.40    2.80
   6   4  -5   19.50    6.20
   6   4  -5   29.60    7.90
   6   4  -5   15.60    5.20
   6   4  -5    7.50    8.50
  -6  -4   5   25.00    5.30
  -6  -4   5   21.50    4.00
   5   4  -5  161.78   14.30
   5   4  -5  201.48   15.30
   5   4  -5  143.89   16.50
   5   4  -5  192.58   16.00
   5   4  -5  178.48   19.90
   5   4  -5  148.49   13.60
  -5  -4   5  163.28   13.60
  -5  -4   5  161.08   15.20
  -5  -4   5  180.68   15.40
  -5  -4   5  163.38   11.50
   4   4  -5   19.60    6.70
   4   4  -5   22.30   10.30
   4   4  -5    7.10    8.30
   4   4  -5   12.00    5.90
   4   4  -5   11.60    6.00
   4   4  -5   15.50    5.60
   4   4  -5   21.50    7.70
  -4  -4   5   15.60    6.00
  -4  -4   5   17.30    5.90
  -4  -4   5   20.80    4.10
   3   4  -5  190.88   16.70
   3   4  -5  193.88   15.00
   3   4  -5  172.98   14.20
   3   4  -5  190.08   16.20
   3   4  -5  178.78   12.90
  -3  -4   5  196.18   12.30
  -3  -4   5  170.98   12.70
  -3  -4   5  200.88   15.70
  -3  -4   5  194.88   14.40
   2   4  -5  213.88   18.80
   2   4  -5  229.88   16.30
   2   4  -5  241.58   16.50
   2   4  -5  242.88   17.10
  -2  -4   5  229.78   14.40
  -2  -4   5  227.28   19.60
  -2  -4   5  256.27   14.40
  -2  -4   5  241.18   15.00
  -2  -4   5  241.58   15.70
  -2  -4   5  244.28   14.40
  -2  -4   5  250.77   14.40
   1   4  -5  164.68   12.70
   1   4  -5  157.38   12.40
   1   4  -5  136.49   17.10
  -1  -4   5  125.49   20.30
  -1  -4   5  163.58   12.50
  -1  -4   5  171.68   10.20
  -1  -4   5  181.78    9.80
  -1  -4   5  172.48   11.10
  -1  -4   5  173.08   12.10
  -1  -4   5  175.38   11.10
   0   4  -5  298.17   17.80
   0   4  -5  316.17   17.30
   0   4  -5  255.27   23.60
   0  -4   5  259.97   16.60
   0  -4   5  280.17   16.90
   0  -4   5  268.47   15.40
   0  -4   5  234.68   16.10
   0  -4   5  271.37   15.00
  -1   4  -5   27.40    5.00
  -1   4  -5   26.40    5.20
   1  -4   5   17.90    3.50
   1  -4   5   22.00    4.70
   1  -4   5   23.30    2.70
   1  -4   5   19.10    4.20
   1  -4   5   23.60    3.70
  -2   4  -5  138.69    9.90
  -2   4  -5  139.89   13.60
  -2   4  -5  127.19   12.40
   2  -4   5  132.39    8.20
   2  -4   5  148.89   10.60
   2  -4   5  122.59    9.70
   2  -4   5  120.39    8.60
   2  -4   5  136.29    7.80
  -3   4  -5  124.59   10.80
  -3   4  -5  147.49    9.60
   3  -4   5  124.19    8.00
   3  -4   5  128.99    9.60
   3  -4   5  142.29   12.20
   3  -4   5  121.19    7.80
  -4   4  -5   46.70    6.30
  -4   4  -5   43.00    7.80
   4  -4   5   47.20    4.40
   4  -4   5   40.20    4.60
   4  -4   5   46.20    6.70
   4  -4   5   37.60    4.40
  -5   4  -5  116.19    8.30
   5  -4   5  110.19    8.70
   5  -4   5  128.19    8.30
  -6   4  -5   39.80    4.90
   6  -4   5   32.90    4.20
   8   3  -5   70.19    7.90
   8   3  -5   84.89   12.90
  -8  -3   5   84.99    5.90
  -8  -3   5   69.99    5.70
   7   3  -5   35.30    8.00
   7   3  -5   64.79   12.60
   7   3  -5   53.29    9.50
  -7  -3   5   56.79    5.80
   6   3  -5   50.79    9.70
   6   3  -5   57.39   11.70
   6   3  -5   52.39   10.40
   6   3  -5   39.40    6.50
  -6  -3   5   58.79    9.30
  -6  -3   5   60.19    8.90
  -6  -3   5   57.79    7.30
   5   3  -5   39.70    7.80
   5   3  -5   39.80    8.50
   5   3  -5   47.60   10.00
   5   3  -5   44.80    7.30
   5   3  -5   49.00    8.30
   5   3  -5   37.50    5.10
  -5  -3   5   52.69   10.40
  -5  -3   5   48.60    8.80
  -5  -3   5   41.40    7.50
   4   3  -5   99.39    8.00
   4   3  -5  115.69   15.10
   4   3  -5  105.69   10.40
   4   3  -5  102.89   12.80
   4   3  -5   97.99    9.20
   4   3  -5   96.19    8.40
   4   3  -5   98.89   10.70
  -4  -3   5   64.79   13.20
  -4  -3   5   75.89    9.00
  -4  -3   5   82.59   10.90
   3   3  -5  223.78   15.40
   3   3  -5  234.28   14.70
   3   3  -5  226.88   13.50
   3   3  -5  225.18   17.50
   3   3  -5  211.48   17.40
   3   3  -5  240.48   15.30
   3   3  -5  186.58   21.20
  -3  -3   5  233.78   16.30
  -3  -3   5  230.48   14.30
  -3  -3   5  227.08   16.60
  -3  -3   5  220.58   14.10
   2   3  -5   34.20    7.90
   2   3  -5   31.10    7.30
   2   3  -5   26.50    3.30
   2   3  -5   29.40    5.20
   2   3  -5   28.20    4.80
   2   3  -5   27.80    4.50
   2   3  -5   25.80    4.70
  -2  -3   5   40.40    5.90
  -2  -3   5   37.90    5.10
  -2  -3   5   27.40    7.30
  -2  -3   5   27.70    5.70
  -2  -3   5   34.10    5.60
   1   3  -5   26.40    7.60
   1   3  -5   21.00    7.70
   1   3  -5   29.10    5.80
   1   3  -5   28.20    6.30
   1   3  -5   22.20    4.00
   1   3  -5   20.30    4.50
  -1  -3   5   26.90    3.90
   0   3  -5  226.18   16.20
   0   3  -5  248.88   16.50
   0  -3   5  252.47   14.40
   0  -3   5  263.97   14.00
   0  -3   5  259.57   13.80
   0  -3   5  243.48   15.70
  -1   3  -5   41.70   11.50
  -1   3  -5   52.19    7.60
  -1   3  -5   53.29    7.70
   1  -3   5   70.69    4.80
   1  -3   5   56.89    7.40
   1  -3   5   64.09    4.40
  -2   3  -5  450.25   25.30
  -2   3  -5  431.36   26.20
  -2   3  -5  388.66   27.40
   2  -3   5  431.06   24.90
   2  -3   5  463.75   24.60
   2  -3   5  501.35   24.80
   2  -3   5  471.45   24.40
   2  -3   5  459.15   24.10
  -3   3  -5   76.39    7.10
  -3   3  -5   64.39   12.50
  -3   3  -5   68.49   11.40
  -3   3  -5   82.19    7.40
   3  -3   5   72.99    6.30
   3  -3   5   61.79    6.90
   3  -3   5   68.29    4.70
   3  -3   5   74.49    5.10
   3  -3   5   76.09    6.30
  -4   3  -5  205.48   15.10
  -4   3  -5  194.48   13.60
  -4   3  -5  247.28   14.10
   4  -3   5  253.27   13.90
   4  -3   5  226.18   13.60
   4  -3   5  223.38   12.60
   4  -3   5  228.58   12.80
   4  -3   5  215.48   13.40
  -5   3  -5  147.69   11.00
  -5   3  -5  150.58    9.30
   5  -3   5  126.19    8.20
   5  -3   5  127.39    9.20
   5  -3   5  132.69    9.70
   5  -3   5  124.49    8.30
  -6   3  -5    5.20    2.20
   6  -3   5    6.00    2.50
   8   2  -5   16.50    5.10
   8   2  -5   21.70    4.40
   8   2  -5   21.60    4.10
  -8  -2   5   24.60    4.60
  -8  -2   5   26.80    5.30
   7   2  -5   17.80    6.40
   7   2  -5    9.90    4.30
   7   2  -5   17.00    3.70
   7   2  -5   15.10    6.50
   7   2  -5   20.90    5.40
  -7  -2   5   17.70    4.30
  -7  -2   5   18.40    4.20
  -7  -2   5   19.10    4.40
   6   2  -5   14.10    3.70
   6   2  -5   12.70    3.80
   6   2  -5   16.00    6.50
   6   2  -5    5.40    5.10
   6   2  -5    7.00    4.60
   6   2  -5   13.30    5.40
  -6  -2   5   16.40    4.40
  -6  -2   5   15.50    4.60
   5   2  -5   47.20    7.00
   5   2  -5   36.90    7.80
   5   2  -5   44.80    6.00
  -5  -2   5   49.10    7.50
  -5  -2   5   47.10    7.50
  -5  -2   5   59.79    8.50
   4   2  -5  131.39    9.80
   4   2  -5  130.49    8.30
   4   2  -5  119.59   14.50
   4   2  -5  112.79   10.40
   4   2  -5  123.39    8.70
   4   2  -5  119.39    9.70
  -4  -2   5  124.39   10.40
  -4  -2   5  113.69   10.90
  -4  -2   5  110.39   14.60
   3   2  -5   -2.60    4.60
   3   2  -5    1.50    2.60
   3   2  -5    1.30    2.30
   3   2  -5    1.40    2.10
   3   2  -5   -2.10    7.40
   3   2  -5   -2.30    3.20
   3   2  -5    4.30    3.40
  -3  -2   5   -1.50    5.20
   2   2  -5  948.01   49.40
   2   2  -5  955.60   49.40
   2   2  -5  886.91   49.90
   2   2  -5  873.01   50.99
   2   2  -5  919.91   49.70
   2   2  -5  929.41   50.29
  -2  -2   5  946.31   49.50
  -2  -2   5  921.81   49.70
  -2  -2   5  941.81   54.29
   1   2  -5 1367.86   71.29
   1   2  -5 1271.07   71.79
   1   2  -5 1360.66   72.59
   1   2  -5 1381.86   72.09
   1   2  -5 1342.47   71.29
   1   2  -5 1317.97   71.99
  -1  -2   5 1377.36   71.69
  -1  -2   5 1357.86   70.99
  -1  -2   5 1257.57   71.29
  -1  -2   5 1430.56   71.29
   0   2  -5  621.64   35.20
   0   2  -5  681.73   36.00
   0   2  -5  646.74   35.70
   0   2  -5  591.04   36.30
   0  -2   5  676.33   34.90
   0  -2   5  679.93   35.10
   0  -2   5  674.93   34.70
  -1   2  -5  763.32   44.90
   1  -2   5  837.52   44.00
   1  -2   5  836.92   43.70
   1  -2   5  857.11   44.20
   1  -2   5  833.42   43.80
  -2   2  -5   23.90    4.50
  -2   2  -5   35.90    7.80
  -2   2  -5   40.40    6.50
   2  -2   5   30.70    3.00
   2  -2   5   31.90    2.80
   2  -2   5   36.50    3.20
   2  -2   5   23.20    4.30
  -3   2  -5  135.99   14.10
  -3   2  -5  153.88   10.20
  -3   2  -5  140.49   13.00
  -3   2  -5  133.19    9.70
   3  -2   5  139.59   10.20
   3  -2   5  142.29    8.70
   3  -2   5  151.28    9.10
   3  -2   5  152.98    8.70
   3  -2   5  147.59    8.30
  -4   2  -5  192.28   11.40
  -4   2  -5  166.58   13.00
  -4   2  -5  174.28   11.10
   4  -2   5  172.78    9.90
   4  -2   5  172.38   11.60
   4  -2   5  180.28   10.90
   4  -2   5  171.08   10.10
  -5   2  -5   38.60    5.50
   5  -2   5   30.80    3.90
   5  -2   5   41.60    6.00
   5  -2   5   38.10    6.50
   5  -2   5   43.20    5.80
   5  -2   5   44.50    4.00
  -6   2  -5   61.39   10.80
   6  -2   5   55.59    5.40
   6  -2   5   50.29    5.00
   6  -2   5   46.80    6.00
  -7   2  -5    8.50    2.20
   7  -2   5    3.20    3.00
   8   1  -5   24.50    4.10
   8   1  -5   22.10    4.40
   8   1  -5   18.00    5.10
  -8  -1   5   26.50    4.20
   7   1  -5   81.59    9.30
   7   1  -5   85.79    9.30
   7   1  -5   82.69    9.90
   7   1  -5   95.19   12.30
   7   1  -5   99.99   13.60
  -7  -1   5   91.29   11.40
  -7  -1   5  103.39    9.10
  -7  -1   5   94.19    8.50
  -7  -1   5  102.19    9.50
   6   1  -5   47.70    9.70
   6   1  -5   39.40    6.00
   6   1  -5   49.70    9.10
   6   1  -5   40.60    8.70
   6   1  -5   38.20    7.10
   6   1  -5   28.50    8.10
  -6  -1   5   54.69    7.90
  -6  -1   5   46.10    7.20
  -6  -1   5   52.69    8.00
  -6  -1   5   55.09    8.90
   5   1  -5   50.69    9.00
   5   1  -5   51.39    7.70
   5   1  -5   46.80    6.60
   5   1  -5   53.69    5.20
   5   1  -5   49.00    9.00
   5   1  -5   48.30    7.70
  -5  -1   5   49.40    8.50
  -5  -1   5   47.10    8.80
  -5  -1   5   55.89    9.90
  -5  -1   5   44.50    7.50
   4   1  -5  575.84   30.70
   4   1  -5  559.14   34.40
   4   1  -5  580.94   30.60
   4   1  -5  564.44   31.20
   4   1  -5  574.34   31.20
   4   1  -5  588.44   30.10
  -4  -1   5  518.35   33.40
  -4  -1   5  507.75   31.80
  -4  -1   5  522.85   31.60
  -4  -1   5  542.55   31.30
   3   1  -5  335.07   19.00
   3   1  -5  326.97   20.00
   3   1  -5  346.87   19.20
   3   1  -5  327.97   21.70
   3   1  -5  335.77   20.80
   3   1  -5  355.46   18.90
  -3  -1   5  352.66   25.70
   2   1  -5  297.57   16.50
   2   1  -5  296.07   17.30
   2   1  -5  286.17   17.80
   2   1  -5  289.57   16.20
   2   1  -5  268.17   17.30
  -2  -1   5  304.97   20.80
  -2  -1   5  307.37   16.40
   1   1  -5  107.19    7.30
   1   1  -5   98.19    8.80
   1   1  -5  106.69    8.00
   1   1  -5  103.59    7.80
   1   1  -5  104.99    6.70
  -1  -1   5  121.79   10.00
  -1  -1   5  121.19    7.00
   0   1  -5  163.78    9.60
   0   1  -5  172.08   10.40
   0   1  -5  164.38   10.30
   0   1  -5  144.99   11.40
   0   1  -5  171.58   10.10
   0  -1   5  166.38   10.10
   0  -1   5  185.28    9.60
   0  -1   5  172.18    9.40
  -1   1  -5   18.60    3.40
  -1   1  -5    8.40    4.00
  -1   1  -5    8.80    2.40
  -1   1  -5    6.40    2.60
   1  -1   5   10.70    2.30
   1  -1   5   10.30    1.70
   1  -1   5   10.60    1.70
  -2   1  -5   84.29    8.10
   2  -1   5  109.59    6.20
   2  -1   5  109.09    6.30
   2  -1   5  106.19    6.00
   2  -1   5  102.29    6.80
  -3   1  -5   63.19    9.20
   3  -1   5   81.59    5.40
   3  -1   5   83.89    5.10
   3  -1   5   76.69    8.50
   3  -1   5   85.19    5.20
  -4   1  -5   88.89    7.60
  -4   1  -5   83.69    7.30
   4  -1   5   89.29    6.70
   4  -1   5   85.59    5.50
   4  -1   5   88.49    6.00
   4  -1   5   90.89    6.10
   4  -1   5   88.89    8.20
  -5   1  -5  175.58   10.50
  -5   1  -5  163.68   10.40
   5  -1   5  153.88    9.40
   5  -1   5  147.39   10.00
   5  -1   5  161.88    9.20
   5  -1   5  161.18   10.30
   5  -1   5  148.49   11.00
  -6   1  -5    5.60    3.30
  -6   1  -5    1.90    3.00
   6  -1   5    1.20    2.40
   6  -1   5    0.50    4.60
   6  -1   5    0.30    3.60
   6  -1   5    1.20    1.90
  -7   1  -5    0.80    2.10
  -7   1  -5    1.90    2.50
   7  -1   5    0.40    2.60
   7  -1   5   -2.80    2.60
   8   0  -5   24.70    4.30
   8   0  -5   24.00    4.20
  -8   0   5   27.40    5.40
  -8   0   5   31.10    5.10
   7   0  -5  127.99   10.00
   7   0  -5  132.09   10.60
   7   0  -5  101.49   14.40
   7   0  -5  135.99   11.80
  -7   0   5  140.79   10.90
  -7   0   5  135.09   13.60
  -7   0   5  141.29   11.40
   6   0  -5   20.50    4.80
   6   0  -5   22.30    5.10
   6   0  -5   26.30    5.30
   6   0  -5   26.70   10.10
   6   0  -5   29.20    6.30
  -6   0   5   27.30    5.00
  -6   0   5   18.80    4.60
  -6   0   5   30.20    5.20
  -6   0   5   29.30    5.70
   5   0  -5  258.47   14.30
   5   0  -5  266.17   16.20
   5   0  -5  231.08   25.40
   5   0  -5  259.27   15.60
   5   0  -5  244.98   17.00
   5   0  -5  256.37   15.40
  -5   0   5  223.38   16.30
  -5   0   5  236.08   16.50
  -5   0   5  237.38   16.10
  -5   0   5  243.18   17.00
   4   0  -5  151.48   10.20
   4   0  -5  157.78    9.30
   4   0  -5  155.18    9.80
   4   0  -5  143.09   12.50
  -4   0   5  136.89   12.80
  -4   0   5  164.58   12.50
  -4   0   5  175.18   14.00
   3   0  -5  429.06   25.80
   3   0  -5  436.36   26.50
   3   0  -5  470.95   24.70
   3   0  -5  448.56   24.50
   3   0  -5  466.85   24.20
   3   0  -5  428.16   25.60
  -3   0   5  447.46   30.50
   2   0  -5  619.44   33.70
   2   0  -5  619.14   32.80
   2   0  -5  626.24   32.30
  -2   0   5  593.74   37.00
  -2   0   5  573.74   32.80
   1   0  -5  629.64   31.30
   1   0  -5  600.44   32.10
   1   0  -5  598.84   31.40
   1   0  -5  618.44   31.70
  -1   0   5  537.05   31.50
  -1   0   5  548.15   34.40
   0   0  -5  260.07   14.80
   0   0  -5  258.37   14.40
   0   0  -5  265.17   14.60
   0   0  -5  258.27   14.20
   0   0   5  273.37   14.40
  -1   0  -5   49.90    4.10
  -1   0  -5   50.79    3.50
  -1   0  -5   54.69    4.40
  -1   0  -5   54.39    4.10
  -2   0  -5  239.08   13.00
  -2   0  -5  220.78   12.40
  -2   0  -5  212.58   13.80
  -2   0  -5  218.68   12.70
   2   0   5  226.28   12.80
   2   0   5  231.88   12.30
   2   0   5  206.78   12.80
   2   0   5  230.48   12.20
  -3   0  -5  423.46   22.70
   3   0   5  386.46   22.10
   3   0   5  403.06   21.90
   3   0   5  414.76   21.90
   3   0   5  411.16   21.70
   3   0   5  393.36   22.50
  -4   0  -5  522.25   28.70
  -4   0  -5  526.65   29.90
  -4   0  -5  452.65   29.60
  -4   0  -5  515.85   29.00
  -4   0  -5  484.05   29.50
   4   0   5  524.95   28.30
   4   0   5  536.45   28.10
   4   0   5  563.34   28.10
   4   0   5  506.05   28.80
   4   0   5  560.64   29.20
  -5   0  -5  393.66   24.70
  -5   0  -5  431.56   23.40
  -5   0  -5  390.46   23.70
   5   0   5  436.26   23.30
   5   0   5  422.36   23.00
   5   0   5  420.16   23.10
   5   0   5  417.46   22.50
   5   0   5  414.86   23.60
  -6   0  -5  411.66   24.10
  -6   0  -5  410.56   24.20
   6   0   5  434.16   23.40
   6   0   5  435.76   23.50
   6   0   5  405.76   24.00
   6   0   5  448.86   24.20
   6   0   5  457.05   24.20
  -7   0  -5   15.40    5.10
  -7   0  -5   21.90    5.30
   7   0   5   11.00    3.80
  -8   0  -5   10.20    2.10
  -8   0  -5    6.60    2.30
   8  -1  -5  142.69   13.30
   8  -1  -5  135.39   12.40
  -8   1   5  157.88    9.70
  -8   1   5  147.29    9.30
   7  -1  -5   11.70    9.70
   7  -1  -5   13.00    3.60
   7  -1  -5   18.00    3.70
   7  -1  -5   18.70    4.30
  -7   1   5   28.30    4.20
  -7   1   5   22.20    4.70
   6  -1  -5  273.07   18.80
   6  -1  -5  264.07   18.50
   6  -1  -5  265.57   15.50
   6  -1  -5  243.58   17.50
   6  -1  -5  256.37   16.00
  -6   1   5  278.07   16.90
  -6   1   5  258.37   16.90
  -6   1   5  272.27   17.30
   5  -1  -5   64.79   12.40
   5  -1  -5   69.99    7.80
   5  -1  -5   63.79    8.30
   5  -1  -5   73.89    5.60
   5  -1  -5   65.99    7.40
  -5   1   5   50.49    9.50
   4  -1  -5  165.78   10.30
   4  -1  -5  165.78    9.40
   4  -1  -5  170.48   10.20
  -4   1   5  133.29   12.50
  -4   1   5  154.98   13.10
   3  -1  -5  607.64   35.00
   3  -1  -5  637.04   32.90
   3  -1  -5  621.74   32.70
  -3   1   5  583.14   39.40
   2  -1  -5   89.49    7.20
   2  -1  -5   84.39    6.30
   2  -1  -5   88.29    5.10
   2  -1  -5   82.49    5.60
  -2   1   5   85.99    9.90
   1  -1  -5  231.68   12.90
   1  -1  -5  208.88   12.00
   1  -1  -5  217.58   11.80
   1  -1  -5  220.08   12.30
  -1   1   5  223.68   15.50
  -1   1   5  221.08   12.40
   0  -1  -5 1559.04   80.99
   0  -1  -5 1519.25   81.29
   0   1   5 1573.14   81.19
   0   1   5 1514.85   83.69
  -1  -1  -5   94.39    6.10
  -1  -1  -5   99.19    5.60
  -1  -1  -5   98.29    6.40
   1   1   5   99.79    5.80
  -2  -1  -5  950.60   51.49
  -2  -1  -5  970.60   51.39
  -2  -1  -5  897.81   51.69
  -2  -1  -5  992.60   51.69
   2   1   5 1058.89   51.49
   2   1   5 1023.20   51.89
   2   1   5  968.00   51.39
   2   1   5  934.41   51.49
  -3  -1  -5   10.10    2.10
  -3  -1  -5   11.10    1.70
  -3  -1  -5   12.50    2.20
  -3  -1  -5   10.70    2.70
  -4  -1  -5  425.36   22.50
  -4  -1  -5  361.16   22.90
  -4  -1  -5  384.46   22.40
  -4  -1  -5  376.46   22.80
   4   1   5  374.96   22.60
   4   1   5  394.56   21.50
   4   1   5  400.76   22.20
   4   1   5  405.96   21.40
   4   1   5  415.66   21.50
   4   1   5  402.26   21.60
  -5  -1  -5  472.35   27.50
  -5  -1  -5  530.65   27.00
  -5  -1  -5  507.95   27.10
  -5  -1  -5  522.25   26.80
   5   1   5  481.45   26.20
   5   1   5  450.65   25.80
   5   1   5  474.85   26.40
   5   1   5  477.45   26.10
   5   1   5  469.45   26.70
   5   1   5  445.76   26.70
   5   1   5  434.96   29.40
  -6  -1  -5  331.87   22.40
  -6  -1  -5  366.46   22.00
  -6  -1  -5  397.66   22.20
   6   1   5  406.16   22.00
   6   1   5  412.06   22.20
   6   1   5  399.96   21.30
   6   1   5  389.46   22.10
   6   1   5  393.86   21.50
  -7  -1  -5    6.30    3.50
  -7  -1  -5    8.30    3.70
   7   1   5    3.00    2.70
   7   1   5    6.30    3.60
   7   1   5    2.80    3.00
   7   1   5    4.10    4.30
  -8  -1  -5   41.40    5.60
  -8  -1  -5   46.50    4.40
   8   1   5   43.50    5.10
  -8   2   5   15.00    2.40
   7  -2  -5   41.40    5.70
   6  -2  -5   47.30    8.60
   6  -2  -5   39.80    7.50
  -6   2   5   54.89    7.80
  -6   2   5   56.79    8.60
   5  -2  -5   79.79   10.10
   5  -2  -5   75.39    7.60
   5  -2  -5   83.49    6.30
  -5   2   5   95.99    9.30
  -5   2   5   77.59    9.20
   4  -2  -5  420.86   23.40
   4  -2  -5  428.06   22.60
  -4   2   5  388.26   24.20
  -4   2   5  433.36   25.10
   3  -2  -5  114.79   12.20
  -3   2   5  126.69   11.60
  -3   2   5  107.59   11.00
   2  -2  -5  554.44   32.40
   2  -2  -5  609.84   33.40
  -2   2   5  631.24   37.80
  -2   2   5  627.54   32.80
   1  -2  -5 2420.76  133.39
   1  -2  -5 2510.55  133.79
   1  -2  -5 2795.62  134.49
  -1   2   5 2477.65  133.99
  -1   2   5 2519.15  137.59
   0  -2  -5  264.67   14.40
   0  -2  -5  274.57   15.20
   0   2   5  257.07   14.50
   0   2   5  258.27   14.60
   0   2   5  276.77   17.20
  -1  -2  -5  424.36   21.10
  -1  -2  -5  385.76   21.30
   1   2   5  377.66   21.50
   1   2   5  411.46   21.00
   1   2   5  362.36   22.80
  -2  -2  -5  309.97   18.70
  -2  -2  -5  347.97   18.00
  -2  -2  -5  343.97   18.40
  -2  -2  -5  305.67   18.60
   2   2   5  353.96   18.60
   2   2   5  347.27   18.10
  -3  -2  -5  212.48   13.90
  -3  -2  -5  212.28   12.50
  -3  -2  -5  221.68   12.00
  -3  -2  -5  211.78   12.30
  -3  -2  -5  204.98   12.80
   3   2   5  213.78   12.10
   3   2   5  215.18   12.60
   3   2   5  229.48   12.70
   3   2   5  218.78   12.00
  -4  -2  -5  305.57   17.80
  -4  -2  -5  320.97   17.40
  -4  -2  -5  287.87   18.90
  -4  -2  -5  267.47   18.30
  -4  -2  -5  295.57   18.10
  -4  -2  -5  340.17   17.20
   4   2   5  305.17   16.70
   4   2   5  298.97   17.20
   4   2   5  304.67   17.30
   4   2   5  294.87   16.80
   4   2   5  305.27   16.50
   4   2   5  263.87   18.10
   4   2   5  301.37   16.70
   4   2   5  296.47   19.10
  -5  -2  -5  941.51   52.29
  -5  -2  -5  927.51   52.39
  -5  -2  -5  905.51   52.19
   5   2   5  977.50   52.19
   5   2   5  971.60   51.79
   5   2   5 1017.50   51.89
   5   2   5  978.90   52.39
   5   2   5  975.70   51.99
   5   2   5 1009.50   51.99
   5   2   5 1002.30   52.79
   5   2   5  979.30   51.59
  -6  -2  -5  169.58   14.70
  -6  -2  -5  216.48   14.50
  -6  -2  -5  217.88   13.30
  -6  -2  -5  185.48   13.10
   6   2   5  215.08   13.40
   6   2   5  207.88   12.80
   6   2   5  208.48   12.60
   6   2   5  217.68   16.50
   6   2   5  195.28   13.80
   6   2   5  197.68   13.30
   6   2   5  214.08   13.90
   6   2   5  220.08   13.40
  -7  -2  -5  218.18   12.80
  -7  -2  -5  169.18   13.70
   7   2   5  174.58   14.30
   7   2   5  220.88   12.80
  -8  -2  -5  126.89    8.30
   8   2   5  127.39    8.30
  -7   3   5   75.79    5.90
  -7   3   5   56.69    8.40
  -6   3   5   37.30    5.60
  -6   3   5   30.40    4.80
  -5   3   5  403.56   24.10
  -5   3   5  426.36   24.80
   4  -3  -5  333.17   19.10
  -4   3   5  328.97   20.70
  -4   3   5  327.77   20.10
  -3   3   5  565.44   32.50
  -3   3   5  577.64   33.20
  -3   3   5  603.94   32.30
   2  -3  -5 1124.79   58.89
   2  -3  -5 1068.89   57.59
  -2   3   5 1023.80   63.19
  -2   3   5 1121.29   58.19
   1  -3  -5  495.75   26.70
  -1   3   5  472.25   30.00
  -1   3   5  475.75   26.20
   0  -3  -5  342.17   17.70
   0  -3  -5  342.77   19.00
   0   3   5  323.47   18.20
   0   3   5  323.27   20.80
  -1  -3  -5  975.80   52.39
  -1  -3  -5  981.50   52.19
  -1  -3  -5  993.90   52.89
   1   3   5 1065.39   52.99
   1   3   5  971.20   52.49
   1   3   5  960.90   54.19
  -2  -3  -5   58.09    4.20
  -2  -3  -5   57.09    5.10
  -2  -3  -5   54.89    3.70
  -2  -3  -5   48.80    5.60
   2   3   5   65.49    4.90
   2   3   5   59.09    4.40
  -3  -3  -5 1203.28   67.09
  -3  -3  -5 1251.07   67.99
  -3  -3  -5 1264.47   66.79
  -3  -3  -5 1256.57   66.99
   3   3   5 1311.37   67.19
   3   3   5 1313.97   67.59
  -4  -3  -5  190.28   12.40
  -4  -3  -5  205.88   19.50
  -4  -3  -5  198.68   11.30
  -4  -3  -5  190.58   11.60
  -4  -3  -5  191.48   12.40
  -4  -3  -5  193.18   12.10
  -4  -3  -5  178.98   12.90
   4   3   5  205.58   12.40
   4   3   5  197.78   13.00
   4   3   5  202.38   11.30
   4   3   5  182.68   13.50
  -5  -3  -5  358.56   21.10
  -5  -3  -5  365.26   21.70
  -5  -3  -5  349.07   22.00
  -5  -3  -5  374.76   21.20
   5   3   5  358.86   21.20
   5   3   5  370.26   20.60
   5   3   5  390.96   21.70
   5   3   5  367.66   20.90
  -6  -3  -5  119.59    9.10
  -6  -3  -5  103.29    9.90
  -6  -3  -5   84.59   10.30
   6   3   5  109.29    9.30
   6   3   5  111.29   10.60
   6   3   5  106.09    9.40
   6   3   5   97.59    8.90
  -7  -3  -5   34.60    6.40
  -7  -3  -5   31.90    6.10
  -7  -3  -5   23.30    7.10
   7   3   5   38.50    6.80
   7   3   5   23.40    6.30
   7   3   5   28.30    7.00
  -8  -3  -5   82.69    6.50
   8   3   5   97.09    6.60
  -7   4   5    4.20    1.90
  -6   4   5   65.29    5.70
  -6   4   5   57.69    5.90
  -5   4   5  231.08   15.00
  -5   4   5  218.68   15.60
  -4   4   5  441.96   25.90
  -4   4   5  431.66   25.30
   3  -4  -5  318.97   17.30
  -3   4   5  288.77   17.80
  -3   4   5  295.57   18.30
  -3   4   5  265.07   17.50
  -3   4   5  306.37   19.10
  -2   4   5  138.39   14.10
  -2   4   5  136.49   10.20
  -2   4   5  154.38    9.70
  -2   4   5  145.99   11.90
   1  -4  -5  229.68   15.50
  -1   4   5  257.07   14.40
   0  -4  -5  183.58   10.60
   0  -4  -5  197.78   12.30
   0   4   5  203.88   11.70
  -1  -4  -5  241.48   14.30
  -1  -4  -5  216.68   15.40
  -1  -4  -5  250.47   13.20
  -1  -4  -5  251.47   13.50
   1   4   5  254.37   13.90
  -2  -4  -5  712.13   40.70
  -2  -4  -5  784.52   40.30
  -2  -4  -5  758.22   40.40
  -2  -4  -5  782.52   41.50
   2   4   5  728.83   40.80
   2   4   5  793.22   41.10
  -3  -4  -5  224.38   16.20
  -3  -4  -5  236.28   13.20
  -3  -4  -5  222.38   14.10
  -3  -4  -5  240.88   13.00
  -3  -4  -5  240.68   14.40
   3   4   5  201.58   14.60
   3   4   5  252.57   14.20
   3   4   5  243.08   15.50
   3   4   5  244.18   13.40
   3   4   5  245.38   14.00
  -4  -4  -5  103.39    6.10
  -4  -4  -5   99.09    7.50
  -4  -4  -5   85.89    9.30
  -4  -4  -5   88.49    7.90
  -4  -4  -5   96.29    6.90
   4   4   5   96.19   11.30
   4   4   5   98.89    7.10
   4   4   5  110.29    9.30
   4   4   5   87.59    8.70
   4   4   5   92.19    6.60
  -5  -4  -5  409.96   23.00
  -5  -4  -5  401.16   24.70
  -5  -4  -5  372.26   22.30
  -5  -4  -5  362.66   24.10
  -5  -4  -5  410.86   23.00
  -5  -4  -5  397.36   22.90
   5   4   5  442.26   23.20
   5   4   5  436.86   22.80
   5   4   5  419.76   23.70
  -6  -4  -5   15.60    4.20
  -6  -4  -5   15.70    6.00
  -6  -4  -5   16.60    5.00
   6   4   5   18.90    4.50
   6   4   5   21.60    4.60
   6   4   5   14.50    4.70
   6   4   5   18.60    4.20
  -7  -4  -5   82.99   10.20
  -7  -4  -5   85.69    8.70
   7   4   5   92.99    9.00
   7   4   5   85.59   10.40
   7   4   5   93.59    8.40
  -8  -4  -5   99.59    7.10
   8   4   5  102.09    7.10
   8   4   5   97.19    8.60
  -6   5   5   10.30    2.40
  -5   5   5   64.29    6.30
  -4   5   5   99.99   12.00
  -4   5   5  110.99   10.30
  -3   5   5  117.09   11.00
  -3   5   5  113.09   10.10
  -3   5   5  105.59   11.70
  -3   5   5  109.99    8.50
  -2   5   5  169.78   11.50
  -2   5   5  180.48   13.20
  -2   5   5  170.08   11.30
  -2   5   5  154.58   15.00
  -1   5   5   92.09    9.40
  -1   5   5   82.69    8.30
  -1   5   5  100.19    7.60
  -1   5   5   90.49    7.70
   0  -5  -5  281.57   14.40
   0   5   5  242.98   16.00
   0   5   5  256.77   16.80
   0   5   5  270.77   15.70
  -1  -5  -5  819.82   44.30
  -1  -5  -5  830.72   43.20
  -1  -5  -5  732.03   43.90
  -1  -5  -5  820.62   43.20
   1   5   5  809.92   44.20
   1   5   5  805.52   44.30
   1   5   5  866.91   44.10
  -2  -5  -5  390.56   22.50
  -2  -5  -5  402.76   21.40
  -2  -5  -5  397.46   21.10
   2   5   5  393.06   22.90
   2   5   5  404.86   22.50
   2   5   5  352.86   22.20
   2   5   5  405.26   22.40
  -3  -5  -5  134.69   10.20
  -3  -5  -5  122.99   12.30
  -3  -5  -5  129.89    9.50
  -3  -5  -5  138.99    9.00
  -3  -5  -5  126.89    8.50
   3   5   5  171.38   11.20
   3   5   5  155.18   10.20
   3   5   5  168.58    9.70
   3   5   5  174.58   10.60
   3   5   5  156.38   12.00
  -4  -5  -5  180.78    9.60
  -4  -5  -5  176.28   11.90
  -4  -5  -5  172.78   11.80
  -4  -5  -5  183.28   10.60
  -4  -5  -5  189.58   10.30
   4   5   5  143.39   10.10
   4   5   5  138.49   10.50
   4   5   5  147.59   11.70
   4   5   5  144.79   11.20
  -5  -5  -5    4.00    2.80
  -5  -5  -5    1.50    2.60
  -5  -5  -5    4.20    4.70
  -5  -5  -5    2.10    3.70
  -5  -5  -5   -2.00   11.80
   5   5   5    8.70    5.60
   5   5   5   -1.50    3.80
   5   5   5    0.50    3.60
  -6  -5  -5   22.60    6.10
  -6  -5  -5   17.00    6.40
   6   5   5   11.90    4.80
   6   5   5    6.30    5.00
   6   5   5   11.60    4.00
  -7  -5  -5   60.99    8.00
   7   5   5   41.00    9.00
  -8  -5  -5   45.20    5.10
   8   5   5   42.10    5.40
   8   5   5   30.20    5.40
  -5   6   5   62.29    6.30
  -4   6   5   11.80    3.80
  -4   6   5    8.80    2.40
  -3   6   5  185.68   11.50
  -3   6   5  175.48   14.90
  -3   6   5  187.08   15.00
  -3   6   5  170.98   12.10
  -2   6   5    7.50    4.70
  -2   6   5   13.90    5.30
  -2   6   5    9.10    3.00
  -2   6   5    5.10    2.70
  -1   6   5   48.50    8.80
  -1   6   5   44.80    6.10
  -1   6   5   57.49    6.20
  -1   6   5   50.79    9.30
   0  -6  -5  299.47   16.50
   0   6   5  323.67   18.70
   0   6   5  280.67   17.70
   0   6   5  304.37   18.50
   0   6   5  319.07   18.60
  -1  -6  -5  687.23   36.90
  -1  -6  -5  694.73   36.70
  -1  -6  -5  646.94   37.70
  -1  -6  -5  712.23   38.60
   1   6   5  688.83   37.80
   1   6   5  686.93   38.00
   1   6   5  694.73   38.10
   1   6   5  695.93   38.20
  -2  -6  -5  107.99    9.00
  -2  -6  -5  110.79    7.10
  -2  -6  -5  114.69    8.00
  -2  -6  -5  100.79    9.50
   2   6   5  126.69    9.30
   2   6   5  144.59    9.00
   2   6   5  136.79    9.60
  -3  -6  -5  423.16   23.20
  -3  -6  -5  436.06   22.20
  -3  -6  -5  441.06   24.60
  -3  -6  -5  393.96   24.30
  -3  -6  -5  434.66   22.90
   3   6   5  370.16   23.10
   3   6   5  398.46   24.60
   3   6   5  376.06   23.60
  -4  -6  -5   25.60    5.10
  -4  -6  -5   18.60    3.40
  -4  -6  -5   18.00    3.70
  -4  -6  -5   17.80    4.50
   4   6   5   10.90    3.40
   4   6   5   16.50    6.50
   4   6   5   15.40    3.90
   4   6   5   12.80    3.70
  -5  -6  -5   11.30    3.00
  -5  -6  -5    8.30    3.00
  -5  -6  -5    9.30    2.60
  -5  -6  -5    6.20    5.90
  -5  -6  -5   15.10    4.30
   5   6   5    2.10    4.10
   5   6   5    7.70    3.70
  -6  -6  -5   12.90    3.80
  -6  -6  -5   11.70    7.90
  -6  -6  -5    8.40    3.40
   6   6   5    1.90    4.70
   6   6   5    7.60    3.70
  -7  -6  -5   23.10    4.50
  -7  -6  -5   22.50    3.20
   7   6   5   14.00    6.00
  -8  -6  -5    6.10    3.20
   8   6   5    8.50    2.50
  -3   7   5   71.79    5.40
  -3   7   5   64.89    5.70
  -2   7   5   77.89    6.60
  -2   7   5   71.19    7.10
  -1   7   5  167.78   11.30
  -1   7   5  166.78   11.10
  -1   7   5  171.68   14.40
  -1   7   5  172.98   14.00
   0  -7  -5  126.89    8.00
   0   7   5  126.19   11.90
   0   7   5  134.79   11.30
   0   7   5  132.09    9.70
   0   7   5  130.29    9.60
  -1  -7  -5  643.34   33.70
  -1  -7  -5  622.34   33.90
   1   7   5  629.64   34.90
   1   7   5  620.34   36.10
   1   7   5  636.04   35.00
   1   7   5  631.64   34.80
  -2  -7  -5  474.15   29.50
  -2  -7  -5  516.15   26.20
  -2  -7  -5  502.25   27.00
  -2  -7  -5  505.65   26.40
   2   7   5  461.35   28.90
   2   7   5  502.75   27.90
   2   7   5  483.75   26.60
   2   7   5  465.85   27.30
   2   7   5  442.66   27.00
  -3  -7  -5  482.85   30.50
  -3  -7  -5  532.65   27.60
  -3  -7  -5  530.45   28.30
  -3  -7  -5  536.35   27.80
  -3  -7  -5  494.35   29.20
   3   7   5  501.55   28.00
   3   7   5  482.75   28.70
   3   7   5  517.95   28.70
   3   7   5  520.55   31.30
  -4  -7  -5  200.28   11.10
  -4  -7  -5  205.28   11.10
  -4  -7  -5  159.98   15.30
  -4  -7  -5  215.48   13.10
   4   7   5  199.08   12.60
   4   7   5  156.08   14.00
   4   7   5  198.58   12.20
   4   7   5  156.08   13.50
  -5  -7  -5   46.50    5.40
  -5  -7  -5   42.90    7.60
  -5  -7  -5   40.60    5.60
  -5  -7  -5   38.20    6.80
   5   7   5   42.60    6.70
   5   7   5   43.30    6.30
  -6  -7  -5   97.79    7.40
  -6  -7  -5  104.69    8.60
   6   7   5   75.09   11.50
   6   7   5  102.19    6.90
  -7  -7  -5   29.00    4.40
   7   7   5   28.00    3.90
  -3   8   5   54.89    4.70
  -2   8   5   54.19    4.40
  -1   8   5    3.40    2.00
   0  -8  -5  281.97   17.20
   0   8   5  326.57   18.80
   0   8   5  325.17   18.30
  -1  -8  -5   95.19    6.60
  -1  -8  -5   98.59    7.00
  -1  -8  -5   87.79    7.90
   1   8   5   83.89    7.40
   1   8   5   79.29   10.80
  -2  -8  -5  138.09    8.40
  -2  -8  -5  133.49    8.30
  -2  -8  -5  125.79    8.90
   2   8   5  147.19   11.70
   2   8   5  114.49    9.30
   2   8   5  132.99    9.50
  -3  -8  -5  180.28   10.70
  -3  -8  -5  181.98   13.70
  -3  -8  -5  176.08   10.70
  -3  -8  -5  175.68   10.40
   3   8   5  159.28   11.30
   3   8   5  168.48   10.90
   3   8   5  164.18   11.70
   3   8   5  176.38   13.50
  -4  -8  -5    8.00    2.80
  -4  -8  -5    8.40    2.30
  -4  -8  -5    9.10    2.10
   4   8   5    9.40    4.70
   4   8   5    5.90    2.80
  -5  -8  -5  150.48    9.30
  -5  -8  -5  149.79    9.50
  -5  -8  -5  132.79    9.90
   5   8   5  141.39    8.80
  -6  -8  -5  125.79    7.80
   6   8   5  117.69    7.40
  -1   9   5   97.39    6.10
   0   9   5  122.69    8.70
   0   9   5  159.38    8.60
  -1  -9  -5   57.69    6.30
   1   9   5   65.19    4.90
  -2  -9  -5  329.27   18.00
  -2  -9  -5  325.37   18.00
   2   9   5  313.67   18.10
   2   9   5  318.47   18.00
  -3  -9  -5    4.20    2.00
  -3  -9  -5    3.20    4.50
  -3  -9  -5    3.90    2.30
   3   9   5    0.90    2.80
   3   9   5    5.50    4.10
  -4  -9  -5  122.49    8.30
  -4  -9  -5  117.69    7.60
  -4  -9  -5  107.69    8.10
   4   9   5  109.79    8.80
   4   9   5  109.89    7.60
  -5  -9  -5  113.69    7.50
  -5  -9  -5  106.79    8.40
   5   9   5  108.29    8.40
   4   7  -6   48.30    6.30
  -4  -7   6   48.70    4.10
  -4  -7   6   56.99    6.30
   3   7  -6    8.80    3.00
  -3  -7   6    7.40    1.90
  -3  -7   6    6.30    3.10
   2   7  -6   66.59    8.50
  -2  -7   6   69.99    6.60
  -2  -7   6   63.69    5.00
   1   7  -6   26.00    5.00
   1   7  -6   23.90    4.60
  -1  -7   6   21.80    3.30
  -1  -7   6   24.50    3.40
   0   7  -6   10.20    3.30
   0   7  -6   11.40    2.90
   0  -7   6   10.20    2.80
   0  -7   6    9.80    3.10
  -1   7  -6   18.60    4.50
   1  -7   6   14.80    3.40
   1  -7   6    8.80    2.60
   6   6  -6    9.80    5.00
  -6  -6   6    3.90    2.00
  -6  -6   6    2.80    3.20
   5   6  -6   56.19   10.40
   5   6  -6   70.09    8.30
  -5  -6   6   55.29    4.80
  -5  -6   6   48.00    7.80
   4   6  -6   -1.00    6.70
   4   6  -6    2.50    4.10
  -4  -6   6   -3.10    5.90
  -4  -6   6    3.80    2.40
  -4  -6   6    1.70    3.70
  -3  -6   6   21.20    7.40
   2   6  -6    0.30    8.20
   2   6  -6    0.50    4.40
  -2  -6   6    6.70    4.20
  -2  -6   6    8.10    3.10
   1   6  -6   13.70    4.40
   1   6  -6   11.00    7.20
  -1  -6   6   12.00    4.40
  -1  -6   6   22.40    5.10
   0  -6   6   72.69   14.60
  -1   6  -6    9.60    4.00
  -1   6  -6   14.50    3.00
   1  -6   6   11.00    3.20
  -2   6  -6   17.30    3.90
  -2   6  -6   23.60    3.40
   2  -6   6   21.10    3.30
  -3   6  -6   60.29    6.30
  -7  -5   6   10.90    2.30
  -7  -5   6   12.40    2.60
   6   5  -6   42.70    7.60
   6   5  -6   23.90    4.70
  -6  -5   6   25.50    4.00
   5   5  -6   29.00    6.70
  -5  -5   6   30.60    5.30
   4   5  -6   11.30    6.30
   4   5  -6    0.70    6.60
  -4  -5   6    7.90    6.30
  -4  -5   6   -3.30    5.00
  -4  -5   6    3.40    3.20
   3   5  -6   11.60    5.50
   3   5  -6    0.60    7.40
  -3  -5   6    4.40    7.50
  -3  -5   6    3.30    3.20
  -3  -5   6    8.50    4.70
   2   5  -6   55.79    9.20
   2   5  -6   37.10    6.00
   2   5  -6   31.90    7.10
  -2  -5   6   42.20    5.70
  -2  -5   6   43.20    8.00
  -2  -5   6   41.80    9.20
  -2  -5   6   48.30    8.60
  -2  -5   6   32.20    6.70
   1   5  -6   97.99   10.20
   1   5  -6   86.69   13.10
  -1  -5   6  123.29    9.70
  -1  -5   6  105.19   10.70
  -1  -5   6  116.99    8.80
   0   5  -6   63.39    8.20
   0   5  -6   72.89   11.90
   0  -5   6   55.79    6.10
   0  -5   6   48.10   10.80
   0  -5   6   64.39    7.90
   0  -5   6   64.59    8.80
  -1   5  -6  158.88   11.50
  -1   5  -6  148.39   16.80
   1  -5   6  160.08   15.60
   1  -5   6  175.28   11.40
   1  -5   6  146.09   18.90
   1  -5   6  153.88   10.00
  -2   5  -6  124.39    9.40
   2  -5   6  115.79    9.50
   2  -5   6  108.19    8.10
  -3   5  -6   18.30    4.70
  -3   5  -6   22.00    3.10
   3  -5   6   29.20    5.50
   3  -5   6   14.80    3.10
  -4   5  -6  141.59   10.40
  -4   5  -6  127.19   10.60
   7   4  -6    1.50    3.80
  -7  -4   6    0.40    2.60
  -7  -4   6   -1.50    2.50
   6   4  -6   33.70    9.40
  -6  -4   6   45.30    5.00
   5   4  -6   41.10    6.10
   5   4  -6   68.19   11.40
   5   4  -6   42.50    8.20
   5   4  -6   67.79   11.70
  -5  -4   6   50.79    8.20
  -5  -4   6   49.30    6.70
  -5  -4   6   42.30    6.50
   4   4  -6    3.10   10.10
   4   4  -6    3.00    6.30
   4   4  -6    1.60    6.90
   4   4  -6   -1.10    8.10
  -4  -4   6    2.50    5.90
  -4  -4   6    3.40    5.40
  -4  -4   6   -3.70    3.50
   3   4  -6   16.50    6.60
   3   4  -6   25.00    6.80
   3   4  -6   23.40    7.00
  -3  -4   6   19.70    3.80
  -3  -4   6   22.70    5.90
  -3  -4   6   21.60    5.60
   2   4  -6  195.18   17.60
   2   4  -6  214.28   15.80
   2   4  -6  188.38   15.90
  -2  -4   6  220.08   15.90
  -2  -4   6  209.88   14.10
  -2  -4   6  213.88   16.70
   1   4  -6   76.39   10.50
   1   4  -6   81.29    9.70
  -1  -4   6   86.19    8.60
  -1  -4   6   80.69    6.70
  -1  -4   6   72.39    8.80
  -1  -4   6   86.79    7.00
  -1  -4   6   99.59    9.00
   0   4  -6 1123.69   60.19
   0   4  -6 1120.59   59.09
   0  -4   6 1134.99   58.79
   0  -4   6 1096.09   59.39
   0  -4   6 1100.39   57.99
   0  -4   6  989.80   59.39
  -1   4  -6  500.85   28.40
  -1   4  -6  483.85   30.10
   1  -4   6  525.05   27.30
   1  -4   6  479.85   28.10
   1  -4   6  494.15   27.70
   1  -4   6  544.75   28.20
  -2   4  -6   90.69    7.90
  -2   4  -6   77.79   14.40
   2  -4   6   80.29    7.20
   2  -4   6   87.09    6.00
   2  -4   6   92.49    7.70
  -3   4  -6  144.79   13.00
  -3   4  -6  156.08   10.20
   3  -4   6  143.49   10.00
   3  -4   6  143.89    9.00
  -4   4  -6  135.09   11.50
  -4   4  -6  138.79    8.80
  -4   4  -6  128.39   10.00
   4  -4   6  143.59    9.10
   4  -4   6  140.49    9.00
  -5   4  -6   94.39    7.50
   5  -4   6   98.39   14.50
   5  -4   6   96.19    7.30
   8   3  -6   13.30    3.60
  -8  -3   6    5.80    3.00
   7   3  -6   28.20    4.90
   7   3  -6   33.00    4.90
  -7  -3   6   43.50    5.70
  -7  -3   6   37.90    6.20
  -7  -3   6   32.40    5.00
   6   3  -6   87.89   12.10
   6   3  -6   79.19   13.90
   6   3  -6  104.89   13.00
   6   3  -6   88.39   10.40
   6   3  -6   87.19   12.30
  -6  -3   6   73.09    8.40
  -6  -3   6   81.29   10.40
  -6  -3   6   91.39    9.70
   5   3  -6   16.20    4.80
   5   3  -6   14.20    5.00
   5   3  -6    6.40    6.50
   5   3  -6   11.30    5.50
   5   3  -6   10.10    5.30
   5   3  -6   20.60    5.60
  -5  -3   6   16.20    4.70
  -5  -3   6   22.60    6.00
  -5  -3   6    9.70    4.50
   4   3  -6  323.27   20.00
   4   3  -6  318.07   18.60
   4   3  -6  306.27   20.90
   4   3  -6  287.57   24.20
   4   3  -6  309.17   18.80
   4   3  -6  314.57   19.30
  -4  -3   6  293.97   19.30
  -4  -3   6  292.67   20.90
  -4  -3   6  296.87   18.20
  -4  -3   6  281.57   22.00
   3   3  -6  167.28   12.70
   3   3  -6  159.78   11.50
   3   3  -6  168.28   19.10
   3   3  -6  173.98   15.30
   3   3  -6  146.79   14.70
   3   3  -6  172.18   13.50
   3   3  -6  167.28   13.80
   3   3  -6  147.89   11.70
  -3  -3   6  181.48   14.10
  -3  -3   6  165.08   11.60
  -3  -3   6  149.69   13.30
   2   3  -6  143.09   13.40
   2   3  -6  121.59   11.80
   2   3  -6  132.29   14.20
   2   3  -6  140.39   13.60
   2   3  -6  131.59   12.90
   2   3  -6  134.59   11.60
   2   3  -6  121.89    9.90
   2   3  -6  128.79   14.50
  -2  -3   6  137.89    8.80
  -2  -3   6  125.89   11.40
  -2  -3   6  126.59   12.70
   1   3  -6   90.29   10.20
   1   3  -6   92.09   12.10
  -1  -3   6   69.29    5.30
  -1  -3   6   69.49    6.30
  -1  -3   6   73.99   12.20
  -1  -3   6   59.39    6.50
  -1  -3   6   65.29    8.50
  -1  -3   6   69.39    7.60
  -1  -3   6   66.29    8.70
   0   3  -6  442.56   26.90
   0   3  -6  444.46   26.50
   0   3  -6  452.95   28.00
   0  -3   6  475.25   29.10
   0  -3   6  463.25   26.00
   0  -3   6  462.45   26.20
   0  -3   6  505.15   25.40
   0  -3   6  463.75   26.30
   0  -3   6  467.65   25.30
  -1   3  -6  141.49   15.60
  -1   3  -6  158.18   10.50
  -1   3  -6  147.19   11.70
   1  -3   6  135.79    9.60
   1  -3   6  142.39    8.60
   1  -3   6  128.89    9.90
   1  -3   6  138.49    8.20
  -2   3  -6  119.39   11.50
  -2   3  -6  101.09    8.30
   2  -3   6   93.69    9.20
   2  -3   6  105.19    6.30
   2  -3   6   97.19    7.30
   2  -3   6   96.49    8.00
  -3   3  -6   82.49   11.50
  -3   3  -6  102.09    7.80
  -3   3  -6   95.39   15.90
   3  -3   6   87.99    7.60
   3  -3   6   87.79    6.30
   3  -3   6   89.89    7.20
   3  -3   6   77.39   10.60
   3  -3   6   92.99    5.90
  -4   3  -6   90.19    7.80
  -4   3  -6  103.19   10.50
   4  -3   6   85.99    7.20
   4  -3   6  105.39    6.70
   4  -3   6  103.59    8.70
   4  -3   6   94.09    6.90
   4  -3   6  114.99    8.00
  -5   3  -6  141.09    8.60
  -5   3  -6  136.99    9.80
   5  -3   6  129.19    8.80
  -6   3  -6   20.90    4.90
   6  -3   6   17.90    2.60
   8   2  -6   54.09   11.30
   8   2  -6   36.80    4.80
  -8  -2   6   36.80    5.20
   7   2  -6   38.00    5.40
   7   2  -6   34.90    7.10
   7   2  -6   52.69    6.80
   7   2  -6   41.20    5.80
  -7  -2   6   51.99    6.50
  -7  -2   6   45.10    5.70
  -7  -2   6   50.49    6.00
   6   2  -6    7.40    4.10
   6   2  -6   16.00    5.60
   6   2  -6   14.90    6.50
   6   2  -6   12.60    4.70
   6   2  -6   10.80    3.80
   6   2  -6   11.90    6.30
  -6  -2   6   19.60    4.60
  -6  -2   6   12.80    4.80
  -6  -2   6   18.20    4.40
   5   2  -6   53.19   10.10
   5   2  -6   64.99    7.50
   5   2  -6   43.90    9.10
   5   2  -6   53.59    8.70
   5   2  -6   65.69   12.80
   5   2  -6   49.50    7.70
  -5  -2   6   44.70    6.20
  -5  -2   6   56.39    8.50
  -5  -2   6   50.09    7.90
   4   2  -6   13.70    7.00
   4   2  -6   15.70    3.80
   4   2  -6   16.80    3.10
   4   2  -6   13.00    4.10
   4   2  -6   13.50    4.20
   4   2  -6   15.40    4.40
  -4  -2   6   11.30    6.80
  -4  -2   6   18.20    5.10
  -4  -2   6   15.40    5.10
   3   2  -6   82.19    8.10
   3   2  -6   88.09    7.50
   3   2  -6   57.09   12.30
   3   2  -6   72.49    8.80
   3   2  -6   83.59    6.70
   3   2  -6   79.29    6.40
  -3  -2   6   72.39    9.50
  -3  -2   6   74.29   10.20
  -3  -2   6   90.19   15.20
   2   2  -6   40.90    9.00
   2   2  -6   34.80    4.70
   2   2  -6   39.30    5.70
   2   2  -6   35.50    6.50
   2   2  -6   31.00    7.20
   2   2  -6   32.00    7.20
  -2  -2   6   34.30    4.00
  -2  -2   6   25.50    5.70
  -2  -2   6   32.80    6.40
   1   2  -6  522.55   32.00
   1   2  -6  602.44   31.30
   1   2  -6  564.84   30.90
   1   2  -6  565.94   30.50
   1   2  -6  580.64   30.10
   1   2  -6  568.64   29.80
   1   2  -6  515.45   32.60
  -1  -2   6  515.35   30.80
  -1  -2   6  556.64   29.80
  -1  -2   6  501.35   31.50
   0   2  -6   62.89    7.50
   0   2  -6   67.69    9.60
   0   2  -6   62.09   11.50
   0   2  -6   64.99    9.90
   0   2  -6   63.79   10.10
   0   2  -6   81.49    8.50
   0  -2   6   63.79    4.40
   0  -2   6   57.19    6.80
   0  -2   6   60.49    4.80
   0  -2   6   65.19    7.90
  -1   2  -6  274.47   17.20
  -1   2  -6  269.47   18.60
  -1   2  -6  292.57   17.30
   1  -2   6  296.37   15.50
   1  -2   6  292.17   15.60
   1  -2   6  238.88   19.80
   1  -2   6  272.57   16.40
   1  -2   6  308.57   16.00
   1  -2   6  270.07   16.50
  -2   2  -6   29.60    6.10
  -2   2  -6   35.20    7.90
  -2   2  -6   29.80    6.60
   2  -2   6   33.50    3.80
   2  -2   6   34.90    3.00
   2  -2   6   33.90    5.60
   2  -2   6   33.00    3.50
   2  -2   6   41.50    5.20
  -3   2  -6  228.78   15.40
  -3   2  -6  227.08   18.40
  -3   2  -6  236.88   17.90
   3  -2   6  263.07   14.70
   3  -2   6  262.77   14.10
   3  -2   6  274.47   14.60
   3  -2   6  282.67   15.00
  -4   2  -6  221.98   15.30
  -4   2  -6  234.08   13.30
   4  -2   6  216.68   12.30
   4  -2   6  208.88   12.10
   4  -2   6  219.28   13.30
   4  -2   6  204.08   13.10
   4  -2   6  197.58   12.90
  -5   2  -6  106.59    8.00
  -5   2  -6  106.59   10.50
   5  -2   6  112.99    8.30
   5  -2   6  108.29    7.50
   5  -2   6  100.29    7.30
  -6   2  -6   93.09    6.60
  -6   2  -6  101.39    7.90
  -7   2  -6   27.70    6.50
   7  -2   6   24.90    8.90
   8   1  -6   75.39   10.70
  -8  -1   6   68.49    6.20
   7   1  -6    8.00    5.70
   7   1  -6   14.20    3.80
   7   1  -6   12.80    4.60
   7   1  -6   10.40    4.90
   7   1  -6    9.50    6.50
  -7  -1   6   20.40    3.80
  -7  -1   6   15.00    3.90
  -7  -1   6   12.40    4.70
   6   1  -6   54.99    7.20
   6   1  -6   66.99   10.90
   6   1  -6   54.49    8.50
   6   1  -6   58.89    7.80
   6   1  -6   56.59    9.40
   6   1  -6   46.30    7.90
  -6  -1   6   65.29   11.70
  -6  -1   6   71.69    8.20
  -6  -1   6   50.89    8.80
  -6  -1   6   71.19    9.20
   5   1  -6    5.50    4.00
   5   1  -6   10.40    3.30
   5   1  -6   -1.50    7.60
   5   1  -6   13.90    4.60
   5   1  -6   12.20    4.30
   5   1  -6    8.50    3.00
  -5  -1   6    9.60    4.90
  -5  -1   6    7.00    4.20
  -5  -1   6    4.50    6.70
  -5  -1   6    4.30    5.70
   4   1  -6  119.59    8.60
   4   1  -6  112.09    7.80
   4   1  -6  125.79   16.10
   4   1  -6  118.39    9.60
   4   1  -6  114.79    9.20
   4   1  -6  127.99   10.50
  -4  -1   6  101.99   13.10
  -4  -1   6  119.69   14.80
  -4  -1   6  106.79   10.60
  -4  -1   6  106.39   12.00
   3   1  -6  216.08   12.10
   3   1  -6  206.78   13.50
   3   1  -6  210.38   15.60
   3   1  -6  204.18   12.40
   3   1  -6  220.38   12.60
   3   1  -6  174.68   19.70
  -3  -1   6  160.88   13.90
  -3  -1   6  174.48   18.40
   2   1  -6  378.86   20.50
   2   1  -6  369.46   20.10
   2   1  -6  356.16   21.00
   2   1  -6  378.56   21.50
   2   1  -6  336.27   22.70
  -2  -1   6  362.06   20.30
   1   1  -6  418.06   23.20
   1   1  -6  429.66   22.80
   1   1  -6  417.06   22.50
   1   1  -6  432.56   23.40
   1   1  -6  396.16   24.10
  -1  -1   6  412.86   22.50
  -1  -1   6  382.26   26.60
   0   1  -6  370.06   20.00
   0   1  -6  362.56   19.20
   0   1  -6  351.26   19.60
   0   1  -6  339.37   20.10
   0   1  -6  337.97   20.60
   0  -1   6  354.66   19.10
   0  -1   6  313.97   20.10
   0  -1   6  367.66   19.10
  -1   1  -6  177.68   10.50
  -1   1  -6  176.98   11.40
  -1   1  -6  168.88   11.30
  -1   1  -6  166.38   12.00
   1  -1   6  168.18    9.80
   1  -1   6  168.58   10.20
   1  -1   6  173.38   10.90
   1  -1   6  171.48    9.70
  -2   1  -6  169.68   12.10
  -2   1  -6  150.48   13.10
  -2   1  -6  159.18   12.00
   2  -1   6  178.68    9.70
   2  -1   6  179.18    9.90
   2  -1   6  175.18    9.90
   2  -1   6  173.08   11.40
  -3   1  -6  307.87   18.10
  -3   1  -6  281.07   19.50
  -3   1  -6  313.97   18.90
   3  -1   6  306.47   18.00
   3  -1   6  319.57   17.30
   3  -1   6  316.87   17.50
   3  -1   6  306.17   17.10
   3  -1   6  322.67   16.90
  -4   1  -6   68.39    7.20
  -4   1  -6   60.69    7.10
   4  -1   6   62.99    6.40
   4  -1   6   76.59    5.10
   4  -1   6   82.59    7.50
   4  -1   6   78.49    6.40
   5  -1   6   29.80    6.20
   5  -1   6   27.80    5.50
   5  -1   6   26.60    5.70
   5  -1   6   20.50    4.00
   5  -1   6   24.90    4.30
  -6   1  -6  176.48   10.90
  -6   1  -6  189.08   12.90
   6  -1   6  162.58   10.60
   6  -1   6  188.68   11.40
   6  -1   6  149.29   11.00
  -7   1  -6    3.00    2.40
  -7   1  -6    3.60    2.10
   7  -1   6    2.20    2.10
   8   0  -6   14.50    4.50
  -8   0   6   23.80    4.30
  -8   0   6   21.00    2.80
   7   0  -6    6.40    4.40
   7   0  -6   23.20    8.00
   7   0  -6   12.10    4.00
   7   0  -6    4.50    6.90
  -7   0   6   10.60    3.10
  -7   0   6   14.00    5.50
  -7   0   6   16.20    3.80
   6   0  -6   -4.40    6.30
   6   0  -6   11.30    4.00
   6   0  -6    7.50    3.40
   6   0  -6    4.40    9.30
  -6   0   6   17.00    4.30
  -6   0   6   12.60    5.00
  -6   0   6   17.50    6.00
   5   0  -6   66.09    6.00
   5   0  -6   61.39   10.50
   5   0  -6   60.69    7.10
   5   0  -6   63.49    8.70
   5   0  -6   40.70   11.20
   5   0  -6   61.99    8.10
  -5   0   6   67.29    8.70
  -5   0   6   66.19    8.90
  -5   0   6   53.39    9.90
   4   0  -6  534.65   30.80
   4   0  -6  500.15   36.60
   4   0  -6  525.35   30.10
   4   0  -6  530.65   29.50
   4   0  -6  534.35   30.00
  -4   0   6  575.34   32.10
  -4   0   6  573.84   30.70
  -4   0   6  557.44   30.60
   3   0  -6   61.29    8.30
   3   0  -6   47.50   10.50
   3   0  -6   60.79    7.20
   3   0  -6   65.09    5.90
   3   0  -6   63.29    5.30
  -3   0   6   58.99   12.30
  -3   0   6   58.19   11.30
  -3   0   6   73.89    9.50
   2   0  -6  211.68   15.00
   2   0  -6  202.58   13.60
   2   0  -6  224.78   13.70
   2   0  -6  226.98   12.80
   2   0  -6  232.68   12.50
  -2   0   6  226.78   12.90
  -2   0   6  226.78   19.00
   1   0  -6  877.61   43.50
   1   0  -6  800.62   43.90
   1   0  -6  838.62   43.60
   1   0  -6  799.52   44.50
   1   0  -6  843.42   43.90
  -1   0   6  797.92   43.70
  -1   0   6  775.02   47.70
   0   0  -6  213.78   12.40
   0   0  -6  223.78   12.20
   0   0  -6  201.78   13.00
   0   0  -6  230.48   12.80
   0   0  -6  224.48   13.40
   0   0   6  228.18   12.30
  -1   0  -6  173.98   11.20
  -1   0  -6  186.78   10.10
  -1   0  -6  173.68   11.00
  -1   0  -6  180.38   10.90
  -1   0  -6  176.58   10.50
   1   0   6  175.18   12.40
   1   0   6  190.28   10.10
  -2   0  -6  552.54   31.10
  -2   0  -6  592.64   31.50
  -2   0  -6  567.14   31.40
  -2   0  -6  556.74   30.80
   2   0   6  586.14   31.10
   2   0   6  611.64   30.90
   2   0   6  567.34   30.70
   2   0   6  575.34   30.80
  -3   0  -6   97.69    9.50
  -3   0  -6   98.29    9.00
   3   0   6   79.59    5.70
   3   0   6   85.59    7.00
   3   0   6   73.49    8.30
   3   0   6   79.19   11.30
   3   0   6   81.69    5.80
   3   0   6   82.19    5.50
  -4   0  -6   75.59    7.90
  -4   0  -6   63.59    7.20
  -4   0  -6   76.39   10.90
  -4   0  -6   53.49    9.90
   4   0   6   70.29   12.40
   4   0   6   81.69    6.40
   4   0   6   74.59    5.80
   4   0   6   78.29    5.50
   4   0   6   79.49    5.10
   4   0   6   78.39    7.80
  -5   0  -6  282.97   16.80
  -5   0  -6  273.47   16.80
   5   0   6  260.27   15.90
   5   0   6  271.97   15.50
   5   0   6  287.47   16.60
   5   0   6  279.37   15.50
   5   0   6  289.97   16.20
  -6   0  -6  292.37   17.40
   6   0   6  298.77   16.90
   6   0   6  289.17   16.60
   6   0   6  272.87   17.10
   6   0   6  329.57   17.60
  -7   0  -6  178.48   11.60
   7   0   6  180.78   10.90
   8  -1  -6   86.19   11.60
  -8   1   6   68.39    5.80
  -8   1   6   74.19    6.50
   7  -1  -6    5.50    3.90
   7  -1  -6    5.70    6.80
   7  -1  -6    6.20    4.40
  -7   1   6    3.50    2.90
  -7   1   6    3.80    2.90
   6  -1  -6   93.59    9.10
   6  -1  -6  107.09    8.30
   6  -1  -6   90.99   11.50
   6  -1  -6  118.89   13.30
  -6   1   6  106.09   10.70
  -6   1   6  113.69   10.20
   5  -1  -6  426.46   25.10
   5  -1  -6  425.26   26.60
   5  -1  -6  452.55   24.00
   5  -1  -6  437.36   26.00
   5  -1  -6  420.76   24.40
  -5   1   6  440.76   25.90
  -5   1   6  419.26   25.10
   4  -1  -6  277.67   16.70
   4  -1  -6  276.87   19.10
   4  -1  -6  276.87   15.80
   4  -1  -6  283.27   16.60
  -4   1   6  279.77   18.50
  -4   1   6  278.77   17.70
  -4   1   6  306.27   18.90
   3  -1  -6  649.83   39.00
   3  -1  -6  708.63   36.20
   3  -1  -6  677.23   37.30
   3  -1  -6  690.93   36.20
  -3   1   6  607.14   37.10
  -3   1   6  704.93   38.50
   2  -1  -6   30.20    5.10
   2  -1  -6   19.00    3.90
   2  -1  -6   30.60    3.40
   2  -1  -6   20.90    4.60
   2  -1  -6   29.30    2.80
  -2   1   6   24.60   10.50
   1  -1  -6  489.55   27.50
   1  -1  -6  508.75   26.30
   1  -1  -6  439.16   27.00
   1  -1  -6  491.05   26.40
   1  -1  -6  510.25   26.70
  -1   1   6  523.15   27.00
  -1   1   6  497.15   31.10
   0  -1  -6  278.97   14.00
   0  -1  -6  272.27   14.20
   0  -1  -6  268.87   15.00
   0  -1  -6  249.18   14.90
   0  -1  -6  275.07   14.50
   0   1   6  239.68   14.30
   0   1   6  224.58   17.20
  -1  -1  -6   72.19    4.30
  -1  -1  -6   72.29    4.80
  -1  -1  -6   71.49    6.00
  -1  -1  -6   72.39    5.10
  -1  -1  -6   58.49    5.90
   1   1   6   58.89    4.60
  -2  -1  -6  155.88   10.00
  -2  -1  -6  162.18    9.60
  -2  -1  -6  150.38   10.50
  -2  -1  -6  160.98    9.00
  -2  -1  -6  157.38    9.30
   2   1   6  164.48    9.00
  -3  -1  -6  184.48   11.40
  -3  -1  -6  190.88   11.80
  -3  -1  -6  176.88   11.00
  -3  -1  -6  163.78   12.80
   3   1   6  209.58   12.00
   3   1   6  192.78   15.70
   3   1   6  197.28   10.90
   3   1   6  196.78   10.80
   3   1   6  200.28   11.60
   3   1   6  186.68   12.80
   3   1   6  185.78   11.10
  -4  -1  -6  509.55   29.20
  -4  -1  -6  489.85   28.70
   4   1   6  536.55   28.00
   4   1   6  519.35   28.20
   4   1   6  527.75   28.00
   4   1   6  501.05   30.10
   4   1   6  524.95   28.70
   4   1   6  520.55   28.60
   4   1   6  537.25   28.10
  -5  -1  -6 1534.35   84.39
  -5  -1  -6 1665.93   84.89
  -5  -1  -6 1600.64   84.69
   5   1   6 1718.03   85.59
   5   1   6 1635.64   84.89
   5   1   6 1605.44   84.39
   5   1   6 1367.86   84.79
   5   1   6 1630.84   84.29
   5   1   6 1557.54   83.89
   6   1   6   36.50    7.60
   6   1   6   54.99    6.20
   6   1   6   57.59    8.40
  -7  -1  -6   13.20    3.10
   7   1   6   12.90    4.60
  -8  -1  -6  120.19    8.50
  -8  -1  -6  123.79    7.60
   8   1   6  125.59    7.80
  -7   2   6   61.79    6.70
  -7   2   6   55.69    5.60
   6  -2  -6   75.49    8.50
   6  -2  -6   72.29   16.30
   6  -2  -6   54.59    7.50
  -6   2   6   70.29    8.60
  -6   2   6   67.69    8.90
   5  -2  -6  166.38   12.20
   5  -2  -6  184.98   14.80
   5  -2  -6  190.18   11.50
   5  -2  -6  185.38   14.30
  -5   2   6  195.38   13.80
  -5   2   6  194.78   13.10
   4  -2  -6  187.68   11.30
   4  -2  -6  192.68   12.50
   4  -2  -6  184.28   12.50
  -4   2   6  183.18   14.80
  -4   2   6  229.38   14.80
  -3   2   6   82.09   10.10
  -3   2   6   77.69    9.00
   2  -2  -6  396.16   23.60
   2  -2  -6  404.56   21.30
   2  -2  -6  415.06   22.10
  -2   2   6  383.26   28.80
   1  -2  -6  683.43   35.90
   1  -2  -6  683.03   35.10
   1  -2  -6  672.73   34.60
  -1   2   6  575.04   39.40
   0  -2  -6  306.37   16.90
   0  -2  -6  325.47   17.20
   0  -2  -6  276.57   18.10
   0  -2  -6  329.47   16.70
   0  -2  -6  323.57   17.80
   0   2   6  313.27   17.20
   0   2   6  296.77   20.60
  -1  -2  -6  681.33   40.30
  -1  -2  -6  787.02   39.90
  -1  -2  -6  734.03   40.00
  -1  -2  -6  763.82   41.00
  -1  -2  -6  744.03   40.20
   1   2   6  764.52   47.10
   1   2   6  796.22   40.00
  -2  -2  -6  187.08   11.80
  -2  -2  -6  194.48   11.60
  -2  -2  -6  193.88   11.20
  -2  -2  -6  201.88   11.00
   2   2   6  198.98   11.80
   2   2   6  205.28   11.20
  -3  -2  -6  143.39   11.70
  -3  -2  -6  166.08    9.20
  -3  -2  -6  152.28   10.00
  -3  -2  -6  165.68    9.90
   3   2   6  131.39   11.40
   3   2   6  161.88    9.10
   3   2   6  164.68   10.20
  -4  -2  -6 1001.60   50.59
  -4  -2  -6  933.21   50.79
  -4  -2  -6  928.11   51.29
   4   2   6  947.01   50.99
   4   2   6  930.31   50.69
   4   2   6  919.11   50.19
   4   2   6  954.60   50.79
  -5  -2  -6  559.14   32.90
  -5  -2  -6  563.64   32.70
   5   2   6  649.04   35.10
   5   2   6  611.64   32.50
   5   2   6  551.74   32.10
   5   2   6  613.64   32.50
   5   2   6  605.44   32.80
  -6  -2  -6   69.19    9.80
  -6  -2  -6   75.19    7.80
   6   2   6   63.29    7.20
   6   2   6   45.90   10.50
   6   2   6   50.39    7.80
  -7  -2  -6  234.58   15.40
   7   2   6  235.98   16.50
   7   2   6  273.97   15.10
  -8  -2  -6   88.99    6.20
   8   2   6   90.89    6.70
  -7   3   6   26.10    3.90
  -7   3   6   26.50    3.90
  -6   3   6    0.80    3.60
   5  -3  -6   39.50   13.70
  -5   3   6   52.19    8.50
  -5   3   6   54.39    8.60
   4  -3  -6  502.55   29.80
  -4   3   6  487.05   28.60
  -4   3   6  526.25   29.60
  -3   3   6  204.38   13.40
  -3   3   6  190.58   14.70
   2  -3  -6  832.12   42.50
  -2   3   6  802.42   44.30
  -2   3   6  786.12   42.90
  -2   3   6  764.22   42.90
  -2   3   6  764.52   43.50
   1  -3  -6   21.40    2.20
   1  -3  -6   15.60    4.10
   1  -3  -6   21.40    4.40
  -1   3   6   20.60    7.30
   0  -3  -6  656.13   33.50
   0  -3  -6  640.94   34.70
   0   3   6  607.34   33.80
   0   3   6  612.64   37.70
  -1  -3  -6  227.88   11.70
  -1  -3  -6  208.08   12.80
   1   3   6  190.08   15.10
  -2  -3  -6  208.98   12.30
  -2  -3  -6  173.98   12.60
  -2  -3  -6  213.98   11.70
   2   3   6  224.28   12.40
  -3  -3  -6  406.06   26.70
  -3  -3  -6  509.75   25.90
  -3  -3  -6  466.25   26.90
  -3  -3  -6  495.15   26.10
  -3  -3  -6  453.05   27.00
  -3  -3  -6  500.55   26.50
   3   3   6  506.75   29.10
   3   3   6  465.65   26.70
   3   3   6  527.45   27.40
  -4  -3  -6  309.37   18.00
  -4  -3  -6  312.97   17.30
  -4  -3  -6  302.67   17.50
  -4  -3  -6  267.87   18.20
  -4  -3  -6  273.07   20.00
  -4  -3  -6  310.47   16.80
   4   3   6  326.27   17.50
   4   3   6  307.17   17.80
   4   3   6  309.57   18.20
  -5  -3  -6  112.09   10.20
  -5  -3  -6  109.89   11.30
  -5  -3  -6  107.19    9.60
  -5  -3  -6  101.69    9.90
   5   3   6  104.19    9.20
   5   3   6  103.49    8.40
   5   3   6  109.29    9.30
  -6  -3  -6  326.37   19.10
  -6  -3  -6  329.77   19.10
   6   3   6  311.17   18.60
   6   3   6  328.37   19.40
   6   3   6  296.07   19.30
  -7  -3  -6   14.10    4.20
   7   3   6    8.10    5.00
   7   3   6   15.40    3.80
   7   3   6   12.80    8.40
  -8  -3  -6   30.20    4.50
   8   3   6   31.00    4.70
  -6   4   6   41.40    5.00
  -5   4   6  238.08   16.50
  -5   4   6  257.27   16.30
  -4   4   6  178.98   13.00
  -4   4   6  156.08   12.50
   3  -4  -6  328.07   21.70
  -3   4   6  380.16   22.20
  -3   4   6  384.36   22.90
  -3   4   6  372.26   21.60
  -3   4   6  398.46   22.00
  -2   4   6   23.90    5.50
  -2   4   6   24.30    6.20
  -2   4   6   27.10    5.80
  -2   4   6   29.00    4.90
  -1   4   6  231.68   14.10
  -1   4   6  241.08   14.00
  -1   4   6  228.18   18.10
  -1   4   6  220.98   14.40
   0  -4  -6  252.37   14.60
   0  -4  -6  259.67   14.30
   0   4   6  273.37   15.90
   0   4   6  277.17   15.60
   0   4   6  261.57   16.30
  -1  -4  -6   22.10    3.10
  -1  -4  -6   17.90    3.30
  -1  -4  -6   24.40    2.40
   1   4   6   20.00    4.10
   1   4   6   23.10    5.60
   1   4   6   18.00    4.00
  -2  -4  -6  277.77   15.50
  -2  -4  -6  265.37   16.10
  -2  -4  -6  264.87   15.70
  -2  -4  -6  295.87   18.70
   2   4   6  296.57   17.10
   2   4   6  297.87   17.40
   2   4   6  267.87   16.50
  -3  -4  -6  325.77   16.40
  -3  -4  -6  326.97   16.80
  -3  -4  -6  285.57   18.00
  -3  -4  -6  311.57   17.20
  -3  -4  -6  288.77   17.80
   3   4   6  310.57   18.40
   3   4   6  305.97   17.30
   3   4   6  272.37   17.40
   3   4   6  265.17   18.80
  -4  -4  -6    4.00    2.50
  -4  -4  -6    3.60    2.80
  -4  -4  -6   -2.90    4.00
  -4  -4  -6    8.10    4.10
  -4  -4  -6    3.50    2.50
  -4  -4  -6    2.50    2.10
   4   4   6    4.20    2.80
   4   4   6   12.90    7.70
   4   4   6    0.50    5.50
   4   4   6    7.50    3.70
  -5  -4  -6  307.77   21.70
  -5  -4  -6  365.56   20.70
  -5  -4  -6  385.96   20.50
  -5  -4  -6  304.57   20.10
  -5  -4  -6  357.46   22.20
  -5  -4  -6  375.76   20.40
   5   4   6  356.76   20.70
   5   4   6  373.56   20.50
   5   4   6  356.36   20.60
  -6  -4  -6  105.89    9.60
  -6  -4  -6  104.79   10.40
   6   4   6  121.99    9.60
   6   4   6  116.49    9.50
   6   4   6  108.29    9.60
  -7  -4  -6   95.09    8.30
  -7  -4  -6   92.09    8.40
   7   4   6   88.39    7.70
   7   4   6   79.29    9.80
   7   4   6   66.29   11.50
  -8  -4  -6  108.89    7.40
   8   4   6   97.89    8.50
   8   4   6  104.49    7.30
  -6   5   6   41.90    4.80
  -5   5   6   44.10    5.70
  -5   5   6   44.40    8.50
  -4   5   6   89.19   10.60
  -4   5   6   79.29    9.50
  -3   5   6  208.58   15.30
  -3   5   6  208.98   13.00
  -3   5   6  205.78   14.30
  -3   5   6  213.38   15.20
  -2   5   6  101.19    9.40
  -2   5   6   86.69    7.40
  -1   5   6  366.06   21.90
  -1   5   6  403.56   22.40
  -1   5   6  380.26   21.90
   0  -5  -6   29.70    4.60
   0  -5  -6   37.00    3.00
   0   5   6   27.70    6.10
   0   5   6   38.00    7.20
   0   5   6   28.80    5.30
  -1  -5  -6  858.01   45.90
  -1  -5  -6  854.91   45.70
   1   5   6  863.81   46.70
   1   5   6  883.01   46.80
   1   5   6  836.02   46.30
   1   5   6  867.11   46.80
   1   5   6  877.11   46.80
  -2  -5  -6  267.47   19.90
  -2  -5  -6  303.97   16.50
  -2  -5  -6  290.17   16.10
  -2  -5  -6  307.97   18.30
  -2  -5  -6  292.77   17.10
   2   5   6  286.07   17.10
   2   5   6  318.77   17.90
   2   5   6  299.87   17.80
  -3  -5  -6  586.04   31.60
  -3  -5  -6  548.15   32.20
  -3  -5  -6  556.84   32.70
  -3  -5  -6  590.44   31.00
  -3  -5  -6  591.34   31.30
   3   5   6  577.44   32.50
   3   5   6  590.54   32.00
   3   5   6  559.64   31.60
   3   5   6  610.94   32.40
  -4  -5  -6  541.25   26.90
  -4  -5  -6  471.65   28.40
  -4  -5  -6  510.55   27.80
  -4  -5  -6  478.35   29.10
  -4  -5  -6  535.75   27.60
   4   5   6  489.45   27.90
   4   5   6  509.85   28.30
   4   5   6  477.75   27.50
   4   5   6  464.85   30.10
  -5  -5  -6   -4.70    3.70
  -5  -5  -6    4.80    4.50
  -5  -5  -6   -3.50    6.40
  -5  -5  -6   -0.20    3.10
  -5  -5  -6    1.00    3.50
  -5  -5  -6   -0.70    3.00
   5   5   6    1.90    3.60
   5   5   6   -3.30    3.60
  -6  -5  -6   52.29    7.50
  -6  -5  -6   71.59   10.80
   6   5   6   52.29    6.70
   6   5   6   67.19    9.20
   6   5   6   48.40    8.10
  -7  -5  -6  251.27   14.10
  -7  -5  -6  239.78   14.60
   7   5   6  199.28   16.50
   7   5   6  242.88   14.20
   7   5   6  257.77   14.10
  -8  -5  -6    0.80    3.00
   8   5   6    5.10    3.10
  -5   6   6   32.80    3.90
  -4   6   6   13.10    3.80
  -3   6   6   23.30    5.60
  -3   6   6   23.30    5.10
  -3   6   6   23.90    6.30
  -2   6   6   85.29    9.70
  -2   6   6   81.49    6.80
  -2   6   6   76.59    7.90
  -2   6   6   80.89   10.90
  -1   6   6   13.30    3.10
  -1   6   6   10.20    2.80
  -1   6   6   15.90    4.50
  -1   6   6   15.20    5.70
   0  -6  -6  716.73   38.20
   0   6   6  740.43   39.50
   0   6   6  734.53   39.20
   0   6   6  657.63   40.90
   0   6   6  742.83   39.40
  -1  -6  -6  206.28   13.80
  -1  -6  -6  200.28   11.50
  -1  -6  -6  199.18   12.40
   1   6   6  214.48   13.20
   1   6   6  205.48   14.60
   1   6   6  218.48   14.10
  -2  -6  -6  279.07   17.00
  -2  -6  -6  284.57   15.90
  -2  -6  -6  262.37   21.60
   2   6   6  288.37   18.90
   2   6   6  311.27   17.80
   2   6   6  301.47   17.50
   2   6   6  297.57   18.20
  -3  -6  -6  147.89    7.90
  -3  -6  -6  153.48    9.30
  -3  -6  -6  146.59    8.20
  -3  -6  -6  134.19   12.90
  -3  -6  -6  150.98   11.90
   3   6   6  110.89   10.10
   3   6   6  111.39    9.40
   3   6   6  109.09    9.80
   3   6   6  109.69    9.70
  -4  -6  -6    6.40    2.10
  -4  -6  -6    3.70    7.40
  -4  -6  -6    5.40    2.30
  -4  -6  -6    3.30    2.60
  -4  -6  -6    8.70    4.30
   4   6   6    5.10    6.00
   4   6   6    5.40    4.00
   4   6   6    8.80    3.40
   4   6   6    4.80    2.80
  -5  -6  -6    7.70    5.50
  -5  -6  -6   -8.10    8.60
  -5  -6  -6    4.00    2.40
  -5  -6  -6    4.90    3.90
  -5  -6  -6    0.50    2.90
   5   6   6    7.80    3.70
  -6  -6  -6  223.28   13.20
   6   6   6  225.78   13.10
   6   6   6  176.98   14.30
  -7  -6  -6   16.70    4.60
  -7  -6  -6   12.60    2.80
   7   6   6    9.60    2.50
  -8  -6  -6   54.59    6.90
   8   6   6   60.19    6.70
  -3   7   6   31.60    4.10
  -2   7   6   19.90    4.80
  -2   7   6   10.60    2.80
  -1   7   6  178.08   11.70
  -1   7   6  156.88   10.90
  -1   7   6  173.78   12.90
   0  -7  -6  100.99    7.00
   0   7   6  113.99    9.80
   0   7   6  114.49    9.10
   0   7   6   82.69   13.00
   0   7   6  111.49    8.20
  -1  -7  -6  148.09   10.00
  -1  -7  -6  151.18   12.20
  -1  -7  -6  155.08    9.50
   1   7   6  149.39   14.90
   1   7   6  184.08   11.00
   1   7   6  164.28   10.90
   1   7   6  184.18   11.70
  -2  -7  -6  199.48   12.80
  -2  -7  -6  198.08   11.30
  -2  -7  -6  192.98   11.50
   2   7   6  195.98   12.60
   2   7   6  165.08   18.10
   2   7   6  196.88   12.60
   2   7   6  215.58   13.70
  -3  -7  -6   55.39    4.80
  -3  -7  -6   51.29    4.60
  -3  -7  -6   50.49    9.90
  -3  -7  -6   55.09    9.00
   3   7   6   51.29    6.30
   3   7   6   51.29    9.10
   3   7   6   55.59    6.30
   3   7   6   55.19    7.00
  -4  -7  -6   35.20    4.70
  -4  -7  -6   42.90    5.00
  -4  -7  -6   36.40    5.00
  -4  -7  -6   45.30    7.90
   4   7   6   28.10    6.10
   4   7   6   37.80    6.30
   4   7   6   37.40    5.70
  -5  -7  -6   40.00    5.50
  -5  -7  -6   38.10    7.00
  -5  -7  -6   37.40    6.30
   5   7   6   39.80    5.80
  -6  -7  -6    6.40    2.60
   6   7   6   10.90    2.30
  -7  -7  -6   10.20    2.50
   7   7   6    8.00    2.00
  -3   8   6   66.79    7.00
  -2   8   6   21.30    3.10
  -1   8   6   35.70    3.90
  -1   8   6   29.80    5.80
   0   8   6  118.49   10.80
   0   8   6  127.09    9.10
  -1  -8  -6  148.19    9.40
  -1  -8  -6  143.09    9.00
  -1  -8  -6  157.68   10.10
   1   8   6  147.99    9.90
   1   8   6  135.89   10.00
  -2  -8  -6  106.49    7.90
  -2  -8  -6  112.29    7.40
  -2  -8  -6  107.99    7.20
   2   8   6  111.39    9.60
   2   8   6   97.39    8.20
   2   8   6  105.59    8.30
  -3  -8  -6  110.39    9.70
  -3  -8  -6  119.59    7.50
  -3  -8  -6  109.59    7.40
  -3  -8  -6  112.09    7.80
   3   8   6  103.09    8.70
   3   8   6  121.09   11.50
  -4  -8  -6    2.50    3.30
  -4  -8  -6    3.20    2.00
  -4  -8  -6    1.80    3.40
   4   8   6    2.30    2.40
   4   8   6    7.20    4.40
   4   8   6    2.30    2.00
   4   8   6    0.80    3.60
  -5  -8  -6   62.89    5.80
  -5  -8  -6   36.60    7.30
  -5  -8  -6   51.89    5.70
   5   8   6   51.19    4.50
   5   8   6   56.29    6.20
  -6  -8  -6   19.80    2.60
   6   8   6   24.90    3.30
   6   8   6   27.80    4.90
  -1   9   6    8.00    2.30
   0   9   6   79.69    5.40
  -1  -9  -6   13.40    2.90
  -1  -9  -6   13.20    3.10
   1   9   6   15.90    3.00
  -2  -9  -6  185.68   10.80
  -2  -9  -6  184.48   11.70
   2   9   6  174.28   10.50
   2   9   6  187.68   11.80
   2   9   6  162.28   10.60
  -3  -9  -6   42.00    5.10
  -3  -9  -6   34.40    5.40
   3   9   6   43.20    4.90
   3   9   6   49.40    6.20
   3   9   6   41.90    4.60
  -4  -9  -6   89.69    7.10
  -4  -9  -6   68.99    7.00
   4   9   6   74.59    6.60
   4   9   6   74.09    5.80
  -5  -9  -6  140.59    9.20
  -5  -9  -6  122.99    8.70
   5   9   6  140.89    8.60
   2   7  -7   42.90    4.90
  -2  -7   7   36.20    3.70
  -2  -7   7   42.30    5.60
   1   7  -7   36.40    4.40
   1   7  -7   31.10    6.30
  -1  -7   7   40.30    5.30
  -1  -7   7   29.20    3.30
  -5  -6   7   23.40    3.40
   4   6  -7    7.40    3.80
  -4  -6   7    2.10    3.70
  -4  -6   7    6.90    5.00
  -4  -6   7    6.30    2.10
   3   6  -7   65.79    7.10
  -3  -6   7   64.19    7.00
  -3  -6   7   55.99   11.90
  -3  -6   7   57.69    5.10
   2   6  -7   38.50    6.00
   2   6  -7   38.30    9.30
  -2  -6   7   48.00    6.20
  -2  -6   7   60.59    9.90
  -2  -6   7   43.80    4.50
   1   6  -7    6.00    2.90
   1   6  -7   14.00    4.90
  -1  -6   7   10.30    2.30
  -1  -6   7    8.20    3.00
   0   6  -7   88.19    7.00
   0   6  -7   78.69    8.20
   0  -6   7   91.69    7.30
  -1   6  -7   46.40    6.30
  -1   6  -7   57.69    5.60
   1  -6   7   60.69    6.00
   1  -6   7   69.09    7.40
  -2   6  -7   12.80    3.00
   2  -6   7   13.90    2.90
  -6  -5   7   43.90    5.20
  -6  -5   7   36.50    4.30
   5   5  -7    3.80    4.40
   5   5  -7    5.60    5.90
  -5  -5   7    2.40    2.70
  -5  -5   7    4.10    3.60
   4   5  -7   21.60    5.30
   4   5  -7   13.90    5.10
  -4  -5   7    5.00    4.40
  -4  -5   7   15.50    2.80
  -4  -5   7   16.20    4.30
   3   5  -7   28.10    7.40
   3   5  -7   27.50    9.50
   3   5  -7   23.90    6.00
  -3  -5   7   19.60    3.60
  -3  -5   7   19.00    5.00
  -3  -5   7   30.40    7.30
   2   5  -7    2.20    8.40
   2   5  -7   16.80    8.30
   2   5  -7    2.20    4.60
  -2  -5   7    6.90    8.10
  -2  -5   7   10.50    3.20
  -2  -5   7    5.30    4.10
   1   5  -7    5.60    7.40
   1   5  -7    5.70    4.20
  -1  -5   7    5.30    3.80
  -1  -5   7   -9.60    9.90
   0   5  -7   14.20    7.50
   0   5  -7   14.10    4.00
   0  -5   7    7.90    4.50
   0  -5   7   15.60    3.80
  -1   5  -7   27.40    8.40
  -1   5  -7   21.30    4.60
  -2   5  -7   44.60    5.20
   2  -5   7   30.00    5.30
  -3   5  -7    4.90    2.70
  -3   5  -7    8.30    3.80
   3  -5   7   12.00    2.80
   7   4  -7   18.30    3.60
  -7  -4   7   14.50    2.50
   6   4  -7   17.20    4.10
  -6  -4   7    8.20    3.00
  -6  -4   7   10.30    3.00
   5   4  -7    5.50    5.90
   5   4  -7  -11.80    9.40
  -5  -4   7    3.20    3.10
  -5  -4   7    8.20    4.40
   4   4  -7    4.20    8.50
   4   4  -7   -0.20    6.10
  -4  -4   7    1.80    3.60
  -4  -4   7    3.40    6.10
  -4  -4   7    4.00    4.90
   3   4  -7    1.60    6.40
   3   4  -7    1.90    6.20
   3   4  -7    5.20    7.70
  -3  -4   7    3.00    3.50
  -3  -4   7    2.40    5.00
  -3  -4   7    7.50    5.00
   2   4  -7   18.50    6.60
   2   4  -7   10.70    6.60
  -2  -4   7   18.30    4.60
  -2  -4   7   11.40    4.90
  -2  -4   7   18.10    3.80
  -2  -4   7   24.40    6.20
   1   4  -7   34.10    6.50
   1   4  -7   65.19   13.40
   1   4  -7   49.10    8.60
  -1  -4   7   45.20    7.40
  -1  -4   7   45.80    7.90
  -1  -4   7   36.90    7.30
   0   4  -7  301.97   23.10
   0   4  -7  285.17   18.70
   0   4  -7  295.87   20.90
   0  -4   7  334.37   19.30
   0  -4   7  291.67   18.00
   0  -4   7  338.27   24.50
   0  -4   7  318.57   18.30
  -1   4  -7   73.69   13.70
  -1   4  -7   74.59    7.50
   1  -4   7   77.89    7.60
   1  -4   7   57.39    7.60
  -2   4  -7   15.90    8.80
  -2   4  -7   21.50    3.80
   2  -4   7   25.90    3.60
   2  -4   7   24.30    3.90
  -3   4  -7  210.08   13.70
   3  -4   7  213.98   14.20
   3  -4   7  255.87   15.60
  -4   4  -7   45.20    4.90
  -4   4  -7   55.19    7.90
   4  -4   7   42.40    5.30
   7   3  -7   15.30    5.40
   7   3  -7   16.20    4.10
  -7  -3   7   12.40    3.60
  -7  -3   7   15.90    2.70
   6   3  -7    8.70    6.40
   6   3  -7   16.50    7.70
   6   3  -7   13.30    4.60
   6   3  -7   14.70    4.40
  -6  -3   7   13.20    4.10
  -6  -3   7   22.30    3.50
  -6  -3   7   14.50    3.60
   5   3  -7    5.80    6.20
   5   3  -7    1.60    7.30
   5   3  -7   -4.00    4.10
   5   3  -7    1.40    6.90
   5   3  -7    8.00    5.50
  -5  -3   7    4.40    4.10
  -5  -3   7    1.80    4.20
  -5  -3   7    4.50    6.30
   4   3  -7   20.10    6.20
   4   3  -7   24.50    5.30
   4   3  -7   11.90    6.00
   4   3  -7   33.00    6.20
   4   3  -7   23.70    5.40
   4   3  -7   26.80    6.60
  -4  -3   7   20.10    5.10
  -4  -3   7   26.30    4.70
   3   3  -7  223.08   18.70
   3   3  -7  231.18   20.80
   3   3  -7  209.58   16.30
   3   3  -7  194.88   15.50
   3   3  -7  237.48   16.20
   3   3  -7  225.38   15.70
   3   3  -7  241.28   16.70
   3   3  -7  239.78   17.10
  -3  -3   7  207.98   15.20
  -3  -3   7  196.48   14.10
   2   3  -7  143.49   12.80
   2   3  -7  115.69   14.30
   2   3  -7  123.99   13.70
   2   3  -7  137.79   25.90
   2   3  -7  119.29   12.50
  -2  -3   7  117.59    9.80
  -2  -3   7  117.29   11.60
  -2  -3   7  112.99   11.10
   1   3  -7 1569.44   80.79
   1   3  -7 1420.76   82.19
   1   3  -7 1473.85   80.69
  -1  -3   7 1547.05   79.69
  -1  -3   7 1464.95   79.79
   0   3  -7  516.85   29.30
   0   3  -7  513.15   30.00
   0   3  -7  482.35   28.50
   0  -3   7  475.95   29.70
   0  -3   7  517.85   28.10
   0  -3   7  491.45   28.10
   0  -3   7  521.95   29.00
  -1   3  -7  404.96   24.20
  -1   3  -7  402.56   26.30
  -1   3  -7  424.66   25.60
   1  -3   7  426.66   23.80
   1  -3   7  432.96   27.20
   1  -3   7  435.96   24.30
   1  -3   7  435.56   23.50
   1  -3   7  417.76   23.10
  -2   3  -7  239.08   17.90
  -2   3  -7  242.28   14.60
   2  -3   7  245.58   14.20
   2  -3   7  201.28   14.70
   2  -3   7  251.77   14.10
   2  -3   7  236.48   13.50
  -3   3  -7  109.09   19.40
  -3   3  -7  150.58    9.70
   3  -3   7  140.99    9.50
   3  -3   7  133.09    9.90
   3  -3   7  122.29    8.90
  -4   3  -7   27.90    5.40
  -4   3  -7   24.30    4.20
   4  -3   7   21.60    3.70
   4  -3   7   36.10    7.00
  -5   3  -7   80.89    6.00
  -5   3  -7   69.59    8.10
   5  -3   7   95.49   11.80
   5  -3   7   91.19    6.10
   5  -3   7   82.89   16.40
   7   2  -7   17.10    5.40
   7   2  -7   26.80    4.80
   7   2  -7   38.90    9.10
  -7  -2   7   27.00    3.40
  -7  -2   7   29.90    5.10
   6   2  -7   18.90    6.70
   6   2  -7    6.20    4.40
   6   2  -7    9.50    6.80
   6   2  -7   10.10    3.70
   6   2  -7   12.10    5.70
  -6  -2   7   12.40    4.10
  -6  -2   7    7.00    5.10
   5   2  -7  152.98   14.80
   5   2  -7  147.79   11.40
   5   2  -7  134.39   10.90
   5   2  -7  128.19   12.80
   5   2  -7  121.69   12.60
  -5  -2   7  139.59   11.20
  -5  -2   7  124.49   11.20
  -5  -2   7  139.19   12.20
   4   2  -7  138.39   10.00
   4   2  -7  128.19   11.80
   4   2  -7  138.09   12.40
   4   2  -7  139.69   10.70
   4   2  -7  141.09   14.40
   4   2  -7  130.39   11.20
  -4  -2   7  144.69   11.40
  -4  -2   7  132.49   11.90
  -4  -2   7  117.49   18.40
  -4  -2   7  130.39   14.90
   3   2  -7    1.90    4.00
   3   2  -7    4.10    4.00
   3   2  -7    8.20    3.10
   3   2  -7    3.30    3.60
   3   2  -7    2.00    3.50
   3   2  -7    5.80    5.80
  -3  -2   7    0.80    5.90
  -3  -2   7   19.50   10.10
  -3  -2   7   -0.20    9.80
  -3  -2   7    2.50    7.90
   2   2  -7  273.67   18.70
   2   2  -7  277.97   17.20
   2   2  -7  267.67   17.50
   2   2  -7  254.77   17.70
   2   2  -7  281.37   16.00
   2   2  -7  273.87   16.20
   2   2  -7  253.67   22.80
  -2  -2   7  295.27   17.70
  -2  -2   7  286.67   16.10
  -2  -2   7  271.47   18.30
   1   2  -7  684.43   35.70
   1   2  -7  610.94   36.70
   1   2  -7  627.34   36.10
   1   2  -7  658.13   35.70
   1   2  -7  612.54   34.70
   1   2  -7  670.63   35.80
  -1  -2   7  646.04   35.80
  -1  -2   7  620.94   35.40
  -1  -2   7  631.64   34.70
   0   2  -7  125.69   11.70
   0   2  -7  121.59    9.60
   0   2  -7  119.89   11.00
   0  -2   7  107.79    9.50
   0  -2   7  120.39   10.90
   0  -2   7  108.19    7.30
  -1   2  -7  397.66   24.20
  -1   2  -7  402.96   24.60
  -1   2  -7  401.16   23.70
   1  -2   7  423.06   22.50
   1  -2   7  431.96   25.00
   1  -2   7  423.96   23.20
   1  -2   7  399.66   23.90
   1  -2   7  430.86   22.80
  -2   2  -7  104.59    8.70
  -2   2  -7  109.39   11.10
   2  -2   7  104.89   13.20
   2  -2   7   96.19    8.00
   2  -2   7  112.59    7.30
   2  -2   7  103.59    6.80
   2  -2   7   95.19    8.80
  -3   2  -7   51.49    7.20
  -3   2  -7   46.40    6.10
   3  -2   7   41.80    4.70
   3  -2   7   40.60    5.90
   3  -2   7   50.89    5.90
  -4   2  -7  249.78   16.60
   4  -2   7  246.88   13.30
   4  -2   7  181.88   13.40
   4  -2   7  211.88   12.60
   4  -2   7  196.98   13.10
   4  -2   7  204.08   13.40
  -5   2  -7   13.10    4.20
  -5   2  -7   10.10    3.50
   5  -2   7   15.60    4.00
  -6   2  -7   63.59    5.10
  -6   2  -7   59.49    6.80
   6  -2   7   47.90   10.80
   6  -2   7   71.49    5.50
   7   1  -7   10.70    4.50
   7   1  -7   14.30    3.80
   7   1  -7   12.40    5.20
  -7  -1   7   18.10    3.00
  -7  -1   7   17.00    4.70
   6   1  -7   56.99    8.20
   6   1  -7   47.80    7.90
   6   1  -7   69.59    8.90
   6   1  -7   55.39    8.70
   6   1  -7   79.79    9.30
  -6  -1   7   58.39    8.70
  -6  -1   7   50.79    8.00
  -6  -1   7   70.19    8.30
   5   1  -7   86.59   14.90
   5   1  -7   88.99   10.60
   5   1  -7   84.09   11.20
   5   1  -7   84.49   10.80
   5   1  -7   79.49    8.50
  -5  -1   7   59.89   12.10
  -5  -1   7   89.19   10.20
  -5  -1   7   95.19    9.10
   4   1  -7   10.80    3.00
   4   1  -7   13.20    2.80
   4   1  -7   22.30    7.60
   4   1  -7   13.90    4.40
   4   1  -7   10.00    3.90
  -4  -1   7   13.70    4.50
  -4  -1   7   18.20    7.40
  -4  -1   7   14.60    5.70
   3   1  -7  182.18   17.00
   3   1  -7  180.18   13.10
   3   1  -7  192.38   12.60
   3   1  -7  174.08   11.90
   3   1  -7  164.48   15.00
   3   1  -7  192.48   11.30
  -3  -1   7  210.88   16.70
  -3  -1   7  200.58   16.80
  -3  -1   7  204.58   13.40
   2   1  -7  352.36   20.10
   2   1  -7  349.77   22.20
   2   1  -7  356.06   19.40
   2   1  -7  359.36   19.00
   2   1  -7  351.06   20.40
   2   1  -7  361.96   19.70
  -2  -1   7  310.77   19.30
  -2  -1   7  291.87   20.30
   1   1  -7    5.20    2.60
   1   1  -7    3.40    2.80
   1   1  -7    5.90    5.30
   1   1  -7    5.10    3.10
   1   1  -7    5.40    2.40
  -1  -1   7    7.40    5.80
  -1  -1   7    4.50    1.90
  -1  -1   7    3.80    4.10
   0   1  -7  236.08   18.50
   0   1  -7  221.18   16.10
   0   1  -7  261.77   15.20
   0   1  -7  266.37   14.70
   0   1  -7  243.28   14.20
   0   1  -7  217.68   18.30
   0   1  -7  268.17   14.70
   0  -1   7  231.48   15.30
   0  -1   7  225.78   15.50
   0  -1   7  244.78   13.70
  -1   1  -7   98.49   10.70
  -1   1  -7  105.39    8.40
  -1   1  -7  102.79    9.70
  -1   1  -7  111.59    8.60
  -1   1  -7  100.39   10.10
   1  -1   7  107.89    8.70
   1  -1   7  109.69    6.60
   1  -1   7   94.79    9.90
  -2   1  -7  249.48   17.10
  -2   1  -7  287.37   16.90
  -2   1  -7  291.77   17.10
   2  -1   7  249.78   16.10
   2  -1   7  297.47   16.10
   2  -1   7  281.77   15.60
   2  -1   7  292.47   17.80
   2  -1   7  265.77   16.80
   2  -1   7  272.67   16.10
  -3   1  -7  227.18   15.40
  -3   1  -7  230.88   13.50
   3  -1   7  216.78   13.10
   3  -1   7  215.98   12.90
   3  -1   7  209.58   15.80
   3  -1   7  217.28   12.60
   3  -1   7  201.08   13.50
   3  -1   7  202.08   12.10
  -4   1  -7   76.29   11.30
  -4   1  -7   81.39    7.10
  -4   1  -7   64.99    8.50
   4  -1   7   83.39    5.90
   4  -1   7   81.49    6.90
   4  -1   7   86.39    7.10
   4  -1   7   62.79    6.20
  -5   1  -7  154.98   12.50
  -5   1  -7  145.29    9.80
   5  -1   7  135.59    9.60
   5  -1   7  137.39    9.90
  -6   1  -7   49.60    4.70
   6  -1   7   44.80    4.90
  -7   1  -7    8.20    2.20
   7  -1   7   11.30    2.20
   7   0  -7    3.70    4.00
   7   0  -7   -3.70    7.00
   7   0  -7    3.00    4.20
  -7   0   7    4.50    3.50
  -7   0   7    1.50    2.60
   6   0  -7   -2.50    3.50
   6   0  -7   -0.40    3.80
   6   0  -7   -3.90    7.00
   6   0  -7    0.20    4.10
  -6   0   7    3.80    5.00
  -6   0   7    2.50    4.10
   5   0  -7  163.38   20.60
   5   0  -7  156.98   13.50
   5   0  -7  184.18   14.40
   5   0  -7  174.98   11.80
   5   0  -7  172.78   13.30
   5   0  -7  170.68   11.00
  -5   0   7  167.48   12.30
  -5   0   7  150.18   13.70
  -5   0   7  159.68   12.50
   4   0  -7  174.58   12.00
   4   0  -7  175.68   10.80
   4   0  -7  169.98   13.20
  -4   0   7  178.58   14.70
  -4   0   7  166.08   14.30
  -4   0   7  198.58   13.30
   3   0  -7  102.89   19.00
   3   0  -7  107.79    8.40
   3   0  -7  101.79    6.90
   3   0  -7   97.59    9.40
   3   0  -7  113.59    7.90
   3   0  -7   94.09   19.50
  -3   0   7  102.59   10.00
  -3   0   7  111.39   12.40
  -3   0   7  114.19   11.40
   2   0  -7   15.20    2.80
   2   0  -7   15.90    7.80
   2   0  -7   13.60    4.00
   2   0  -7    9.70    2.90
   2   0  -7   11.20    2.40
  -2   0   7    8.60   11.30
  -2   0   7   14.00    2.40
  -2   0   7   18.50    7.20
  -2   0   7   14.70    4.40
   1   0  -7  272.87   21.20
   1   0  -7  314.47   16.60
   1   0  -7  289.07   17.60
   1   0  -7  320.37   16.90
   1   0  -7  320.67   17.70
  -1   0   7  307.07   16.90
  -1   0   7  271.87   18.00
   0   0  -7  124.99    7.40
   0   0  -7  120.19   12.30
   0   0  -7  127.89    8.80
   0   0  -7  124.59    7.90
   0   0  -7  112.79   10.60
   0   0  -7  120.69    8.70
   0   0   7  113.59   11.30
   0   0   7  121.69    7.40
   0   0   7  107.09    9.70
  -1   0  -7  219.98   15.30
  -1   0  -7  271.07   15.20
  -1   0  -7  263.27   14.10
  -1   0  -7  260.47   14.40
  -1   0  -7  219.28   16.30
   1   0   7  261.37   16.90
   1   0   7  234.58   15.20
   1   0   7  269.07   14.00
   1   0   7  241.98   15.50
  -2   0  -7   76.49    6.80
  -2   0  -7   68.09   10.30
  -2   0  -7   74.79    6.80
  -2   0  -7   73.79    9.20
  -2   0  -7   85.49    7.60
   2   0   7   87.49    5.50
   2   0   7   81.59    7.50
   2   0   7   72.79    8.80
  -3   0  -7   50.99    7.20
  -3   0  -7   55.49    7.40
   3   0   7   40.00    4.30
   3   0   7   43.50    5.50
   3   0   7   39.10    6.40
   3   0   7   29.00    6.30
   3   0   7   30.40    5.50
   4   0   7   31.80    5.10
   4   0   7   23.60    3.30
   4   0   7   34.70    6.00
   4   0   7   20.10    4.00
   4   0   7   38.00    6.10
  -5   0  -7  154.18   10.30
  -5   0  -7  146.29   13.60
   5   0   7  142.79   13.80
   5   0   7  133.39   10.50
   5   0   7  159.18   10.20
   5   0   7  126.79    9.60
  -6   0  -7   11.00    3.50
  -6   0  -7    3.40    5.20
   6   0   7   -0.60    3.20
  -7   0  -7   82.89    5.90
  -7   0  -7   76.09    7.50
   7   0   7  102.09    6.10
   7  -1  -7    1.30    4.00
   7  -1  -7    0.90    5.60
  -7   1   7    1.50    2.70
  -7   1   7    3.30    2.60
   6  -1  -7   14.50    4.00
   6  -1  -7   10.10    3.70
   6  -1  -7    9.40    4.30
   6  -1  -7   21.10    6.80
  -6   1   7   11.20    4.90
  -6   1   7   12.60    4.10
   5  -1  -7  219.28   16.10
   5  -1  -7  225.68   17.00
   5  -1  -7  237.98   14.90
   5  -1  -7  245.58   18.00
   5  -1  -7  221.18   14.30
  -5   1   7  253.67   16.70
  -5   1   7  265.67   15.60
   4  -1  -7   23.20    4.80
   4  -1  -7   27.50    4.40
   4  -1  -7   17.80    3.70
   4  -1  -7   36.00    6.70
  -4   1   7   30.50    6.10
  -4   1   7   26.80    5.80
  -4   1   7   30.70    4.80
   3  -1  -7   75.49    5.30
   3  -1  -7   69.49    8.80
   3  -1  -7   57.99    9.50
   3  -1  -7   75.89    6.70
  -3   1   7   85.49    9.30
  -3   1   7   79.09    9.20
  -3   1   7   84.99   11.00
   2  -1  -7  894.91   46.10
   2  -1  -7  913.21   45.50
   2  -1  -7  782.12   46.20
   2  -1  -7  909.01   45.60
  -2   1   7  897.51   47.70
  -2   1   7  801.02   46.40
  -2   1   7  774.12   46.50
   1  -1  -7    5.80    2.60
   1  -1  -7    8.40    1.80
   1  -1  -7    8.30    1.60
  -1   1   7    9.80    2.10
  -1   1   7    4.90    7.80
   0  -1  -7   52.39    4.30
   0  -1  -7   42.10    5.40
   0  -1  -7   49.00    3.70
   0  -1  -7   50.09    5.20
   0  -1  -7   40.00    7.80
  -1  -1  -7  505.95   30.60
  -1  -1  -7  579.24   29.40
  -1  -1  -7  570.74   29.60
  -1  -1  -7  588.74   30.00
  -1  -1  -7  537.85   29.80
   1   1   7  531.75   30.30
   1   1   7  554.14   31.20
   1   1   7  509.35   33.60
   1   1   7  565.44   29.50
  -2  -1  -7  515.65   27.00
  -2  -1  -7  519.55   27.20
  -2  -1  -7  474.65   27.90
   2   1   7  474.55   27.80
   2   1   7  490.35   28.00
   2   1   7  509.15   29.10
   2   1   7  525.15   27.10
  -3  -1  -7  441.76   26.80
  -3  -1  -7  452.45   25.40
  -3  -1  -7  441.56   25.60
  -3  -1  -7  446.66   25.10
  -3  -1  -7  455.45   25.50
  -3  -1  -7  476.05   25.50
   3   1   7  454.45   25.60
   3   1   7  489.55   25.00
   3   1   7  463.05   26.10
  -4  -1  -7  167.98   12.60
   4   1   7  167.88   12.10
   4   1   7  167.88   10.70
   4   1   7  181.28   12.40
  -5  -1  -7  270.77   16.80
  -5  -1  -7  280.97   17.50
   5   1   7  237.08   16.40
   5   1   7  283.57   16.30
   5   1   7  288.77   17.80
  -6  -1  -7  145.29   10.00
   6   1   7  115.69   14.70
   6   1   7  119.69    9.70
  -7  -1  -7   12.60    2.60
   7   1   7   22.20    4.20
  -7   2   7    7.50    2.40
   6  -2  -7   79.29   13.40
   6  -2  -7  101.59   18.80
   5  -2  -7  117.19   12.70
   5  -2  -7  106.49   18.00
   5  -2  -7  103.99   12.80
   5  -2  -7   92.79    9.30
   5  -2  -7  103.49    9.50
  -5   2   7  138.19   10.20
  -5   2   7  128.99   11.20
   4  -2  -7  266.77   17.30
   4  -2  -7  290.47   16.00
   4  -2  -7  276.17   16.40
  -4   2   7  280.57   18.60
  -4   2   7  289.77   17.40
   3  -2  -7  368.86   19.50
   3  -2  -7  358.96   19.90
   3  -2  -7  342.57   22.00
  -3   2   7  370.26   22.40
  -3   2   7  341.97   20.80
   2  -2  -7  255.17   15.00
   2  -2  -7  250.77   13.70
   2  -2  -7  253.37   13.30
  -2   2   7  231.88   16.80
  -2   2   7  234.88   16.10
  -2   2   7  229.68   15.30
   1  -2  -7    2.10    1.50
   1  -2  -7    3.30    3.10
   1  -2  -7    1.20    2.20
   1  -2  -7    3.20    1.20
  -1   2   7   -1.40    9.00
  -1   2   7   -1.10    4.70
  -1   2   7    7.20    4.50
   0  -2  -7  224.88   13.10
   0  -2  -7  227.08   12.30
   0  -2  -7  227.98   12.80
   0  -2  -7  228.28   12.00
   0   2   7  181.48   17.80
   0   2   7  222.98   15.70
  -1  -2  -7   45.60    5.50
  -1  -2  -7   52.09    4.00
  -1  -2  -7   52.29    5.10
   1   2   7   70.39    8.20
   1   2   7   52.59   10.70
   1   2   7   59.39    6.90
   1   2   7   53.99    6.40
  -2  -2  -7  415.96   23.00
  -2  -2  -7  434.86   22.70
  -2  -2  -7  432.56   22.50
  -2  -2  -7  395.86   23.90
   2   2   7  377.96   23.50
   2   2   7  436.36   24.50
   2   2   7  416.66   22.50
  -3  -2  -7   84.39    6.60
  -3  -2  -7   76.09    8.70
  -3  -2  -7   89.49    6.60
  -3  -2  -7   72.49   14.90
  -3  -2  -7   83.69    7.30
   3   2   7   92.39    6.30
   3   2   7   80.29    9.10
   3   2   7   84.69   10.60
   3   2   7   80.79    8.80
  -4  -2  -7 1107.39   60.79
  -4  -2  -7 1193.48   60.09
   4   2   7 1119.99   60.09
   4   2   7 1113.39   60.29
   4   2   7 1152.58   60.49
   4   2   7 1041.30   59.59
  -5  -2  -7   65.99    8.00
  -5  -2  -7   60.49    8.80
   5   2   7   44.80    9.10
   5   2   7   43.30    7.00
  -6  -2  -7   89.49   11.30
  -6  -2  -7   81.59    8.90
   6   2   7   88.79   10.30
   6   2   7   87.09    8.10
  -7  -2  -7  191.38   11.40
   7   2   7  189.98   11.40
   7   2   7  181.98   12.70
  -8  -2  -7   11.50    2.30
   8   2   7    8.50    2.10
  -7   3   7   25.80    3.60
  -7   3   7   18.00    3.80
  -6   3   7   46.00    5.70
  -6   3   7   47.40    6.60
   5  -3  -7   98.69   17.90
  -5   3   7  126.49   11.10
  -5   3   7  129.19   10.50
   4  -3  -7   87.69    7.20
   4  -3  -7   75.19   10.60
  -4   3   7  104.39   10.30
  -4   3   7  107.19    9.30
   3  -3  -7   48.70    4.00
  -3   3   7   40.00    7.20
  -3   3   7   42.90    9.10
   2  -3  -7  142.39    8.60
   2  -3  -7  117.89   11.90
   2  -3  -7  137.49    7.80
  -2   3   7  139.89   12.60
  -2   3   7  133.29   10.30
  -2   3   7  152.58   10.90
   1  -3  -7   54.09    4.90
   1  -3  -7   49.50    7.00
   1  -3  -7   53.09    4.10
  -1   3   7   61.59    7.20
  -1   3   7   65.29    7.20
  -1   3   7   52.89   10.40
  -1   3   7   54.69   20.20
   0  -3  -7  272.57   14.80
   0  -3  -7  252.97   16.00
   0  -3  -7  272.87   14.60
   0  -3  -7  277.17   15.50
   0   3   7  258.87   16.20
   0   3   7  250.97   16.90
   0   3   7  275.17   16.40
  -1  -3  -7  326.87   16.60
  -1  -3  -7  284.77   17.30
  -1  -3  -7  305.57   17.30
   1   3   7  289.47   18.80
   1   3   7  270.97   17.40
   1   3   7  318.87   18.40
  -2  -3  -7  430.46   22.60
  -2  -3  -7  375.76   24.10
  -2  -3  -7  421.16   22.80
  -2  -3  -7  439.06   22.10
  -2  -3  -7  433.86   22.40
   2   3   7  443.96   24.10
   2   3   7  360.06   24.90
   2   3   7  360.86   23.10
  -3  -3  -7 1617.14   83.69
  -3  -3  -7 1511.55   84.09
  -3  -3  -7 1617.44   84.09
  -3  -3  -7 1596.64   83.99
   3   3   7 1638.14   84.59
   3   3   7 1675.73   85.09
   3   3   7 1461.95   84.29
   3   3   7 1565.44   84.19
  -4  -3  -7  440.16   29.00
  -4  -3  -7  487.55   26.50
  -4  -3  -7  494.25   26.60
  -4  -3  -7  488.85   26.50
  -4  -3  -7  447.86   25.90
   4   3   7  495.85   27.00
   4   3   7  464.25   29.00
   4   3   7  509.85   26.90
  -5  -3  -7  738.13   38.70
  -5  -3  -7  683.43   39.40
  -5  -3  -7  668.13   40.20
   5   3   7  696.23   39.00
   5   3   7  739.83   38.90
   5   3   7  723.73   38.50
  -6  -3  -7  343.47   20.80
  -6  -3  -7  353.36   20.20
   6   3   7  300.07   21.50
   6   3   7  370.76   20.90
   6   3   7  357.26   19.90
  -7  -3  -7   75.09    9.80
  -7  -3  -7   75.89    6.60
   7   3   7   59.79    7.50
   7   3   7   61.09    6.30
  -8  -3  -7   88.49    6.00
   8   3   7   69.09    8.20
   8   3   7   91.99    6.20
  -6   4   7   -1.70    2.30
  -6   4   7    1.20    3.80
  -5   4   7   76.49    8.30
  -5   4   7   64.19    7.40
   4  -4  -7    1.00    8.10
  -4   4   7   10.20    4.70
  -4   4   7    4.20    4.20
   3  -4  -7  129.59   12.60
  -3   4   7  151.48   11.70
  -3   4   7  164.38   12.80
  -3   4   7  158.58   11.30
   2  -4  -7  140.69   10.70
  -2   4   7  139.39   11.40
  -2   4   7  141.49   10.20
  -2   4   7  138.79   12.80
   1  -4  -7  261.37   13.90
   1  -4  -7  266.67   15.10
  -1   4   7  250.87   18.20
  -1   4   7  253.47   15.40
  -1   4   7  241.88   15.40
  -1   4   7  261.37   16.10
   0  -4  -7  847.12   43.00
   0  -4  -7  819.12   42.30
   0  -4  -7  817.62   42.50
   0  -4  -7  709.93   44.30
   0   4   7  826.62   43.40
   0   4   7  740.33   43.00
   0   4   7  837.12   43.60
   0   4   7  785.32   45.30
  -1  -4  -7  233.68   14.30
  -1  -4  -7  246.28   13.40
   1   4   7  244.88   14.70
   1   4   7  236.78   14.40
   1   4   7  218.48   15.10
  -2  -4  -7  497.55   31.90
  -2  -4  -7  560.74   30.30
  -2  -4  -7  537.85   31.00
  -2  -4  -7  570.64   30.70
   2   4   7  615.74   32.60
   2   4   7  601.14   31.90
   2   4   7  563.84   32.00
   2   4   7  597.84   31.10
  -3  -4  -7  747.23   39.30
  -3  -4  -7  733.93   39.30
  -3  -4  -7  777.32   39.20
  -3  -4  -7  717.93   39.60
  -3  -4  -7  750.42   38.80
   3   4   7  662.03   39.20
   3   4   7  729.43   40.30
   3   4   7  693.53   39.70
  -4  -4  -7  151.58   10.00
  -4  -4  -7  144.39   10.10
  -4  -4  -7  142.99    9.00
  -4  -4  -7  139.29   10.80
  -4  -4  -7  138.29   10.20
   4   4   7  147.19   10.00
   4   4   7  147.39   13.30
   4   4   7  140.99   10.20
  -5  -4  -7  234.28   15.60
  -5  -4  -7  247.58   15.30
  -5  -4  -7  263.07   15.20
  -5  -4  -7  227.78   14.60
  -5  -4  -7  213.38   17.70
   5   4   7  230.48   15.00
   5   4   7  247.18   15.50
   5   4   7  242.98   14.80
  -6  -4  -7  163.48   13.40
  -6  -4  -7  172.18   11.90
   6   4   7  183.58   11.90
   6   4   7  160.48   13.30
   6   4   7  171.48   12.20
  -7  -4  -7   88.79    7.90
  -7  -4  -7   88.49    7.70
   7   4   7   81.39    7.50
  -8  -4  -7   91.69    6.20
   8   4   7   67.99    6.80
   8   4   7   89.29    6.30
  -5   5   7    6.60    3.80
  -5   5   7    8.40    2.80
  -4   5   7   63.19   10.00
  -4   5   7   68.29   10.80
  -3   5   7   63.69    7.10
  -3   5   7   59.39    9.80
  -3   5   7   58.59    8.10
  -2   5   7   39.00    5.20
  -2   5   7   37.10    7.60
  -2   5   7   38.90    6.90
  -2   5   7   35.10    5.60
   1  -5  -7  668.93   35.80
  -1   5   7  653.63   36.90
  -1   5   7  651.63   35.90
  -1   5   7  643.34   35.70
   0  -5  -7  188.48   10.20
   0  -5  -7  179.38   11.10
   0   5   7  186.78   11.90
   0   5   7  178.48   13.30
  -1  -5  -7  667.53   40.20
  -1  -5  -7  700.83   39.50
  -1  -5  -7  696.23   39.80
   1   5   7  809.12   41.10
   1   5   7  772.32   40.60
   1   5   7  777.12   40.10
   1   5   7  796.12   40.80
  -2  -5  -7 1360.26   67.49
  -2  -5  -7 1225.18   68.49
  -2  -5  -7 1293.67   67.99
  -2  -5  -7 1349.96   67.79
   2   5   7 1195.08   67.89
   2   5   7 1283.97   68.69
   2   5   7 1302.97   68.69
   2   5   7 1208.18   68.99
  -3  -5  -7   76.49    7.20
  -3  -5  -7   74.09    5.80
  -3  -5  -7   61.09    9.20
   3   5   7   81.39    7.20
   3   5   7   95.29    9.00
   3   5   7   90.59    9.20
  -4  -5  -7  282.57   15.90
  -4  -5  -7  284.87   16.80
  -4  -5  -7  283.37   16.90
  -4  -5  -7  280.07   17.00
  -4  -5  -7  281.27   16.00
   4   5   7  271.87   17.00
   4   5   7  282.07   16.40
   4   5   7  278.87   18.40
  -5  -5  -7  282.47   16.00
   5   5   7  246.08   16.20
   5   5   7  247.98   15.50
  -6  -5  -7  117.49   11.20
  -6  -5  -7  128.89    9.80
   6   5   7  105.09   10.80
   6   5   7  124.59    9.20
  -7  -5  -7  130.69    9.80
  -7  -5  -7  131.09    8.70
   7   5   7  127.09    8.70
  -5   6   7   22.40    4.80
  -4   6   7   51.39    8.30
  -4   6   7   47.20    6.90
  -3   6   7   17.70    5.40
  -3   6   7   26.00    4.90
  -2   6   7  234.88   14.80
  -2   6   7  225.58   13.90
   1  -6  -7  105.59   11.90
  -1   6   7  140.39   10.30
  -1   6   7  123.19   14.20
  -1   6   7  135.59    9.00
   0  -6  -7  600.34   35.00
   0  -6  -7  652.33   34.80
   0   6   7  686.73   36.00
   0   6   7  670.73   35.70
   0   6   7  656.63   38.30
   0   6   7  656.43   36.00
  -1  -6  -7  457.75   26.30
  -1  -6  -7  502.15   25.40
  -1  -6  -7  456.45   25.50
   1   6   7  463.65   26.30
   1   6   7  463.05   26.50
   1   6   7  484.25   26.70
  -2  -6  -7  488.45   26.30
  -2  -6  -7  495.85   26.90
  -2  -6  -7  488.25   28.70
  -2  -6  -7  520.85   26.10
   2   6   7  473.95   26.80
   2   6   7  462.75   27.30
   2   6   7  481.05   27.40
   2   6   7  461.85   27.20
  -3  -6  -7  140.19   12.10
  -3  -6  -7  147.79   10.30
  -3  -6  -7  144.19    8.90
  -3  -6  -7  135.69    9.20
   3   6   7  159.08   10.00
   3   6   7  150.38   11.20
   3   6   7  172.98   11.20
  -4  -6  -7   90.79    8.70
  -4  -6  -7   88.59    6.70
  -4  -6  -7   92.59    6.90
   4   6   7   76.89    7.40
   4   6   7   79.09    9.90
  -5  -6  -7   90.49    9.40
  -5  -6  -7  105.49    8.90
  -5  -6  -7   97.69    7.80
  -5  -6  -7   82.99   12.20
  -5  -6  -7  109.99    8.50
   5   6   7   95.59   10.10
   5   6   7  111.89    8.00
  -6  -6  -7  328.67   18.30
   6   6   7  319.77   18.10
  -7  -6  -7    6.30    2.60
  -7  -6  -7   -2.60    9.90
  -3   7   7    4.20    2.60
  -2   7   7   33.80    4.10
  -2   7   7   38.90    7.30
  -1   7   7  189.68   12.10
  -1   7   7  200.38   13.40
   0  -7  -7   13.20    2.40
   0   7   7   19.80    4.00
   0   7   7   12.80    3.10
   0   7   7   22.70    4.80
  -1  -7  -7   31.80    6.30
  -1  -7  -7   22.90    4.40
   1   7   7   20.40    4.90
   1   7   7   18.30    4.10
  -2  -7  -7   80.39    6.70
  -2  -7  -7   86.79    7.60
   2   7   7  110.09    8.10
   2   7   7  102.09    9.10
   2   7   7  105.29    8.20
  -3  -7  -7   80.29    6.00
  -3  -7  -7   79.69    6.10
  -3  -7  -7   90.69   10.00
  -3  -7  -7   80.89    6.60
   3   7   7   62.69    7.80
   3   7   7   77.89    7.50
   3   7   7   84.09    7.70
   3   7   7   80.79    9.10
  -4  -7  -7   75.19    8.60
  -4  -7  -7   84.39    6.50
  -4  -7  -7   76.29    6.60
   4   7   7   72.39    7.60
   4   7   7   80.99    6.90
   4   7   7   72.59   10.80
   4   7   7   77.99    9.10
  -5  -7  -7  276.67   14.80
  -5  -7  -7  250.27   14.80
  -5  -7  -7  243.68   15.30
   5   7   7  246.78   14.30
  -6  -7  -7    5.20    2.60
   6   7   7    5.00    2.20
  -7  -7  -7  151.18    8.60
   7   7   7  141.69    8.90
   7   7   7  129.99    8.40
  -2   8   7    7.70    1.80
  -1   8   7    1.70    1.80
  -1   8   7   -0.10    4.30
  -1   8   7   -3.30    2.50
   0   8   7   49.99    7.20
   0   8   7   41.90    5.50
  -1  -8  -7  125.69    8.70
  -1  -8  -7  135.89   10.20
  -1  -8  -7  128.99    9.10
   1   8   7  160.38    9.50
   1   8   7  150.38    9.00
   1   8   7  124.69    8.90
  -2  -8  -7    7.20    2.70
  -2  -8  -7   11.60    2.70
  -2  -8  -7   10.80    2.80
   2   8   7   12.80    2.60
   2   8   7   10.00    3.20
  -3  -8  -7   46.10    5.10
  -3  -8  -7   42.80    5.20
  -3  -8  -7   35.30    4.80
   3   8   7   31.30    5.20
   3   8   7   29.80    4.80
   3   8   7   42.00    5.70
  -4  -8  -7   74.49    6.80
  -4  -8  -7   63.89    6.60
  -4  -8  -7   69.39    6.10
   4   8   7   72.19    6.50
   4   8   7   66.79    7.30
  -5  -8  -7   16.50    2.90
  -5  -8  -7   11.50    4.10
  -5  -8  -7   12.40    3.00
  -6  -8  -7   52.39    4.90
   6   8   7   60.09    4.90
   6   8   7   52.69    4.40
   0   9   7   28.00    3.00
   0   9   7   21.10    2.80
   1   9   7    0.10    1.90
   1   9   7    2.40    1.80
  -2  -9  -7   14.50    2.70
  -2  -9  -7   13.90    2.90
   2   9   7   14.20    3.40
   2   9   7   16.20    3.50
   2   9   7    9.70    1.90
  -3  -9  -7  138.59    9.00
  -3  -9  -7  133.49    9.10
   3   9   7  128.09    8.80
   3   9   7  131.89    8.60
   3   9   7  151.38    8.70
  -4  -9  -7   31.90    4.00
   4   9   7   29.40    4.70
   3   6  -8   14.90    3.20
  -3  -6   8    3.60    5.70
  -3  -6   8   11.00    3.70
   2   6  -8    3.90    2.80
   2   6  -8    3.70    7.10
  -2  -6   8    2.90    3.00
  -2  -6   8   -4.90    7.60
  -2  -6   8    4.60    2.30
   1   6  -8   23.50    4.50
   1   6  -8   16.40    4.60
  -1  -6   8   18.00    3.00
  -1  -6   8   11.60    2.40
   0   6  -8   27.00    4.50
   0   6  -8   22.40    4.00
   0  -6   8   26.90    3.90
   0  -6   8   29.50    5.00
   5   5  -8    0.90    6.40
   5   5  -8    5.80    4.10
  -5  -5   8    0.40    2.80
  -5  -5   8   -2.80    3.00
   4   5  -8   53.69    8.40
   4   5  -8   40.70    5.60
  -4  -5   8   38.60    7.00
  -4  -5   8   45.00    4.90
   3   5  -8   29.50    4.80
   3   5  -8   42.70    5.70
  -3  -5   8   38.40    7.60
  -3  -5   8   45.30    5.40
  -3  -5   8   40.30    5.00
   2   5  -8   -2.20    6.30
   2   5  -8   10.70   12.80
   2   5  -8    2.20    3.60
  -2  -5   8   -2.70    2.50
  -2  -5   8    1.70    5.70
  -2  -5   8    4.80    3.30
   1   5  -8  197.78   21.00
   1   5  -8  232.08   13.40
  -1  -5   8  213.28   12.40
  -1  -5   8  203.88   17.20
   0   5  -8   24.70    5.10
  -1   5  -8   22.40    4.60
   1  -5   8   27.50    5.10
  -2   5  -8   11.80    3.40
  -2   5  -8   14.40    2.50
   2  -5   8   13.40    2.60
   6   4  -8    2.00    3.40
  -6  -4   8    0.70    2.30
   5   4  -8   66.99    7.70
  -5  -4   8   54.59    6.60
   4   4  -8   37.20    5.90
   4   4  -8   33.20    7.00
  -4  -4   8   34.10    5.50
  -4  -4   8   26.40    4.60
   3   4  -8   13.00    7.00
   3   4  -8   13.40    6.00
   3   4  -8   27.90    9.70
  -3  -4   8   14.70    5.20
  -3  -4   8   13.10    5.80
  -3  -4   8   15.70    4.50
   2   4  -8   -5.40    7.60
   2   4  -8    3.60    6.00
   2   4  -8   -2.60    5.10
  -2  -4   8    3.60    5.20
  -2  -4   8    2.60    4.30
  -2  -4   8    2.80    4.00
   1   4  -8   41.30    7.80
   1   4  -8   47.20    8.50
   1   4  -8   42.80    8.10
  -1  -4   8   54.49    6.40
  -1  -4   8   60.09   11.60
  -1  -4   8   54.19    7.80
   0   4  -8   17.00    4.20
   0   4  -8   12.50    7.00
   0   4  -8   13.50    8.60
   0  -4   8   13.10    3.70
   0  -4   8   22.30    8.20
  -1   4  -8   15.00    3.50
  -1   4  -8   13.10    7.80
   1  -4   8    6.30    3.50
  -2   4  -8   60.89    5.60
   2  -4   8   61.09    6.10
  -3   4  -8   11.90    2.30
   3  -4   8   14.20    2.60
  -4   4  -8   -3.40    4.10
   4  -4   8   -0.70    2.50
   6   3  -8    7.90    3.80
   6   3  -8    6.20    6.10
   5   3  -8    6.10    5.80
   5   3  -8    6.80    4.60
   5   3  -8    7.10    9.20
  -5  -3   8   -0.70    4.20
  -5  -3   8   10.20    5.50
   4   3  -8   -1.20    4.50
   4   3  -8    2.60    8.20
   4   3  -8   -7.80    6.50
   4   3  -8    7.70    5.80
  -4  -3   8    4.90    4.20
  -4  -3   8   11.20    5.00
   3   3  -8   25.50    9.30
   3   3  -8   16.50    5.50
   3   3  -8   27.30    6.30
  -3  -3   8   21.20    4.80
  -3  -3   8   22.50    6.70
   2   3  -8   23.80    7.30
   2   3  -8   16.60    6.50
   2   3  -8   16.10    5.60
  -2  -3   8   12.90    4.00
  -2  -3   8   11.90    5.00
  -2  -3   8   17.30    4.70
  -2  -3   8   18.10    5.10
   1   3  -8  229.28   16.30
   1   3  -8  234.58   16.50
   1   3  -8  245.78   17.20
  -1  -3   8  218.28   14.40
  -1  -3   8  234.88   15.90
  -1  -3   8  220.68   14.90
  -1  -3   8  240.48   15.00
   0   3  -8   29.20    4.70
   0   3  -8   33.50    5.70
   0   3  -8   31.90    6.20
   0  -3   8   24.30    5.90
  -1   3  -8  180.28   15.90
  -1   3  -8  206.88   16.20
  -1   3  -8  188.28   12.70
   1  -3   8  189.08   12.30
   1  -3   8  195.88   16.10
   1  -3   8  179.38   12.20
  -2   3  -8  179.48   11.70
  -2   3  -8  160.48   17.60
   2  -3   8  166.88   19.20
   2  -3   8  181.28   11.60
  -3   3  -8   10.80    3.20
   3  -3   8    3.70    3.00
   3  -3   8   21.50    8.80
  -4   3  -8   31.50    4.20
   4  -3   8   31.30    4.50
  -5   3  -8   15.40    2.50
   5  -3   8   20.10    2.60
   7   2  -8   33.80    4.60
   7   2  -8   24.60    4.90
  -7  -2   8   39.70    6.50
   6   2  -8    6.00    4.50
   6   2  -8    3.60    5.30
   6   2  -8    0.70    3.80
  -6  -2   8   -0.20    3.60
   5   2  -8   10.90    5.90
   5   2  -8   27.60    6.40
   5   2  -8   20.60    6.60
   5   2  -8   16.10    4.50
   5   2  -8   23.80    3.90
  -5  -2   8   20.60    4.40
   4   2  -8   63.39   12.40
   4   2  -8   66.99    7.60
   4   2  -8   69.49   10.00
   4   2  -8   89.59   12.10
   4   2  -8   82.29    9.30
  -4  -2   8   69.59   13.90
  -4  -2   8   60.69   10.40
  -4  -2   8   78.79    8.90
   3   2  -8   21.10    5.70
   3   2  -8   19.50    4.40
   3   2  -8   24.10    5.70
   3   2  -8   24.10    6.30
   3   2  -8   28.00    4.20
   3   2  -8   21.50    7.30
   3   2  -8   15.00    4.00
  -3  -2   8   13.60    4.30
  -3  -2   8   19.30    9.40
   2   2  -8 1049.59   53.89
   2   2  -8  990.40   53.09
   2   2  -8 1016.40   53.39
   2   2  -8  998.50   54.09
   2   2  -8 1022.70   54.39
   2   2  -8  935.21   56.49
  -2  -2   8  959.30   53.69
  -2  -2   8  930.81   53.39
  -2  -2   8  980.50   55.09
   1   2  -8   74.99    9.60
   1   2  -8   79.09   10.20
   1   2  -8   60.69   10.70
   1   2  -8   69.39   10.60
   1   2  -8   71.09   11.70
   1   2  -8   61.79   11.70
  -1  -2   8   70.69    8.80
  -1  -2   8   75.29    9.60
  -1  -2   8   79.49    6.80
   0   2  -8  575.84   34.40
   0   2  -8  620.14   34.50
   0   2  -8  624.74   34.70
   0  -2   8  613.44   34.40
   0  -2   8  620.94   33.80
   0  -2   8  619.04   33.60
  -1   2  -8  303.87   18.70
  -1   2  -8  268.97   17.60
  -1   2  -8  284.47   18.40
   1  -2   8  294.17   18.30
   1  -2   8  284.77   16.60
   1  -2   8  289.27   17.00
  -2   2  -8   25.10    6.10
  -2   2  -8   23.40    4.10
  -2   2  -8   24.90    5.80
   2  -2   8   20.50    3.40
   2  -2   8   17.70    3.50
   2  -2   8   16.90    6.00
  -3   2  -8   88.29    7.90
  -3   2  -8   95.69   16.30
   3  -2   8   87.09   19.70
   3  -2   8   94.99    7.70
   3  -2   8   95.59   13.20
   3  -2   8   70.39   14.60
  -4   2  -8   72.69    6.90
   4  -2   8   66.39    6.80
  -5   2  -8   26.80    3.90
   5  -2   8   28.70    4.20
   7   1  -8   28.90    5.50
   7   1  -8   30.00    4.30
  -7  -1   8   26.60    5.20
   6   1  -8   16.70    4.20
   6   1  -8   18.10    3.80
   6   1  -8   16.30    5.50
   6   1  -8   19.90    5.50
   6   1  -8   12.00    7.00
  -6  -1   8   17.10    3.30
  -6  -1   8   18.80    3.40
  -6  -1   8   11.10    4.80
   5   1  -8  390.76   21.70
   5   1  -8  357.46   23.30
   5   1  -8  372.46   21.90
   5   1  -8  387.16   24.40
   5   1  -8  356.76   21.60
  -5  -1   8  326.97   23.20
  -5  -1   8  388.06   22.20
  -5  -1   8  371.96   21.70
   4   1  -8   85.49    7.50
   4   1  -8   75.59    8.00
   4   1  -8   90.89   13.00
   4   1  -8   70.59    9.50
   4   1  -8   69.19    9.60
   4   1  -8   84.79   10.40
  -4  -1   8   59.79   11.40
  -4  -1   8   76.09    8.70
  -4  -1   8   73.39   11.90
   3   1  -8  470.15   28.00
   3   1  -8  470.75   26.30
   3   1  -8  473.95   25.70
   3   1  -8  435.26   28.70
   3   1  -8  438.86   26.00
   3   1  -8  484.95   26.90
  -3  -1   8  449.16   28.60
  -3  -1   8  474.45   28.40
  -3  -1   8  469.75   26.60
   2   1  -8 1003.60   52.49
   2   1  -8  965.50   52.99
   2   1  -8  992.40   51.89
   2   1  -8  973.80   52.19
   2   1  -8 1005.10   52.59
  -2  -1   8  878.31   52.29
   1   1  -8  272.57   16.00
   1   1  -8  259.27   16.30
   1   1  -8  268.37   16.20
   1   1  -8  256.57   14.80
   1   1  -8  243.28   17.40
  -1  -1   8  247.88   17.60
  -1  -1   8  256.67   16.00
  -1  -1   8  251.17   15.10
   0   1  -8  715.73   37.70
   0   1  -8  699.03   37.70
   0   1  -8  672.63   38.00
   0   1  -8  627.14   38.70
   0   1  -8  701.33   37.90
   0   1  -8  670.33   37.00
   0  -1   8  681.73   37.50
   0  -1   8  694.03   37.10
   0  -1   8  702.93   37.80
  -1   1  -8  135.89   10.50
  -1   1  -8  137.79   11.70
  -1   1  -8   92.69   18.20
  -1   1  -8  124.79   12.30
   1  -1   8  133.69    8.50
   1  -1   8  141.59   10.70
   1  -1   8  132.59   11.00
  -2   1  -8   75.69    9.30
  -2   1  -8   79.99    8.40
  -2   1  -8   81.29    9.70
   2  -1   8   69.89    6.00
   2  -1   8   73.59    9.10
   2  -1   8   70.69    7.30
  -3   1  -8  481.35   25.50
  -3   1  -8  461.25   27.20
  -3   1  -8  431.36   25.90
   3  -1   8  448.06   26.30
   3  -1   8  443.86   24.80
   3  -1   8  423.26   24.90
  -4   1  -8  140.69   10.00
  -4   1  -8  128.39   15.10
   4  -1   8  126.59   10.40
   4  -1   8  149.59    9.60
   4  -1   8  143.99   14.30
  -5   1  -8  325.87   20.20
  -5   1  -8  317.27   18.80
   5  -1   8  346.87   18.80
  -6   1  -8   76.89    8.90
  -6   1  -8   77.29    5.70
   6  -1   8   84.79    5.90
   7   0  -8   22.90    4.50
   7   0  -8   17.30    4.80
  -7   0   8   25.10    3.60
   6   0  -8  210.68   17.20
   6   0  -8  245.98   17.00
   6   0  -8  220.48   15.20
   6   0  -8  220.28   17.60
  -6   0   8  203.58   14.30
  -6   0   8  240.38   13.70
   5   0  -8    3.10    8.40
   5   0  -8    7.40    6.50
   5   0  -8    5.40    3.40
   5   0  -8    7.40    6.00
   5   0  -8    0.00    3.60
   5   0  -8   -3.30    3.50
  -5   0   8   -0.10    5.00
  -5   0   8    1.30    4.10
  -5   0   8    1.20    4.00
   4   0  -8  342.47   21.80
   4   0  -8  364.36   20.00
   4   0  -8  367.16   25.20
   4   0  -8  344.37   21.20
   4   0  -8  340.67   20.40
  -4   0   8  365.26   21.30
  -4   0   8  357.56   21.00
  -4   0   8  349.77   22.50
   3   0  -8  212.98   12.70
   3   0  -8  218.88   13.90
   3   0  -8  185.78   21.60
   3   0  -8  206.88   17.50
   3   0  -8  191.18   15.70
   3   0  -8  218.48   12.20
  -3   0   8  199.08   14.00
  -3   0   8  196.48   14.80
  -3   0   8  205.38   15.70
   2   0  -8   99.19    8.00
   2   0  -8   78.79    9.30
   2   0  -8   88.39    6.40
   2   0  -8   94.09   13.40
   2   0  -8   91.09    8.70
  -2   0   8  104.19   13.70
  -2   0   8   99.79   11.90
  -2   0   8   97.89    9.00
   1   0  -8  221.68   15.50
   1   0  -8  209.08   13.50
   1   0  -8  220.68   13.00
   1   0  -8  204.88   13.30
   1   0  -8  215.78   12.10
  -1   0   8  215.08   12.80
  -1   0   8  204.08   13.40
  -1   0   8  206.48   15.20
   0   0  -8  161.98   10.00
   0   0  -8  148.19   11.90
   0   0  -8  150.88   10.50
   0   0  -8  146.49    9.00
   0   0  -8  156.28   10.20
   0   0   8  159.48   10.50
   0   0   8  143.29    9.30
   0   0   8  145.59   12.10
   0   0   8  128.59   13.40
  -1   0  -8  280.57   20.60
  -1   0  -8  310.87   17.40
  -1   0  -8  299.87   17.70
  -1   0  -8  292.47   18.00
  -1   0  -8  305.27   17.50
  -1   0  -8  287.57   16.60
   1   0   8  304.07   16.70
   1   0   8  287.37   17.50
   1   0   8  300.57   17.70
  -2   0  -8  258.17   15.60
  -2   0  -8  259.67   16.20
  -2   0  -8  241.48   16.60
  -2   0  -8  255.07   16.10
  -2   0  -8  246.58   15.30
   2   0   8  247.48   14.20
   2   0   8  236.68   14.90
   2   0   8  232.08   15.30
  -3   0  -8   78.59    8.30
  -3   0  -8   68.19    8.60
  -3   0  -8   68.69    9.60
   3   0   8   76.89    6.40
   3   0   8   62.49    8.30
   3   0   8   69.19    7.00
  -4   0  -8  356.46   25.90
  -4   0  -8  387.26   22.70
  -4   0  -8  424.56   22.50
   4   0   8  412.46   21.80
   4   0   8  347.87   22.00
   4   0   8  400.46   22.90
  -5   0  -8  209.68   12.30
  -5   0  -8  187.38   16.20
   5   0   8  169.98   11.80
  -6   0  -8    4.70    3.50
  -6   0  -8    6.50    2.20
   6   0   8    4.80    2.10
  -7   0  -8   80.79    8.00
  -7   0  -8   91.29    5.90
   7  -1  -8   34.40    5.00
  -7   1   8   33.10    5.10
  -7   1   8   45.90    5.00
   6  -1  -8   68.19    9.00
   6  -1  -8   85.09   11.40
   6  -1  -8   61.19    8.90
   6  -1  -8   71.49   11.20
  -6   1   8   68.09    7.30
  -6   1   8   62.39    6.90
   5  -1  -8  345.57   21.40
   5  -1  -8  344.17   20.60
   5  -1  -8  341.37   22.60
   5  -1  -8  337.27   20.20
  -5   1   8  372.46   20.70
  -5   1   8  363.66   22.00
   4  -1  -8  180.48   11.80
   4  -1  -8  178.78   14.10
   4  -1  -8  183.18   11.30
   4  -1  -8  181.78   13.30
  -4   1   8  187.58   12.90
  -4   1   8  186.38   14.30
  -4   1   8  176.08   13.30
   3  -1  -8   47.20    8.20
   3  -1  -8   52.89    6.10
   3  -1  -8   49.50    8.20
   3  -1  -8   49.40    4.80
  -3   1   8   51.79    9.70
  -3   1   8   55.19    8.50
   2  -1  -8  107.59    7.90
   2  -1  -8  103.69   16.30
   2  -1  -8   93.09    8.80
   2  -1  -8  105.79    6.60
   2  -1  -8   96.19    9.30
  -2   1   8  119.49   11.20
  -2   1   8  106.09    9.50
  -2   1   8  103.59   10.60
  -2   1   8  110.99   11.20
   1  -1  -8   58.39   11.70
   1  -1  -8   62.79    7.10
   1  -1  -8   76.49    5.90
   1  -1  -8   71.19    4.80
   1  -1  -8   71.99    6.50
  -1   1   8   62.89    7.40
  -1   1   8   62.19    6.10
  -1   1   8   73.69   11.60
  -1   1   8   62.19    8.70
   0  -1  -8  212.58   12.10
   0  -1  -8  194.28   12.30
   0  -1  -8  207.98   11.50
   0  -1  -8  203.08   12.70
   0   1   8  197.18   12.80
   0   1   8  207.08   12.20
   0   1   8  212.38   14.20
  -1  -1  -8   14.40    2.60
  -1  -1  -8   20.70    4.40
  -1  -1  -8   16.60    3.10
  -1  -1  -8   23.70    5.40
  -1  -1  -8    9.90    4.60
   1   1   8   14.50    3.50
   1   1   8   20.00    2.70
   1   1   8   13.60    5.10
   1   1   8   16.80    4.80
  -2  -1  -8  138.39   10.00
  -2  -1  -8  144.89    8.70
  -2  -1  -8  147.79    9.60
  -2  -1  -8  148.49    9.80
  -2  -1  -8  139.59   10.70
  -2  -1  -8  121.99   15.00
   2   1   8  152.48    8.90
   2   1   8  125.39   10.50
   2   1   8  141.39   10.10
   2   1   8  147.49   11.90
  -3  -1  -8  273.07   16.30
  -3  -1  -8  251.57   16.90
  -3  -1  -8  274.87   16.60
  -3  -1  -8  268.67   16.20
   3   1   8  274.17   16.40
   3   1   8  243.48   15.20
  -4  -1  -8   53.59   11.20
  -4  -1  -8   57.19    8.60
  -4  -1  -8   57.29    8.50
   4   1   8   68.89    7.00
   4   1   8   63.69    8.10
   4   1   8   70.69    8.10
  -5  -1  -8   84.49    7.90
  -5  -1  -8   66.09    9.30
   5   1   8   59.39    8.70
   5   1   8   61.89    7.00
  -6  -1  -8  213.48   13.30
   6   1   8  216.98   13.90
   6   1   8  233.58   12.90
  -7  -1  -8    9.60    2.90
  -7  -1  -8    8.90    2.10
   7   1   8   11.00    2.10
  -7   2   8    9.20    2.60
  -7   2   8    4.90    2.20
   6  -2  -8   61.69   13.60
  -6   2   8   75.09    6.70
  -6   2   8   68.59    6.70
   5  -2  -8   19.40    5.00
   5  -2  -8   23.40    3.90
   5  -2  -8   20.10    7.30
   5  -2  -8   26.80    4.10
  -5   2   8   27.90    5.40
  -5   2   8   30.80    4.50
   4  -2  -8    6.40    4.70
   4  -2  -8    9.50    2.80
   4  -2  -8    9.10    5.20
   4  -2  -8    9.20    2.90
  -4   2   8   13.40    3.90
  -4   2   8   13.40    5.20
   3  -2  -8  221.48   15.10
   3  -2  -8  231.08   13.00
   3  -2  -8  220.68   12.50
  -3   2   8  199.48   14.20
  -3   2   8  217.08   15.90
   2  -2  -8   81.49    8.50
   2  -2  -8   87.39    5.60
   2  -2  -8   97.39    9.00
   2  -2  -8   87.09    6.70
  -2   2   8   81.89    9.70
  -2   2   8   74.69   10.60
  -2   2   8   83.09    9.40
  -2   2   8   83.69    9.20
   1  -2  -8  176.88   11.10
   1  -2  -8  191.48   10.00
   1  -2  -8  192.38   10.60
   1  -2  -8  167.48   17.60
  -1   2   8  173.38   12.30
  -1   2   8  163.08   12.60
  -1   2   8  161.08   11.80
   0  -2  -8  322.87   18.10
   0  -2  -8  348.27   17.70
   0  -2  -8  346.17   17.30
   0  -2  -8  337.17   18.00
   0  -2  -8  302.27   20.40
   0   2   8  290.47   18.10
   0   2   8  307.57   18.10
   0   2   8  263.87   19.20
   0   2   8  325.97   19.20
  -1  -2  -8  134.89    7.70
  -1  -2  -8  133.39    8.40
  -1  -2  -8  124.39    8.50
  -1  -2  -8  125.49   11.40
  -1  -2  -8  122.49    8.90
   1   2   8  147.89   10.60
   1   2   8  120.29   12.80
   1   2   8  138.39    9.30
   1   2   8  136.79    8.90
  -2  -2  -8  409.96   22.50
  -2  -2  -8  397.86   21.80
  -2  -2  -8  410.06   22.30
  -2  -2  -8  414.76   22.50
  -2  -2  -8  393.86   23.00
   2   2   8  430.96   23.90
   2   2   8  404.06   22.70
   2   2   8  383.76   26.00
   2   2   8  383.96   22.20
  -3  -2  -8   19.70    3.50
  -3  -2  -8   31.80    4.50
  -3  -2  -8   19.90    7.60
   3   2   8   25.60    4.40
   3   2   8   36.20    8.10
   3   2   8   23.80    4.40
  -4  -2  -8  101.39    8.50
  -4  -2  -8   94.49   10.70
   4   2   8   78.99    8.40
   4   2   8   68.59    8.00
  -5  -2  -8   53.79    8.30
   5   2   8   46.40    7.50
   6   2   8  121.19    9.20
  -7  -2  -8    5.40    2.50
   7   2   8    3.00    3.80
   7   2   8    4.30    2.20
  -6   3   8   29.40    4.70
  -6   3   8   27.70    3.50
   5  -3  -8   96.49   18.90
   5  -3  -8  101.49   11.20
  -5   3   8  135.19   11.50
   4  -3  -8   83.99   12.10
   4  -3  -8   73.99    9.00
   4  -3  -8   94.79    8.70
  -4   3   8  110.09   10.50
  -4   3   8  105.69    9.30
   3  -3  -8   10.10    2.10
   3  -3  -8   10.30    2.50
  -3   3   8   14.50    3.80
  -3   3   8   14.50    5.20
   2  -3  -8   97.69    7.50
   2  -3  -8  103.39    6.30
   2  -3  -8  101.29    9.40
  -2   3   8  121.49   13.30
  -2   3   8   95.29   11.40
  -2   3   8   94.39    8.90
   1  -3  -8  164.78    9.90
   1  -3  -8  167.28   11.70
   1  -3  -8  171.28    9.20
   1  -3  -8  169.98   10.50
  -1   3   8  157.38   13.20
  -1   3   8  159.18   11.30
  -1   3   8  141.39   12.00
  -1   3   8  163.38   11.60
   0  -3  -8   11.80    3.10
   0  -3  -8   11.90    2.20
   0  -3  -8   21.60    8.10
   0  -3  -8   16.80    2.40
   0  -3  -8   10.20    2.40
   0   3   8    9.70    4.00
   0   3   8    4.60    3.90
   0   3   8    7.80    3.40
  -1  -3  -8   83.89    6.30
  -1  -3  -8   84.89   11.30
  -1  -3  -8   81.89    7.00
  -1  -3  -8   81.79    5.20
   1   3   8   66.89    7.00
   1   3   8   85.09    8.00
   1   3   8   72.89    8.80
  -2  -3  -8  116.89    7.70
  -2  -3  -8  105.49   10.30
  -2  -3  -8  108.49    8.00
  -2  -3  -8  115.29    6.70
  -2  -3  -8  102.89    7.60
   2   3   8  101.99    9.50
   2   3   8   89.09   11.30
  -3  -3  -8  285.97   16.70
  -3  -3  -8  263.27   17.90
  -3  -3  -8  295.07   16.80
  -3  -3  -8  306.27   16.90
   3   3   8  334.17   21.80
   3   3   8  251.17   20.20
   3   3   8  272.97   17.10
  -4  -3  -8   10.40    4.20
  -4  -3  -8   11.60    3.30
  -4  -3  -8   15.80    3.50
  -4  -3  -8    2.40    7.70
  -4  -3  -8   10.90    3.10
  -4  -3  -8   10.80    3.90
   4   3   8    5.20    6.70
   4   3   8    7.80    3.90
   4   3   8    1.80    4.30
   4   3   8   -0.60    7.90
  -5  -3  -8   90.89   11.60
  -5  -3  -8  109.29    9.20
   5   3   8  102.49    9.50
   5   3   8  109.99    9.30
  -6  -3  -8  169.58   12.30
  -7  -3  -8   11.70    2.80
   7   3   8    5.90    2.50
   7   3   8   12.80    3.20
  -6   4   8   46.10    4.70
  -6   4   8   57.29    7.30
  -5   4   8   11.20    3.10
  -5   4   8   16.20    3.20
   4  -4  -8    5.80    8.90
  -4   4   8    4.40    4.60
  -4   4   8    7.10    3.80
   3  -4  -8  126.99   13.10
  -3   4   8  141.79   12.50
  -3   4   8  157.88   10.70
  -3   4   8  146.79   11.60
   2  -4  -8  204.28   14.80
   2  -4  -8  197.58   11.20
  -2   4   8  203.98   13.30
  -2   4   8  198.98   13.00
  -2   4   8  193.48   15.10
   1  -4  -8  131.49    9.00
   1  -4  -8  121.59    6.80
  -1   4   8  102.29    9.20
  -1   4   8  111.79    9.10
  -1   4   8  100.49   12.00
   0  -4  -8  371.66   20.40
   0  -4  -8  341.37   21.30
   0  -4  -8  379.66   19.90
   0  -4  -8  377.86   20.90
   0   4   8  366.06   21.40
   0   4   8  355.26   20.90
   0   4   8  378.16   23.50
  -1  -4  -8  318.27   18.20
  -1  -4  -8  290.97   21.20
  -1  -4  -8  319.37   17.90
  -1  -4  -8  324.07   17.00
  -1  -4  -8  326.47   17.60
   1   4   8  311.77   17.80
   1   4   8  280.17   18.30
   1   4   8  311.87   18.80
  -2  -4  -8 1863.21   98.89
  -2  -4  -8 1918.91   98.49
  -2  -4  -8 1806.12   99.29
  -2  -4  -8 1881.01   98.99
  -3  -4  -8   81.39    9.10
  -3  -4  -8   93.39    7.80
  -3  -4  -8   97.89    6.20
  -3  -4  -8   93.69    7.60
   3   4   8   75.69    9.00
   3   4   8   66.19    7.90
   3   4   8   84.49   10.60
  -4  -4  -8 1165.98   64.09
  -4  -4  -8 1255.07   63.99
  -4  -4  -8 1230.28   64.19
  -4  -4  -8 1204.58   63.69
   4   4   8 1130.59   64.99
   4   4   8 1202.68   64.19
  -5  -4  -8  121.89   13.60
  -5  -4  -8  116.79   15.80
  -5  -4  -8  145.99   10.50
   5   4   8  120.79   11.70
   5   4   8  136.49   10.20
  -6  -4  -8   56.49    8.60
   6   4   8   65.49    7.40
   6   4   8   48.10    7.40
   6   4   8   74.59    8.20
  -7  -4  -8  123.09    8.50
  -7  -4  -8  124.99    9.00
   7   4   8  100.69    8.20
   7   4   8  121.29    8.00
  -5   5   8    3.20    2.80
  -5   5   8    1.90    3.50
  -4   5   8   88.29    8.10
  -4   5   8   84.69    7.70
  -3   5   8   85.49    8.40
  -3   5   8   75.59    8.50
  -3   5   8   70.29   10.40
  -2   5   8  127.59   10.00
  -2   5   8  134.39    9.70
  -2   5   8  122.39   12.60
   1  -5  -8  543.05   28.30
   1  -5  -8  528.45   28.70
   1  -5  -8  537.35   29.80
  -1   5   8  534.75   29.40
  -1   5   8  500.65   31.30
  -1   5   8  533.85   29.60
   0  -5  -8   73.29    6.00
   0  -5  -8   67.09    9.80
   0  -5  -8   80.99    7.50
   0  -5  -8   78.59    5.20
   0   5   8   66.89    7.30
   0   5   8   69.49    6.90
   0   5   8   60.49    9.00
  -1  -5  -8  476.25   25.10
  -1  -5  -8  474.95   26.10
  -1  -5  -8  479.65   26.00
  -1  -5  -8  476.85   25.40
   1   5   8  470.85   26.40
   1   5   8  457.25   25.60
   1   5   8  460.05   26.00
   1   5   8  421.76   30.80
  -2  -5  -8  281.47   15.10
  -2  -5  -8  266.57   17.70
  -2  -5  -8  298.87   15.90
  -2  -5  -8  286.67   16.00
  -2  -5  -8  293.37   14.80
   2   5   8  219.28   17.40
   2   5   8  251.27   15.70
   2   5   8  241.38   16.40
   2   5   8  241.28   16.50
  -3  -5  -8  210.18   13.10
  -3  -5  -8  205.38   11.90
  -3  -5  -8  187.98   14.00
  -3  -5  -8  212.28   12.10
  -3  -5  -8  201.78   13.00
   3   5   8  200.78   14.10
   3   5   8  203.38   13.10
   3   5   8  203.08   13.70
  -4  -5  -8  345.57   19.50
  -4  -5  -8  341.77   20.40
  -4  -5  -8  331.57   20.50
   4   5   8  341.37   21.30
   4   5   8  364.66   21.20
   4   5   8  367.36   20.10
  -5  -5  -8  197.88   13.10
  -5  -5  -8  196.98   12.30
  -5  -5  -8  183.28   15.10
   5   5   8  205.48   12.60
  -6  -5  -8   76.19    6.60
  -6  -5  -8   97.19   11.00
   6   5   8   61.49    9.00
   6   5   8   69.99    6.40
  -7  -5  -8  238.78   14.90
  -7  -5  -8  263.47   13.90
   7   5   8  229.28   13.80
  -4   6   8   21.50    5.20
  -4   6   8   25.20    4.00
  -3   6   8   28.60    5.30
  -3   6   8   34.40    6.50
  -3   6   8   23.60    3.50
  -2   6   8  312.87   17.70
  -2   6   8  292.37   17.30
  -2   6   8  274.77   19.20
   1  -6  -8  189.38   15.20
  -1   6   8  182.18   12.10
  -1   6   8  159.78   11.30
   0  -6  -8  336.77   20.80
   0  -6  -8  344.87   19.20
   0  -6  -8  336.47   19.50
   0   6   8  357.46   20.10
   0   6   8  378.16   20.40
  -1  -6  -8  695.83   36.60
  -1  -6  -8  667.33   36.50
  -1  -6  -8  690.43   35.50
  -1  -6  -8  681.63   35.80
   1   6   8  623.74   36.90
   1   6   8  661.33   36.30
   1   6   8  634.34   36.60
  -2  -6  -8   14.50    2.50
  -2  -6  -8   13.30    6.70
  -2  -6  -8   12.50    3.40
  -2  -6  -8    8.10    3.80
  -2  -6  -8   22.40    4.20
   2   6   8   14.80    4.10
   2   6   8   15.10    3.70
   2   6   8   15.70    3.50
   2   6   8   20.20    4.10
  -3  -6  -8  362.06   21.60
  -3  -6  -8  367.96   20.70
  -3  -6  -8  362.76   21.00
  -3  -6  -8  365.96   20.40
   3   6   8  380.96   21.00
   3   6   8  353.16   21.60
   3   6   8  381.76   21.50
  -4  -6  -8  150.18   12.30
  -4  -6  -8  160.18   11.20
  -4  -6  -8  143.39   10.00
  -4  -6  -8  156.88    9.80
  -4  -6  -8  145.19    9.80
   4   6   8  141.99   10.10
   4   6   8  142.99   11.90
   4   6   8  154.38   11.70
  -5  -6  -8   78.69    8.40
  -5  -6  -8   85.09    7.20
   5   6   8   96.19   10.50
  -6  -6  -8  146.29    9.30
   6   6   8  139.19    9.10
   6   6   8  151.78   10.00
  -7  -6  -8   20.60    2.70
   7   6   8   21.30    3.70
   7   6   8   26.60    3.70
  -2   7   8   70.39    5.40
  -2   7   8   62.09    7.20
  -1   7   8  182.98   11.30
  -1   7   8  171.08   10.70
   0  -7  -8  186.08   11.80
   0  -7  -8  166.98   15.20
   0  -7  -8  206.18   12.40
   0   7   8  214.28   13.10
   0   7   8  215.18   12.60
  -1  -7  -8    0.70    3.10
  -1  -7  -8   -3.80    4.70
  -1  -7  -8    0.00    2.70
  -1  -7  -8    2.40    2.50
   1   7   8    5.10    3.40
   1   7   8   -4.20    3.20
   1   7   8    2.00    3.10
  -2  -7  -8  137.79    9.20
  -2  -7  -8  145.39    9.20
  -2  -7  -8  140.59    9.80
  -2  -7  -8  141.79   12.00
   2   7   8  143.79   10.20
   2   7   8  151.88   10.30
   2   7   8  145.19   10.90
  -3  -7  -8   50.69    5.90
  -3  -7  -8   46.90    5.60
  -3  -7  -8   50.69    5.50
  -3  -7  -8   53.99    9.00
   3   7   8   42.60    7.40
   3   7   8   53.29    7.10
   3   7   8   49.20    7.60
  -4  -7  -8   38.70    4.60
  -4  -7  -8   37.30    6.10
   4   7   8   47.90    7.30
   4   7   8   34.90    6.60
   4   7   8   50.59    5.10
  -5  -7  -8  180.78   10.70
  -5  -7  -8  170.48   10.70
   5   7   8  167.58   10.70
   5   7   8  169.58   10.20
  -6  -7  -8   19.20    2.70
   6   7   8   16.00    2.80
   6   7   8   24.80    3.60
  -2   8   8   27.10    3.50
  -1   8   8   19.30    3.80
  -1   8   8   21.20    3.20
   0   8   8   71.59    5.40
   0   8   8   71.39    6.80
  -1  -8  -8   95.39    7.70
  -1  -8  -8  100.59    9.20
   1   8   8   91.59    7.10
   1   8   8   86.59    6.30
   1   8   8   75.89    7.50
  -2  -8  -8   99.39    7.70
  -2  -8  -8   83.69    7.40
   2   8   8   87.39    6.60
   2   8   8   81.59    7.10
   2   8   8   96.19    6.80
  -3  -8  -8   69.89    6.70
  -3  -8  -8   75.69    6.40
  -3  -8  -8   65.09    8.80
   3   8   8   61.29    5.80
   3   8   8   62.69    6.00
  -4  -8  -8  165.28   11.10
  -4  -8  -8  183.38   11.30
  -4  -8  -8  185.48   10.80
   4   8   8  151.48   11.30
   4   8   8  190.48   10.40
  -5  -8  -8    5.20    2.60
  -5  -8  -8    5.10    2.80
   5   8   8    4.40    2.10
   1   9   8    4.60    3.60
   1   9   8    5.70    1.80
  -2  -9  -8   16.40    3.00
   2   9   8   23.70    3.50
  -3  -9  -8  105.29    7.60
   3   9   8   95.19    7.00
   3   9   8  107.09    7.00
   4   5  -9   -0.50    5.10
   4   5  -9    3.60    4.70
  -4  -5   9   -0.90    3.00
   3   5  -9    1.70    4.00
  -3  -5   9   -0.20    3.70
   2   5  -9   51.09   11.00
   2   5  -9   74.39    6.80
  -2  -5   9   52.09    6.80
  -2  -5   9   82.69    9.30
   1   5  -9   49.40    5.80
  -1  -5   9   51.29    6.20
  -1  -5   9   48.10    6.50
   0   5  -9   78.79    5.90
   0  -5   9   66.69    6.40
   0  -5   9   50.49    6.10
  -1   5  -9    2.90    3.20
  -1   5  -9    2.10    2.20
   1  -5   9    3.40    2.70
   1  -5   9  -11.10    6.10
   5   4  -9   17.80    3.60
  -5  -4   9    9.70    2.50
   4   4  -9   24.40    4.20
   4   4  -9   30.10    7.50
  -4  -4   9   19.10    3.20
   3   4  -9   16.30    4.60
   3   4  -9   25.60    5.40
  -3  -4   9   16.90    3.70
   2   4  -9  176.98   12.60
   2   4  -9  184.28   13.10
  -2  -4   9  189.78   12.20
  -2  -4   9  149.39   12.00
   1   4  -9   57.89   10.20
   1   4  -9   35.30    9.00
   1   4  -9   40.10    7.10
  -1  -4   9   48.70    8.90
  -1  -4   9   48.30    6.40
  -1  -4   9   60.79    7.00
   0   4  -9   50.69    6.30
   0  -4   9   63.79   10.30
   0  -4   9   53.29    6.50
   0  -4   9   49.20    5.80
  -1   4  -9   19.30    3.00
   1  -4   9   25.30    7.00
   1  -4   9   22.60    3.00
  -2   4  -9   37.50    4.60
   2  -4   9   29.00    4.90
  -3   4  -9   12.70    2.40
   3  -4   9   17.30    2.60
   6   3  -9   43.40    6.40
  -6  -3   9   39.30    5.10
   5   3  -9   48.20    7.20
  -5  -3   9   39.60    5.40
   4   3  -9    5.70    4.30
  -4  -3   9    5.20    2.90
   3   3  -9   48.50    6.90
   3   3  -9   56.29    8.70
   3   3  -9   30.70   11.30
  -3  -3   9   64.79    8.10
   2   3  -9   62.09   10.70
   2   3  -9   37.90    8.10
   2   3  -9   47.70    9.10
  -2  -3   9   52.79    8.40
  -2  -3   9   55.89   11.60
   1   3  -9    2.60    5.60
   1   3  -9   10.20    5.40
   1   3  -9   15.90    6.90
  -1  -3   9   12.10    4.50
   0   3  -9   28.00    7.20
   0   3  -9   28.00    6.10
   0   3  -9   24.50    5.00
   0  -3   9   43.70    7.40
   0  -3   9   26.40    5.60
  -1   3  -9   79.59    7.90
  -1   3  -9   57.39    8.50
   1  -3   9   83.79    8.20
  -2   3  -9    8.30    2.70
  -2   3  -9    8.30    9.90
   2  -3   9    8.70    6.10
   2  -3   9    8.80    2.60
  -3   3  -9   15.00    2.50
  -4   3  -9    0.60    2.00
   4  -3   9    4.00    2.30
   6   2  -9   12.60    4.60
   6   2  -9   12.50    4.00
  -6  -2   9   11.80    2.70
   5   2  -9    5.10    3.90
   5   2  -9    0.20    5.60
   5   2  -9   -1.80    4.20
  -5  -2   9    1.70    2.80
   4   2  -9    4.70    4.90
   4   2  -9    1.70    3.70
   4   2  -9    9.40    6.70
   4   2  -9    2.70    7.80
   4   2  -9    3.50    5.30
  -4  -2   9    0.00    3.60
   3   2  -9   35.50    7.90
   3   2  -9   43.00   10.40
   3   2  -9   31.20    6.30
   3   2  -9   46.20    8.80
   3   2  -9   48.90   10.50
   3   2  -9   37.80    6.40
  -3  -2   9   35.50    8.50
  -3  -2   9   39.90    7.50
   2   2  -9   17.30    7.00
   2   2  -9   22.30    5.50
   2   2  -9   25.80    5.70
  -2  -2   9   14.90   10.90
  -2  -2   9   31.70    7.90
  -2  -2   9   21.30    4.40
   1   2  -9   26.00    5.90
   1   2  -9   31.70    7.50
   1   2  -9   26.40    5.40
  -1  -2   9   26.50    5.50
  -1  -2   9   37.50    7.20
  -1  -2   9   25.00    4.90
   0   2  -9   18.50    5.60
   0   2  -9   25.20    5.40
   0   2  -9   21.70    5.40
   0  -2   9   24.00    4.20
   0  -2   9   18.40    4.50
   0  -2   9   24.50    4.50
  -1   2  -9  126.59   11.60
  -1   2  -9  131.79   10.30
   1  -2   9  116.99   10.70
   1  -2   9  103.09    9.60
  -2   2  -9    6.30    5.90
  -2   2  -9    2.80    7.00
  -2   2  -9   11.20    3.80
   2  -2   9   17.80    5.40
   2  -2   9    9.00    3.40
  -3   2  -9   75.89   12.00
   3  -2   9  109.29   11.30
  -4   2  -9   40.60    4.50
   4  -2   9   46.60    4.80
  -5   2  -9   52.49    4.60
   5  -2   9   46.00    4.90
   6   1  -9   29.50    4.90
   6   1  -9   23.70    4.90
  -6  -1   9   19.90    5.80
  -6  -1   9   33.40    6.50
   5   1  -9   16.70    5.50
   5   1  -9   17.50    6.80
   5   1  -9   25.90    5.40
  -5  -1   9   26.70    5.60
  -5  -1   9   23.90    4.70
  -5  -1   9   28.80    4.20
   4   1  -9    4.30    6.10
   4   1  -9   -4.70    3.10
   4   1  -9    0.90    3.70
   4   1  -9   -3.40    4.20
   4   1  -9    3.70    5.70
  -4  -1   9    0.40    5.90
  -4  -1   9    0.50    6.10
  -4  -1   9    2.50    3.60
   3   1  -9   94.39   11.00
   3   1  -9  104.89    9.20
   3   1  -9  115.39   13.70
   3   1  -9  117.79   12.90
   3   1  -9  130.49   19.60
   3   1  -9  118.49    9.40
  -3  -1   9  115.79    9.70
  -3  -1   9  111.29   12.30
   2   1  -9   27.60    3.70
   2   1  -9   25.20    5.80
   2   1  -9   19.00    4.10
   2   1  -9   23.30    6.10
   2   1  -9   24.70    5.20
   2   1  -9   19.70    3.60
   1   1  -9  315.97   18.80
   1   1  -9  308.77   17.90
   1   1  -9  290.17   18.60
   1   1  -9  310.17   17.60
   1   1  -9  294.87   19.20
   1   1  -9  310.47   19.30
  -1  -1   9  286.27   21.20
  -1  -1   9  307.37   18.20
  -1  -1   9  276.47   17.80
   0   1  -9   87.19   10.20
   0   1  -9   73.79   10.00
   0   1  -9   87.39    9.10
   0   1  -9   94.79   10.60
   0   1  -9   68.29    9.80
   0   1  -9   77.29   12.40
   0  -1   9   77.69    7.40
   0  -1   9   93.79    8.40
   0  -1   9   84.59   10.20
  -1   1  -9    9.60    5.00
  -1   1  -9   12.10    4.50
  -1   1  -9    8.80    4.70
   1  -1   9    8.30    3.70
   1  -1   9    9.30    4.10
   1  -1   9   10.00    4.10
  -2   1  -9  118.19    9.80
  -2   1  -9  131.29   10.70
  -2   1  -9   85.19   12.30
   2  -1   9  105.59   10.10
   2  -1   9   88.29    8.50
   2  -1   9  110.79    8.50
  -3   1  -9  158.98   13.60
  -3   1  -9  157.58   18.00
  -3   1  -9  180.88   11.90
   3  -1   9  162.78   13.20
   3  -1   9  174.88   11.10
  -4   1  -9   60.99    8.80
   4  -1   9   58.79    9.40
  -5   1  -9   21.90    4.00
   5  -1   9   29.30    4.10
   6   0  -9  125.69   10.60
   6   0  -9  118.69   11.70
   6   0  -9   95.39   12.90
  -6   0   9  110.19    8.80
  -6   0   9  128.69    8.40
   5   0  -9   25.00    7.20
   5   0  -9   15.60    3.60
   5   0  -9   22.80    4.50
   5   0  -9   19.20    3.80
   5   0  -9   16.50    6.30
  -5   0   9   19.60    3.90
  -5   0   9   15.20    4.10
   4   0  -9  102.09    8.80
   4   0  -9  112.79   15.30
   4   0  -9  106.99   11.80
   4   0  -9   97.19    9.50
   4   0  -9  105.89   10.90
   4   0  -9  117.99    8.80
  -4   0   9  100.79   10.80
  -4   0   9  113.39   10.90
  -4   0   9  100.09    9.60
   3   0  -9  329.37   18.70
   3   0  -9  336.17   18.30
   3   0  -9  306.77   19.40
   3   0  -9  344.57   19.90
   3   0  -9  333.47   22.00
  -3   0   9  294.87   20.30
  -3   0   9  308.87   19.10
  -3   0   9  296.07   20.40
   2   0  -9  253.47   14.30
   2   0  -9  252.97   17.60
   2   0  -9  247.38   14.80
   2   0  -9  235.38   17.20
   2   0  -9  247.58   15.80
   2   0  -9  244.28   15.30
  -2   0   9  245.08   16.70
  -2   0   9  231.38   15.20
  -2   0   9  237.78   19.10
   1   0  -9  360.86   19.90
   1   0  -9  354.56   22.00
   1   0  -9  369.06   21.20
   1   0  -9  343.17   21.30
   1   0  -9  369.36   20.30
  -1   0   9  354.86   20.70
  -1   0   9  345.07   21.80
   0   0  -9   70.09    7.90
   0   0  -9   73.99    6.00
   0   0  -9   73.29    7.30
   0   0  -9   63.59    9.50
   0   0  -9   68.69    8.30
   0   0   9   59.59    7.30
  -1   0  -9   13.10    3.40
  -1   0  -9   14.90    7.10
  -1   0  -9   10.20    3.60
  -1   0  -9    7.70    3.60
  -1   0  -9   11.40    4.30
  -1   0  -9    5.00    3.40
   1   0   9    4.10    3.50
   1   0   9   11.40    4.40
   1   0   9    5.70    3.60
  -2   0  -9 1086.39   59.09
  -2   0  -9 1140.99   59.79
  -2   0  -9 1074.19   59.59
   2   0   9 1040.50   58.89
   2   0   9 1144.59   59.29
   2   0   9 1116.19   58.79
  -3   0  -9  241.68   15.60
  -3   0  -9  240.38   15.60
  -3   0  -9  238.98   17.70
   3   0   9  256.17   14.70
   3   0   9  219.28   14.80
   3   0   9  253.47   15.50
  -4   0  -9  481.75   26.80
  -4   0  -9  456.45   27.20
   4   0   9  484.85   27.20
   4   0   9  475.45   26.20
  -5   0  -9   85.49    6.20
   5   0   9   68.79    8.70
   5   0   9   70.79    6.00
  -6   0  -9   72.69    5.40
   6   0   9   67.19    5.60
   6  -1  -9    0.50    4.10
  -6   1   9    6.30    2.60
  -6   1   9    1.40    2.80
   5  -1  -9  116.09   14.00
   5  -1  -9  140.69   11.60
   5  -1  -9  125.49   10.20
   5  -1  -9  129.59   10.30
  -5   1   9  117.79   11.10
  -5   1   9  114.99    9.60
   4  -1  -9   93.69    8.60
   4  -1  -9  117.39    8.30
   4  -1  -9  105.59   20.10
   4  -1  -9   98.39   11.60
   4  -1  -9  114.79    9.80
  -4   1   9  105.39    9.60
  -4   1   9   98.39   10.60
   3  -1  -9   15.10    4.10
   3  -1  -9   19.30    3.10
   3  -1  -9   18.50    4.50
   3  -1  -9   33.20    8.50
  -3   1   9   22.10    5.60
  -3   1   9   22.80    4.30
  -3   1   9   26.90    4.90
   2  -1  -9   80.19   14.10
   2  -1  -9  102.69    7.50
   2  -1  -9  101.79    9.30
   2  -1  -9  105.99    6.90
   2  -1  -9   96.39   11.10
  -2   1   9  100.29   10.50
  -2   1   9   86.79   10.90
  -2   1   9  104.29    9.10
  -2   1   9   89.29   11.00
   1  -1  -9  115.49    9.10
   1  -1  -9  114.29    7.20
   1  -1  -9  101.89    9.50
   1  -1  -9  116.89    7.80
   1  -1  -9   96.99   12.50
  -1   1   9  103.29   10.40
  -1   1   9  100.99    8.60
   0  -1  -9   68.79    7.30
   0  -1  -9   67.59    7.50
   0  -1  -9   59.19    5.20
   0   1   9   63.69    7.20
   0   1   9   65.19    6.90
   0   1   9   77.69    8.70
  -1  -1  -9  440.66   25.30
  -1  -1  -9  442.66   25.60
  -1  -1  -9  449.46   25.30
  -1  -1  -9  440.86   24.50
   1   1   9  460.95   25.10
   1   1   9  431.56   25.00
   1   1   9  473.25   26.50
  -2  -1  -9   43.80    7.20
  -2  -1  -9   45.00    7.60
  -2  -1  -9   29.90    7.80
  -2  -1  -9   32.00    6.30
  -2  -1  -9   44.20    6.60
   2   1   9   32.40    6.60
   2   1   9   45.40    6.20
   2   1   9   47.90    8.30
   2   1   9   33.90    5.10
  -3  -1  -9  299.87   17.90
  -3  -1  -9  292.17   17.90
   3   1   9  284.57   16.80
   3   1   9  244.58   16.90
   3   1   9  277.37   16.60
  -4  -1  -9   56.69    8.70
  -4  -1  -9   73.39    8.20
  -4  -1  -9   67.39    8.20
   4   1   9   56.49    7.30
   4   1   9   54.89    6.80
  -5  -1  -9   11.40    4.10
  -5  -1  -9   11.60    3.80
   5   1   9    7.80    3.50
  -6  -1  -9  164.38   12.90
  -6  -1  -9  161.48   10.20
   6   1   9  169.38   11.50
   6   1   9  180.58   10.00
  -6   2   9  117.39    7.90
  -6   2   9  107.19    7.70
   5  -2  -9    7.80    3.80
   5  -2  -9   13.00    4.30
   5  -2  -9   13.40    4.40
   5  -2  -9   20.00    7.50
  -5   2   9   12.70    3.70
  -5   2   9    9.70    2.90
   4  -2  -9   -0.10    3.20
   4  -2  -9    4.20    2.90
   4  -2  -9    7.50    3.80
  -4   2   9    2.70    3.80
  -4   2   9   10.30    4.80
   3  -2  -9   59.19    9.20
   3  -2  -9   55.39    9.80
   3  -2  -9   57.29    5.60
   3  -2  -9   45.20    6.30
  -3   2   9   57.79    8.10
  -3   2   9   75.79    9.60
   2  -2  -9   98.19    6.70
   2  -2  -9   91.89   18.30
   2  -2  -9   99.39    7.20
   2  -2  -9   91.99   11.20
   2  -2  -9  100.69    9.30
  -2   2   9  104.89   10.70
  -2   2   9   98.79   10.00
  -2   2   9   95.19    9.30
  -2   2   9   95.49    9.30
   1  -2  -9   75.09    8.20
   1  -2  -9   85.29    6.20
   1  -2  -9   85.79    5.70
   1  -2  -9   86.99    8.20
  -1   2   9   71.69    9.40
  -1   2   9   67.09    8.50
  -1   2   9   74.09    7.80
   0  -2  -9  190.98   11.90
   0  -2  -9  176.38   11.70
   0  -2  -9  174.78   10.30
   0   2   9  148.59   14.30
   0   2   9  183.28   12.70
   0   2   9  189.78   14.20
  -1  -2  -9   89.79    5.80
  -1  -2  -9   82.59    7.40
  -1  -2  -9   58.39   10.40
   1   2   9   69.79   12.70
   1   2   9   85.99    8.70
   1   2   9   83.29    7.10
  -2  -2  -9  295.57   16.70
  -2  -2  -9  290.57   17.70
  -2  -2  -9  321.67   17.80
  -2  -2  -9  287.27   18.00
  -2  -2  -9  305.47   17.00
   2   2   9  306.07   18.90
   2   2   9  280.27   17.40
  -3  -2  -9  219.88   13.70
  -3  -2  -9  240.78   14.50
  -3  -2  -9  221.98   14.20
  -3  -2  -9  198.28   13.70
  -3  -2  -9  237.48   14.50
  -3  -2  -9  205.08   18.10
   3   2   9  229.38   13.80
   3   2   9  221.48   15.50
   3   2   9  211.88   14.50
  -4  -2  -9   67.49    8.40
  -4  -2  -9   61.99   10.30
   4   2   9   67.39    7.60
   4   2   9   67.19    7.30
  -5  -2  -9  114.69   12.20
   5   2   9  123.69    9.30
   5   2   9  110.39   10.10
  -6  -2  -9   25.30    4.90
  -6  -2  -9   17.50    4.10
   6   2   9   15.00    2.50
   6   2   9   14.20    3.10
  -7  -2  -9   65.19    5.20
  -7  -2  -9   68.09    8.00
   7   2   9   59.49    7.40
  -6   3   9    3.00    2.20
  -6   3   9    1.80    2.60
   5  -3  -9   -2.00    4.40
  -5   3   9   -2.70    2.60
  -5   3   9    2.90    3.10
   4  -3  -9   25.10    5.00
   4  -3  -9   27.00    4.00
   4  -3  -9   40.60    7.00
  -4   3   9   41.80    8.30
   3  -3  -9   25.40    4.30
   3  -3  -9   40.30    6.20
   3  -3  -9   33.60    5.90
  -3   3   9   48.90    9.00
   2  -3  -9  183.28   10.90
   2  -3  -9  184.08   10.50
   2  -3  -9  182.88   14.90
   2  -3  -9  192.68   13.30
  -2   3   9  165.18   13.90
  -2   3   9  177.08   12.70
  -2   3   9  160.08   12.10
   1  -3  -9  171.18   10.00
   1  -3  -9  164.68   11.70
   1  -3  -9  171.18    9.60
  -1   3   9  167.58   13.30
  -1   3   9  152.38   11.70
  -1   3   9  150.48   11.80
  -1   3   9  164.68   11.70
   0  -3  -9   47.60   13.10
   0  -3  -9   83.49    7.60
   0  -3  -9   81.49    5.40
   0  -3  -9   70.49    7.20
   0  -3  -9   85.89    5.90
   0   3   9   85.99    8.10
   0   3   9   81.49    7.20
   0   3   9   68.79    8.60
  -1  -3  -9   23.60    5.70
  -1  -3  -9   28.30    5.40
  -1  -3  -9   24.70    5.80
  -1  -3  -9   39.00    4.30
  -1  -3  -9   29.10    3.60
   1   3   9   36.40    6.80
   1   3   9   30.90    4.90
  -2  -3  -9  117.09    7.30
  -2  -3  -9  126.29    8.80
  -2  -3  -9  115.79    7.70
  -2  -3  -9  114.89   10.00
  -2  -3  -9  119.59    8.60
   2   3   9  102.69   11.40
   2   3   9  102.19    9.80
   2   3   9  104.29    8.50
  -3  -3  -9   16.00    4.20
  -3  -3  -9   10.30    2.80
  -3  -3  -9   11.70    3.70
   3   3   9   17.00    5.40
   3   3   9   25.40    6.30
   3   3   9   15.80    3.50
  -4  -3  -9    0.10    3.20
  -4  -3  -9    3.80    4.30
  -4  -3  -9    0.60    7.10
  -4  -3  -9    2.20    3.90
   4   3   9   -1.40    4.80
   4   3   9   -0.30    3.30
   4   3   9    4.80    5.90
  -5  -3  -9  423.36   23.70
   5   3   9  409.76   23.50
  -6  -3  -9   23.30    3.60
   6   3   9   20.70    3.10
   6   3   9   16.70    3.00
  -7  -3  -9   41.10    4.80
   7   3   9   37.50    5.80
  -5   4   9    8.20    2.70
  -5   4   9    8.50    2.80
  -4   4   9    7.90    3.60
  -4   4   9   12.80    3.00
   3  -4  -9   22.90    3.50
  -3   4   9   24.50    4.20
  -3   4   9   24.60    6.00
  -3   4   9   18.90    5.40
   2  -4  -9  166.68   10.10
   2  -4  -9  154.38   10.40
  -2   4   9  171.48   11.60
  -2   4   9  184.18   12.00
  -2   4   9  170.48   13.80
   1  -4  -9  142.59   10.80
   1  -4  -9  135.39   11.20
   1  -4  -9  137.69    8.00
   1  -4  -9  133.29    8.40
  -1   4   9  117.49    9.80
  -1   4   9  120.79    9.90
  -1   4   9  121.49   12.40
   0  -4  -9   26.10    4.30
   0  -4  -9   26.30    3.50
   0   4   9   36.70    6.50
   0   4   9   25.30    4.20
  -1  -4  -9  553.44   30.30
  -1  -4  -9  557.14   29.70
  -1  -4  -9  580.04   29.50
  -1  -4  -9  573.64   30.30
  -1  -4  -9  535.05   31.30
   1   4   9  513.65   30.30
   1   4   9  556.34   30.90
   1   4   9  522.75   29.90
  -2  -4  -9  128.59    8.40
  -2  -4  -9  132.29    8.00
  -2  -4  -9  129.49    9.30
  -2  -4  -9  130.79   11.00
  -2  -4  -9  131.39    9.60
   2   4   9  145.29   10.50
   2   4   9  123.49    9.20
   2   4   9  124.79   10.30
  -3  -4  -9   44.40    6.70
  -3  -4  -9   42.30    6.70
  -3  -4  -9   37.70    5.20
  -3  -4  -9   32.50    4.90
  -3  -4  -9   36.50    5.30
   3   4   9   57.39    8.90
  -4  -4  -9  112.89   10.80
  -4  -4  -9  118.89    9.40
  -4  -4  -9  120.79    8.50
  -4  -4  -9  114.79    8.80
   4   4   9   86.69   11.10
   4   4   9   94.59   11.80
   4   4   9  124.39    8.80
  -5  -4  -9   33.20    6.70
  -5  -4  -9   17.70    6.20
   5   4   9   17.70    3.70
   5   4   9   11.90    5.50
  -6  -4  -9  107.79    7.90
  -6  -4  -9   93.99    9.20
   6   4   9  119.29    7.40
  -7  -4  -9    2.70    3.30
   7   4   9    4.80    2.20
  -4   5   9   80.29    7.40
  -4   5   9   84.89    7.00
  -3   5   9   67.79    6.30
  -3   5   9   55.09    7.30
  -3   5   9   53.69    7.80
   2  -5  -9   46.70    6.00
  -2   5   9   48.20    6.90
  -2   5   9   46.00    7.00
  -2   5   9   57.29   10.10
   1  -5  -9   78.69    6.80
   1  -5  -9   76.59   11.30
  -1   5   9   88.29    8.00
  -1   5   9   88.99   11.80
  -1   5   9   88.89    7.80
   0  -5  -9   63.29    5.00
   0  -5  -9   80.39   10.10
   0  -5  -9   59.39    8.20
   0   5   9   55.89   11.80
   0   5   9   55.89    7.00
   0   5   9   58.79    6.90
  -1  -5  -9  823.82   43.60
  -1  -5  -9  830.02   43.80
  -1  -5  -9  845.32   42.80
  -1  -5  -9  804.92   44.70
   1   5   9  760.22   45.40
   1   5   9  778.22   43.40
   1   5   9  789.02   43.00
   1   5   9  791.72   44.00
  -2  -5  -9  146.79   12.70
  -2  -5  -9  137.39   11.00
  -2  -5  -9  147.49    9.40
  -2  -5  -9  144.19   11.00
   2   5   9  157.78   11.10
   2   5   9  180.18   10.30
   2   5   9  179.08   11.40
  -3  -5  -9  221.38   13.70
  -3  -5  -9  240.88   15.10
   3   5   9  237.48   14.00
   3   5   9  225.98   14.70
   3   5   9  231.48   15.10
  -4  -5  -9  102.69    8.30
  -4  -5  -9  119.39   10.90
  -4  -5  -9  121.59    9.60
  -4  -5  -9   95.69    8.70
  -4  -5  -9  101.99    8.10
   4   5   9  118.99   10.80
   4   5   9  125.99   10.70
  -5  -5  -9   87.79    7.80
   5   5   9   79.69    8.80
   5   5   9  103.29    7.00
  -6  -5  -9    8.50    2.60
   6   5   9    3.10    4.20
   6   5   9    7.00    2.40
  -4   6   9    3.30    4.90
  -4   6   9    0.40    5.40
  -3   6   9   69.99    9.20
  -3   6   9   89.59    7.00
  -2   6   9   68.29   10.70
  -2   6   9   89.39    6.50
  -2   6   9   86.49    7.10
   1  -6  -9   17.50    2.90
  -1   6   9   16.80    3.80
  -1   6   9   27.00    4.10
  -1   6   9   15.60   10.60
   0  -6  -9  120.89   11.90
   0  -6  -9  116.69   10.30
   0  -6  -9  119.69    7.70
   0   6   9  102.09    8.80
   0   6   9  117.39    9.20
  -1  -6  -9   15.20    4.60
  -1  -6  -9    4.90    3.10
  -1  -6  -9    6.40    2.40
  -1  -6  -9    8.60    2.60
  -2  -6  -9    3.10    6.10
  -2  -6  -9   -0.20    4.20
  -2  -6  -9   -0.70    2.70
  -2  -6  -9    3.70    2.60
  -2  -6  -9    0.40    2.30
   2   6   9    2.50    3.20
   2   6   9    5.10    3.60
   2   6   9    2.40    3.50
  -3  -6  -9  352.46   21.10
  -3  -6  -9  351.76   19.60
  -3  -6  -9  334.27   19.50
  -3  -6  -9  348.37   20.70
   3   6   9  364.36   19.60
   3   6   9  352.56   20.10
   3   6   9  338.67   20.60
  -4  -6  -9   92.39    6.80
  -4  -6  -9   95.39    8.50
  -4  -6  -9   86.09   10.80
  -4  -6  -9   70.99    8.10
   4   6   9   75.49    8.80
   4   6   9   83.39    8.00
  -5  -6  -9   50.89    6.70
  -5  -6  -9   51.99    5.90
   5   6   9   60.79    5.00
   5   6   9   58.79    6.30
  -6  -6  -9  420.76   21.70
   6   6   9  374.36   21.80
   6   6   9  398.86   21.60
  -2   7   9   44.80    4.30
  -2   7   9   38.50    5.90
  -1   7   9  108.19    7.30
  -1   7   9  109.69    7.80
   0   7   9   64.29    6.10
   0   7   9   53.89    5.20
  -1  -7  -9    0.40    5.70
  -1  -7  -9   -0.10    3.20
  -1  -7  -9    2.90    3.20
  -1  -7  -9    3.80    3.80
   1   7   9    5.70    2.60
   1   7   9    6.70    2.50
  -2  -7  -9  110.19    8.40
  -2  -7  -9  130.69    8.80
  -2  -7  -9  120.09   11.90
   2   7   9  118.29    8.00
   2   7   9  108.69    8.20
  -3  -7  -9   96.59    8.90
  -3  -7  -9   87.09   12.00
  -3  -7  -9   80.99    8.00
  -3  -7  -9  105.59    7.50
  -3  -7  -9   96.19    7.50
   3   7   9  114.29    7.20
   3   7   9  107.09    7.50
  -4  -7  -9   30.60    6.10
  -4  -7  -9   33.60    5.20
   4   7   9   38.70    4.10
   4   7   9   39.50    6.10
   4   7   9   38.90    4.80
  -5  -7  -9  175.38   11.70
  -5  -7  -9  193.98   11.20
   5   7   9  199.18   11.00
  -1   8   9    5.60    1.70
  -1   8   9    3.40    4.00
   0   8   9   39.20    3.80
   0   8   9   43.60    5.30
  -1  -8  -9   42.30    7.60
   1   8   9   33.90    3.80
   1   8   9   27.10    4.80
  -2  -8  -9  144.69   10.20
   2   8   9  157.88    9.60
   2   8   9  166.18    9.40
  -3  -8  -9   40.40    7.40
   3   8   9   29.80    4.60
   3   8   9   33.40    4.10
  -4  -8  -9   79.29    6.70
   4   8   9   71.39    7.80
   4   8   9   90.39    5.60
   3   4 -10   97.29    9.30
   3   4 -10  101.49   10.80
  -3  -4  10   99.19    7.80
   2   4 -10   50.79    8.70
   2   4 -10   55.29    7.90
  -2  -4  10   50.99    6.90
   1   4 -10   74.19    7.60
  -1  -4  10   91.19    8.60
  -1  -4  10   69.99    8.70
   0   4 -10   28.40    5.40
   0  -4  10   31.40    5.00
   0  -4  10   25.20    3.80
  -1   4 -10   65.59    5.80
   1  -4  10   68.59    6.40
   1  -4  10   58.69    7.40
  -5  -3  10   11.70    2.20
   4   3 -10   33.10    6.90
  -4  -3  10   29.10    4.60
   3   3 -10   74.09    8.20
  -3  -3  10   59.19    6.60
   2   3 -10   37.80    6.30
   2   3 -10   53.09    8.00
  -2  -3  10   36.80    6.30
   1   3 -10   16.40   10.80
   1   3 -10   12.40    4.80
   1   3 -10   17.40    4.60
  -1  -3  10   20.70    3.70
  -1  -3  10   21.20    4.70
   0   3 -10   50.49    7.20
   0   3 -10   48.50    5.50
   0  -3  10   38.90    7.50
   0  -3  10   47.80    7.30
  -1   3 -10   10.90    3.00
   1  -3  10   11.20    3.10
   1  -3  10    5.60    4.30
  -2   3 -10   15.10    2.60
   2  -3  10   11.80    2.70
   2  -3  10   17.00    5.60
  -3   3 -10   28.60    4.20
   3  -3  10   32.10    5.00
   5   2 -10    6.80    3.70
   5   2 -10   -1.60    5.40
  -5  -2  10    4.40    2.10
   4   2 -10   30.80    8.20
   4   2 -10   50.59    7.90
   4   2 -10   66.39   11.50
  -4  -2  10   45.20    5.20
   3   2 -10   57.49    8.80
  -3  -2  10   49.10    6.00
  -3  -2  10   44.30    7.00
   2   2 -10   29.10    8.70
   2   2 -10   21.00    5.60
  -2  -2  10   20.70    4.40
  -2  -2  10   22.50    6.00
   1   2 -10   82.19   10.80
   1   2 -10   67.89   14.50
  -1  -2  10   84.99    8.40
   0   2 -10   35.70    8.70
   0   2 -10   28.70    5.60
   0   2 -10   27.30    7.20
   0  -2  10   28.50    6.60
   0  -2  10   31.00    5.00
  -1   2 -10   21.90    5.20
  -1   2 -10   15.70    7.40
   1  -2  10   28.20    7.00
  -2   2 -10  139.99    9.80
  -2   2 -10  146.69   12.40
   2  -2  10  141.59   11.00
   2  -2  10  146.49    9.70
  -3   2 -10    4.20    2.50
   3  -2  10   -1.20    4.80
   3  -2  10    5.50    2.50
  -4   2 -10  246.88   14.00
   5   1 -10   10.30    5.30
   5   1 -10   16.70    3.80
   5   1 -10   13.80    4.40
   4   1 -10   16.00    4.70
   4   1 -10   22.20    4.60
   4   1 -10   16.60    3.70
  -4  -1  10   18.30    2.80
  -4  -1  10   19.30    4.60
   3   1 -10   11.80    7.20
   3   1 -10   17.50    5.60
   3   1 -10   12.80    4.50
   3   1 -10   24.30    5.30
   3   1 -10   12.00    3.60
  -3  -1  10   10.50    7.40
   2   1 -10   -2.70    8.20
   2   1 -10    5.00    5.00
   2   1 -10    4.50    4.30
   2   1 -10    6.30    3.50
   2   1 -10    3.30    5.50
  -2  -1  10   10.60    3.50
   1   1 -10   66.19    8.90
   1   1 -10   60.29   10.70
   1   1 -10   62.29   12.50
   1   1 -10   71.89    9.80
   1   1 -10   85.59   16.00
  -1  -1  10   49.99    6.90
  -1  -1  10   67.69    7.50
   0   1 -10   69.89    9.00
   0   1 -10   53.59   11.90
   0   1 -10   83.89   10.00
   0  -1  10   79.29    7.80
   0  -1  10   69.69   12.10
   0  -1  10   52.59    9.70
  -1   1 -10   71.29   10.90
  -1   1 -10   77.89   12.70
  -1   1 -10   87.19    9.70
   1  -1  10   70.99    9.90
   1  -1  10   85.09    8.40
  -2   1 -10   91.79   10.00
  -2   1 -10   91.29   14.60
  -2   1 -10  104.29   10.60
   2  -1  10  102.59    9.50
   2  -1  10  100.29    9.20
  -3   1 -10  153.88   12.20
  -3   1 -10  149.19   10.40
   3  -1  10  168.28   10.10
   3  -1  10  162.98   11.20
  -4   1 -10  164.88    9.90
   4  -1  10  161.78   11.70
   4  -1  10  151.58    9.80
  -5   1 -10   78.69    5.70
   6   0 -10   18.50    4.50
  -6   0  10   19.40    3.70
   5   0 -10   17.90    4.20
   5   0 -10   16.80    3.60
   5   0 -10   19.50    5.40
  -5   0  10   26.60    3.80
  -5   0  10   14.70    3.50
   4   0 -10    7.50    3.20
   4   0 -10    5.40    4.50
   4   0 -10    2.30    5.20
   4   0 -10    6.50    3.70
   4   0 -10   -8.30    6.60
  -4   0  10    3.60    2.70
  -4   0  10    7.40    4.10
  -4   0  10    8.70    4.40
   3   0 -10   46.00    7.30
   3   0 -10   44.60    8.00
   3   0 -10   45.10    7.00
   3   0 -10   33.00    7.20
  -3   0  10   59.49    7.80
  -3   0  10   61.59    7.20
  -3   0  10   58.09    9.00
   2   0 -10   93.69    8.20
   2   0 -10   65.39   15.20
   2   0 -10   71.59   11.10
   2   0 -10   88.49   11.10
   2   0 -10   89.19    8.50
  -2   0  10   92.39   10.10
  -2   0  10   86.79    7.90
   1   0 -10   88.09   12.10
   1   0 -10   94.89    8.50
   1   0 -10   91.29    8.30
   1   0 -10   87.89   11.20
   1   0 -10   94.39   12.10
  -1   0  10  116.19    8.50
   0   0 -10   13.20    4.00
   0   0 -10   16.40    3.70
   0   0 -10   16.20    4.10
   0   0 -10   19.00    5.10
   0   0 -10   14.50    4.80
   0   0  10   12.80    3.70
   0   0  10    7.20    5.50
  -1   0 -10    8.50    4.60
  -1   0 -10   -1.20    5.00
  -1   0 -10    4.80    7.50
  -1   0 -10   -0.30    5.70
  -1   0 -10    7.00    5.10
   1   0  10    9.00    3.70
   1   0  10   -3.80    5.60
   1   0  10   -1.90    5.90
  -2   0 -10  522.05   30.80
  -2   0 -10  498.65   31.30
  -2   0 -10  563.04   30.10
   2   0  10  538.05   29.90
   2   0  10  540.95   29.90
  -3   0 -10   65.59    9.30
  -3   0 -10   59.69    8.60
  -3   0 -10   41.10    8.50
   3   0  10   66.59    7.70
   3   0  10   53.79    7.40
  -4   0 -10   99.39    9.60
  -4   0 -10   89.99    7.40
   4   0  10   93.49    8.10
   4   0  10   91.89    6.90
  -5   0 -10  144.19    9.20
   5   0  10  156.78   10.90
   5   0  10  149.69    9.20
  -6   1  10   -1.10    3.40
   5  -1 -10   14.90    3.90
   5  -1 -10   10.50    3.90
  -5   1  10    9.20    3.00
  -5   1  10   16.20    3.10
   4  -1 -10   71.89    8.90
   4  -1 -10   74.29    7.90
   4  -1 -10   58.39   11.00
   4  -1 -10   73.09    8.40
   4  -1 -10   61.59    8.10
  -4   1  10   84.89    7.80
   3  -1 -10   76.29   15.00
   3  -1 -10   85.79    7.80
   3  -1 -10   95.79    8.10
   3  -1 -10   92.69    8.90
  -3   1  10   84.89    8.70
  -3   1  10   90.79   10.00
  -3   1  10   91.89   10.60
   2  -1 -10  242.38   17.60
   2  -1 -10  231.78   14.40
   2  -1 -10  237.88   14.20
  -2   1  10  233.48   14.80
  -2   1  10  223.98   16.90
  -2   1  10  258.47   16.40
   1  -1 -10   23.70    5.40
   1  -1 -10   28.00    5.80
   1  -1 -10   21.50    4.00
   1  -1 -10   22.70    3.20
   1  -1 -10   25.20    5.50
  -1   1  10   32.30    6.10
  -1   1  10   29.70    9.50
  -1   1  10   27.80    5.40
   0  -1 -10   54.59    8.30
   0  -1 -10   52.29    6.50
   0  -1 -10   68.89    9.50
   0   1  10   61.79    6.80
   0   1  10   63.49    8.50
   0   1  10   52.49   10.10
  -1  -1 -10  721.83   40.40
  -1  -1 -10  772.12   40.20
  -1  -1 -10  706.13   39.40
  -1  -1 -10  737.53   39.60
  -1  -1 -10  770.42   40.30
   1   1  10  636.14   40.10
   1   1  10  760.02   39.80
  -2  -1 -10  216.08   16.20
  -2  -1 -10  231.58   14.90
  -2  -1 -10  241.28   16.30
  -2  -1 -10  205.88   15.40
  -2  -1 -10  228.88   18.60
   2   1  10  232.88   14.20
   2   1  10  216.58   16.40
  -3  -1 -10  195.08   13.30
  -3  -1 -10  188.18   14.50
  -3  -1 -10  204.58   16.50
   3   1  10  203.58   12.70
   3   1  10  185.58   13.30
  -4  -1 -10  170.98   27.20
  -4  -1 -10  213.28   13.40
  -4  -1 -10  189.48   12.30
   4   1  10  189.68   11.80
   4   1  10  177.48   11.70
  -5  -1 -10    2.60    4.30
   5   1  10   11.30    3.20
   5   1  10    5.60    2.60
  -6  -1 -10   65.69    5.60
   6   1  10   76.89    7.90
   6   1  10   79.19    6.20
   5  -2 -10    5.30    4.00
   5  -2 -10    6.70    5.00
  -5   2  10   12.60    2.80
  -5   2  10   19.10    2.80
   4  -2 -10   18.30    4.00
   4  -2 -10   10.70    3.80
   4  -2 -10   19.60    6.30
  -4   2  10   16.20    3.10
  -4   2  10   12.10    3.50
   3  -2 -10   56.39    6.80
   3  -2 -10   60.99    8.10
   3  -2 -10   67.79    7.00
  -3   2  10   63.39    9.10
  -3   2  10   50.49    8.30
   2  -2 -10  164.38   22.10
   2  -2 -10  184.68   18.60
   2  -2 -10  225.58   13.90
   2  -2 -10  210.58   13.00
   2  -2 -10  225.68   14.80
  -2   2  10  212.98   13.70
  -2   2  10  213.68   14.40
  -2   2  10  205.48   15.10
  -2   2  10  227.58   15.30
   1  -2 -10    5.40    2.50
   1  -2 -10    7.90    5.70
   1  -2 -10    5.40    5.00
   1  -2 -10    1.90    2.40
   1  -2 -10    3.80    3.50
  -1   2  10    7.00    3.30
  -1   2  10    2.10    5.30
  -1   2  10    8.30    4.70
  -1   2  10    7.80    4.90
   0  -2 -10  286.17   19.30
   0  -2 -10  317.37   18.60
   0  -2 -10  296.97   17.50
   0  -2 -10  303.27   17.30
   0  -2 -10  274.47   18.70
   0   2  10  318.37   18.00
   0   2  10  320.27   20.50
   0   2  10  343.07   19.30
  -1  -2 -10  325.17   18.60
  -1  -2 -10  298.47   17.40
  -1  -2 -10  310.17   18.60
  -1  -2 -10  313.57   18.80
  -1  -2 -10  302.57   17.60
   1   2  10  291.97   17.80
   1   2  10  305.87   19.10
  -2  -2 -10  201.58   13.20
  -2  -2 -10  206.78   14.80
  -2  -2 -10  192.98   13.10
  -2  -2 -10  226.88   14.40
   2   2  10  219.28   14.90
   2   2  10  221.98   13.30
  -3  -2 -10  326.07   22.70
  -3  -2 -10  374.76   24.80
  -3  -2 -10  384.76   21.70
  -3  -2 -10  365.56   22.80
   3   2  10  402.56   21.20
  -4  -2 -10   -0.60    8.40
  -4  -2 -10   11.40    4.10
  -4  -2 -10   12.10    4.40
   4   2  10    5.50    3.30
   4   2  10    3.10    3.80
  -5  -2 -10  157.68   10.40
  -5  -2 -10  164.18   10.40
   5   2  10  162.38    9.80
   5   2  10  140.79   10.20
   6   2  10   11.40    2.90
  -5   3  10   11.70    2.80
  -5   3  10   14.90    2.50
  -4   3  10   29.10    5.20
  -4   3  10   22.10    3.90
   3  -3 -10  106.19    8.40
   3  -3 -10  110.59   10.40
   3  -3 -10  100.39    8.80
  -3   3  10  110.79    9.50
  -3   3  10  111.99   10.70
   2  -3 -10   62.19    6.10
   2  -3 -10   68.79    6.50
   2  -3 -10   67.19    7.90
  -2   3  10   73.99    9.40
  -2   3  10   49.30    8.00
  -2   3  10   64.79    8.70
   1  -3 -10  183.38   14.30
   1  -3 -10  186.08   11.20
   1  -3 -10  181.98   11.50
   1  -3 -10  146.99   18.00
  -1   3  10  177.58   12.80
  -1   3  10  206.38   13.00
  -1   3  10  209.58   14.40
  -1   3  10  196.58   13.00
   0  -3 -10    8.30    4.20
   0  -3 -10    4.50    2.40
   0  -3 -10    2.90    3.30
   0  -3 -10    5.20    2.30
   0  -3 -10    5.10    5.70
   0   3  10   -0.70    3.90
   0   3  10    4.20    3.20
   0   3  10    3.00    4.60
  -1  -3 -10  465.05   24.80
  -1  -3 -10  460.75   25.70
  -1  -3 -10  461.15   24.60
   1   3  10  432.46   26.10
   1   3  10  431.66   26.10
   1   3  10  451.45   25.10
  -2  -3 -10   29.30    5.30
  -2  -3 -10   21.90    4.90
  -2  -3 -10   18.10    4.20
  -2  -3 -10   18.00    3.00
   2   3  10   24.10    3.60
   2   3  10   25.10    6.30
  -3  -3 -10   71.99    7.60
  -3  -3 -10   60.99    8.50
  -3  -3 -10   70.59    7.90
  -3  -3 -10   60.59    9.80
  -3  -3 -10   76.19    8.30
   3   3  10   82.89    6.90
   3   3  10   69.69    9.10
  -4  -3 -10   38.70    7.50
  -4  -3 -10   27.30    7.20
   4   3  10   45.50    5.70
  -5  -3 -10   62.59    7.80
   5   3  10   63.49    5.40
  -6  -3 -10   38.60    5.90
  -6  -3 -10   29.30    6.30
   6   3  10   41.00    4.30
  -4   4  10    0.70    2.40
  -4   4  10   -2.70    3.00
   3  -4 -10   93.59    8.90
   3  -4 -10   73.29    8.60
  -3   4  10   96.49    7.50
  -3   4  10   91.89    8.10
   2  -4 -10   74.59    7.10
   2  -4 -10   95.39    9.40
   2  -4 -10   78.09    7.50
  -2   4  10  100.39    8.90
  -2   4  10   99.49   10.40
  -2   4  10   92.79    8.30
   1  -4 -10  125.09    8.70
   1  -4 -10  123.09    8.40
   1  -4 -10  120.99   13.70
   1  -4 -10  135.99   10.10
  -1   4  10  131.99   11.90
  -1   4  10  125.89    9.90
  -1   4  10  136.09    9.80
   0  -4 -10   46.90    6.40
   0  -4 -10   45.40    5.20
   0  -4 -10   65.59   13.10
   0  -4 -10   45.10    7.50
   0   4  10   36.30    6.40
   0   4  10   52.89    7.50
   0   4  10   49.30    9.30
   0   4  10   39.70    7.40
  -1  -4 -10   10.80    4.40
  -1  -4 -10   21.70    5.90
  -1  -4 -10   23.40    4.50
   1   4  10   23.90    4.60
   1   4  10   17.70    3.30
   1   4  10   21.20    4.30
  -2  -4 -10   54.79    6.10
  -2  -4 -10   56.69    6.20
  -2  -4 -10   46.70    5.60
  -2  -4 -10   57.89    8.60
  -2  -4 -10   52.29    9.00
   2   4  10   59.49    7.70
   2   4  10   60.29    6.10
   2   4  10   67.99    8.10
  -3  -4 -10   57.49    9.50
  -3  -4 -10   61.39    8.00
  -3  -4 -10   62.79    7.10
  -3  -4 -10   61.49    6.70
   3   4  10   57.69    8.20
   3   4  10   73.69    6.50
   3   4  10   54.09    9.50
  -4  -4 -10  281.27   18.00
  -4  -4 -10  265.87   19.70
  -4  -4 -10  303.97   17.20
  -4  -4 -10  310.07   17.90
   4   4  10  311.27   16.90
   4   4  10  262.47   17.60
  -5  -4 -10   36.60    5.40
   5   4  10   41.50    4.30
  -6  -4 -10  113.59   10.00
   6   4  10  114.19    7.10
  -4   5  10   24.50    4.70
  -4   5  10   17.20    3.40
  -3   5  10   20.70    4.00
  -3   5  10   24.10    3.10
   2  -5 -10    9.00    4.20
   2  -5 -10    2.40    3.20
  -2   5  10    3.20    4.30
  -2   5  10    8.00    2.70
  -2   5  10    7.20    2.90
   1  -5 -10   55.29    6.20
   1  -5 -10   52.39    5.70
  -1   5  10   42.80    6.50
  -1   5  10   48.50    6.80
  -1   5  10   43.80    7.90
   0  -5 -10  228.78   12.90
   0  -5 -10  218.48   13.00
   0  -5 -10  224.38   13.70
   0  -5 -10  220.98   15.60
   0   5  10  221.98   13.90
   0   5  10  209.48   16.80
   0   5  10  221.28   13.90
  -1  -5 -10    2.50    2.60
  -1  -5 -10   -0.90    2.30
  -1  -5 -10   12.50    7.00
  -1  -5 -10   -2.60    4.10
  -1  -5 -10    2.80    2.50
   1   5  10    2.80    3.60
   1   5  10   -5.60    6.50
   1   5  10    0.70    3.40
  -2  -5 -10   52.59    9.10
  -2  -5 -10   75.29    9.60
  -2  -5 -10   67.59    6.10
  -2  -5 -10   63.99    6.30
  -2  -5 -10   71.89    6.50
   2   5  10   73.19    7.70
   2   5  10   82.39    7.90
   2   5  10   73.19    6.50
   2   5  10   79.49   12.50
  -3  -5 -10  103.69    8.00
  -3  -5 -10  116.99    7.90
  -3  -5 -10  102.49    8.00
  -3  -5 -10  114.59   10.50
  -3  -5 -10  111.59    9.60
   3   5  10  109.19    7.90
   3   5  10   98.89   10.60
   3   5  10  104.99    9.50
  -4  -5 -10   17.80    4.00
  -4  -5 -10   20.40    3.40
   4   5  10   21.70    3.70
   4   5  10   30.70    6.70
   4   5  10   28.90    4.10
  -5  -5 -10  155.78    9.50
   5   5  10  145.99    9.00
   6   5  10    2.40    1.80
  -3   6  10    8.70    2.60
  -3   6  10   13.20    5.10
  -2   6  10   25.60    6.00
  -2   6  10   38.70    5.00
  -2   6  10   42.60    4.70
   1  -6 -10   48.80    7.40
  -1   6  10   45.80    4.90
  -1   6  10   71.69   11.30
  -1   6  10   50.99    5.30
   0  -6 -10    2.50    6.50
   0  -6 -10    8.10    3.40
   0  -6 -10    3.40    2.90
   0   6  10    3.80    2.90
   0   6  10    4.10    2.40
  -1  -6 -10   78.99    6.60
  -1  -6 -10   84.49    7.30
  -1  -6 -10   75.69    6.40
  -1  -6 -10   58.69   10.70
   1   6  10   95.79    9.00
  -2  -6 -10    3.30    3.00
  -2  -6 -10    9.50    2.60
  -2  -6 -10    7.60    2.40
  -2  -6 -10    9.30    4.80
  -2  -6 -10   12.60    4.80
   2   6  10    7.30    2.90
   2   6  10    9.20    3.40
  -3  -6 -10   73.19   10.30
  -3  -6 -10   75.89    6.90
  -3  -6 -10   77.89    6.70
  -3  -6 -10   86.29    7.30
   3   6  10   82.39    5.80
   3   6  10   85.69    6.60
   3   6  10   83.29    6.80
  -4  -6 -10   48.10    7.70
  -4  -6 -10   62.69    6.20
  -4  -6 -10   48.50    5.90
   4   6  10   48.00    6.80
   4   6  10   59.29    5.70
   4   6  10   63.89    4.70
  -5  -6 -10   14.20    2.70
   5   6  10   19.90    3.20
   5   6  10   12.90    3.00
  -2   7  10    5.40    2.70
  -1   7  10   47.80    5.20
  -1   7  10   48.50    4.30
   0  -7 -10   99.19    8.50
   0   7  10   94.49    6.50
   0   7  10  100.69    7.00
  -1  -7 -10   27.50    6.50
  -1  -7 -10   35.50    5.80
   1   7  10   29.20    4.60
   1   7  10   31.60    3.90
  -2  -7 -10  139.89    9.30
  -2  -7 -10  146.79    9.30
   2   7  10  136.69    8.90
   2   7  10  133.19    8.60
  -3  -7 -10   75.59    6.60
  -3  -7 -10   76.09    8.10
  -3  -7 -10   81.59    7.10
   3   7  10   80.39    5.70
   3   7  10   75.79    6.20
  -4  -7 -10   83.19    7.00
  -4  -7 -10   81.89    6.80
   4   7  10   83.89    5.80
   4   7  10   56.89   12.60
   1   8  10   44.30    4.90
   1   8  10   43.20    4.00
  -2  -8 -10  135.59    9.00
   2   8  10  131.39    8.20
   2   8  10  124.99    8.00
  -3  -8 -10   28.20    5.20
   3   8  10   22.80    4.10
   3   8  10   16.80    2.30
   3   3 -11   27.50    3.90
  -3  -3  11   22.70    4.30
   2   3 -11   57.99    7.50
   2   3 -11   47.30    7.90
  -2  -3  11   62.09    6.10
   1   3 -11   10.10    5.20
   1   3 -11   14.90    4.30
  -1  -3  11   10.00    3.00
   0   3 -11   63.09    7.60
   0  -3  11   73.29    7.30
  -1   3 -11    7.00    3.10
   1  -3  11   -4.30    4.30
   1  -3  11    8.20    3.90
   4   2 -11   11.60    3.60
  -4  -2  11    7.90    2.10
   3   2 -11   42.00    7.30
  -3  -2  11   42.80    5.00
   2   2 -11   13.20    3.90
  -2  -2  11   -4.20    8.40
  -2  -2  11    8.10    2.70
  -1  -2  11   14.30    2.90
  -1  -2  11   14.90    5.30
   0   2 -11   30.90    5.30
   0   2 -11   21.30    4.40
   0  -2  11   31.30    5.40
   0  -2  11   25.50    5.00
   1  -2  11    8.10    4.30
   1  -2  11   11.00    3.10
  -2   2 -11   51.19    6.00
   2  -2  11   55.69    7.10
   2  -2  11   60.49    7.70
   4   1 -11   24.60    4.20
   4   1 -11   23.90    4.80
  -4  -1  11   25.40    4.40
  -4  -1  11   15.10    8.10
   3   1 -11   25.30    6.70
   3   1 -11   15.00    4.30
   3   1 -11   14.80    4.10
  -3  -1  11   14.60    2.60
  -3  -1  11   12.00    4.20
   2   1 -11   24.50    7.50
   2   1 -11   27.50    4.80
   2   1 -11   41.00    8.10
  -2  -1  11   30.40    4.70
  -2  -1  11   23.10    3.30
   1   1 -11    8.90    3.80
   1   1 -11   14.80    8.60
  -1  -1  11    7.30    4.20
  -1  -1  11    8.40    2.80
   0   1 -11   -3.80    7.80
   0   1 -11    0.60    7.00
   0   1 -11    6.00    3.50
   0  -1  11   -2.10    2.70
  -1   1 -11  224.78   15.10
  -1   1 -11  217.38   20.00
  -1   1 -11  227.38   14.30
   1  -1  11  229.08   13.70
  -2   1 -11   13.20    3.70
  -2   1 -11   15.10    4.10
   2  -1  11   10.80    3.10
   2  -1  11   10.90    4.10
  -3   1 -11  252.87   14.90
   3  -1  11  259.07   15.40
   5   0 -11   45.30   10.60
   5   0 -11   23.70    5.70
  -5   0  11   30.90    5.60
   4   0 -11    6.30    3.50
   4   0 -11   11.30    4.70
   4   0 -11   12.20    4.50
  -4   0  11    7.30    3.30
   3   0 -11   -2.90    4.30
   3   0 -11   -0.90    4.20
   3   0 -11    3.30    3.40
  -3   0  11    2.70    3.70
  -3   0  11    3.00    2.50
   2   0 -11   34.20    6.70
   2   0 -11   25.70    6.70
   2   0 -11   31.30    5.80
   2   0 -11   31.20   12.10
   2   0 -11   47.00    7.60
  -2   0  11   43.50    6.90
   1   0 -11   18.50    5.20
   1   0 -11   26.40    5.80
   1   0 -11   22.60    4.70
   1   0 -11   21.10    3.80
   1   0 -11   14.20    7.60
  -1   0  11   20.90    3.90
  -1   0  11   23.90    5.30
   0   0 -11   92.79   10.30
   0   0 -11  101.09   20.40
   0   0 -11  109.99   10.60
   0   0 -11   68.09   14.00
   0   0  11   96.59    8.30
  -1   0 -11   11.40    7.20
  -1   0 -11   19.90    4.90
  -1   0 -11    5.60    6.70
   1   0  11   15.20    3.70
  -2   0 -11   99.69   16.30
  -2   0 -11  115.39    9.50
  -2   0 -11  109.59   10.40
   2   0  11  115.49    8.20
  -3   0 -11   18.00    3.80
   3   0  11   12.30    4.00
   3   0  11   10.50    3.00
  -4   0 -11   55.59    5.70
   4   0  11   46.00    6.20
  -5   1  11    1.30    2.50
  -5   1  11    1.00    3.30
   4  -1 -11   12.30    3.60
   4  -1 -11   12.40    4.10
   4  -1 -11   14.80    6.00
  -4   1  11   14.20    4.00
   3  -1 -11   16.30    5.30
   3  -1 -11   34.10    7.30
   3  -1 -11   21.10    3.70
   3  -1 -11   16.70    4.60
  -3   1  11   26.10    4.70
  -3   1  11   18.60    3.80
   2  -1 -11   16.60    4.20
   2  -1 -11   20.90    3.60
   2  -1 -11   32.80    7.20
   2  -1 -11   15.60   12.90
  -2   1  11   32.00    5.70
   1  -1 -11    3.30    7.50
   1  -1 -11    5.20    2.90
   1  -1 -11    4.80    3.40
   1  -1 -11    4.60    4.00
   1  -1 -11    5.20    5.10
  -1   1  11    5.40    3.20
  -1   1  11    0.70    4.70
   0  -1 -11   54.19    7.70
   0  -1 -11   52.59    9.60
   0  -1 -11   51.59    8.10
   0  -1 -11   52.29    7.70
   0  -1 -11   52.29    8.90
   0   1  11   59.79    6.70
  -1  -1 -11  334.17   19.70
  -1  -1 -11  315.47   21.10
  -1  -1 -11  303.07   18.90
  -1  -1 -11  297.27   19.70
   1   1  11  325.27   18.60
  -2  -1 -11    3.10    6.70
  -2  -1 -11   16.90    4.70
   2   1  11   10.20    3.60
  -3  -1 -11   94.19    8.20
  -3  -1 -11   84.59    9.70
   3   1  11   91.69    7.00
  -4  -1 -11   76.49    7.30
  -4  -1 -11   82.89    7.90
   4   1  11   63.09    6.20
  -5  -1 -11    9.70    4.20
   5   1  11    8.50    3.30
   4  -2 -11    1.30    3.90
  -4   2  11    3.40    2.70
  -4   2  11    6.10    3.00
   3  -2 -11  122.89   10.00
   3  -2 -11  109.09   15.00
   3  -2 -11  112.59   10.10
   3  -2 -11   97.19    9.00
  -3   2  11   99.79    8.70
  -3   2  11   99.79    8.50
   2  -2 -11   17.30    3.60
   2  -2 -11   12.50    3.30
   2  -2 -11    7.80    5.60
   2  -2 -11   13.70    3.20
  -2   2  11   23.40    5.10
   1  -2 -11   43.90    6.60
   1  -2 -11   41.10    6.90
   1  -2 -11   42.60    6.70
   1  -2 -11   42.20    7.80
   1  -2 -11   36.80    7.10
  -1   2  11   40.30    9.60
  -1   2  11   40.10    7.60
  -1   2  11   40.30    6.80
  -1   2  11   45.50    8.20
   0  -2 -11   68.69    7.60
   0  -2 -11   63.69    8.00
   0  -2 -11   81.99   10.30
   0  -2 -11   78.59   12.10
   0  -2 -11   72.49    7.40
   0   2  11   73.09    7.20
   0   2  11   72.99    8.40
  -1  -2 -11  116.39    9.00
  -1  -2 -11  102.99    9.20
  -1  -2 -11  104.29   12.50
  -1  -2 -11  102.19    9.80
  -1  -2 -11  112.09   10.80
   1   2  11  120.09    8.70
  -2  -2 -11  106.09    9.50
  -2  -2 -11  105.79    9.80
  -2  -2 -11   91.19   10.70
  -2  -2 -11   89.99   12.20
   2   2  11  108.99    8.10
  -3  -2 -11  112.19    9.20
  -3  -2 -11   75.19   15.50
   3   2  11   99.09    7.10
  -4  -2 -11  118.79    8.70
  -4  -2 -11  106.19    9.90
   4   2  11  114.89    7.60
  -5  -2 -11   51.09    7.50
   5   2  11   72.19    5.50
   4  -3 -11   28.20    5.20
  -4   3  11   38.00    4.80
  -4   3  11   37.70    5.20
   3  -3 -11  137.19   10.50
   3  -3 -11  140.29   12.10
  -3   3  11  138.89    9.40
  -3   3  11  139.09    9.70
   2  -3 -11    4.50    3.40
   2  -3 -11    2.80    3.30
   2  -3 -11    8.70    3.50
  -2   3  11   14.60    3.50
  -2   3  11    6.70    3.90
  -2   3  11   10.70    3.90
   1  -3 -11   73.99    7.50
   1  -3 -11   81.89   15.50
   1  -3 -11   67.39    7.40
   1  -3 -11   78.19    8.10
   1  -3 -11   58.39   10.90
  -1   3  11   98.49   11.10
  -1   3  11   96.29    8.80
  -1   3  11  101.19    9.90
   0  -3 -11  300.77   16.70
   0  -3 -11  272.07   19.20
   0  -3 -11  307.87   18.80
   0  -3 -11  279.67   16.40
   0  -3 -11  272.87   16.40
   0   3  11  268.77   16.50
   0   3  11  274.67   18.20
   0   3  11  267.87   17.40
   0   3  11  284.67   18.10
  -1  -3 -11  288.87   17.00
  -1  -3 -11  286.67   17.00
  -1  -3 -11  279.37   19.30
  -1  -3 -11  307.17   17.10
  -1  -3 -11  307.07   18.50
   1   3  11  285.47   18.20
   1   3  11  291.47   17.10
  -2  -3 -11  213.78   16.10
  -2  -3 -11  219.28   13.90
  -2  -3 -11  225.48   13.90
  -2  -3 -11  198.58   14.20
  -2  -3 -11  237.48   14.80
   2   3  11  235.58   15.10
   2   3  11  232.48   13.60
  -3  -3 -11   65.59    8.70
  -3  -3 -11   76.79    8.20
   3   3  11   55.79    5.60
  -4  -3 -11  138.19    9.10
   4   3  11  131.39    8.40
  -5  -3 -11   74.29    6.70
   5   3  11   70.09    5.40
  -4   4  11   30.00    4.70
  -4   4  11   37.10    4.90
   3  -4 -11   13.40    4.70
  -3   4  11   17.10    2.80
  -3   4  11   15.70    3.30
   2  -4 -11   86.09    9.90
   2  -4 -11   86.49    8.20
  -2   4  11   72.29    7.40
  -2   4  11   85.19    7.70
  -2   4  11   90.99    7.00
   1  -4 -11   33.60    6.10
   1  -4 -11   50.49   12.50
   1  -4 -11   41.10    7.30
   1  -4 -11   33.40    6.20
  -1   4  11   37.50    5.40
  -1   4  11   43.40    7.00
  -1   4  11   40.80    5.90
   0  -4 -11  270.17   15.60
   0  -4 -11  263.67   17.60
   0  -4 -11  305.57   16.10
   0  -4 -11  262.17   15.50
   0  -4 -11  241.38   18.70
   0   4  11  260.77   16.50
   0   4  11  268.57   18.10
  -1  -4 -11  104.89    8.60
  -1  -4 -11  105.59    8.10
  -1  -4 -11   97.29   11.60
  -1  -4 -11  108.89    8.20
   1   4  11  134.49    9.50
  -2  -4 -11    2.00    5.40
  -2  -4 -11    8.10    2.90
  -2  -4 -11    6.00    3.70
  -2  -4 -11    5.00    2.70
   2   4  11    8.30    4.10
   2   4  11    7.70    4.30
  -3  -4 -11   85.39    7.90
  -3  -4 -11   70.19    9.00
  -3  -4 -11   89.29   12.60
   3   4  11   85.99    7.60
   3   4  11   92.89    6.20
   4   4  11   78.09    5.60
  -5  -4 -11    9.70    2.70
   5   4  11    3.60    1.90
  -3   5  11   54.69    5.30
  -3   5  11   53.89    6.50
   2  -5 -11    7.80    3.90
  -2   5  11   16.00    3.90
  -2   5  11   11.70    2.60
  -2   5  11   11.00    3.20
   1  -5 -11   42.10    7.00
   1  -5 -11   28.40    4.00
  -1   5  11   36.60    7.10
  -1   5  11   31.20    5.10
  -1   5  11   32.10    4.60
   0  -5 -11   30.50    6.80
   0  -5 -11   33.40    5.80
   0   5  11   33.60    4.70
   0   5  11   39.00    7.70
   0   5  11   37.30    5.50
  -1  -5 -11   12.90    4.90
  -1  -5 -11   13.30    6.00
   1   5  11   15.10    3.00
   1   5  11   13.70    3.20
   1   5  11   20.50    5.10
  -2  -5 -11  173.58   11.10
  -2  -5 -11  171.68   10.40
  -2  -5 -11  179.18   13.90
   2   5  11  165.38   10.40
   2   5  11  150.28    9.80
   2   5  11  151.68   10.40
   2   5  11  133.39   12.10
  -3  -5 -11   18.30    3.80
  -3  -5 -11   23.10    3.70
  -3  -5 -11   28.10    6.00
   3   5  11   31.70    6.30
   3   5  11   29.50    5.50
   3   5  11   26.40    4.10
   3   5  11   35.60    6.40
  -4  -5 -11   27.40    5.00
  -4  -5 -11   16.70    3.80
   4   5  11   24.60    3.60
   5   5  11  122.89    7.30
  -2   6  11   24.30    2.90
  -2   6  11   28.00    5.50
  -1   6  11   36.90    4.80
  -1   6  11   34.70    4.20
   0  -6 -11    7.90    3.20
   0   6  11    2.50    2.30
   0   6  11    6.50    2.40
  -1  -6 -11   73.89    7.00
   1   6  11   65.89    5.70
   1   6  11   72.29    6.00
  -2  -6 -11    2.20    2.90
   2   6  11    8.00    2.60
   2   6  11    7.70    2.60
  -3  -6 -11    8.60    3.50
  -3  -6 -11   18.60    3.70
   3   6  11   15.00    3.20
   3   6  11   14.40    2.90
  -4  -6 -11   62.29    5.80
  -4  -6 -11   49.50    8.00
   0   7  11  114.99    7.20
   0   7  11   99.59    6.70
   1   7  11   20.30    3.40
   1   7  11   26.60    4.50
   2   7  11   13.40    2.50
   2   7  11   12.80    2.50
   3   7  11   -0.50    2.40
   3   7  11   -0.10    3.30
   1   2 -12   73.89    7.80
  -1  -2  12   51.99    5.50
   0   2 -12   19.40    4.80
   0   2 -12   20.90    5.50
   0  -2  12   20.80    2.90
   3   1 -12    6.70    3.70
  -3  -1  12    3.90    5.10
   2   1 -12   23.40    4.00
  -2  -1  12   17.80    6.10
  -2  -1  12   30.00    4.20
   1   1 -12   20.10    3.80
  -1  -1  12   12.20    2.50
  -1  -1  12   21.60    4.00
   0   1 -12    5.10    3.70
   0  -1  12    7.60    3.70
   0  -1  12    4.50    2.40
  -1   1 -12   74.39   10.70
  -1   1 -12   99.29    8.80
   1  -1  12   97.79    6.90
  -2   1 -12   37.40    5.40
  -2   1 -12   20.80    4.10
   2  -1  12   30.20    5.10
   3   0 -12   41.50    7.70
   3   0 -12   33.80    5.10
  -3   0  12   29.80    5.30
   2   0 -12    8.50    7.20
   2   0 -12    6.30    3.80
  -2   0  12    3.40    2.20
  -2   0  12    7.40    3.30
   1   0 -12    1.00    3.50
  -1   0  12   -2.50    3.40
  -1   0  12    1.90    2.30
   0   0 -12   94.49    8.60
   0   0  12   96.09    8.10
   0   0  12  108.69    7.10
  -1   0 -12   46.50    6.90
   1   0  12   42.90    5.10
  -2   0 -12   52.29    6.90
   2   0  12   50.19    5.20
  -3   0 -12   36.60    7.00
  -3   0 -12   46.20    5.30
   3   0  12   51.89    5.30
   3  -1 -12   26.40    4.40
   3  -1 -12   27.00    5.30
  -3   1  12   37.80    4.90
   2  -1 -12    0.90    4.20
   2  -1 -12   -7.90    4.70
   2  -1 -12    6.40    3.50
  -2   1  12    4.70    2.40
   1  -1 -12   66.79    8.90
   1  -1 -12   72.39    8.10
  -1   1  12   62.09    5.70
  -1   1  12   47.10    6.50
   0  -1 -12    8.00    3.90
   0  -1 -12    3.70    5.80
   0  -1 -12   11.50    3.70
   0   1  12   10.90    3.30
   0   1  12    7.60    2.50
  -1  -1 -12  126.79   10.00
   1   1  12  133.79    8.50
  -2  -1 -12   96.99    8.40
   2   1  12   90.79    6.70
  -3  -1 -12    5.00    3.40
  -3  -1 -12    0.00    5.10
   3   1  12    3.60    2.30
   3  -2 -12   -6.20    4.60
   3  -2 -12   -8.40    7.50
   3  -2 -12   -0.10    3.70
  -3   2  12    5.00    2.70
   2  -2 -12    5.00    3.90
   2  -2 -12    8.20    3.30
   2  -2 -12   11.80    5.00
  -2   2  12    4.30    3.10
   1  -2 -12    7.50    3.10
   1  -2 -12    7.80    4.00
   1  -2 -12    1.30    4.30
  -1   2  12    1.10    3.30
  -1   2  12    1.00    2.50
   0  -2 -12  169.78   13.80
   0  -2 -12  213.08   13.10
   0  -2 -12  199.98   13.40
   0   2  12  201.58   12.50
   0   2  12  195.28   11.70
  -1  -2 -12  111.89   10.10
  -1  -2 -12  104.59    9.10
  -1  -2 -12   90.09   12.20
   1   2  12  109.49    7.40
  -2  -2 -12   24.10    3.70
   2   2  12   28.20    4.20
  -3  -2 -12    7.10    3.10
   3   2  12    7.90    2.20
  -4  -2 -12   27.90    3.80
   4   2  12   29.20    4.00
   3  -3 -12   10.40    4.30
  -3   3  12   16.70    2.80
  -3   3  12   20.50    3.40
   2  -3 -12   -5.00    3.70
   2  -3 -12   -2.70    3.50
  -2   3  12    5.60    3.60
  -2   3  12    2.20    3.00
   1  -3 -12   10.10    5.10
   1  -3 -12    7.00    3.60
   1  -3 -12    9.40    3.20
  -1   3  12   11.30    4.30
  -1   3  12    9.10    3.40
   0  -3 -12   84.79    9.70
   0  -3 -12   88.49    8.30
   0  -3 -12   96.89    8.70
   0   3  12   90.79    7.20
   0   3  12   83.99    7.80
  -1  -3 -12   31.90    6.80
  -1  -3 -12   19.60    4.30
  -1  -3 -12   24.20    4.10
   1   3  12   29.50    4.70
   1   3  12   33.60    5.80
  -2  -3 -12   90.69    9.70
  -2  -3 -12   86.29    8.00
   2   3  12   98.69    6.60
  -3  -3 -12   57.19    6.30
   3   3  12   46.40    4.70
  -4  -3 -12   15.10    3.00
   4   3  12   12.10    2.20
   2  -4 -12   18.30    4.20
  -2   4  12   22.40    3.20
  -2   4  12   18.80    3.30
   1  -4 -12   16.70    3.60
   1  -4 -12   38.00    8.00
  -1   4  12   23.20    3.60
  -1   4  12   21.70    4.80
  -1   4  12   24.90    3.50
   0  -4 -12   62.99   10.00
   0  -4 -12   52.59    7.40
   0   4  12   52.49    7.00
   0   4  12   46.40    6.40
   0   4  12   38.50    5.10
  -1  -4 -12  173.68   11.40
  -1  -4 -12  148.99   11.20
  -1  -4 -12  173.08   10.70
   1   4  12  160.48   11.20
   1   4  12  151.78   10.70
   1   4  12  140.49   10.00
  -2  -4 -12   11.30    3.50
  -2  -4 -12    9.10    3.00
  -2  -4 -12    3.60    4.10
   2   4  12   19.20    4.00
   2   4  12    9.10    3.00
   2   4  12   13.50    2.40
  -3  -4 -12   88.09    7.00
   3   4  12   84.59    5.90
   3   4  12   76.19    7.60
  -4  -4 -12   42.70    5.60
   4   4  12   43.80    4.10
   4   4  12   33.60    4.90
   1  -5 -12    2.90    3.80
  -1   5  12   -0.20    2.60
  -1   5  12    6.70    3.80
  -1   5  12    7.00    2.70
   0  -5 -12   61.89    8.10
   0  -5 -12   82.29   10.70
   0   5  12   64.59    5.50
   0   5  12   71.19    6.20
   0   5  12   63.79    7.60
  -1  -5 -12    6.90    3.50
  -1  -5 -12    8.50    3.00
   1   5  12    5.80    4.50
   1   5  12    5.00    2.50
   1   5  12   12.00    3.20
  -2  -5 -12   98.19    8.90
  -2  -5 -12   81.89    8.30
   2   5  12   84.69    6.50
   2   5  12   79.39    7.70
   2   5  12   62.19   10.90
  -3  -5 -12   41.00    8.20
  -3  -5 -12   49.60    6.10
   0  -6 -12   -2.70    3.40
   0   6  12    2.30    2.40
   0   6  12   -0.20    2.20
   1   6  12   80.39    5.70
   1   6  12   78.89    6.40
  -2  -6 -12   17.50    3.00
  -2  -6 -12   18.00    4.90
   2   6  12   17.50    4.00
   1  -1 -13   11.10    3.90
  -1   1  13   10.20    2.90
   0  -1 -13   29.80    4.00
   0   1  13   35.50    4.90
   0   1  13   35.70    4.30
   1   1  13   21.80    4.30
   1   1  13   19.80    4.00
   1  -2 -13   18.30    4.40
   1  -2 -13   24.90    6.20
   0  -2 -13  145.39   13.10
   0   2  13  132.29    9.00
  -1  -2 -13   36.70    6.70
   1   2  13   42.30    5.00
   1   2  13   38.40    4.60
  -2  -2 -13   -3.00    3.10
   2   2  13    3.00    2.60
   2   2  13    4.40    2.00
   1  -3 -13  105.09   10.60
  -1   3  13   83.39    6.70
   0  -3 -13   92.09    9.90
   0  -3 -13   66.79    9.40
   0   3  13   89.29    6.70
  -1  -3 -13   34.50    6.90
  -1  -3 -13   21.40    4.50
   1   3  13   33.80    5.00
  -2  -3 -13   56.59    6.90
   2   3  13   61.29    5.70
   0  -4 -13   10.10    3.70
   0  -4 -13   -2.60    6.10
   0   4  13   15.30    4.30
  -1  -4 -13   62.69    9.50
  -1  -4 -13   78.89    9.20
   1   4  13   62.39    9.90
   0   0   0    0.00    0.00

_computing_structure_solution     'SHELXT 2014/5 (Sheldrick, 2014)'
;
_shelx_hkl_checksum              41091
loop_
_space_group_symop_operation_xyz
'x, y, z'
loop_
_atom_site_label
_atom_site_type_symbol
_atom_site_fract_x
_atom_site_fract_y
_atom_site_fract_z
_atom_site_U_iso_or_equiv
_atom_site_adp_type
_atom_site_occupancy
_atom_site_site_symmetry_order
_atom_site_calc_flag
_atom_site_refinement_flags_posn
_atom_site_refinement_flags_adp
S1 S 0.80762(12) 0.82233(11) 0.54553(9) 0.0386(3) Uani 1 1 d . .
C1 C 0.8200(6) 0.9655(6) 0.3108(5) 0.0379(10) Uani 1 1 d . .
O1 O 0.9673(4) 0.6954(4) 0.5558(4) 0.0508(8) Uani 1 1 d . .
O3 O 0.8157(5) 0.9815(4) 0.4362(3) 0.0439(8) Uani 1 1 d . .
C3 C 0.8814(6) 1.0925(7) 0.1034(5) 0.0484(11) Uani 1 1 d . .
H3 H 0.9253 1.1758 0.0458 0.058 Uiso 1 1 calc R U
S2 S 0.18374(11) 0.23346(11) 0.46731(8) 0.0342(3) Uani 1 1 d . .
C2 C 0.8861(6) 1.0860(6) 0.2286(5) 0.0449(12) Uani 1 1 d . .
H2 H 0.9346 1.1643 0.2585 0.054 Uiso 1 1 calc R U
O2 O 0.7525(4) 0.8969(4) 0.6491(3) 0.0462(8) Uani 1 1 d . .
O4 O 0.3086(4) 0.1103(4) 0.4221(3) 0.0461(8) Uani 1 1 d . .
C4 C 0.8113(6) 0.9748(7) 0.0622(5) 0.0504(12) Uani 1 1 d . .
H4 H 0.8062 0.9785 -0.0242 0.060 Uiso 1 1 calc R U
O6 O 0.0958(4) 0.1423(4) 0.5860(3) 0.0431(8) Uani 1 1 d . .
C6 C 0.7514(5) 0.8442(6) 0.2740(4) 0.0366(9) Uani 1 1 d . .
O5 O 0.0372(4) 0.3362(4) 0.3893(3) 0.0424(7) Uani 1 1 d . .
C5 C 0.7490(6) 0.8524(7) 0.1467(5) 0.0443(10) Uani 1 1 d . .
H5 H 0.7035 0.7721 0.1171 0.053 Uiso 1 1 calc R U
C9 C 0.5554(5) 0.6365(6) 0.3108(4) 0.0349(9) Uani 1 1 d . .
C8 C 0.6362(5) 0.7539(5) 0.4872(4) 0.0351(9) Uani 1 1 d . .
H8A H 0.6102 0.6563 0.5489 0.042 Uiso 1 1 calc R U
H8B H 0.5282 0.8478 0.4712 0.042 Uiso 1 1 calc R U
C7 C 0.6944(5) 0.7005(5) 0.3669(4) 0.0356(9) Uani 1 1 d . .
H7 H 0.8004 0.6026 0.3883 0.043 Uiso 1 1 calc R U
C10 C 0.3815(6) 0.7304(5) 0.2894(4) 0.0327(8) Uani 1 1 d . .
H10 H 0.3436 0.8351 0.3144 0.039 Uiso 1 1 calc R U
C11 C 0.2628(5) 0.6688(6) 0.2307(4) 0.0369(9) Uani 1 1 d . .
H11 H 0.1434 0.7311 0.2184 0.044 Uiso 1 1 calc R U
C12 C 0.3162(6) 0.5189(6) 0.1902(4) 0.0395(10) Uani 1 1 d . .
C13 C 0.4875(7) 0.4254(7) 0.2150(5) 0.0524(12) Uani 1 1 d . .
H13 H 0.5253 0.3197 0.1914 0.063 Uiso 1 1 calc R U
C14 C 0.6053(6) 0.4845(7) 0.2742(5) 0.0493(12) Uani 1 1 d . .
H14 H 0.7232 0.4186 0.2900 0.059 Uiso 1 1 calc R U
C15 C 0.1903(7) 0.4585(8) 0.1204(5) 0.0527(13) Uani 1 1 d . .
H15A H 0.2195 0.4766 0.0323 0.079 Uiso 1 1 calc R U
H15B H 0.0698 0.5231 0.1284 0.079 Uiso 1 1 calc R U
H15C H 0.2001 0.3367 0.1552 0.079 Uiso 1 1 calc R U
C16 C 0.1920(6) 0.0730(6) 0.7009(4) 0.0352(9) Uani 1 1 d . .
C17 C 0.1190(7) -0.0398(6) 0.7856(5) 0.0432(11) Uani 1 1 d . .
H17 H 0.0189 -0.0730 0.7630 0.052 Uiso 1 1 calc R U
C18 C 0.1938(6) -0.1028(7) 0.9029(5) 0.0454(11) Uani 1 1 d . .
H18 H 0.1458 -0.1813 0.9619 0.054 Uiso 1 1 calc R U
C19 C 0.3383(7) -0.0533(7) 0.9362(5) 0.0521(12) Uani 1 1 d . .
H19 H 0.3871 -0.0937 1.0185 0.063 Uiso 1 1 calc R U
C20 C 0.4105(6) 0.0554(7) 0.8484(5) 0.0480(11) Uani 1 1 d . .
H20 H 0.5143 0.0833 0.8702 0.058 Uiso 1 1 calc R U
C21 C 0.3377(5) 0.1259(5) 0.7289(4) 0.0348(9) Uani 1 1 d . .
C22 C 0.4235(5) 0.2419(6) 0.6318(4) 0.0343(9) Uani 1 1 d . .
H22 H 0.5130 0.1677 0.5894 0.041 Uiso 1 1 calc R U
C23 C 0.2874(6) 0.3609(5) 0.5325(4) 0.0347(9) Uani 1 1 d . .
H23A H 0.3463 0.4294 0.4671 0.042 Uiso 1 1 calc R U
H23B H 0.1994 0.4400 0.5707 0.042 Uiso 1 1 calc R U
C24 C 0.5183(6) 0.3449(6) 0.6921(4) 0.0345(9) Uani 1 1 d . .
C25 C 0.4306(7) 0.4667(8) 0.7525(5) 0.0525(13) Uani 1 1 d . .
H25 H 0.3057 0.4959 0.7513 0.063 Uiso 1 1 calc R U
C26 C 0.5235(7) 0.5481(8) 0.8158(6) 0.0604(15) Uani 1 1 d . .
H26 H 0.4607 0.6339 0.8552 0.073 Uiso 1 1 calc R U
C27 C 0.7066(7) 0.5050(7) 0.8217(4) 0.0430(11) Uani 1 1 d . .
C28 C 0.7915(6) 0.3838(6) 0.7595(4) 0.0385(10) Uani 1 1 d . .
H28 H 0.9163 0.3534 0.7609 0.046 Uiso 1 1 calc R U
C29 C 0.6995(6) 0.3048(6) 0.6949(4) 0.0365(9) Uani 1 1 d . .
H29 H 0.7621 0.2225 0.6524 0.044 Uiso 1 1 calc R U
C30 C 0.8048(9) 0.5856(8) 0.8960(6) 0.0588(15) Uani 1 1 d . .
H30A H 0.9217 0.5844 0.8621 0.088 Uiso 1 1 calc R U
H30B H 0.8171 0.5212 0.9829 0.088 Uiso 1 1 calc R U
H30C H 0.7398 0.7038 0.8915 0.088 Uiso 1 1 calc R U
loop_
_atom_site_aniso_label
_atom_site_aniso_U_11
_atom_site_aniso_U_22
_atom_site_aniso_U_33
_atom_site_aniso_U_23
_atom_site_aniso_U_13
_atom_site_aniso_U_12
S1 0.0422(6) 0.0313(5) 0.0433(6) -0.0147(4) -0.0145(4) -0.0037(4)
C1 0.032(2) 0.038(2) 0.045(2) -0.0180(19) -0.0100(18) -0.0002(18)
O1 0.0396(17) 0.0458(18) 0.069(2) -0.0254(17) -0.0176(16) 0.0000(15)
O3 0.0571(19) 0.0342(16) 0.0452(18) -0.0176(14) -0.0063(15) -0.0112(15)
C3 0.041(2) 0.052(3) 0.048(3) -0.008(2) 0.002(2) -0.005(2)
S2 0.0355(5) 0.0326(5) 0.0350(5) -0.0091(4) -0.0115(4) -0.0065(4)
C2 0.044(3) 0.036(2) 0.057(3) -0.013(2) -0.007(2) -0.011(2)
O2 0.0550(19) 0.0406(17) 0.0458(17) -0.0206(14) -0.0110(15) -0.0057(16)
O4 0.0423(17) 0.0452(18) 0.0524(19) -0.0223(15) -0.0092(14) -0.0022(15)
C4 0.041(2) 0.065(3) 0.049(3) -0.020(2) -0.002(2) -0.014(2)
O6 0.0340(15) 0.0537(19) 0.0420(17) -0.0075(15) -0.0097(13) -0.0139(14)
C6 0.0237(17) 0.040(2) 0.047(2) -0.0189(19) -0.0043(17) -0.0021(17)
O5 0.0366(16) 0.0374(16) 0.0504(18) -0.0102(14) -0.0149(13) -0.0020(13)
C5 0.032(2) 0.059(3) 0.047(2) -0.025(2) -0.0026(18) -0.009(2)
C9 0.030(2) 0.036(2) 0.040(2) -0.0138(19) -0.0058(17) -0.0048(19)
C8 0.033(2) 0.027(2) 0.045(2) -0.0131(17) -0.0100(17) 0.0002(17)
C7 0.0274(19) 0.035(2) 0.045(2) -0.0148(18) -0.0134(17) -0.0022(17)
C10 0.031(2) 0.030(2) 0.036(2) -0.0091(16) -0.0041(16) -0.0046(17)
C11 0.0278(19) 0.043(2) 0.036(2) -0.0044(18) -0.0052(16) -0.0063(19)
C12 0.039(2) 0.051(3) 0.032(2) -0.008(2) -0.0070(17) -0.019(2)
C13 0.044(3) 0.056(3) 0.065(3) -0.036(3) -0.012(2) -0.005(2)
C14 0.034(2) 0.051(3) 0.070(3) -0.037(3) -0.013(2) -0.001(2)
C15 0.057(3) 0.071(4) 0.040(3) -0.015(3) -0.014(2) -0.031(3)
C16 0.0315(19) 0.036(2) 0.036(2) -0.0079(17) -0.0075(17) -0.0029(17)
C17 0.040(2) 0.040(3) 0.051(3) -0.008(2) -0.002(2) -0.013(2)
C18 0.039(2) 0.044(3) 0.045(3) -0.002(2) 0.0004(19) -0.004(2)
C19 0.054(3) 0.060(3) 0.038(2) 0.000(2) -0.009(2) -0.013(3)
C20 0.037(2) 0.059(3) 0.045(2) -0.008(2) -0.0119(19) -0.010(2)
C21 0.0319(19) 0.038(2) 0.035(2) -0.0103(18) -0.0032(16) -0.0072(17)
C22 0.031(2) 0.037(2) 0.035(2) -0.0123(17) -0.0045(16) -0.0050(17)
C23 0.037(2) 0.028(2) 0.039(2) -0.0107(17) -0.0100(18) -0.0046(18)
C24 0.031(2) 0.039(2) 0.034(2) -0.0118(18) -0.0054(17) -0.0072(19)
C25 0.036(2) 0.064(3) 0.068(3) -0.046(3) 0.000(2) -0.004(2)
C26 0.047(3) 0.075(4) 0.070(4) -0.051(3) -0.003(2) -0.003(3)
C27 0.046(3) 0.049(3) 0.037(2) -0.012(2) -0.0100(19) -0.014(2)
C28 0.034(2) 0.041(2) 0.039(2) -0.0101(19) -0.0123(18) -0.0060(19)
C29 0.035(2) 0.036(2) 0.040(2) -0.0116(18) -0.0040(17) -0.0062(18)
C30 0.072(4) 0.063(3) 0.051(3) -0.024(3) -0.017(3) -0.022(3)
loop_
_atom_type_symbol
_atom_type_description
_atom_type_scat_dispersion_real
_atom_type_scat_dispersion_imag
_atom_type_scat_source
C C 0.0181 0.0091 'International Tables Vol C Tables 4.2.6.8 and 6.1.1.4'
H H 0.0000 0.0000 'International Tables Vol C Tables 4.2.6.8 and 6.1.1.4'
O O 0.0492 0.0322 'International Tables Vol C Tables 4.2.6.8 and 6.1.1.4'
S S 0.3331 0.5567 'International Tables Vol C Tables 4.2.6.8 and 6.1.1.4'
loop_
_geom_angle_atom_site_label_1
_geom_angle_atom_site_label_2
_geom_angle_atom_site_label_3
_geom_angle
O1 S1 O2 119.3(2)
O1 S1 O3 110.2(2)
O2 S1 O3 103.54(18)
O1 S1 C8 110.3(2)
O2 S1 C8 111.4(2)
O3 S1 C8 100.2(2)
C2 C1 C6 123.2(5)
C2 C1 O3 114.8(4)
C6 C1 O3 121.8(4)
C1 O3 S1 119.9(3)
C2 C3 C4 118.9(5)
C2 C3 H3 120.5
C4 C3 H3 120.5
O4 S2 O5 119.3(2)
O4 S2 O6 109.6(2)
O5 S2 O6 103.53(18)
O4 S2 C23 110.9(2)
O5 S2 C23 110.79(19)
O6 S2 C23 100.99(19)
C3 C2 C1 119.8(5)
C3 C2 H2 120.1
C1 C2 H2 120.1
C5 C4 C3 120.3(5)
C5 C4 H4 119.9
C3 C4 H4 119.9
C16 O6 S2 120.6(3)
C1 C6 C5 116.0(4)
C1 C6 C7 122.8(4)
C5 C6 C7 121.0(4)
C4 C5 C6 121.7(4)
C4 C5 H5 119.1
C6 C5 H5 119.1
C14 C9 C10 118.8(4)
C14 C9 C7 118.9(4)
C10 C9 C7 122.3(4)
C7 C8 S1 108.6(3)
C7 C8 H8A 110.0
S1 C8 H8A 110.0
C7 C8 H8B 110.0
S1 C8 H8B 110.0
H8A C8 H8B 108.4
C8 C7 C9 112.3(3)
C8 C7 C6 111.0(3)
C9 C7 C6 112.2(3)
C8 C7 H7 107.0
C9 C7 H7 107.0
C6 C7 H7 107.0
C9 C10 C11 119.3(4)
C9 C10 H10 120.3
C11 C10 H10 120.3
C12 C11 C10 121.4(4)
C12 C11 H11 119.3
C10 C11 H11 119.3
C13 C12 C11 118.4(4)
C13 C12 C15 120.4(5)
C11 C12 C15 121.1(4)
C12 C13 C14 120.5(5)
C12 C13 H13 119.8
C14 C13 H13 119.8
C9 C14 C13 121.6(4)
C9 C14 H14 119.2
C13 C14 H14 119.2
C12 C15 H15A 109.5
C12 C15 H15B 109.5
H15A C15 H15B 109.5
C12 C15 H15C 109.5
H15A C15 H15C 109.5
H15B C15 H15C 109.5
C17 C16 C21 123.1(4)
C17 C16 O6 114.2(4)
C21 C16 O6 122.4(4)
C18 C17 C16 118.6(4)
C18 C17 H17 120.7
C16 C17 H17 120.7
C17 C18 C19 120.7(4)
C17 C18 H18 119.7
C19 C18 H18 119.7
C20 C19 C18 119.1(4)
C20 C19 H19 120.5
C18 C19 H19 120.5
C19 C20 C21 122.6(4)
C19 C20 H20 118.7
C21 C20 H20 118.7
C16 C21 C20 115.8(4)
C16 C21 C22 122.4(4)
C20 C21 C22 121.6(4)
C24 C22 C21 111.4(3)
C24 C22 C23 110.6(3)
C21 C22 C23 111.1(3)
C24 C22 H22 107.9
C21 C22 H22 107.9
C23 C22 H22 107.9
C22 C23 S2 108.1(3)
C22 C23 H23A 110.1
S2 C23 H23A 110.1
C22 C23 H23B 110.1
S2 C23 H23B 110.1
H23A C23 H23B 108.4
C25 C24 C29 118.6(4)
C25 C24 C22 122.5(4)
C29 C24 C22 118.6(4)
C24 C25 C26 120.7(5)
C24 C25 H25 119.6
C26 C25 H25 119.6
C27 C26 C25 120.9(5)
C27 C26 H26 119.5
C25 C26 H26 119.5
C28 C27 C26 117.3(4)
C28 C27 C30 122.2(5)
C26 C27 C30 120.5(5)
C27 C28 C29 121.9(4)
C27 C28 H28 119.0
C29 C28 H28 119.0
C24 C29 C28 120.5(4)
C24 C29 H29 119.8
C28 C29 H29 119.8
C27 C30 H30A 109.5
C27 C30 H30B 109.5
H30A C30 H30B 109.5
C27 C30 H30C 109.5
H30A C30 H30C 109.5
H30B C30 H30C 109.5
loop_
_geom_bond_atom_site_label_1
_geom_bond_atom_site_label_2
_geom_bond_distance
S1 O1 1.415(4)
S1 O2 1.434(3)
S1 O3 1.584(3)
S1 C8 1.770(4)
C1 C2 1.379(7)
C1 C6 1.391(6)
C1 O3 1.422(6)
C3 C2 1.375(8)
C3 C4 1.396(7)
C3 H3 0.9500
S2 O4 1.407(4)
S2 O5 1.423(3)
S2 O6 1.587(3)
S2 C23 1.762(4)
C2 H2 0.9500
C4 C5 1.387(7)
C4 H4 0.9500
O6 C16 1.419(5)
C6 C5 1.395(6)
C6 C7 1.532(6)
C5 H5 0.9500
C9 C14 1.377(6)
C9 C10 1.393(6)
C9 C7 1.526(5)
C8 C7 1.523(6)
C8 H8A 0.9900
C8 H8B 0.9900
C7 H7 1.0000
C10 C11 1.402(6)
C10 H10 0.9500
C11 C12 1.387(7)
C11 H11 0.9500
C12 C13 1.377(7)
C12 C15 1.510(6)
C13 C14 1.388(6)
C13 H13 0.9500
C14 H14 0.9500
C15 H15A 0.9800
C15 H15B 0.9800
C15 H15C 0.9800
C16 C17 1.382(7)
C16 C21 1.386(6)
C17 C18 1.369(7)
C17 H17 0.9500
C18 C19 1.381(7)
C18 H18 0.9500
C19 C20 1.376(7)
C19 H19 0.9500
C20 C21 1.390(6)
C20 H20 0.9500
C21 C22 1.527(6)
C22 C24 1.526(5)
C22 C23 1.538(5)
C22 H22 1.0000
C23 H23A 0.9900
C23 H23B 0.9900
C24 C25 1.376(7)
C24 C29 1.379(6)
C25 C26 1.401(7)
C25 H25 0.9500
C26 C27 1.393(7)
C26 H26 0.9500
C27 C28 1.379(7)
C27 C30 1.502(7)
C28 C29 1.391(6)
C28 H28 0.9500
C29 H29 0.9500
C30 H30A 0.9800
C30 H30B 0.9800
C30 H30C 0.9800
loop_
_geom_torsion_atom_site_label_1
_geom_torsion_atom_site_label_2
_geom_torsion_atom_site_label_3
_geom_torsion_atom_site_label_4
_geom_torsion
C2 C1 O3 S1 -158.8(3)
C6 C1 O3 S1 25.3(6)
O1 S1 O3 C1 68.0(4)
O2 S1 O3 C1 -163.3(3)
C8 S1 O3 C1 -48.1(4)
C4 C3 C2 C1 -0.7(8)
C6 C1 C2 C3 1.8(7)
O3 C1 C2 C3 -174.1(5)
C2 C3 C4 C5 -0.6(8)
O4 S2 O6 C16 72.2(4)
O5 S2 O6 C16 -159.5(3)
C23 S2 O6 C16 -44.8(4)
C2 C1 C6 C5 -1.4(7)
O3 C1 C6 C5 174.2(4)
C2 C1 C6 C7 174.0(4)
O3 C1 C6 C7 -10.4(7)
C3 C4 C5 C6 1.0(7)
C1 C6 C5 C4 -0.1(7)
C7 C6 C5 C4 -175.6(4)
O1 S1 C8 C7 -53.3(4)
O2 S1 C8 C7 171.8(3)
O3 S1 C8 C7 62.8(3)
S1 C8 C7 C9 179.1(3)
S1 C8 C7 C6 -54.5(4)
C14 C9 C7 C8 -131.3(4)
C10 C9 C7 C8 51.9(5)
C14 C9 C7 C6 102.9(5)
C10 C9 C7 C6 -73.9(5)
C1 C6 C7 C8 28.2(5)
C5 C6 C7 C8 -156.7(4)
C1 C6 C7 C9 154.6(4)
C5 C6 C7 C9 -30.2(6)
C14 C9 C10 C11 -0.5(6)
C7 C9 C10 C11 176.2(4)
C9 C10 C11 C12 -1.9(6)
C10 C11 C12 C13 3.6(7)
C10 C11 C12 C15 -176.4(4)
C11 C12 C13 C14 -2.9(8)
C15 C12 C13 C14 177.2(5)
C10 C9 C14 C13 1.2(8)
C7 C9 C14 C13 -175.6(5)
C12 C13 C14 C9 0.5(8)
S2 O6 C16 C17 -163.8(3)
S2 O6 C16 C21 21.5(6)
C21 C16 C17 C18 -0.1(8)
O6 C16 C17 C18 -174.7(4)
C16 C17 C18 C19 0.6(8)
C17 C18 C19 C20 -2.5(8)
C18 C19 C20 C21 3.9(8)
C17 C16 C21 C20 1.3(7)
O6 C16 C21 C20 175.5(4)
C17 C16 C21 C22 176.1(4)
O6 C16 C21 C22 -9.7(7)
C19 C20 C21 C16 -3.3(8)
C19 C20 C21 C22 -178.1(5)
C16 C21 C22 C24 153.7(4)
C20 C21 C22 C24 -31.9(6)
C16 C21 C22 C23 29.9(6)
C20 C21 C22 C23 -155.7(4)
C24 C22 C23 S2 -180.0(3)
C21 C22 C23 S2 -55.8(4)
O4 S2 C23 C22 -54.6(3)
O5 S2 C23 C22 170.6(3)
O6 S2 C23 C22 61.4(3)
C21 C22 C24 C25 -65.4(6)
C23 C22 C24 C25 58.6(6)
C21 C22 C24 C29 109.2(4)
C23 C22 C24 C29 -126.8(4)
C29 C24 C25 C26 -0.1(8)
C22 C24 C25 C26 174.5(5)
C24 C25 C26 C27 -1.6(10)
C25 C26 C27 C28 2.1(9)
C25 C26 C27 C30 -176.4(5)
C26 C27 C28 C29 -1.0(7)
C30 C27 C28 C29 177.4(5)
C25 C24 C29 C28 1.2(7)
C22 C24 C29 C28 -173.6(4)
C27 C28 C29 C24 -0.6(7)
