#------------------------------------------------------------------------------
#$Date: 2017-11-07 03:24:45 +0200 (Tue, 07 Nov 2017) $
#$Revision: 202837 $
#$URL: file:///home/coder/svn-repositories/cod/cif/1/54/75/1547514.cif $
#------------------------------------------------------------------------------
#
# This file is available in the Crystallography Open Database (COD),
# http://www.crystallography.net/
#
# All data on this site have been placed in the public domain by the
# contributors.
#
data_1547514
loop_
_publ_author_name
'Shemet, Andrej'
'Carreira, Erick M.'
_publ_section_title
;
 Total Synthesis of (-)-Rhazinilam and Formal Synthesis of (+)-Eburenine
 and (+)-Aspidospermidine: Asymmetric Cu-Catalyzed Propargylic
 Substitution.
;
_journal_issue                   20
_journal_name_full               'Organic letters'
_journal_page_first              5529
_journal_page_last               5532
_journal_paper_doi               10.1021/acs.orglett.7b02619
_journal_volume                  19
_journal_year                    2017
_chemical_formula_moiety         'C13 H15 N O2'
_chemical_formula_sum            'C13 H15 N O2'
_chemical_formula_weight         217.26
_chemical_name_systematic
'3-(8-ethyl-5,6,7,8-tetrahydroindolizin-8-yl)propiolic acid'
_space_group_crystal_system      triclinic
_space_group_IT_number           2
_space_group_name_Hall           '-P 1'
_space_group_name_H-M_alt        'P -1'
_symmetry_space_group_name_Hall  '-P 1'
_symmetry_space_group_name_H-M   'P -1'
_atom_sites_solution_hydrogens   mixed
_atom_sites_solution_primary     dual
_audit_creation_date             2016-09-30
_audit_creation_method
;
Olex2 1.2
(compiled 2016.09.09 svn.r3337 for OlexSys, GUI svn.r5227)
;
_cell_angle_alpha                108.041(2)
_cell_angle_beta                 101.319(2)
_cell_angle_gamma                98.946(2)
_cell_formula_units_Z            2
_cell_length_a                   7.3581(6)
_cell_length_b                   9.0853(7)
_cell_length_c                   9.4911(7)
_cell_measurement_reflns_used    4178
_cell_measurement_temperature    100.0(1)
_cell_measurement_theta_max      30.54
_cell_measurement_theta_min      2.71
_cell_volume                     575.42(8)
_computing_cell_refinement       'Bruker SAINT'
_computing_data_collection       'Bruker APEX2'
_computing_data_reduction        'Bruker SAINT'
_computing_molecular_graphics    'Olex2 (Dolomanov et al., 2009)'
_computing_publication_material  'Olex2 (Dolomanov et al., 2009)'
_computing_structure_refinement  'XL (Sheldrick, 2008)'
_computing_structure_solution    'XS (Sheldrick, 2008)'
_diffrn_ambient_temperature      100.0(1)
_diffrn_detector                 'Bruker APEX2 area detector'
_diffrn_detector_area_resol_mean 8.33
_diffrn_detector_type            'CCD area detector'
_diffrn_measured_fraction_theta_full 1.000
_diffrn_measured_fraction_theta_max 0.999
_diffrn_measurement_device       'kappa-stage diffractometer'
_diffrn_measurement_device_type  'Bruker Kappa Apex2 Duo'
_diffrn_measurement_method       '\w and \f scans'
_diffrn_radiation_monochromator  'focusing graphite'
_diffrn_radiation_probe          x-ray
_diffrn_radiation_type           MoK\a
_diffrn_radiation_wavelength     0.71073
_diffrn_reflns_av_R_equivalents  0.0273
_diffrn_reflns_av_unetI/netI     0.0254
_diffrn_reflns_Laue_measured_fraction_full 1.000
_diffrn_reflns_Laue_measured_fraction_max 0.999
_diffrn_reflns_limit_h_max       10
_diffrn_reflns_limit_h_min       -10
_diffrn_reflns_limit_k_max       12
_diffrn_reflns_limit_k_min       -12
_diffrn_reflns_limit_l_max       13
_diffrn_reflns_limit_l_min       -13
_diffrn_reflns_number            13500
_diffrn_reflns_point_group_measured_fraction_full 1.000
_diffrn_reflns_point_group_measured_fraction_max 0.999
_diffrn_reflns_theta_full        26.000
_diffrn_reflns_theta_max         30.552
_diffrn_reflns_theta_min         2.337
_diffrn_source                   'sealed tube'
_diffrn_standards_number         0
_exptl_absorpt_coefficient_mu    0.085
_exptl_absorpt_correction_T_max  0.7461
_exptl_absorpt_correction_T_min  0.7107
_exptl_absorpt_correction_type   multi-scan
_exptl_absorpt_process_details
;
SADABS-2014/5 (Bruker,2014/5) was used for absorption correction.
wR2(int) was 0.0439 before and 0.0389 after correction.
The Ratio of minimum to maximum transmission is 0.9526.
The \l/2 correction factor is 0.00150.
;
_exptl_crystal_colour            'clear colourless'
_exptl_crystal_colour_lustre     clear
_exptl_crystal_colour_primary    colourless
_exptl_crystal_density_diffrn    1.254
_exptl_crystal_description       block
_exptl_crystal_F_000             232
_exptl_crystal_size_max          0.21
_exptl_crystal_size_mid          0.14
_exptl_crystal_size_min          0.08
_refine_diff_density_max         0.516
_refine_diff_density_min         -0.227
_refine_diff_density_rms         0.051
_refine_ls_extinction_method     none
_refine_ls_goodness_of_fit_ref   1.026
_refine_ls_hydrogen_treatment    mixed
_refine_ls_matrix_type           full
_refine_ls_number_parameters     149
_refine_ls_number_reflns         3523
_refine_ls_number_restraints     1
_refine_ls_restrained_S_all      1.026
_refine_ls_R_factor_all          0.0565
_refine_ls_R_factor_gt           0.0442
_refine_ls_shift/su_max          0.000
_refine_ls_shift/su_mean         0.000
_refine_ls_structure_factor_coef Fsqd
_refine_ls_weighting_details
'w=1/[\s^2^(Fo^2^)+(0.0525P)^2^+0.2711P] where P=(Fo^2^+2Fc^2^)/3'
_refine_ls_weighting_scheme      calc
_refine_ls_wR_factor_gt          0.1091
_refine_ls_wR_factor_ref         0.1175
_reflns_Friedel_coverage         0.000
_reflns_number_gt                2900
_reflns_number_total             3523
_reflns_threshold_expression     'I > 2\s(I)'
_cod_data_source_file            ol7b02619_si_003.cif
_cod_data_source_block           mo_ca220916_1_1_0m
_cod_depositor_comments
'Adding full bibliography for 1547514--1547515.cif.'
_cod_database_code               1547514
_shelx_space_group_comment
;
The symmetry employed for this shelxl refinement is uniquely defined
by the following loop, which should always be used as a source of
symmetry information in preference to the above space-group names.
They are only intended as comments.
;
_shelx_estimated_absorpt_t_max   0.993
_shelx_estimated_absorpt_t_min   0.982
_olex2_refinement_description
;
1. Fixed Uiso
 At 1.2 times of:
  All C(H) groups, All C(H,H) groups
 At 1.5 times of:
  All C(H,H,H) groups, All O(H) groups
2. Restrained distances
 O2-H2
 0.91 with sigma of 0.01
3.a Secondary CH2 refined with riding coordinates:
 C5(H5A,H5B), C13(H13A,H13B), C11(H11A,H11B), C12(H12A,H12B)
3.b Aromatic/amide H refined with riding coordinates:
 C8(H8), C9(H9), C10(H10)
3.c Idealised Me refined as rotating group:
 C6(H6A,H6B,H6C)
;
_shelx_res_file
;
    mo_ca220916_1_1_0m.res created by SHELXL-2014/7

TITL mo_ca220916_1_1_0m_a.res in P-1
REM Old TITL mo_ca220916_1_1_0m in P-1
REM SHELXT solution in P-1
REM R1 0.129, Rweak 0.005, Alpha 0.037, Orientation as input
REM Formula found by SHELXT: C12 N2 O2
CELL 0.71073 7.3581 9.0853 9.4911 108.041 101.319 98.946
ZERR 2 0.0006 0.0007 0.0007 0.002 0.002 0.002
LATT 1
SFAC C H N O
UNIT 26 30 2 4
DFIX 0.91 0.01 O2 H2

L.S. 20
PLAN  20
SIZE 0.08 0.14 0.21
TEMP -173.1(2)
BOND $H
MORE -1
CONF
fmap 2
acta 52
REM <olex2.extras>
REM <HklSrc "%.\\mo_ca220916_1_1_0m.hkl">
REM </olex2.extras>

WGHT    0.052500    0.271100
FVAR       1.34662
O2    4    0.960868    0.796524    0.002732    11.00000    0.02478    0.01493 =
         0.02259    0.01006    0.01603    0.00667
H2    2    1.013796    0.861688   -0.039696    11.00000   -1.50000
O1    4    0.866041    1.015190    0.120376    11.00000    0.02449    0.01334 =
         0.02210    0.00900    0.01355    0.00518
N1    3    0.421578    0.786029    0.478728    11.00000    0.01952    0.01604 =
         0.01948    0.00906    0.00967    0.00643
C1    1    0.873108    0.876492    0.097913    11.00000    0.01273    0.01375 =
         0.01226    0.00604    0.00418    0.00155
C3    1    0.704674    0.713577    0.242700    11.00000    0.01566    0.01224 =
         0.01345    0.00459    0.00473    0.00279
C2    1    0.782556    0.784531    0.175576    11.00000    0.01749    0.01361 =
         0.01526    0.00625    0.00673    0.00317
C7    1    0.586152    0.735025    0.469062    11.00000    0.01477    0.01328 =
         0.01423    0.00654    0.00613    0.00260
C8    1    0.715321    0.808424    0.610686    11.00000    0.02063    0.01902 =
         0.01674    0.00674    0.00259    0.00078
AFIX  43
H8    2    0.842243    0.796744    0.637520    11.00000   -1.20000
AFIX   0
C4    1    0.605417    0.621457    0.320898    11.00000    0.01540    0.01138 =
         0.01254    0.00580    0.00647    0.00157
C5    1    0.721592    0.502985    0.355756    11.00000    0.02605    0.01793 =
         0.02467    0.01330    0.01511    0.00988
AFIX  23
H5A   2    0.844737    0.564314    0.430430    11.00000   -1.20000
H5B   2    0.651510    0.440077    0.405048    11.00000   -1.20000
AFIX   0
C13   1    0.404441    0.532707    0.213788    11.00000    0.02174    0.01802 =
         0.01545    0.00539    0.00364   -0.00406
AFIX  23
H13A  2    0.415960    0.475194    0.109886    11.00000   -1.20000
H13B  2    0.345791    0.453239    0.253116    11.00000   -1.20000
AFIX   0
C9    1    0.623946    0.904384    0.708715    11.00000    0.03660    0.01766 =
         0.01642    0.00330    0.00866    0.00242
AFIX  43
H9    2    0.677908    0.968366    0.813695    11.00000   -1.20000
AFIX   0
C11   1    0.242307    0.727491    0.358863    11.00000    0.01464    0.03174 =
         0.02932    0.01828    0.00531    0.00562
AFIX  23
H11A  2    0.182889    0.817426    0.355891    11.00000   -1.20000
H11B  2    0.153489    0.650428    0.382494    11.00000   -1.20000
AFIX   0
C10   1    0.443792    0.888027    0.624509    11.00000    0.03434    0.01616 =
         0.02554    0.00835    0.01887    0.00979
AFIX  43
H10   2    0.350043    0.938817    0.660997    11.00000   -1.20000
AFIX   0
C12   1    0.276643    0.647675    0.203891    11.00000    0.01716    0.03069 =
         0.02130    0.01428    0.00000   -0.00097
AFIX  23
H12A  2    0.337314    0.729617    0.168229    11.00000   -1.20000
H12B  2    0.153243    0.589127    0.128258    11.00000   -1.20000
AFIX   0
C6    1    0.761525    0.388269    0.215559    11.00000    0.04788    0.02062 =
         0.03790    0.01368    0.02997    0.01608
AFIX 137
H6A   2    0.640702    0.322687    0.143003    11.00000   -1.50000
H6B   2    0.837940    0.319510    0.247837    11.00000   -1.50000
H6C   2    0.831556    0.449006    0.165883    11.00000   -1.50000
AFIX   0
HKLF 4

REM  mo_ca220916_1_1_0m_a.res in P-1
REM R1 =  0.0442 for    2900 Fo > 4sig(Fo)  and  0.0565 for all    3523 data
REM    149 parameters refined using      1 restraints

END

WGHT      0.0526      0.2710

REM Highest difference peak  0.516,  deepest hole -0.227,  1-sigma level  0.051
Q1    1   0.6768  0.8668  0.6601  11.00000  0.05    0.52
Q2    1   0.2790  0.6818  0.2991  11.00000  0.05    0.49
Q3    1   0.8469  0.7979  0.5780  11.00000  0.05    0.45
Q4    1   0.4642  0.6992  0.3885  11.00000  0.05    0.44
Q5    1   0.6067  0.6798  0.3941  11.00000  0.05    0.41
Q6    1   0.5075  0.5785  0.2661  11.00000  0.05    0.35
Q7    1   0.7694  0.6292  0.4538  11.00000  0.05    0.35
Q8    1   0.6657  0.5702  0.3417  11.00000  0.05    0.32
Q9    1   0.6613  0.7754  0.5377  11.00000  0.05    0.31
Q10   1   0.2002  0.8078  0.4456  11.00000  0.05    0.31
Q11   1   0.3275  0.8680  0.5545  11.00000  0.05    0.30
Q12   1   0.5194  0.4509  0.2184  11.00000  0.05    0.30
Q13   1   0.7141  0.7928  0.2205  11.00000  0.05    0.30
Q14   1   0.7840  0.7183  0.2054  11.00000  0.05    0.29
Q15   1   0.9282  0.8443  0.0539  11.00000  0.05    0.29
Q16   1   0.6581  0.6661  0.2908  11.00000  0.05    0.29
Q17   1   0.8133  0.8281  0.1219  11.00000  0.05    0.27
Q18   1   0.7336  0.4423  0.2779  11.00000  0.05    0.26
Q19   1   0.3270  0.7589  0.4124  11.00000  0.05    0.25
Q20   1   0.4149  0.8417  0.5489  11.00000  0.05    0.25
;
_shelx_res_checksum              37612
_shelx_hkl_file
;
  -1   0   0 1508.25   23.20
  -1   0   0 1561.64   23.40
  -1   0   0 1519.55   23.50
   1   0   0 1521.55   23.40
   1   0   0 1492.55   23.50
  -2   0   0 1726.33   27.40
  -2   0   0 1764.02   27.10
  -2   0   0 1743.73   27.80
   2   0   0 1710.53   27.70
   2   0   0 1712.73   27.60
  -3   0   0  112.99    3.80
  -3   0   0  108.89    4.20
  -3   0   0  110.69    4.40
   3   0   0  112.69    4.40
   3   0   0  112.79    4.40
  -4   0   0   48.70    3.60
  -4   0   0   48.40    3.00
  -4   0   0   44.20    3.40
   4   0   0   44.40    1.90
   4   0   0   49.70    3.60
   4   0   0   43.80    3.60
  -5   0   0   85.39    4.00
  -5   0   0   79.09    4.60
  -5   0   0   83.69    5.00
   5   0   0   80.69    2.60
   5   0   0   78.89    4.60
   5   0   0   85.29    4.80
  -6   0   0  448.36   11.80
  -6   0   0  444.06   10.50
  -6   0   0  421.36   12.50
   6   0   0  452.35   12.50
   6   0   0  437.46   12.30
  -7   0   0  405.26   13.00
  -7   0   0  396.46   11.90
   7   0   0  388.16   12.30
   7   0   0  389.86   12.50
  -8   0   0   29.80    4.30
  -8   0   0   35.50    5.40
   8   0   0   24.00    4.40
   8   0   0   24.00    4.40
  -9   0   0   27.00    5.30
   9   0   0   26.40    5.00
 -10   0   0   15.90    5.30
  10   0   0   18.10    4.90
  10  -1   0   12.70    4.50
 -10   1   0   30.00    6.20
   9  -1   0   14.50    4.10
  -9   1   0   28.20    5.50
   8  -1   0   52.89    6.00
   8  -1   0   68.99    6.60
  -8   1   0   61.19    6.20
   7  -1   0   12.70    3.20
   7  -1   0   15.30    3.40
  -7   1   0   10.80    3.40
  -7   1   0   24.40    3.30
  -7   1   0   14.10    3.20
   6  -1   0  225.68    8.40
   6  -1   0  235.08    8.40
  -6   1   0  230.58    7.70
  -6   1   0  241.88    8.80
  -6   1   0  235.78    7.60
   5  -1   0  127.49    5.60
   5  -1   0  126.19    5.50
  -5   1   0  122.09    5.10
  -5   1   0  139.49    6.00
  -5   1   0  139.79    5.40
   4  -1   0    2.00    1.50
   4  -1   0    4.10    1.70
  -4   1   0    4.20    1.80
  -4   1   0    2.00    1.50
  -4   1   0    4.80    1.60
   3  -1   0   34.50    2.60
   3  -1   0   40.60    2.70
  -3   1   0   38.00    2.80
  -3   1   0   37.80    2.70
  -3   1   0   37.70    2.60
   2  -1   0 1022.70   17.10
   2  -1   0 1044.40   17.10
  -2   1   0 1053.09   17.30
  -2   1   0 1031.80   16.80
  -2   1   0 1029.20   17.40
   1  -1   0 2052.89   30.90
   1  -1   0 2011.70   30.70
   1  -1   0 2033.40   30.80
  -1   1   0 2076.89   30.70
  -1   1   0 2047.30   30.60
  -1   1   0 2051.59   31.00
   0  -1   0    9.00    0.60
   0  -1   0    9.70    0.60
   0  -1   0    8.00    0.70
   0   1   0    9.70    0.70
   0   1   0   10.60    1.00
   0   1   0    9.60    0.60
   0   1   0    9.80    1.00
  -1  -1   0  196.88    4.30
  -1  -1   0  187.18    4.30
   1   1   0  198.38    4.30
   1   1   0  201.08    4.40
  -2  -1   0  476.85    9.80
  -2  -1   0  506.75    9.70
   2   1   0  493.55    9.00
   2   1   0  485.05    9.60
   2   1   0  504.65    9.90
  -3  -1   0  798.42   15.50
  -3  -1   0  813.92   15.30
   3   1   0  810.72   14.00
   3   1   0  786.92   15.60
   3   1   0  818.62   15.40
  -4  -1   0  900.31   18.20
  -4  -1   0  915.61   17.70
  -4  -1   0  913.51   16.20
   4   1   0  894.11   17.80
   4   1   0  917.01   18.20
   4   1   0  892.71   15.80
  -5  -1   0    1.10    1.30
  -5  -1   0    2.80    2.10
  -5  -1   0   -0.30    1.80
   5   1   0    0.70    1.80
   5   1   0   -1.10    1.70
   5   1   0    1.10    1.10
  -6  -1   0    9.80    2.80
  -6  -1   0   15.00    3.40
  -6  -1   0   14.10    2.20
   6   1   0   10.00    2.70
   6   1   0    9.90    3.10
   6   1   0   13.20    1.80
  -7  -1   0    5.10    3.00
  -7  -1   0    5.70    3.20
   7   1   0    8.00    3.30
   7   1   0    5.60    2.70
  -8  -1   0   18.90    4.10
  -8  -1   0   30.20    5.30
   8   1   0   27.30    4.60
   8   1   0   35.50    5.30
  -9  -1   0  115.59    9.90
   9   1   0  105.79    8.10
   9   1   0  110.89    8.70
  10  -2   0    4.80    3.80
 -10   2   0   -1.70    3.40
   9  -2   0   44.70    5.90
  -9   2   0   24.60    5.10
   8  -2   0   54.09    5.80
  -8   2   0   63.09    6.30
   7  -2   0    9.20    2.80
   7  -2   0   14.50    3.20
  -7   2   0    6.00    2.50
  -7   2   0    9.40    3.00
   6  -2   0  120.79    6.20
   6  -2   0  117.19    5.80
  -6   2   0  132.09    6.50
  -6   2   0  130.89    6.10
  -6   2   0  124.09    5.40
   5  -2   0   59.69    3.80
   5  -2   0   54.99    4.00
  -5   2   0   56.59    4.10
  -5   2   0   55.29    3.40
  -5   2   0   60.59    4.10
   4  -2   0  111.19    4.30
   4  -2   0   99.39    4.40
  -4   2   0  108.99    4.80
  -4   2   0  106.69    3.90
  -4   2   0  108.09    4.60
   3  -2   0 1482.15   24.80
   3  -2   0 1530.95   25.00
  -3   2   0 1513.65   24.20
  -3   2   0 1528.65   25.20
  -3   2   0 1481.05   25.90
   2  -2   0  908.41   14.90
   2  -2   0  884.51   14.90
  -2   2   0  896.31   16.40
  -2   2   0  916.91   14.60
  -2   2   0  916.21   15.20
  -2   2   0  897.51   14.30
   1  -2   0 1965.40   29.90
   1  -2   0 2016.20   29.90
  -1   2   0 1947.91   31.90
  -1   2   0 2032.60   30.30
  -1   2   0 1985.10   30.90
  -1   2   0 1982.60   31.40
  -1   2   0 1986.30   30.30
   0  -2   0 1318.67   20.80
   0  -2   0 1290.67   20.30
   0  -2   0 1347.97   20.40
   0   2   0 1348.47   21.50
   0   2   0 1314.77   21.70
   0   2   0 1323.37   20.60
  -1  -2   0 1272.37   20.80
  -1  -2   0 1314.67   21.20
  -1  -2   0 1283.97   20.70
   1   2   0 1274.07   21.20
   1   2   0 1264.77   21.00
   1   2   0 1286.37   20.50
  -2  -2   0  262.67    6.60
  -2  -2   0  268.07    6.50
   2   2   0  270.17    6.40
   2   2   0  262.47    6.70
   2   2   0  261.27    6.40
  -3  -2   0   51.99    3.70
  -3  -2   0   49.60    3.50
   3   2   0   52.79    3.00
   3   2   0   50.69    3.60
   3   2   0   49.30    3.30
  -4  -2   0 1234.78   22.80
  -4  -2   0 1234.28   23.20
   4   2   0 1224.88   22.80
   4   2   0 1182.48   23.30
   4   2   0 1199.18   21.40
  -5  -2   0   54.19    3.40
  -5  -2   0   70.19    5.00
  -5  -2   0   61.69    4.90
   5   2   0   59.59    3.50
   5   2   0   62.29    4.60
   5   2   0   62.59    5.30
  -6  -2   0   61.79    5.50
  -6  -2   0   48.20    4.90
   6   2   0   42.10    4.70
   6   2   0   46.40    3.50
   6   2   0   53.69    5.10
  -7  -2   0   16.30    4.00
  -7  -2   0   13.70    3.70
   7   2   0    5.40    3.00
   7   2   0    8.10    3.00
  -8  -2   0   33.50    5.30
  -8  -2   0   37.90    5.80
   8   2   0   35.50    5.10
   8   2   0   44.90    6.00
  -9  -2   0   46.40    6.60
   9   2   0   48.70    6.80
   9   2   0   56.39    6.70
  10  -3   0    6.40    3.70
 -10   3   0    9.00    4.60
   9  -3   0   21.10    4.50
  -9   3   0   18.20    4.60
   8  -3   0    1.40    2.70
  -8   3   0    8.40    3.00
  -8   3   0    2.20    2.70
   7  -3   0   93.69    6.10
  -7   3   0   85.79    6.00
  -7   3   0   82.19    6.00
   6  -3   0   34.80    3.70
   6  -3   0   35.00    3.70
  -6   3   0   32.50    4.00
  -6   3   0   31.60    3.80
   5  -3   0  435.36   10.50
   5  -3   0  438.46   11.00
  -5   3   0  459.35   12.00
  -5   3   0  463.35    9.60
  -5   3   0  455.45   11.20
   4  -3   0  140.49    4.60
   4  -3   0  134.69    4.80
  -4   3   0  126.49    5.70
  -4   3   0  135.89    3.90
  -4   3   0  128.29    5.00
   3  -3   0    3.40    1.20
   3  -3   0    3.50    1.30
  -3   3   0    4.70    1.20
  -3   3   0    5.10    1.50
  -3   3   0    2.40    2.00
   2  -3   0  767.72   13.20
   2  -3   0  795.62   13.10
  -2   3   0  794.32   13.90
  -2   3   0  807.32   13.60
  -2   3   0  794.22   15.80
  -2   3   0  798.72   14.90
   1  -3   0  219.08    4.30
   1  -3   0  221.98    4.70
   1  -3   0  215.28    4.20
  -1   3   0  223.88    5.60
  -1   3   0  221.58    6.00
  -1   3   0  221.08    4.60
  -1   3   0  222.88    4.70
   0  -3   0  396.06    7.30
   0  -3   0  406.36    7.70
   0  -3   0  390.66    7.20
   0   3   0  391.26    8.90
   0   3   0  388.16    7.50
   0   3   0  387.36    8.60
  -1  -3   0  422.86    8.60
  -1  -3   0  419.56    8.50
  -1  -3   0  443.46    9.10
   1   3   0  420.96    8.90
   1   3   0  419.96    8.10
   1   3   0  444.76   10.10
   1   3   0  420.46    9.40
  -2  -3   0  123.99    4.60
  -2  -3   0  122.39    4.50
   2   3   0  133.39    4.90
   2   3   0  126.59    4.30
   2   3   0  121.79    4.60
  -3  -3   0  191.08    6.30
  -3  -3   0  177.78    6.20
   3   3   0  191.68    6.10
   3   3   0  182.08    5.90
   3   3   0  181.38    6.30
  -4  -3   0    3.50    2.00
  -4  -3   0    1.70    1.90
   4   3   0    4.20    1.80
   4   3   0    1.70    2.00
   4   3   0   -0.20    1.60
  -5  -3   0   25.50    3.60
  -5  -3   0   31.60    4.10
   5   3   0   25.40    3.60
   5   3   0   33.40    3.80
   5   3   0   32.50    3.30
  -6  -3   0    4.30    2.90
  -6  -3   0   -0.80    2.40
   6   3   0   -2.00    2.40
   6   3   0    0.60    2.30
   6   3   0    1.50    1.90
  -7  -3   0   44.20    5.50
  -7  -3   0   36.30    5.00
   7   3   0   40.30    5.00
   7   3   0   38.00    5.20
  -8  -3   0   68.39    6.90
  -8  -3   0   58.09    7.10
   8   3   0   46.50    6.40
  -9  -3   0   43.20    6.40
   9   3   0   28.00    6.00
  10  -4   0    2.80    3.60
 -10   4   0   -2.40    3.50
   9  -4   0   64.19    6.60
  -9   4   0   82.29    7.60
   8  -4   0    3.50    2.70
  -8   4   0   13.50    3.50
  -8   4   0    5.00    3.10
   7  -4   0   -1.40    2.10
  -7   4   0    0.90    2.40
  -7   4   0    0.30    2.60
   6  -4   0   23.20    3.20
  -6   4   0   21.50    3.80
  -6   4   0   20.50    3.20
   5  -4   0   44.90    3.10
   5  -4   0   39.80    3.50
  -5   4   0   37.30    3.50
  -5   4   0   55.29    5.10
   4  -4   0   61.89    3.00
   4  -4   0   64.99    3.40
  -4   4   0   62.59    2.80
  -4   4   0   59.59    4.60
  -4   4   0   63.29    3.60
   3  -4   0  233.38    5.80
  -3   4   0  230.08    6.00
  -3   4   0  235.08    6.00
  -3   4   0  229.48    7.30
  -3   4   0  232.68    8.00
   2  -4   0 1043.50   17.30
   2  -4   0 1049.89   17.20
  -2   4   0 1062.89   19.80
  -2   4   0 1042.10   18.80
  -2   4   0 1076.39   17.80
  -2   4   0 1076.69   17.90
   1  -4   0   52.29    2.50
   1  -4   0   52.99    2.10
   1  -4   0   50.59    2.20
  -1   4   0   51.39    2.50
  -1   4   0   52.99    3.70
  -1   4   0   54.59    2.40
  -1   4   0   49.99    3.40
   0  -4   0  335.57    7.00
   0  -4   0  345.37    7.50
   0   4   0  357.26    9.10
   0   4   0  338.67    7.40
   0   4   0  335.57    8.60
  -1  -4   0  200.28    5.60
  -1  -4   0  202.88    6.00
  -1  -4   0  215.18    5.60
   1   4   0  208.18    6.60
   1   4   0  209.08    7.10
   1   4   0  202.08    4.80
   1   4   0  205.88    5.90
  -2  -4   0  264.77    7.10
  -2  -4   0  246.88    7.10
   2   4   0  243.28    7.30
   2   4   0  256.47    6.40
   2   4   0  259.07    8.60
   2   4   0  263.87    7.80
  -3  -4   0  120.59    5.40
  -3  -4   0  114.29    5.10
   3   4   0  116.09    5.40
   3   4   0  126.89    4.90
   3   4   0  124.59    5.70
  -4  -4   0  168.28    7.20
  -4  -4   0  184.68    7.20
   4   4   0  186.88    7.00
   4   4   0  178.48    6.70
   4   4   0  166.58    7.40
  -5  -4   0   69.79    5.80
  -5  -4   0   70.79    5.80
   5   4   0   70.79    4.90
   5   4   0   59.79    4.60
   5   4   0   68.59    6.00
  -6  -4   0   15.90    3.70
  -6  -4   0   18.40    4.10
   6   4   0   15.30    3.10
   6   4   0   18.40    4.10
   6   4   0   16.80    3.50
  -7  -4   0   44.30    5.80
  -7  -4   0   66.79    6.80
   7   4   0   59.59    6.80
  -8  -4   0   30.20    5.60
   8   4   0   33.00    5.90
  10  -5   0   16.00    4.50
 -10   5   0   10.20    4.50
   9  -5   0    9.00    3.60
  -9   5   0   17.40    4.50
   8  -5   0    4.30    2.70
  -8   5   0    3.10    2.60
   7  -5   0    4.70    2.40
  -7   5   0    1.80    2.40
   6  -5   0    1.10    1.80
  -6   5   0   -0.70    1.90
  -6   5   0   -1.90    2.50
   5  -5   0  316.27    8.70
  -5   5   0  311.67    7.30
  -5   5   0  311.17   11.00
  -5   5   0  298.67    8.80
   4  -5   0   48.00    3.10
  -4   5   0   53.59    3.20
  -4   5   0   55.29    3.50
   3  -5   0  375.36    8.00
   3  -5   0  384.76    8.30
  -3   5   0  361.96    8.30
  -3   5   0  361.56    8.90
  -3   5   0  368.76   10.10
   2  -5   0    2.10    0.90
   2  -5   0    3.80    1.10
   2  -5   0    3.80    1.20
  -2   5   0    4.60    1.70
  -2   5   0    3.40    1.20
  -2   5   0    5.00    1.30
  -2   5   0    1.70    1.80
   1  -5   0  505.25    9.50
   1  -5   0  502.55    9.50
   1  -5   0  498.95   10.10
  -1   5   0  505.85   10.00
  -1   5   0  523.35   11.00
  -1   5   0  500.55   12.20
  -1   5   0  504.85   11.70
   0  -5   0  138.69    4.40
   0  -5   0  135.79    4.60
   0   5   0  147.79    4.70
   0   5   0  139.79    5.80
   0   5   0  144.39    6.20
  -1  -5   0  409.26    9.80
  -1  -5   0  402.66    9.20
  -1  -5   0  406.26    8.90
   1   5   0  394.96    9.60
   1   5   0  398.36   10.60
   1   5   0  419.56   11.50
  -2  -5   0   45.00    3.70
  -2  -5   0   43.10    3.20
   2   5   0   37.70    3.40
   2   5   0   40.10    2.60
   2   5   0   40.20    3.90
   2   5   0   35.00    4.10
  -3  -5   0   20.40    2.90
  -3  -5   0   23.30    3.20
   3   5   0   22.90    3.40
   3   5   0   20.60    4.10
   3   5   0   28.90    2.80
   3   5   0   27.40    3.40
  -4  -5   0   -0.70    2.00
  -4  -5   0    1.50    2.40
   4   5   0   -2.00    2.20
   4   5   0    0.90    2.00
   4   5   0   -0.30    2.00
  -5  -5   0   -1.10    2.60
  -5  -5   0   -1.80    2.40
   5   5   0    2.00    2.60
   5   5   0    3.60    2.40
  -6  -5   0    0.80    3.00
   6   5   0   -1.90    2.60
   6   5   0    2.10    2.60
  -7  -5   0   66.59    6.90
   7   5   0   53.39    6.50
  -8  -5   0   -5.40    3.10
   8   5   0   -0.20    3.70
   9  -6   0   10.90    3.70
  -9   6   0    8.40    3.50
   8  -6   0    1.40    2.40
  -8   6   0    3.40    2.60
   7  -6   0  151.18    7.40
  -7   6   0  149.39    7.20
   6  -6   0  452.75   11.90
  -6   6   0  427.76   11.80
   5  -6   0    5.30    1.90
  -5   6   0    7.40    2.00
  -5   6   0    1.30    1.80
   4  -6   0    2.40    1.50
  -4   6   0    1.80    1.60
  -4   6   0    2.30    1.60
   3  -6   0    1.50    1.20
   3  -6   0    0.90    1.20
   3  -6   0    1.60    1.10
  -3   6   0   -0.50    1.30
  -3   6   0    1.10    2.20
  -3   6   0    1.60    1.70
  -3   6   0    0.60    1.20
   2  -6   0   97.89    3.50
   2  -6   0   97.99    3.90
   2  -6   0  103.39    3.70
  -2   6   0  102.99    3.80
  -2   6   0  103.99    5.20
  -2   6   0  103.29    4.00
   1  -6   0  109.09    3.90
   1  -6   0  114.39    4.30
   1  -6   0  114.39    4.10
  -1   6   0  112.69    5.50
  -1   6   0  110.59    5.90
  -1   6   0  113.89    4.30
   0  -6   0    2.20    1.40
   0  -6   0   -1.10    1.20
   0   6   0    2.80    1.50
   0   6   0   -1.30    2.00
   0   6   0    1.20    2.00
  -1  -6   0  227.08    6.90
  -1  -6   0  220.98    7.20
  -1  -6   0  221.28    7.90
   1   6   0  220.08    8.20
   1   6   0  235.98    9.00
   1   6   0  223.78    7.20
  -2  -6   0    1.80    2.00
   2   6   0    0.00    1.90
   2   6   0    4.30    2.60
   2   6   0    1.60    2.10
  -3  -6   0    0.50    2.10
   3   6   0   -2.50    2.10
   3   6   0   -0.70    2.90
   3   6   0   -2.40    2.00
  -4  -6   0   20.40    3.70
   4   6   0   19.50    4.80
   4   6   0   23.00    3.90
   4   6   0   18.70    3.70
  -5  -6   0  340.77   12.20
   5   6   0  361.56   12.60
   5   6   0  357.16   11.90
   5   6   0  336.87   14.00
  -6  -6   0   82.69    7.20
   6   6   0   78.69    8.40
   6   6   0   96.89    8.40
   6   6   0   97.69    6.80
  -7  -6   0   16.10    4.60
   7   6   0   17.00    5.80
   7   6   0   13.70    4.50
   9  -7   0   76.39    7.10
  -9   7   0   63.99    6.60
   8  -7   0    7.00    3.10
  -8   7   0    4.40    2.90
   7  -7   0  117.29    6.60
  -7   7   0  120.69    6.70
   6  -7   0   34.40    3.80
  -6   7   0   28.90    3.70
   5  -7   0   30.00    3.30
  -5   7   0   33.10    3.50
  -5   7   0   31.40    3.40
   4  -7   0    7.90    2.00
   4  -7   0   15.30    2.80
  -4   7   0    7.00    3.00
  -4   7   0    4.90    1.90
  -4   7   0    8.50    2.40
   3  -7   0  837.82   15.80
   3  -7   0  840.22   16.30
  -3   7   0  813.12   18.00
  -3   7   0  850.71   16.20
  -3   7   0  849.32   19.40
   2  -7   0   14.10    2.20
   2  -7   0   11.50    1.90
  -2   7   0   10.70    3.00
  -2   7   0   15.20    2.10
  -2   7   0    7.40    2.50
   1  -7   0    6.20    1.80
   1  -7   0    3.70    1.60
  -1   7   0    2.90    2.70
  -1   7   0    3.70    2.20
  -1   7   0    4.60    1.70
   0  -7   0  110.09    4.80
   0  -7   0  110.99    5.00
   0   7   0  100.29    6.60
   0   7   0  113.99    6.40
   0   7   0  111.09    5.00
  -1  -7   0   53.59    4.30
  -1  -7   0   54.99    4.20
   1   7   0   63.49    6.20
   1   7   0   56.79    4.30
   1   7   0   55.79    5.30
  -2  -7   0   18.00    3.10
   2   7   0   14.80    3.00
   2   7   0   11.30    3.50
   2   7   0   16.30    3.40
  -3  -7   0   46.90    4.60
   3   7   0   50.59    6.30
   3   7   0   55.19    5.40
   3   7   0   55.09    5.30
  -4  -7   0  173.58    8.50
   4   7   0  183.58    8.70
   4   7   0  178.48    8.80
   4   7   0  178.48   10.40
  -5  -7   0  269.37   11.30
   5   7   0  287.57   11.70
   5   7   0  267.07   13.40
   5   7   0  281.67   11.40
  -6  -7   0   48.10    6.20
   6   7   0   42.70    7.00
   6   7   0   51.69    6.70
   6   7   0   40.80    5.60
   9  -8   0  105.09    7.90
  -9   8   0  100.39    7.60
   8  -8   0  229.78   10.00
  -8   8   0  234.88    9.90
   7  -8   0   49.10    5.10
  -7   8   0   56.29    5.30
   6  -8   0  316.17   10.00
  -6   8   0  325.57   10.10
   5  -8   0   14.20    2.50
  -5   8   0   11.20    2.80
  -5   8   0   12.60    2.50
   4  -8   0  135.29    5.50
  -4   8   0  141.09    5.70
  -4   8   0  133.39    6.70
  -4   8   0  140.49    8.00
   3  -8   0    0.70    1.50
  -3   8   0   -2.10    2.00
  -3   8   0   -0.70    2.60
  -3   8   0   -2.20    1.50
   2  -8   0  425.66   10.00
  -2   8   0  422.96   12.60
  -2   8   0  416.26   13.30
  -2   8   0  421.46   10.20
   1  -8   0   70.29    4.20
  -1   8   0   69.19    5.90
  -1   8   0   77.29    4.30
  -1   8   0   87.09    6.50
   0  -8   0  201.68    7.60
   0  -8   0  192.38    6.90
   0   8   0  188.28    7.00
   0   8   0  194.38    8.80
   0   8   0  189.18    9.30
  -1  -8   0    3.80    2.20
  -1  -8   0    2.30    2.20
   1   8   0   -1.80    2.90
   1   8   0   -1.40    2.40
   1   8   0    3.70    2.30
  -2  -8   0  156.38    7.30
   2   8   0  146.69    7.30
   2   8   0  153.48    8.40
   2   8   0  171.78    9.60
  -3  -8   0  166.48    8.00
   3   8   0  175.28   10.20
   3   8   0  161.38    8.10
   3   8   0  162.18    8.90
  -4  -8   0   22.10    4.10
   4   8   0   27.20    4.50
   4   8   0   25.00    4.70
   4   8   0   15.30    4.90
  -5  -8   0    1.90    3.40
   5   8   0   -0.30    3.70
   5   8   0   -4.10    3.00
   5   8   0    0.30    3.00
  -6  -8   0    0.10    3.60
   6   8   0    6.30    3.80
   6   8   0    7.00    4.20
   6   8   0    6.70    4.80
   8  -9   0   21.50    4.20
  -8   9   0   23.00    4.30
   7  -9   0    3.40    2.70
  -7   9   0    4.80    2.80
   6  -9   0   19.30    3.30
  -6   9   0   16.90    3.30
   5  -9   0   -1.30    1.80
  -5   9   0   -2.80    1.70
  -5   9   0   -2.10    2.20
   4  -9   0  275.67    8.30
  -4   9   0  281.07   10.30
  -4   9   0  269.07    8.30
  -4   9   0  275.77   11.40
   3  -9   0   22.10    2.80
  -3   9   0   17.90    3.80
  -3   9   0   15.00    4.00
  -3   9   0   22.00    2.90
   2  -9   0   79.49    4.60
  -2   9   0   87.49    4.70
  -2   9   0   88.89    6.60
  -2   9   0   85.59    6.90
   1  -9   0   36.40    3.60
  -1   9   0   33.40    3.60
  -1   9   0   32.90    5.20
  -1   9   0   25.30    4.30
   0  -9   0   14.50    2.90
   0   9   0   15.80    3.00
   0   9   0   18.30    4.20
   0   9   0   15.70    4.60
  -1  -9   0  190.38    7.80
   1   9   0  145.59    9.50
   1   9   0  162.28    7.40
   1   9   0  175.48    9.40
  -2  -9   0   83.09    6.20
   2   9   0   67.79    6.00
   2   9   0   64.69    7.10
   2   9   0   58.29    6.40
  -3  -9   0  115.39    7.30
   3   9   0  119.79    8.50
   3   9   0  127.99    7.80
   3   9   0  113.69    9.20
  -4  -9   0    2.60    3.30
   4   9   0    0.40    3.80
   4   9   0    4.00    3.50
   4   9   0   -2.20    3.00
  -5  -9   0   16.40    4.80
   5   9   0   17.30    4.70
   5   9   0   18.00    5.60
   5   9   0   12.40    4.50
   7 -10   0    8.80    2.90
  -7  10   0    8.20    3.00
   6 -10   0   17.10    3.40
  -6  10   0    8.50    2.90
   5 -10   0    1.30    2.00
  -5  10   0    0.20    2.00
  -5  10   0    2.20    2.80
   4 -10   0   37.80    3.80
  -4  10   0   40.90    5.00
  -4  10   0   33.20    3.70
  -4  10   0   26.10    5.00
   3 -10   0   49.40    4.40
  -3  10   0   57.29    4.30
  -3  10   0   50.79    6.40
  -3  10   0   50.99    6.00
   2 -10   0   57.79    4.50
  -2  10   0   42.40    5.80
  -2  10   0   54.29    6.00
  -2  10   0   50.39    4.30
   1 -10   0    2.70    2.20
  -1  10   0    4.90    3.40
  -1  10   0   -3.60    2.50
  -1  10   0    1.00    2.10
   0 -10   0  305.97   10.10
   0  10   0  287.57   12.50
   0  10   0  295.37   13.20
   0  10   0  299.87   10.00
  -1 -10   0   10.50    3.20
   1  10   0    6.20    3.90
   1  10   0    6.90    3.70
   1  10   0   10.90    3.20
  -2 -10   0  148.79    8.00
   2  10   0  150.28   10.60
   2  10   0  128.79    9.10
   2  10   0  133.69    7.90
  -3 -10   0   71.39    6.70
   3  10   0   77.69    7.20
   3  10   0   61.59    7.10
   3  10   0   70.89    8.40
   6 -11   0    3.40    2.70
  -6  11   0    5.10    2.50
   5 -11   0    2.00    2.30
  -5  11   0    1.10    3.00
  -5  11   0    2.00    2.30
   4 -11   0   65.99    5.20
  -4  11   0   51.29    6.10
  -4  11   0   62.79    4.80
  -4  11   0   81.99    8.20
   3 -11   0    1.40    2.30
  -3  11   0    1.80    2.10
  -3  11   0    1.50    3.00
  -3  11   0    0.70    3.70
   2 -11   0    9.40    2.80
  -2  11   0   11.50    4.30
  -2  11   0    0.30    2.10
  -2  11   0    8.00    3.90
   1 -11   0    9.30    3.00
  -1  11   0    2.30    3.60
  -1  11   0    6.60    2.70
  -1  11   0    4.30    3.70
   0 -11   0   53.49    5.30
   0  11   0   52.09    7.10
   0  11   0   61.59    7.40
   0  11   0   56.59    5.40
  -1 -11   0   74.79    6.60
   1  11   0   82.49    9.00
   1  11   0   81.79    8.20
   1  11   0   78.89    6.20
  -2 -11   0    8.80    3.60
   2  11   0    2.20    4.30
   2  11   0    3.20    3.20
   2  11   0    3.40    3.80
   4 -12   0    1.90    2.60
  -4  12   0    3.10    2.50
  -4  12   0    7.00    3.90
  -4  12   0    3.80    4.20
   3 -12   0    0.90    2.50
  -3  12   0    4.90    2.50
  -3  12   0    5.70    4.30
  -3  12   0    5.30    3.80
   2 -12   0   70.59    5.90
  -2  12   0   73.39    8.40
  -2  12   0   85.49    5.70
  -2  12   0   67.29    8.20
   1 -12   0    6.50    2.90
  -1  12   0    7.00    4.20
  -1  12   0    8.50    4.80
  -1  12   0    2.80    2.70
   0 -12   0  141.19    8.10
   0  12   0  144.09   10.60
   0  12   0  136.89   10.90
   0  12   0  150.48    7.90
   1  12  -1    7.70    3.50
   0  12  -1    1.10    3.90
   0  12  -1   -0.40    3.20
   0  12  -1   -1.60    2.60
   0 -12   1    0.80    2.80
  -1  12  -1  252.27   12.50
  -1  12  -1  244.78   13.00
  -1  12  -1  250.87    9.90
   1 -12   1  244.28   10.00
  -2  12  -1   49.20    5.10
  -2  12  -1   32.50    5.80
  -2  12  -1   51.99    7.10
   2 -12   1   47.00    5.10
  -3  12  -1   22.00    5.30
  -3  12  -1   21.80    3.80
  -3  12  -1   23.50    5.20
   3 -12   1   31.80    4.40
  -4  12  -1   35.20    5.70
  -4  12  -1   26.40    5.60
  -4  12  -1   32.40    4.40
   4 -12   1   35.30    4.50
  -5  12  -1   27.10    4.10
  -5  12  -1   31.20    5.20
   5 -12   1   39.00    4.90
   3  11  -1   73.79    8.30
   3  11  -1  108.79    8.90
   3  11  -1   82.39    9.50
  -3 -11   1   95.39    8.10
   2  11  -1   -4.50    3.30
   2  11  -1   -2.00    3.20
   2  11  -1    1.10    2.90
  -2 -11   1    0.10    2.90
   1  11  -1   77.09    6.60
   1  11  -1   60.49    7.50
   1  11  -1   63.59    7.70
  -1 -11   1   64.69    6.20
   0  11  -1   17.70    4.80
   0  11  -1   21.50    5.30
   0  11  -1   15.10    3.60
   0 -11   1   16.80    3.70
  -1  11  -1    1.90    3.30
  -1  11  -1   10.30    2.90
  -1  11  -1    5.50    3.60
   1 -11   1    7.10    3.00
  -2  11  -1    1.30    2.20
  -2  11  -1   -2.40    2.60
  -2  11  -1    0.30    3.30
   2 -11   1    2.40    2.30
  -3  11  -1   74.99    7.90
  -3  11  -1   79.29    5.50
  -3  11  -1   86.19    7.90
   3 -11   1   83.49    5.80
  -4  11  -1    1.50    2.80
  -4  11  -1    0.30    2.10
  -4  11  -1   -2.70    3.00
   4 -11   1    1.40    2.40
  -5  11  -1    0.00    2.20
  -5  11  -1    6.90    3.20
   5 -11   1   -0.50    2.20
  -6  11  -1    7.10    3.00
   6 -11   1    4.40    2.80
   4  10  -1    3.20    3.60
   4  10  -1   -5.80    3.60
   4  10  -1    1.00    3.40
  -4 -10   1    1.00    3.20
   3  10  -1    1.10    3.70
   3  10  -1    1.50    3.20
   3  10  -1    1.40    3.20
  -3 -10   1    0.10    3.00
   2  10  -1  120.09    8.60
   2  10  -1  105.79    7.00
   2  10  -1  101.89    9.40
  -2 -10   1  111.19    7.30
   1  10  -1  134.39    7.50
   1  10  -1  142.09    8.90
   1  10  -1  134.29    9.50
  -1 -10   1  138.59    7.50
   0  10  -1   38.60    4.40
   0  10  -1   42.80    5.70
   0  10  -1   32.70    5.40
   0 -10   1   35.90    4.20
  -1  10  -1  294.17    9.80
  -1  10  -1  284.77   12.20
  -1  10  -1  297.87   11.90
   1 -10   1  300.97    9.80
  -2  10  -1   -0.60    2.80
  -2  10  -1   -2.80    1.90
  -2  10  -1   -3.10    2.40
   2 -10   1   -3.50    1.80
  -3  10  -1   16.30    3.80
  -3  10  -1   19.60    4.50
  -3  10  -1   12.10    2.70
   3 -10   1   13.50    2.90
  -4  10  -1   93.09    6.70
  -4  10  -1   97.09    5.70
  -4  10  -1   99.49    7.60
   4 -10   1  105.89    5.80
  -5  10  -1  179.68    8.40
  -5  10  -1  181.78    7.70
   5 -10   1  189.88    8.00
  -6  10  -1   19.40    3.70
   6 -10   1   21.20    3.80
  -7  10  -1    3.70    2.90
   7 -10   1    8.40    3.20
   5   9  -1    5.80    3.50
   5   9  -1    1.00    3.60
   5   9  -1    2.90    4.30
  -5  -9   1   -0.10    3.20
   4   9  -1   22.70    4.90
   4   9  -1   18.50    4.40
   4   9  -1   12.90    5.00
  -4  -9   1   13.20    3.90
   3   9  -1    0.60    3.00
   3   9  -1    1.30    3.40
   3   9  -1   -6.00    2.30
  -3  -9   1    2.40    2.70
   2   9  -1  219.78    9.20
   2   9  -1  238.98   10.70
   2   9  -1  219.88   11.20
  -2  -9   1  215.68    9.00
   1   9  -1  379.96   13.30
   1   9  -1  375.26   14.10
   1   9  -1  373.16   11.60
  -1  -9   1  369.76   11.70
  -1  -9   1  371.76   11.30
   0   9  -1    2.00    2.30
   0   9  -1    1.50    2.90
   0   9  -1    2.60    2.60
   0  -9   1   -0.50    2.20
  -1   9  -1   31.50    3.60
  -1   9  -1   34.80    5.10
  -1   9  -1   33.10    4.70
   1  -9   1   35.70    3.70
  -2   9  -1   58.89    4.50
  -2   9  -1   45.40    4.90
  -2   9  -1   44.50    5.30
   2  -9   1   56.59    4.20
  -3   9  -1   85.29    6.70
  -3   9  -1   91.19    6.40
  -3   9  -1   97.29    5.20
   3  -9   1   93.99    5.10
  -4   9  -1    3.60    2.20
  -4   9  -1    2.10    2.50
  -4   9  -1    3.40    3.00
   4  -9   1    1.40    2.00
  -5   9  -1  113.29    6.10
  -5   9  -1  119.09    6.30
   5  -9   1  125.39    6.40
  -6   9  -1   -1.10    2.20
   6  -9   1   -2.40    2.00
  -7   9  -1    2.80    2.90
   7  -9   1   -1.20    2.40
  -8   9  -1   64.59    6.40
   8  -9   1   81.79    7.20
   6   8  -1   16.70    5.80
   6   8  -1   10.20    4.40
   6   8  -1   14.80    4.30
  -6  -8   1   22.10    5.00
   5   8  -1    5.80    3.20
   5   8  -1    0.40    3.90
   5   8  -1    0.10    3.20
  -5  -8   1   -2.50    2.80
   4   8  -1   24.50    5.30
   4   8  -1   28.90    4.70
   4   8  -1   26.00    4.60
  -4  -8   1   29.30    4.50
   3   8  -1   37.90    5.90
   3   8  -1   45.80    5.00
   3   8  -1   35.70    4.90
  -3  -8   1   30.10    4.10
   2   8  -1   42.00    4.60
   2   8  -1   29.70    4.30
   2   8  -1   38.60    5.20
  -2  -8   1   34.10    4.20
   1   8  -1   20.70    4.30
   1   8  -1   19.50    3.70
   1   8  -1   21.60    3.40
  -1  -8   1   16.10    3.00
  -1  -8   1   21.00    3.40
   0   8  -1   -0.70    2.70
   0   8  -1    1.50    2.70
   0   8  -1    3.30    2.10
   0  -8   1    2.30    1.90
   0  -8   1   -1.50    1.60
  -1   8  -1  245.98    9.40
  -1   8  -1  248.78    7.80
  -1   8  -1  220.98    9.50
   1  -8   1  246.28    7.60
   1  -8   1  240.98    7.90
  -2   8  -1  114.69    5.30
  -2   8  -1  127.99    6.70
  -2   8  -1  111.19    6.90
   2  -8   1  115.69    5.10
   2  -8   1  118.29    5.40
  -3   8  -1  458.55   12.50
  -3   8  -1  448.76   11.20
  -3   8  -1  464.05   13.60
   3  -8   1  451.15   11.40
   3  -8   1  463.25   11.10
  -4   8  -1    0.00    2.60
  -4   8  -1   -1.00    1.90
  -4   8  -1    1.40    1.90
   4  -8   1    0.80    1.80
  -5   8  -1   55.89    4.50
  -5   8  -1   52.59    4.70
   5  -8   1   53.89    4.70
  -6   8  -1   14.90    3.20
   6  -8   1   17.60    3.30
  -7   8  -1   22.10    4.10
   7  -8   1   20.50    3.80
  -8   8  -1   31.50    4.80
   8  -8   1   37.40    5.20
  -9   8  -1   45.90    6.20
   9  -8   1   39.30    5.80
   7   7  -1   20.00    6.30
   7   7  -1   31.50    5.20
   7   7  -1   33.40    5.70
  -7  -7   1   13.10    4.70
   6   7  -1   18.80    4.10
   6   7  -1   20.00    5.80
   6   7  -1   15.40    4.40
  -6  -7   1   18.90    4.60
   5   7  -1   51.19    7.20
   5   7  -1   47.90    5.40
   5   7  -1   37.30    5.40
  -5  -7   1   48.00    5.50
   4   7  -1  213.98    9.70
   4   7  -1  225.68    9.60
   4   7  -1  202.88   10.80
  -4  -7   1  229.88    9.20
   3   7  -1  191.88    8.30
   3   7  -1  199.08    8.90
   3   7  -1  189.68    9.70
  -3  -7   1  189.18    8.00
   2   7  -1    0.60    2.20
   2   7  -1    2.50    2.90
   2   7  -1    0.40    2.10
  -2  -7   1    0.70    2.00
  -2  -7   1    0.60    2.00
   1   7  -1   16.10    2.80
   1   7  -1    7.80    3.00
   1   7  -1   13.80    3.20
  -1  -7   1    9.60    2.50
  -1  -7   1    9.20    2.40
   0   7  -1   11.90    3.20
   0   7  -1   10.20    2.80
   0   7  -1    9.00    2.10
   0  -7   1    3.90    1.80
   0  -7   1    7.80    2.20
  -1   7  -1    3.90    1.80
  -1   7  -1    4.00    2.30
  -1   7  -1   -0.40    2.00
   1  -7   1    3.30    1.70
   1  -7   1    2.40    1.60
  -2   7  -1  134.79    6.60
  -2   7  -1  128.99    5.20
  -2   7  -1  122.09    6.00
   2  -7   1  124.89    4.90
   2  -7   1  122.39    5.10
  -3   7  -1    5.00    2.20
  -3   7  -1    7.30    2.60
  -3   7  -1    8.10    2.20
   3  -7   1    8.00    2.00
   3  -7   1    9.10    2.10
  -4   7  -1   96.09    5.10
  -4   7  -1   88.99    4.90
  -4   7  -1   98.59    6.30
   4  -7   1   98.49    5.00
   4  -7   1   96.99    4.90
  -5   7  -1  199.68    6.70
  -5   7  -1  197.08    7.50
   5  -7   1  202.98    7.50
  -6   7  -1    9.80    2.90
   6  -7   1   11.30    2.90
  -7   7  -1  181.68    8.40
   7  -7   1  202.08    8.80
  -8   7  -1  124.09    7.80
   8  -7   1  130.29    8.00
  -9   7  -1   24.70    4.90
   9  -7   1   24.30    4.80
   7   6  -1   45.70    5.40
   7   6  -1   26.40    5.40
  -7  -6   1   38.80    5.80
   6   6  -1  182.68    8.70
   6   6  -1  184.18    9.70
  -6  -6   1  167.78    9.10
   5   6  -1   10.20    3.10
   5   6  -1   10.10    3.40
  -5  -6   1   16.30    3.70
   4   6  -1   27.80    4.00
   4   6  -1   28.50    4.90
   4   6  -1   28.90    4.40
  -4  -6   1   30.80    4.10
  -4  -6   1   41.80    5.80
   3   6  -1  154.18    7.00
   3   6  -1  150.08    7.30
   3   6  -1  143.19    8.20
  -3  -6   1  153.48    6.80
  -3  -6   1  142.69    6.20
   2   6  -1   -1.20    2.00
   2   6  -1    3.50    1.40
   2   6  -1    0.80    2.70
   2   6  -1   -2.20    1.70
  -2  -6   1    0.40    1.50
  -2  -6   1    0.50    1.80
  -2  -6   1   -0.10    1.70
   1   6  -1   68.09    5.20
   1   6  -1   61.09    4.60
   1   6  -1   69.59    4.20
  -1  -6   1   69.99    4.00
  -1  -6   1   67.09    4.10
  -1  -6   1   67.39    3.60
   0   6  -1  389.76    9.50
   0   6  -1  384.06   11.00
   0   6  -1  388.56   10.70
   0  -6   1  370.26    8.60
   0  -6   1  395.46    9.20
   0  -6   1  403.56    9.80
  -1   6  -1   -0.70    1.70
  -1   6  -1    1.00    1.30
  -1   6  -1    1.80    1.70
   1  -6   1    1.00    1.30
   1  -6   1    1.10    1.30
  -2   6  -1    7.20    2.00
  -2   6  -1    7.20    2.20
  -2   6  -1    3.70    1.50
   2  -6   1    6.60    1.60
   2  -6   1    5.50    1.50
  -3   6  -1  117.99    5.00
  -3   6  -1  125.69    5.00
  -3   6  -1  113.69    5.80
   3  -6   1  121.99    4.70
   3  -6   1  114.69    4.80
  -4   6  -1   33.90    3.00
  -4   6  -1   33.30    3.40
   4  -6   1   31.70    3.20
  -5   6  -1    8.40    1.80
  -5   6  -1    8.10    2.30
   5  -6   1   10.70    2.50
  -6   6  -1   81.59    5.50
   6  -6   1   77.29    5.30
  -7   6  -1  153.68    7.80
   7  -6   1  144.49    7.50
  -8   6  -1   40.60    5.30
   8  -6   1   35.70    5.00
  -9   6  -1   -3.70    2.60
   9  -6   1    0.30    3.20
   8   5  -1   58.79    7.40
  -8  -5   1   57.29    6.80
   7   5  -1   32.50    4.40
   7   5  -1   28.60    5.40
  -7  -5   1   38.80    5.60
   6   5  -1  204.18    9.80
   6   5  -1  202.78    8.50
  -6  -5   1  180.18    9.10
  -6  -5   1  215.08    9.60
   5   5  -1   28.70    3.90
   5   5  -1   27.80    3.70
   5   5  -1   27.90    4.30
  -5  -5   1   27.10    4.00
  -5  -5   1   25.70    4.10
   4   5  -1   54.19    5.00
   4   5  -1   50.09    4.60
   4   5  -1   58.59    4.30
  -4  -5   1   54.49    4.70
  -4  -5   1   52.19    4.90
   3   5  -1   20.90    2.70
   3   5  -1   15.70    2.80
   3   5  -1   18.10    3.00
  -3  -5   1   19.70    2.90
  -3  -5   1   20.60    3.00
   2   5  -1   51.89    4.10
   2   5  -1   63.89    3.40
   2   5  -1   57.89    3.90
   2   5  -1   57.99    4.60
  -2  -5   1   58.49    4.10
  -2  -5   1   56.79    3.60
  -2  -5   1   60.59    3.90
   1   5  -1  161.38    4.60
   1   5  -1  161.58    6.60
   1   5  -1  161.38    6.30
   1   5  -1  165.58    5.60
  -1  -5   1  157.38    5.60
  -1  -5   1  166.08    5.50
  -1  -5   1  160.98    5.20
   0   5  -1  197.88    5.70
   0   5  -1  191.88    6.60
   0   5  -1  178.18    6.60
   0  -5   1  178.68    5.10
   0  -5   1  187.68    5.40
   0  -5   1  195.68    5.90
  -1   5  -1  802.42   16.10
  -1   5  -1  832.72   15.10
  -1   5  -1  808.02   16.40
   1  -5   1  767.02   14.50
   1  -5   1  826.52   15.20
  -2   5  -1   -1.90    1.40
  -2   5  -1    0.20    1.20
  -2   5  -1    1.00    1.40
   2  -5   1    0.30    1.20
   2  -5   1    2.10    1.20
  -3   5  -1   25.50    2.60
  -3   5  -1   28.70    3.20
  -3   5  -1   28.50    2.50
   3  -5   1   25.00    2.20
   3  -5   1   27.70    2.50
  -4   5  -1   54.69    3.00
  -4   5  -1   57.89    3.70
   4  -5   1   59.79    3.70
   4  -5   1   53.59    3.10
  -5   5  -1    2.90    1.10
  -5   5  -1    0.10    1.80
   5  -5   1    1.30    1.70
  -6   5  -1  668.53   16.40
   6  -5   1  728.13   16.60
  -7   5  -1   91.59    6.40
   7  -5   1   92.39    6.30
  -8   5  -1   10.00    3.70
   8  -5   1   14.00    3.60
  -9   5  -1    3.40    3.40
   9  -5   1    4.80    3.60
 -10   5  -1   10.80    4.40
  10  -5   1   12.90    4.60
   8   4  -1   -0.90    3.40
  -8  -4   1    0.70    3.30
  -8  -4   1   -0.70    3.10
   7   4  -1  161.88    8.80
   7   4  -1  176.98    9.20
   7   4  -1  173.78    8.60
  -7  -4   1  161.28    8.90
  -7  -4   1  152.38    8.60
   6   4  -1  322.97   10.80
   6   4  -1  309.87    9.80
   6   4  -1  309.67   11.40
  -6  -4   1  320.37   11.20
  -6  -4   1  322.07   11.50
   5   4  -1  434.06   11.60
   5   4  -1  436.86   12.90
   5   4  -1  419.96   12.00
  -5  -4   1  453.65   12.60
  -5  -4   1  440.26   12.60
   4   4  -1  785.92   16.70
   4   4  -1  789.92   16.70
   4   4  -1  757.42   17.50
  -4  -4   1  786.32   17.20
  -4  -4   1  770.22   17.00
   3   4  -1  340.37    9.30
   3   4  -1  340.87    8.80
   3   4  -1  350.76    9.60
  -3  -4   1  342.67    9.20
  -3  -4   1  342.57    9.20
   2   4  -1  212.38    5.90
   2   4  -1  217.28    6.70
  -2  -4   1  201.68    6.70
  -2  -4   1  213.78    6.50
  -2  -4   1  200.08    6.20
   1   4  -1    5.90    2.40
   1   4  -1    6.70    1.40
   1   4  -1    5.50    1.70
  -1  -4   1    6.90    1.80
  -1  -4   1    6.50    1.60
  -1  -4   1    6.40    1.80
   0   4  -1    3.60    1.00
   0   4  -1    4.10    1.80
   0   4  -1    0.00    1.30
   0  -4   1    4.00    1.40
   0  -4   1    1.20    1.30
   0  -4   1    1.80    1.20
  -1   4  -1   58.89    3.50
  -1   4  -1   64.39    3.50
  -1   4  -1   59.09    2.80
   1  -4   1   65.29    2.80
   1  -4   1   67.79    3.10
   1  -4   1   61.19    2.80
  -2   4  -1 1198.18   20.90
  -2   4  -1 1210.68   21.60
  -2   4  -1 1198.28   20.90
   2  -4   1 1243.28   20.70
   2  -4   1 1258.97   21.10
   2  -4   1 1236.98   20.50
  -3   4  -1 1982.00   31.60
  -3   4  -1 1958.90   32.80
  -3   4  -1 1987.40   31.10
   3  -4   1 1979.20   32.20
   3  -4   1 1998.50   32.50
  -4   4  -1   13.10    1.70
  -4   4  -1   13.20    1.40
  -4   4  -1   12.70    2.20
   4  -4   1   14.70    2.00
   4  -4   1   12.00    2.10
  -5   4  -1   22.80    2.40
  -5   4  -1   19.00    2.90
   5  -4   1   23.90    3.00
   5  -4   1   23.50    2.80
  -6   4  -1   35.20    4.10
   6  -4   1   43.50    4.10
   6  -4   1   38.50    4.10
  -7   4  -1   62.59    5.80
   7  -4   1   56.39    5.30
  -8   4  -1   -0.90    2.60
   8  -4   1   -1.00    2.40
  -9   4  -1    8.40    3.90
   9  -4   1   13.70    4.10
 -10   4  -1   99.69    9.70
  10  -4   1   79.19    8.00
   9   3  -1   68.09    7.90
  -9  -3   1   79.39    8.20
   8   3  -1   50.29    6.20
   8   3  -1   47.20    5.80
  -8  -3   1   54.29    6.10
  -8  -3   1   54.59    6.70
   7   3  -1   29.30    4.40
   7   3  -1   20.60    4.20
  -7  -3   1   18.30    4.00
  -7  -3   1   19.50    4.00
   6   3  -1   22.20    2.90
   6   3  -1   23.80    3.80
   6   3  -1   19.30    3.80
  -6  -3   1   20.80    3.70
  -6  -3   1   21.90    3.20
  -6  -3   1   22.20    3.80
   5   3  -1   51.89    3.80
   5   3  -1   52.69    4.90
   5   3  -1   46.50    4.40
  -5  -3   1   54.69    4.90
  -5  -3   1   57.49    5.10
   4   3  -1  150.18    6.00
   4   3  -1  155.38    5.70
   4   3  -1  155.18    6.50
  -4  -3   1  157.18    6.30
  -4  -3   1  147.09    6.20
   3   3  -1  519.25   11.50
   3   3  -1  511.25   12.00
  -3  -3   1  547.15   11.80
  -3  -3   1  535.25   12.00
   2   3  -1  337.87    8.40
   2   3  -1  347.87    8.00
  -2  -3   1  346.37    8.60
  -2  -3   1  336.27    8.20
  -2  -3   1  340.37    8.20
   1   3  -1  463.05    8.80
   1   3  -1  437.66    9.20
  -1  -3   1  451.95    9.00
  -1  -3   1  445.36    9.40
  -1  -3   1  444.86    9.00
   0   3  -1 2276.57   35.90
   0   3  -1 2249.27   35.20
   0   3  -1 2253.77   34.60
   0  -3   1 2290.17   35.50
   0  -3   1 2188.68   34.90
   0  -3   1 2235.68   35.00
  -1   3  -1  950.20   16.40
  -1   3  -1  943.71   15.90
  -1   3  -1  933.51   15.20
   1  -3   1  944.31   15.80
   1  -3   1  939.51   16.10
   1  -3   1  938.21   15.70
  -2   3  -1 2969.10   46.50
  -2   3  -1 3001.70   45.70
  -2   3  -1 2989.50   45.60
  -2   3  -1 2972.90   46.60
   2  -3   1 2988.00   46.20
   2  -3   1 2965.60   46.20
  -3   3  -1  332.27    7.10
  -3   3  -1  324.17    6.20
  -3   3  -1  314.97    7.90
   3  -3   1  336.37    7.80
   3  -3   1  331.97    7.70
  -4   3  -1   21.00    2.60
  -4   3  -1   23.80    2.90
  -4   3  -1   21.50    2.20
   4  -3   1   18.70    2.30
   4  -3   1   23.30    2.60
  -5   3  -1  556.44   13.40
  -5   3  -1  550.54   13.10
  -5   3  -1  549.95   11.90
   5  -3   1  547.15   12.70
   5  -3   1  557.34   13.10
  -6   3  -1  114.69    5.30
  -6   3  -1  123.89    6.50
   6  -3   1  118.29    5.90
   6  -3   1  120.19    6.20
  -7   3  -1    1.90    2.70
   7  -3   1    6.90    2.70
   7  -3   1    2.10    2.50
  -8   3  -1    3.90    3.20
   8  -3   1    1.70    2.80
  -9   3  -1    2.90    3.50
   9  -3   1    6.70    3.50
 -10   3  -1   -7.10    3.30
  10  -3   1   -2.00    3.50
   9   2  -1  171.38   10.00
   9   2  -1  187.28   10.40
  -9  -2   1  163.98   10.30
   8   2  -1    9.60    3.80
   8   2  -1    4.60    3.10
  -8  -2   1    7.70    3.40
  -8  -2   1    5.10    3.60
   7   2  -1  349.47   11.90
   7   2  -1  345.37   12.30
  -7  -2   1  368.26   12.60
  -7  -2   1  361.16   11.80
   6   2  -1   13.00    2.10
   6   2  -1   12.00    3.10
   6   2  -1   14.60    3.30
  -6  -2   1   12.80    2.60
  -6  -2   1    9.70    3.00
  -6  -2   1   13.60    3.30
   5   2  -1    8.70    1.80
   5   2  -1    5.00    2.10
   5   2  -1    5.00    2.10
  -5  -2   1    5.50    2.10
  -5  -2   1    5.30    2.50
  -5  -2   1    8.20    2.40
   4   2  -1  340.97    9.10
   4   2  -1  325.37    9.20
  -4  -2   1  335.57    9.30
  -4  -2   1  322.07    8.90
   3   2  -1   75.49    4.10
   3   2  -1   83.49    3.90
  -3  -2   1   76.79    4.00
  -3  -2   1   75.79    4.00
   2   2  -1  426.66    8.80
   2   2  -1  412.16    9.00
  -2  -2   1  409.26    8.90
  -2  -2   1  422.96    8.80
   1   2  -1 7944.00  119.49
   1   2  -1 7895.81  118.69
  -1  -2   1 7702.23  119.79
  -1  -2   1 7812.82  119.79
  -1  -2   1 8052.19  120.29
   0   2  -1 4657.73   69.19
   0   2  -1 4508.35   69.09
   0  -2   1 4654.13   69.29
   0  -2   1 4592.54   68.99
   0  -2   1 4575.24   68.89
  -1   2  -1 1076.19   17.20
  -1   2  -1 1077.19   17.60
  -1   2  -1 1071.79   17.30
   1  -2   1 1061.29   17.40
   1  -2   1 1084.09   17.50
  -2   2  -1  425.96    8.60
  -2   2  -1  435.66    8.10
   2  -2   1  403.66    8.40
   2  -2   1  418.26    8.40
  -3   2  -1  117.09    4.40
  -3   2  -1  117.89    4.10
  -3   2  -1  119.79    4.60
   3  -2   1  109.59    4.40
   3  -2   1  121.09    4.40
  -4   2  -1  692.33   13.50
  -4   2  -1  664.63   14.30
  -4   2  -1  672.03   13.60
   4  -2   1  669.53   14.00
   4  -2   1  673.23   14.10
  -5   2  -1  126.59    5.20
  -5   2  -1  116.59    5.80
  -5   2  -1  120.99    5.00
   5  -2   1  114.49    5.60
   5  -2   1  129.59    5.60
  -6   2  -1  450.65   12.80
  -6   2  -1  455.65   11.50
  -6   2  -1  438.16   11.00
   6  -2   1  452.65   12.60
   6  -2   1  435.76   12.20
  -7   2  -1  171.78    7.30
  -7   2  -1  174.68    8.50
   7  -2   1  171.48    8.10
   7  -2   1  167.38    8.00
  -8   2  -1   29.70    5.10
   8  -2   1   28.60    4.50
  -9   2  -1   -1.90    3.20
   9  -2   1    1.10    3.00
 -10   2  -1   50.19    7.20
  10  -2   1   42.30    6.60
  10   1  -1  223.18   11.80
 -10  -1   1  212.18   12.20
   9   1  -1   22.30    4.70
  -9  -1   1   15.00    4.50
   8   1  -1   46.70    5.60
   8   1  -1   47.50    5.70
  -8  -1   1   63.49    5.90
  -8  -1   1   39.30    5.50
   7   1  -1   22.10    3.80
   7   1  -1   16.90    3.70
  -7  -1   1   17.90    3.90
  -7  -1   1   18.30    3.10
  -7  -1   1    8.60    3.00
   6   1  -1  122.99    4.40
   6   1  -1  133.49    6.70
   6   1  -1  130.29    6.60
  -6  -1   1  126.19    6.60
  -6  -1   1  130.69    5.80
  -6  -1   1  126.89    6.20
   5   1  -1  203.58    7.40
   5   1  -1  210.98    7.40
  -5  -1   1  202.78    6.70
  -5  -1   1  209.48    7.70
  -5  -1   1  207.68    7.00
   4   1  -1    2.10    1.60
   4   1  -1    3.50    1.60
  -4  -1   1    1.10    1.70
  -4  -1   1    0.40    1.50
  -4  -1   1    1.50    1.60
   3   1  -1 1205.88   21.40
   3   1  -1 1230.08   21.50
  -3  -1   1 1207.78   21.50
  -3  -1   1 1241.48   21.20
   2   1  -1  487.65    9.40
   2   1  -1  466.95    9.20
  -2  -1   1  477.35    9.20
  -2  -1   1  459.25    9.30
   1   1  -1 1020.80   16.90
   1   1  -1 1067.29   16.80
  -1  -1   1 1027.50   17.10
  -1  -1   1 1040.50   16.90
  -1  -1   1 1028.60   16.80
   0   1  -1  289.97    5.50
   0  -1   1  294.77    5.50
  -1   1  -1 1039.60   17.00
  -1   1  -1 1064.39   16.80
   1  -1   1 1057.39   16.90
   1  -1   1 1045.40   17.00
  -2   1  -1 2956.00   45.60
  -2   1  -1 3015.50   46.10
  -2   1  -1 2959.60   46.50
   2  -1   1 3060.39   46.40
   2  -1   1 2961.70   46.40
  -3   1  -1  453.45   10.00
  -3   1  -1  456.25    9.60
  -3   1  -1  444.46    8.80
   3  -1   1  444.86    9.80
   3  -1   1  454.15    9.90
  -4   1  -1  598.04   13.20
  -4   1  -1  590.84   12.60
  -4   1  -1  604.74   11.60
   4  -1   1  622.74   13.30
   4  -1   1  599.14   13.10
  -5   1  -1    7.00    2.10
  -5   1  -1    4.90    2.00
  -5   1  -1    6.10    1.60
   5  -1   1    4.20    2.00
   5  -1   1    3.30    2.00
  -6   1  -1   38.30    3.20
  -6   1  -1   40.20    4.50
  -6   1  -1   49.80    4.50
   6  -1   1   37.50    4.10
   6  -1   1   44.90    4.70
  -7   1  -1    8.60    3.00
  -7   1  -1    8.00    3.40
   7  -1   1   15.60    3.60
   7  -1   1   13.90    3.40
  -8   1  -1   -1.40    2.80
   8  -1   1    3.10    2.70
   8  -1   1   -0.40    2.60
  -9   1  -1   45.90    6.80
   9  -1   1   33.60    5.20
  10   0  -1   61.79    7.20
 -10   0   1   92.49    9.30
   9   0  -1   11.40    3.90
  -9   0   1   13.60    4.40
   8   0  -1   51.09    5.60
   8   0  -1   55.79    5.90
  -8   0   1   54.29    6.10
   7   0  -1   54.29    5.30
   7   0  -1   61.49    5.70
  -7   0   1   66.59    5.30
  -7   0   1   60.99    4.70
  -7   0   1   61.19    5.90
   6   0  -1  437.76   12.00
   6   0  -1  425.06   12.10
   6   0  -1  435.06    8.40
  -6   0   1  448.86   12.50
  -6   0   1  444.56   11.50
  -6   0   1  433.26   11.40
   5   0  -1   57.39    3.90
   5   0  -1   50.49    3.90
  -5   0   1   50.09    4.30
  -5   0   1   57.39    3.80
  -5   0   1   59.59    3.80
   4   0  -1   22.40    2.50
   4   0  -1   26.50    2.80
  -4   0   1   23.00    2.50
  -4   0   1   18.80    2.40
  -4   0   1   28.90    2.90
   3   0  -1   37.40    2.70
   3   0  -1   38.90    2.70
  -3   0   1   37.00    2.60
  -3   0   1   36.20    3.00
  -3   0   1   37.00    2.70
   2   0  -1  317.47    6.60
   2   0  -1  313.47    6.50
  -2   0   1  324.77    6.70
  -2   0   1  317.87    7.10
  -2   0   1  323.77    6.40
   1   0  -1 3163.98   46.80
   1   0  -1 3102.99   47.80
  -1   0   1 3091.09   47.20
  -1   0   1 3145.19   47.00
   0   0  -1  345.67    5.80
   0   0  -1  350.96    5.70
   0   0  -1  349.77    5.70
   0   0   1  348.47    5.80
   0   0   1  342.07    5.80
   0   0   1  341.07    5.60
   0   0   1  355.06    5.80
  -1   0  -1 9645.04  147.79
  -1   0  -1 9885.01  148.29
   1   0   1 9999.00  148.29
   1   0   1 9728.83  148.59
   1   0   1 9719.63  147.39
  -2   0  -1 1107.69   18.10
  -2   0  -1 1044.90   18.20
  -2   0  -1 1026.30   16.30
   2   0   1 1059.69   16.80
   2   0   1 1081.49   18.20
   2   0   1 1053.09   18.30
  -3   0  -1   21.90    2.50
  -3   0  -1   18.80    1.60
  -3   0  -1   21.10    2.40
   3   0   1   25.00    2.50
   3   0   1   24.70    1.60
   3   0   1   17.20    2.30
  -4   0  -1   62.69    3.90
  -4   0  -1   55.59    2.40
  -4   0  -1   58.39    4.00
   4   0   1   57.19    2.20
   4   0   1   55.29    3.70
   4   0   1   66.99    3.90
  -5   0  -1   96.59    5.30
  -5   0  -1   91.69    3.40
  -5   0  -1  107.09    5.70
   5   0   1   90.69    5.30
   5   0   1   87.09    5.20
   5   0   1   96.29    2.90
  -6   0  -1   49.60    4.70
  -6   0  -1   47.20    4.90
   6   0   1   48.40    4.70
   6   0   1   55.29    5.20
  -7   0  -1   12.60    3.30
  -7   0  -1   16.30    3.60
   7   0   1   14.80    3.60
   7   0   1   18.10    3.50
  -8   0  -1    9.50    3.40
  -8   0  -1    9.90    3.80
   8   0   1    7.90    3.20
   8   0   1    8.50    3.40
  -9   0  -1    7.10    4.20
   9   0   1    3.20    3.10
   9   0   1    5.80    4.60
  10  -1  -1   30.20    5.60
 -10   1   1   29.50    6.10
   9  -1  -1    4.90    3.30
  -9   1   1   -1.00    3.00
   8  -1  -1   25.40    4.30
  -8   1   1   19.90    3.70
  -8   1   1   16.60    3.60
   7  -1  -1   99.99    6.00
   7  -1  -1   96.79    6.20
  -7   1   1   94.29    5.40
  -7   1   1   92.59    6.30
  -7   1   1   96.89    5.80
   6  -1  -1   91.19    5.10
   6  -1  -1   89.09    5.40
  -6   1   1   93.59    5.40
  -6   1   1   84.79    5.40
  -6   1   1   83.89    4.60
   5  -1  -1  125.39    5.20
   5  -1  -1  126.09    5.50
  -5   1   1  134.89    5.70
  -5   1   1  121.49    4.70
  -5   1   1  123.19    5.50
   4  -1  -1   24.70    2.50
   4  -1  -1   17.80    2.20
  -4   1   1   22.60    2.80
  -4   1   1   24.60    2.50
  -4   1   1   21.10    2.20
   3  -1  -1  135.59    4.20
   3  -1  -1  136.99    4.20
  -3   1   1  140.89    4.40
  -3   1   1  145.59    5.20
  -3   1   1  148.59    3.90
   2  -1  -1  798.62   14.50
   2  -1  -1  788.82   13.00
   2  -1  -1  768.82   12.90
  -2   1   1  798.22   12.50
  -2   1   1  795.32   13.30
  -2   1   1  788.12   14.50
  -1   1   1 2115.79   31.30
  -1   1   1 2086.99   31.30
  -1   1   1 2085.39   32.30
  -1   1   1 2122.59   32.80
  -1   1   1 2097.79   33.10
   0  -1  -1 2756.62   40.80
   0  -1  -1 2683.83   40.70
   0   1   1 2817.12   42.20
   0   1   1 2752.82   42.00
   0   1   1 2805.42   42.30
   0   1   1 2716.23   41.20
   0   1   1 2792.72   41.20
  -1  -1  -1  403.36    7.50
  -1  -1  -1  389.16    7.60
   1   1   1  400.96    7.70
   1   1   1  388.96    7.30
   1   1   1  393.56    7.70
  -2  -1  -1  505.95   10.20
  -2  -1  -1  507.85   10.00
   2   1   1  507.35   10.30
   2   1   1  504.05   10.00
   2   1   1  501.05    9.60
  -3  -1  -1   -0.90    1.50
  -3  -1  -1    1.20    1.50
  -3  -1  -1    0.10    0.80
   3   1   1   -0.50    1.50
   3   1   1   -0.10    1.10
   3   1   1    1.80    1.50
  -4  -1  -1   51.99    4.00
  -4  -1  -1   45.40    2.00
  -4  -1  -1   48.30    4.10
   4   1   1   47.70    2.70
   4   1   1   44.80    3.90
   4   1   1   46.00    3.50
  -5  -1  -1  208.58    4.80
  -5  -1  -1  208.98    7.70
  -5  -1  -1  194.58    7.80
   5   1   1  194.28    5.50
   5   1   1  206.58    8.00
   5   1   1  202.38    7.60
  -6  -1  -1  174.08    8.20
  -6  -1  -1  173.48    7.70
   6   1   1  168.18    8.10
   6   1   1  172.98    7.80
  -7  -1  -1   -3.10    2.40
  -7  -1  -1    5.70    3.20
   7   1   1    1.10    2.40
   7   1   1   -2.50    2.30
  -8  -1  -1   97.09    7.40
  -8  -1  -1   85.09    7.80
   8   1   1   78.49    7.00
   8   1   1   93.29    7.20
  -9  -1  -1   17.70    5.10
   9   1   1   14.60    4.30
   9   1   1   17.00    4.60
  10  -2  -1   24.20    5.00
 -10   2   1   33.60    6.00
   9  -2  -1    8.00    3.50
  -9   2   1   13.40    4.00
   8  -2  -1   13.00    3.50
  -8   2   1   11.00    3.20
  -8   2   1   11.40    3.60
   7  -2  -1   17.50    3.30
  -7   2   1   20.70    3.60
  -7   2   1   23.90    3.80
   6  -2  -1   34.20    3.60
   6  -2  -1   32.10    3.60
  -6   2   1   40.50    4.10
  -6   2   1   40.40    4.20
  -6   2   1   38.50    3.20
   5  -2  -1  107.49    4.90
   5  -2  -1  106.09    4.50
  -5   2   1  103.59    4.00
  -5   2   1  107.29    5.50
  -5   2   1  100.29    4.80
   4  -2  -1  560.24   11.30
   4  -2  -1  577.44   11.60
  -4   2   1  573.94   10.40
  -4   2   1  549.35   13.00
  -4   2   1  554.64   11.80
   3  -2  -1   58.99    2.50
   3  -2  -1   54.49    2.60
  -3   2   1   56.49    2.80
  -3   2   1   47.30    3.80
   2  -2  -1  826.02   13.00
   2  -2  -1  836.92   12.90
  -2   2   1  834.32   13.50
  -2   2   1  841.92   13.60
  -2   2   1  841.92   14.30
  -2   2   1  818.42   15.80
  -1   2   1  297.77    7.00
  -1   2   1  301.27    6.60
   0  -2  -1  155.18    2.90
   0  -2  -1  156.68    3.50
   0  -2  -1  158.38    2.90
   0   2   1  154.48    4.60
   0   2   1  158.78    4.60
   0   2   1  152.18    3.40
   0   2   1  156.18    4.50
   0   2   1  154.28    3.40
  -1  -2  -1    0.40    1.00
  -1  -2  -1    0.80    1.00
   1   2   1    1.00    1.30
   1   2   1    0.80    0.90
   1   2   1    1.60    1.40
   1   2   1    0.80    1.00
  -2  -2  -1  209.98    5.90
  -2  -2  -1  213.98    5.90
   2   2   1  206.98    5.60
   2   2   1  218.78    6.00
   2   2   1  211.88    6.10
  -3  -2  -1 2726.73   44.80
  -3  -2  -1 2738.93   44.90
   3   2   1 2768.62   44.10
   3   2   1 2785.02   44.50
   3   2   1 2752.02   45.40
  -4  -2  -1    2.70    1.10
  -4  -2  -1    0.60    1.80
  -4  -2  -1    3.40    2.00
   4   2   1    1.00    1.70
   4   2   1    2.30    1.50
   4   2   1    2.70    2.10
  -5  -2  -1   -0.20    2.10
  -5  -2  -1   -0.90    2.10
   5   2   1   -1.60    1.80
   5   2   1   -1.80    2.10
   5   2   1    1.00    1.40
  -6  -2  -1  137.69    7.50
  -6  -2  -1  136.29    7.40
   6   2   1  138.49    5.40
   6   2   1  134.99    7.50
   6   2   1  138.39    7.10
  -7  -2  -1    7.00    3.40
  -7  -2  -1    2.10    2.90
   7   2   1    3.80    2.90
   7   2   1   -0.10    2.50
  -8  -2  -1   -2.50    2.90
  -8  -2  -1    4.40    3.60
   8   2   1   -2.20    2.40
   8   2   1   -0.30    3.20
  -9  -2  -1  178.78   11.40
  -9  -2  -1  188.48   11.30
   9   2   1  214.08   11.70
  10  -3  -1    3.30    3.50
 -10   3   1    6.00    4.00
   9  -3  -1   34.20    5.00
  -9   3   1   47.20    6.20
  -9   3   1   45.30    5.70
   8  -3  -1   34.90    4.60
  -8   3   1   29.70    4.40
  -8   3   1   46.30    5.50
   7  -3  -1  278.77    9.70
  -7   3   1  282.67   10.50
  -7   3   1  262.77    9.70
   6  -3  -1  115.99    5.70
  -6   3   1  115.59    5.80
  -6   3   1  107.09    6.40
   5  -3  -1  120.99    5.10
   5  -3  -1  130.29    4.70
  -5   3   1  126.09    5.20
  -5   3   1  123.19    6.30
   4  -3  -1  152.08    4.80
  -4   3   1  155.18    5.00
  -4   3   1  151.18    6.40
   3  -3  -1  522.75    9.40
   3  -3  -1  527.95    9.50
  -3   3   1  518.75   10.20
  -3   3   1  509.25    9.90
  -3   3   1  520.05   12.40
  -2   3   1    0.10    2.00
  -2   3   1    1.30    0.90
  -2   3   1    2.00    0.90
  -2   3   1    1.20    1.80
  -2   3   1    0.30    1.40
  -1   3   1  739.43   14.00
  -1   3   1  743.33   11.80
  -1   3   1  741.93   14.50
  -1   3   1  749.13   11.80
  -1   3   1  743.73   14.90
   0  -3  -1  398.16    7.10
   0  -3  -1  409.26    7.70
   0  -3  -1  390.26    7.00
   0   3   1  391.16    9.00
   0   3   1  395.36    7.50
   0   3   1  401.96    7.50
   0   3   1  392.76    9.40
  -1  -3  -1   65.49    2.90
  -1  -3  -1   64.19    3.00
   1   3   1   70.69    3.20
   1   3   1   63.99    4.10
   1   3   1   64.59    3.60
  -2  -3  -1   17.00    2.20
  -2  -3  -1   20.30    2.30
   2   3   1   15.30    2.30
   2   3   1    8.50    2.30
   2   3   1   13.30    2.20
   2   3   1    9.80    1.60
  -3  -3  -1   78.39    4.40
  -3  -3  -1   67.19    4.00
   3   3   1   69.49    4.00
   3   3   1   68.49    3.70
   3   3   1   70.19    4.20
  -4  -3  -1   94.09    5.20
  -4  -3  -1   99.49    5.50
   4   3   1   98.29    4.90
   4   3   1   93.29    4.90
   4   3   1   99.89    5.70
  -5  -3  -1  129.09    6.70
  -5  -3  -1  116.09    6.60
   5   3   1  124.19    6.70
   5   3   1  133.29    5.70
   5   3   1  120.69    6.10
  -6  -3  -1  103.19    7.10
  -6  -3  -1  111.39    7.00
   6   3   1  111.89    6.40
   6   3   1  107.99    5.40
   6   3   1  102.99    7.10
  -7  -3  -1   58.79    6.30
  -7  -3  -1   80.49    7.30
   7   3   1   62.09    6.80
  -8  -3  -1   10.40    4.30
   8   3   1   15.50    5.00
  10  -4  -1    3.30    3.40
 -10   4   1    6.50    3.80
   9  -4  -1   -0.50    2.80
  -9   4   1   -1.10    2.70
  -9   4   1    0.60    2.90
   8  -4  -1   85.09    6.30
  -8   4   1   83.49    6.20
  -8   4   1   77.89    6.80
   7  -4  -1   52.09    4.80
  -7   4   1   55.59    5.10
  -7   4   1   61.59    6.20
   6  -4  -1   39.40    3.70
  -6   4   1   34.10    4.50
  -6   4   1   37.60    3.80
   5  -4  -1  121.89    5.00
  -5   4   1  126.09    6.90
  -5   4   1  129.09    5.20
   4  -4  -1    1.00    1.10
  -4   4   1   -1.90    1.80
  -4   4   1    2.00    1.30
  -4   4   1    0.80    1.20
   3  -4  -1    0.60    0.70
   3  -4  -1   -0.70    0.70
  -3   4   1   -0.30    0.90
  -3   4   1   -0.90    2.00
  -3   4   1    0.30    1.30
  -3   4   1   -0.50    0.90
  -3   4   1    1.60    1.80
  -2   4   1  190.18    4.20
  -2   4   1  190.88    6.70
  -2   4   1  194.98    7.30
  -2   4   1  189.68    6.00
  -2   4   1  190.68    4.20
   1  -4  -1    5.30    0.60
   1  -4  -1    6.50    1.10
   1  -4  -1    4.80    0.60
  -1   4   1    5.00    2.00
  -1   4   1    5.40    2.10
  -1   4   1    5.20    1.00
  -1   4   1    4.40    1.00
   0  -4  -1   26.00    1.80
   0  -4  -1   25.60    2.10
   0  -4  -1   24.80    1.90
   0   4   1   20.30    3.00
   0   4   1   25.80    2.00
   0   4   1   26.10    2.10
   0   4   1   30.60    3.20
  -1  -4  -1  248.58    6.40
  -1  -4  -1  256.57    6.20
   1   4   1  257.57    7.70
   1   4   1  259.27    6.70
   1   4   1  250.37    8.20
  -2  -4  -1    6.60    1.80
  -2  -4  -1    6.70    1.70
   2   4   1    4.60    2.30
   2   4   1    5.60    1.30
   2   4   1    5.00    1.80
   2   4   1    6.70    2.00
  -3  -4  -1   55.59    4.20
  -3  -4  -1   52.99    3.80
   3   4   1   59.29    4.20
   3   4   1   61.49    4.40
   3   4   1   54.19    5.00
   3   4   1   53.39    3.40
  -4  -4  -1  232.28    8.30
  -4  -4  -1  225.38    8.40
   4   4   1  212.58    8.50
   4   4   1  238.38    8.20
   4   4   1  220.38    7.40
  -5  -4  -1   70.09    5.80
  -5  -4  -1   73.19    5.50
   5   4   1   83.19    5.30
   5   4   1   67.49    6.00
  -6  -4  -1   27.50    4.60
   6   4   1   43.10    4.40
   6   4   1   33.20    4.80
  -7  -4  -1   19.40    4.60
   7   4   1   20.40    4.50
  -8  -4  -1   -2.60    3.30
   8   4   1    4.40    4.20
  10  -5  -1  103.09    8.80
 -10   5   1  107.29    8.10
   9  -5  -1    4.20    2.90
  -9   5   1    5.70    3.60
  -9   5   1   -1.10    2.70
   8  -5  -1   -2.50    2.30
  -8   5   1   -2.00    2.70
  -8   5   1    1.50    2.70
   7  -5  -1   21.40    3.40
  -7   5   1   23.70    3.60
  -7   5   1   24.50    4.50
   6  -5  -1  272.47    8.50
  -6   5   1  276.07   11.00
  -6   5   1  269.47    8.60
   5  -5  -1  263.77    7.40
  -5   5   1  255.97    7.60
  -5   5   1  256.37    7.10
  -5   5   1  256.47   10.20
   4  -5  -1 1193.08   20.20
   4  -5  -1 1185.58   20.40
  -4   5   1 1196.78   21.60
  -4   5   1 1207.28   20.80
  -4   5   1 1156.18   20.60
  -4   5   1 1177.28   25.10
   3  -5  -1  208.68    4.70
   3  -5  -1  204.48    4.60
  -3   5   1  212.58    8.40
  -3   5   1  204.88    7.70
  -3   5   1  204.68    5.10
  -3   5   1  200.48    6.60
  -3   5   1  205.08    5.20
   2  -5  -1   75.29    2.20
   2  -5  -1   77.19    2.80
   2  -5  -1   77.29    2.20
  -2   5   1   78.89    4.90
  -2   5   1   77.49    2.70
  -2   5   1   73.79    2.70
  -2   5   1   81.39    4.40
   1  -5  -1    2.70    0.80
   1  -5  -1    5.00    1.20
   1  -5  -1    4.80    0.90
  -1   5   1    1.20    2.00
  -1   5   1    2.80    1.00
  -1   5   1    4.50    2.10
  -1   5   1    4.20    1.10
   0  -5  -1  235.48    5.80
   0  -5  -1  245.98    6.30
   0  -5  -1  249.08    5.90
   0   5   1  240.28    6.20
   0   5   1  244.38    8.00
   0   5   1  246.08    8.50
  -1  -5  -1  113.99    4.50
   1   5   1  117.19    6.20
   1   5   1  120.19    5.60
   1   5   1  119.69    4.70
  -2  -5  -1   47.30    3.70
  -2  -5  -1   48.00    3.30
   2   5   1   45.20    3.90
   2   5   1   44.60    4.30
   2   5   1   39.80    4.40
  -3  -5  -1  207.48    7.70
   3   5   1  204.98    8.20
   3   5   1  230.78    9.60
   3   5   1  215.88    8.00
  -4  -5  -1   11.00    3.10
   4   5   1    4.30    2.70
   4   5   1    6.70    3.70
   4   5   1    7.30    2.70
  -5  -5  -1   -3.90    2.40
   5   5   1   -2.60    3.30
   5   5   1    1.20    2.60
   5   5   1    1.90    2.20
  -6  -5  -1   50.49    5.80
   6   5   1   60.09    6.60
   6   5   1   46.00    6.60
   6   5   1   51.79    5.10
  -7  -5  -1  134.99    9.20
   7   5   1  138.99    9.40
   7   5   1  128.19   10.70
   9  -6  -1   51.89    6.00
  -9   6   1   47.30    5.70
   8  -6  -1    5.70    2.70
  -8   6   1    2.80    2.60
   7  -6  -1   12.10    2.80
  -7   6   1    7.90    2.70
  -7   6   1   14.80    4.20
   6  -6  -1   99.79    5.20
  -6   6   1  106.29    4.80
  -6   6   1   99.29    7.80
  -6   6   1   92.99    5.10
   5  -6  -1  962.80   18.40
  -5   6   1  972.10   23.50
  -5   6   1  954.20   18.90
  -5   6   1  984.50   18.70
   4  -6  -1  155.18    4.80
  -4   6   1  142.69    8.20
  -4   6   1  152.68    6.20
  -4   6   1  151.08    5.10
  -4   6   1  152.28    7.60
   3  -6  -1    0.60    1.00
   3  -6  -1    1.80    0.90
   3  -6  -1   -0.60    1.00
  -3   6   1    2.90    2.60
  -3   6   1    1.30    1.10
  -3   6   1   -0.70    1.00
  -3   6   1    1.60    1.90
   2  -6  -1   70.79    2.60
   2  -6  -1   71.99    3.10
   2  -6  -1   69.89    2.60
  -2   6   1   71.99    3.00
  -2   6   1   73.99    5.30
  -2   6   1   68.19    2.90
  -2   6   1   66.59    4.60
   1  -6  -1  190.78    4.90
   1  -6  -1  184.48    4.80
   1  -6  -1  189.98    5.40
  -1   6   1  182.28    7.30
  -1   6   1  193.48    7.90
  -1   6   1  183.18    5.20
  -1   6   1  190.68    5.20
   0  -6  -1   27.10    2.50
   0  -6  -1   27.50    2.70
   0   6   1   26.10    3.80
   0   6   1   27.50    2.70
   0   6   1   29.90    4.00
  -1  -6  -1    7.20    2.00
   1   6   1    8.40    2.20
   1   6   1   10.30    2.90
   1   6   1    8.20    3.00
  -2  -6  -1  409.46   10.80
   2   6   1  417.06   11.30
   2   6   1  425.76   13.50
   2   6   1  399.86   12.30
  -3  -6  -1   36.60    4.10
   3   6   1   40.70    5.40
   3   6   1   30.40    4.10
   3   6   1   41.60    4.40
  -4  -6  -1    8.90    3.10
   4   6   1   13.00    3.50
   4   6   1   10.40    3.10
   4   6   1    5.10    3.90
  -5  -6  -1    2.10    2.90
   5   6   1    4.90    2.80
   5   6   1    3.00    3.80
   5   6   1    0.70    2.90
  -6  -6  -1   86.79    7.60
   6   6   1   91.59    9.10
   6   6   1   86.19    6.70
   6   6   1   89.19    8.20
  -7  -6  -1   58.59    7.00
   7   6   1   55.19    8.50
   7   6   1   60.79    7.40
   9  -7  -1    4.00    3.10
  -9   7   1    1.80    2.80
   8  -7  -1   14.10    3.40
  -8   7   1   11.30    3.30
   7  -7  -1   20.30    3.40
  -7   7   1   14.60    3.10
   6  -7  -1  299.57    9.00
  -6   7   1  287.57    8.80
  -6   7   1  297.97    9.00
   5  -7  -1   63.59    3.80
  -5   7   1   65.79    4.10
  -5   7   1   58.89    4.60
   4  -7  -1   79.79    3.80
  -4   7   1   82.09    5.30
  -4   7   1   88.79    6.60
  -4   7   1   81.39    4.00
   3  -7  -1   36.20    2.60
  -3   7   1   40.70    4.30
  -3   7   1   36.20    2.80
  -3   7   1   36.60    4.80
   2  -7  -1   57.59    2.90
  -2   7   1   49.20    3.10
  -2   7   1   71.99    6.20
  -2   7   1   56.59    5.20
   1  -7  -1  346.17    8.10
  -1   7   1  324.87   11.50
  -1   7   1  353.86   11.20
  -1   7   1  355.96    8.50
   0  -7  -1   30.30    3.00
   0  -7  -1   27.30    3.10
   0   7   1   28.70    3.00
   0   7   1   32.80    4.40
   0   7   1   28.80    4.60
  -1  -7  -1    6.90    2.20
   1   7   1    6.20    2.30
   1   7   1    2.80    3.00
   1   7   1    7.90    3.00
  -2  -7  -1   10.20    2.70
   2   7   1   10.90    2.90
   2   7   1   10.00    3.00
   2   7   1    5.60    3.60
  -3  -7  -1    1.10    2.40
   3   7   1   -3.00    2.10
   3   7   1   -1.50    2.50
   3   7   1    1.70    3.40
  -4  -7  -1   -0.70    2.60
   4   7   1    4.10    3.70
   4   7   1    0.00    2.70
   4   7   1    1.60    2.60
  -5  -7  -1   14.70    4.20
   5   7   1   14.30    4.00
   5   7   1   18.60    4.10
   5   7   1   19.00    5.20
  -6  -7  -1  241.18   11.80
   6   7   1  243.98   12.10
   6   7   1  236.58   13.40
   6   7   1  247.88   11.20
   9  -8  -1    1.70    2.80
  -9   8   1    3.00    2.90
   8  -8  -1   31.10    4.50
  -8   8   1   35.30    4.60
   7  -8  -1   36.60    4.20
  -7   8   1   24.90    3.60
   6  -8  -1  100.79    5.50
  -6   8   1  106.09    5.80
  -6   8   1  108.59    5.50
   5  -8  -1  259.17    7.70
  -5   8   1  258.77    7.80
  -5   8   1  249.28    9.10
   4  -8  -1    5.50    1.80
  -4   8   1    6.80    2.80
  -4   8   1    7.70    1.80
  -4   8   1    5.70    3.40
   3  -8  -1  226.08    6.30
  -3   8   1  232.48   10.20
  -3   8   1  215.18    9.10
  -3   8   1  227.48    6.50
   2  -8  -1    7.20    1.80
  -2   8   1    9.10    2.00
  -2   8   1    8.60    3.10
  -2   8   1    3.60    3.10
   1  -8  -1  205.88    6.40
  -1   8   1  211.28    9.80
  -1   8   1  194.48    6.50
  -1   8   1  202.68    9.10
   0  -8  -1   16.90    2.70
   0   8   1   14.10    4.20
   0   8   1   11.20    3.20
   0   8   1   23.40    3.10
  -1  -8  -1  157.28    6.70
   1   8   1  150.58    9.10
   1   8   1  151.88    6.70
   1   8   1  155.08    8.50
  -2  -8  -1   16.00    3.20
   2   8   1   18.20    3.30
   2   8   1   12.10    3.50
   2   8   1    3.50    3.70
  -3  -8  -1  170.18    8.20
   3   8   1  154.18    8.00
   3   8   1  178.18   10.50
   3   8   1  167.88    9.30
  -4  -8  -1   84.19    7.00
   4   8   1   93.89    8.20
   4   8   1   95.39    9.30
   4   8   1   89.99    7.10
  -5  -8  -1   49.20    6.20
   5   8   1   38.00    5.70
   5   8   1   39.30    5.80
   5   8   1   50.09    7.60
   8  -9  -1  105.79    7.00
  -8   9   1  110.39    6.80
   7  -9  -1    3.40    2.60
  -7   9   1    5.50    2.70
   6  -9  -1   70.39    4.90
  -6   9   1   70.99    4.70
  -6   9   1   60.99    5.40
   5  -9  -1    2.50    1.80
  -5   9   1    1.20    2.40
  -5   9   1    0.40    1.70
   4  -9  -1   28.40    2.90
  -4   9   1   29.70    5.00
  -4   9   1   22.40    2.80
  -4   9   1   34.00    4.80
   3  -9  -1   27.90    2.90
  -3   9   1   25.20    4.40
  -3   9   1   26.50    2.80
  -3   9   1   28.10    5.00
   2  -9  -1  213.48    6.70
  -2   9   1  203.18   10.20
  -2   9   1  197.98    6.60
  -2   9   1  203.98    9.50
   1  -9  -1    6.30    2.10
  -1   9   1    8.20    2.20
  -1   9   1    3.70    3.40
  -1   9   1    5.80    3.30
   0  -9  -1  206.68    7.60
   0   9   1  215.08   10.90
   0   9   1  195.28   10.10
   0   9   1  204.38    7.50
  -1  -9  -1    5.60    2.60
   1   9   1    5.00    2.60
   1   9   1    6.10    3.80
   1   9   1    6.40    3.50
  -2  -9  -1   25.30    4.00
   2   9   1   15.50    4.90
   2   9   1   18.40    3.70
   2   9   1   25.30    5.00
  -3  -9  -1  112.19    7.40
   3   9   1   97.39    7.20
   3   9   1   92.29    8.20
   3   9   1  105.09    9.70
  -4  -9  -1   91.79    7.70
   4   9   1  100.79    9.00
   4   9   1   71.59    8.30
   4   9   1   86.89    7.90
   7 -10  -1   96.49    6.40
  -7  10   1  100.49    6.00
   6 -10  -1   74.59    5.20
  -6  10   1   79.49    4.90
   5 -10  -1    3.30    2.00
  -5  10   1    0.90    1.90
  -5  10   1    2.20    2.80
   4 -10  -1    2.90    1.80
  -4  10   1    0.40    2.90
  -4  10   1    2.30    1.80
  -4  10   1    2.40    3.50
   3 -10  -1   89.29    4.80
  -3  10   1   67.19    7.10
  -3  10   1   79.39    7.40
  -3  10   1   75.69    4.40
   2 -10  -1   37.10    3.70
  -2  10   1   44.10    3.90
  -2  10   1   45.10    5.90
  -2  10   1   39.30    6.20
   1 -10  -1  102.59    5.60
  -1  10   1   98.99    5.50
  -1  10   1   86.79    7.70
  -1  10   1  113.29    8.80
   0 -10  -1   28.70    3.90
   0  10   1   27.10    5.20
   0  10   1   26.70    5.50
   0  10   1   36.80    4.10
  -1 -10  -1  176.18    8.30
   1  10   1  189.08   10.70
   1  10   1  172.78   11.40
   1  10   1  186.58    8.40
  -2 -10  -1   34.00    4.80
   2  10   1   35.10    6.40
   2  10   1   39.70    5.80
   2  10   1   37.40    5.00
  -3 -10  -1  155.68    9.00
   3  10   1  163.08   11.70
   3  10   1  153.38    8.90
   3  10   1  161.48   10.40
   6 -11  -1   27.20    3.80
  -6  11   1   24.80    3.30
   5 -11  -1   70.79    5.10
  -5  11   1   86.79    7.70
  -5  11   1   72.99    8.40
  -5  11   1   79.99    4.80
   4 -11  -1   19.40    3.10
  -4  11   1    8.90    2.40
  -4  11   1    9.10    4.60
  -4  11   1    9.60    3.90
   3 -11  -1   34.60    3.80
  -3  11   1   27.10    3.30
  -3  11   1   36.40    6.50
  -3  11   1   41.30    6.10
   2 -11  -1   -3.30    1.80
  -2  11   1   -2.50    3.20
  -2  11   1    3.10    2.10
  -2  11   1    3.00    3.80
   1 -11  -1   44.10    4.60
  -1  11   1   36.60    4.10
  -1  11   1   31.70    6.10
  -1  11   1   40.00    6.30
   0 -11  -1    4.00    2.80
   0  11   1    3.60    3.70
   0  11   1    0.80    4.10
   0  11   1    4.40    2.70
  -1 -11  -1   39.60    5.00
   1  11   1   49.50    6.90
   1  11   1   35.40    6.70
   1  11   1   47.40    5.30
   3 -12  -1    6.50    2.80
  -3  12   1   -4.00    3.60
  -3  12   1    9.50    4.70
  -3  12   1    4.90    2.40
   2 -12  -1    2.60    2.70
  -2  12   1    7.00    2.40
  -2  12   1    2.90    4.20
   1  12  -2   13.10    4.40
   1  12  -2   11.70    3.80
   1  12  -2    6.20    4.50
  -1 -12   2   14.90    3.90
   0  12  -2   -0.90    2.60
   0  12  -2    1.50    3.40
   0  12  -2    2.60    3.80
   0 -12   2   -0.80    2.90
  -1  12  -2   15.20    4.40
  -1  12  -2   10.40    4.10
  -1  12  -2    8.70    3.30
   1 -12   2   19.20    4.00
  -2  12  -2  108.09    8.90
  -2  12  -2  109.39    6.90
  -2  12  -2  114.99    8.60
   2 -12   2  120.29    7.30
  -3  12  -2   13.40    4.40
  -3  12  -2   17.10    3.70
  -3  12  -2   10.40    3.90
   3 -12   2   20.80    4.10
  -4  12  -2   41.90    6.60
  -4  12  -2   40.00    6.00
  -4  12  -2   49.40    5.30
   4 -12   2   44.50    5.30
  -5  12  -2    7.30    3.30
   5 -12   2    6.10    3.20
   3  11  -2   12.60    4.60
   3  11  -2    6.40    4.40
   3  11  -2    9.50    3.90
  -3 -11   2    1.90    3.30
   2  11  -2   54.39    7.60
   2  11  -2   41.80    5.70
   2  11  -2   39.10    6.00
  -2 -11   2   45.90    5.60
   1  11  -2   39.80    5.30
   1  11  -2   25.10    5.00
   1  11  -2   31.40    5.70
  -1 -11   2   37.70    4.90
   0  11  -2   36.10    5.50
   0  11  -2   33.20    4.60
   0  11  -2   39.80    6.20
   0 -11   2   40.80    4.80
  -1  11  -2   16.10    4.20
  -1  11  -2   12.50    3.50
  -1  11  -2   16.70    4.20
   1 -11   2   30.50    4.20
  -2  11  -2   42.40    5.90
  -2  11  -2   41.40    5.80
  -2  11  -2   45.40    4.90
   2 -11   2   50.39    5.20
  -3  11  -2   77.29    7.20
  -3  11  -2   76.99    7.30
  -3  11  -2   70.99    5.60
   3 -11   2   85.59    6.00
  -4  11  -2   82.09    7.60
  -4  11  -2   84.09    6.10
  -4  11  -2  106.69    7.50
   4 -11   2  108.79    6.70
  -5  11  -2   10.40    3.40
  -5  11  -2    8.40    3.10
   5 -11   2   12.40    3.20
  -6  11  -2    4.00    2.70
   6 -11   2    0.80    2.80
   4  10  -2   42.40    6.10
   4  10  -2   32.90    6.20
   4  10  -2   46.00    6.80
  -4 -10   2   48.80    6.30
   3  10  -2   18.60    4.20
   3  10  -2   25.10    5.10
   3  10  -2   20.00    5.30
  -3 -10   2   17.10    4.20
   2  10  -2   11.80    3.90
   2  10  -2   11.30    4.50
   2  10  -2    6.70    3.30
  -2 -10   2    9.70    3.50
   1  10  -2   10.50    4.00
   1  10  -2    8.10    3.80
   1  10  -2   11.10    3.20
  -1 -10   2   10.20    3.20
   0  10  -2   32.70    4.90
   0  10  -2   52.69    5.20
   0  10  -2   40.40    5.70
   0 -10   2   43.30    4.80
  -1  10  -2   90.49    7.20
  -1  10  -2   86.59    5.70
  -1  10  -2   90.99    7.20
   1 -10   2   84.99    5.70
  -2  10  -2  182.78    9.30
  -2  10  -2  182.78    9.10
  -2  10  -2  184.48    8.00
   2 -10   2  196.48    8.00
  -3  10  -2    4.80    2.50
  -3  10  -2    1.10    2.60
  -3  10  -2    1.50    2.70
   3 -10   2    1.40    2.20
  -4  10  -2   37.30    4.80
  -4  10  -2   32.70    4.90
  -4  10  -2   37.10    4.40
   4 -10   2   45.50    4.60
  -5  10  -2  149.49    7.40
  -5  10  -2  149.29    7.30
   5 -10   2  145.69    7.50
  -6  10  -2   13.10    3.60
   6 -10   2   22.50    3.90
  -7  10  -2   16.40    3.90
   7 -10   2   29.10    4.70
   5   9  -2   14.60    4.40
   5   9  -2   10.90    4.20
   5   9  -2   12.60    5.10
  -5  -9   2    9.90    4.10
   4   9  -2   55.19    7.50
   4   9  -2   57.09    6.60
   4   9  -2   53.59    6.30
  -4  -9   2   56.29    5.90
   3   9  -2    5.00    3.90
   3   9  -2    7.10    3.40
   3   9  -2    7.30    3.40
  -3  -9   2    9.80    3.40
   2   9  -2    6.20    3.20
   2   9  -2   -2.90    2.20
   2   9  -2    4.40    3.50
  -2  -9   2    1.00    2.40
  -2  -9   2   -0.60    2.30
   1   9  -2  156.18    7.40
   1   9  -2  156.38    8.60
   1   9  -2  150.68    8.80
  -1  -9   2  154.68    7.60
  -1  -9   2  145.59    7.10
   0   9  -2  217.98    8.40
   0   9  -2  226.38   10.10
   0   9  -2  252.27   10.30
   0  -9   2  216.38    8.30
   0  -9   2  241.98    8.90
  -1   9  -2  219.78    8.20
  -1   9  -2  214.18    9.40
  -1   9  -2  222.98    9.60
   1  -9   2  224.78    8.10
   1  -9   2  220.78    8.30
  -2   9  -2  113.49    6.90
  -2   9  -2  106.19    7.00
  -2   9  -2  106.49    5.80
   2  -9   2  114.79    6.00
   2  -9   2  107.99    5.80
  -3   9  -2   77.59    5.20
  -3   9  -2   80.39    6.30
  -3   9  -2   70.69    5.60
   3  -9   2   82.29    5.20
  -4   9  -2    6.10    2.70
  -4   9  -2   13.30    3.00
  -4   9  -2   11.00    3.40
   4  -9   2   11.70    2.90
  -5   9  -2   85.79    5.90
  -5   9  -2   90.39    5.50
   5  -9   2   84.79    5.80
  -6   9  -2   36.30    4.70
   6  -9   2   42.20    4.80
  -7   9  -2   16.20    4.00
   7  -9   2   19.20    4.00
  -8   9  -2   30.20    5.20
   8  -9   2   38.00    5.40
   6   8  -2   42.60    5.70
   6   8  -2   34.00    6.00
   6   8  -2   22.80    5.80
  -6  -8   2   47.20    6.30
   5   8  -2  114.49    9.60
   5   8  -2  108.49    7.80
   5   8  -2   89.59    7.90
  -5  -8   2   99.29    7.70
   4   8  -2   54.89    7.20
   4   8  -2   42.80    5.30
   4   8  -2   48.50    5.70
  -4  -8   2   44.20    5.20
   3   8  -2  144.69    9.00
   3   8  -2  138.89    8.10
   3   8  -2  143.79    7.60
  -3  -8   2  138.49    7.50
   2   8  -2  276.97    9.90
   2   8  -2  278.67   10.80
   2   8  -2  283.57   11.60
  -2  -8   2  259.77    9.90
  -2  -8   2  261.37    9.50
   1   8  -2    1.90    2.20
   1   8  -2   -2.10    2.60
   1   8  -2    1.60    2.50
  -1  -8   2    2.30    2.20
  -1  -8   2   -0.70    1.90
   0   8  -2  134.19    6.30
   0   8  -2  123.39    7.00
   0   8  -2  130.99    7.30
   0  -8   2  115.89    5.80
   0  -8   2  130.99    6.20
  -1   8  -2   37.40    4.40
  -1   8  -2   31.30    4.10
  -1   8  -2   46.30    4.20
   1  -8   2   41.50    3.90
   1  -8   2   42.90    4.10
  -2   8  -2   43.50    4.00
  -2   8  -2   34.00    4.10
  -2   8  -2   38.40    4.30
   2  -8   2   43.80    4.10
   2  -8   2   45.10    3.80
  -3   8  -2    9.20    2.60
  -3   8  -2   11.90    2.60
  -3   8  -2   12.20    3.10
   3  -8   2    6.90    2.40
   3  -8   2   11.80    2.60
  -4   8  -2  303.27    9.70
  -4   8  -2  307.07    9.50
  -4   8  -2  307.07   10.60
   4  -8   2  315.37    9.60
   4  -8   2  322.67   10.10
  -5   8  -2   80.39    5.60
  -5   8  -2   71.99    4.60
   5  -8   2   63.79    5.00
   5  -8   2   74.99    5.30
  -6   8  -2    3.20    2.40
   6  -8   2    6.70    2.80
   6  -8   2    1.90    2.50
  -7   8  -2   23.60    4.20
   7  -8   2   21.50    4.10
  -8   8  -2   51.39    6.20
   8  -8   2   59.49    6.30
  -9   8  -2   79.09    8.00
   9  -8   2   75.19    7.70
   7   7  -2   14.20    4.70
   7   7  -2   16.80    4.10
   7   7  -2   17.90    6.00
  -7  -7   2   13.30    4.60
   6   7  -2   23.00    5.00
   6   7  -2   24.90    6.10
   6   7  -2   31.70    4.70
  -6  -7   2   29.00    5.00
   5   7  -2   -2.00    2.70
   5   7  -2   -1.70    3.50
   5   7  -2    6.40    3.10
  -5  -7   2    9.30    3.60
   4   7  -2  221.58    9.70
   4   7  -2  243.18   11.40
   4   7  -2  234.28    9.60
  -4  -7   2  226.98    9.20
   3   7  -2  362.16   13.10
   3   7  -2  363.66   11.90
   3   7  -2  357.66   11.40
  -3  -7   2  368.36   11.30
   2   7  -2    1.80    2.40
   2   7  -2    2.50    2.80
   2   7  -2    1.20    2.10
  -2  -7   2   -0.10    1.90
  -2  -7   2   -2.20    1.90
  -2  -7   2    1.90    2.10
   1   7  -2   39.00    3.90
   1   7  -2   48.40    4.80
   1   7  -2   53.19    4.70
  -1  -7   2   59.19    4.40
  -1  -7   2   53.49    4.30
  -1  -7   2   56.29    3.80
   0   7  -2    1.70    2.20
   0   7  -2    0.00    2.10
   0   7  -2   -1.70    1.50
   0  -7   2   -3.30    1.40
   0  -7   2    0.00    1.40
   0  -7   2    0.50    1.70
  -1   7  -2   93.39    5.40
  -1   7  -2   91.39    5.60
  -1   7  -2   94.09    4.70
   1  -7   2  104.79    4.70
   1  -7   2   98.89    4.70
   1  -7   2   94.09    4.80
  -2   7  -2    1.10    1.80
  -2   7  -2   -0.10    1.80
  -2   7  -2    0.40    1.60
   2  -7   2   -2.00    1.40
   2  -7   2   -1.60    1.40
  -3   7  -2   65.39    4.40
  -3   7  -2   57.39    4.70
  -3   7  -2   69.69    4.40
   3  -7   2   64.99    4.20
   3  -7   2   58.79    4.00
  -4   7  -2   32.20    3.20
  -4   7  -2   29.00    3.50
   4  -7   2   24.90    3.20
   4  -7   2   31.10    3.60
  -5   7  -2   21.80    2.60
  -5   7  -2   24.70    3.60
   5  -7   2   32.70    3.90
   5  -7   2   27.40    3.60
  -6   7  -2   -0.80    2.30
   6  -7   2   -1.00    2.20
  -7   7  -2   28.00    4.50
   7  -7   2   26.60    4.30
  -8   7  -2  142.69    8.50
   8  -7   2  156.38    8.90
  -9   7  -2  113.69    8.40
   9  -7   2  113.59    8.70
   8   6  -2    3.30    4.20
  -8  -6   2    8.90    4.30
   7   6  -2  139.29    9.50
   7   6  -2  128.89    7.50
  -7  -6   2  116.69    8.50
   6   6  -2  117.69    8.00
   6   6  -2   92.29    6.50
  -6  -6   2   96.79    7.50
   5   6  -2   17.50    3.60
   5   6  -2   23.20    4.20
  -5  -6   2   17.30    3.70
  -5  -6   2   16.50    3.70
   4   6  -2  977.20   21.50
   4   6  -2  951.70   19.90
   4   6  -2  967.10   21.50
  -4  -6   2  954.90   20.90
  -4  -6   2  960.70   20.90
   3   6  -2    1.00    2.10
   3   6  -2   -2.10    1.50
   3   6  -2    0.80    2.10
  -3  -6   2    1.80    2.00
  -3  -6   2    0.50    2.00
   2   6  -2   10.10    1.90
   2   6  -2    7.80    2.30
   2   6  -2    6.50    3.00
  -2  -6   2    5.50    2.20
  -2  -6   2    6.20    2.20
  -2  -6   2    7.90    2.10
   1   6  -2    1.40    1.20
   1   6  -2   -0.90    1.90
   1   6  -2    0.70    1.60
  -1  -6   2   -0.80    1.50
  -1  -6   2    2.00    1.50
  -1  -6   2    2.20    1.80
   0   6  -2  110.09    3.80
   0   6  -2  109.39    4.80
   0   6  -2  118.69    5.60
   0  -6   2  109.79    5.00
   0  -6   2  113.69    4.80
   0  -6   2  107.09    4.30
  -1   6  -2   -0.40    1.60
  -1   6  -2   -1.90    1.30
   1  -6   2   -0.40    1.40
   1  -6   2    1.60    1.40
   1  -6   2    4.20    1.40
  -2   6  -2  827.72   16.60
  -2   6  -2  831.22   16.90
  -2   6  -2  830.32   17.10
   2  -6   2  841.62   16.30
   2  -6   2  839.92   16.80
   2  -6   2  815.52   15.70
  -3   6  -2   38.60    3.30
  -3   6  -2   40.30    3.60
  -3   6  -2   35.70    3.40
   3  -6   2   43.50    3.40
   3  -6   2   37.90    3.10
   3  -6   2   40.20    3.40
  -4   6  -2    0.90    1.90
  -4   6  -2    0.10    1.40
   4  -6   2   -1.60    1.50
   4  -6   2   -0.70    1.60
  -5   6  -2    3.30    2.30
  -5   6  -2    2.80    1.30
   5  -6   2    3.30    2.10
  -6   6  -2    4.00    2.60
   6  -6   2    4.60    2.40
  -7   6  -2  129.29    7.60
   7  -6   2  128.19    7.60
  -8   6  -2   22.40    4.50
   8  -6   2   19.40    4.20
  -9   6  -2   45.80    6.40
   9  -6   2   58.99    6.90
   8   5  -2   48.90    6.70
  -8  -5   2   28.00    5.20
   7   5  -2  121.99    8.50
   7   5  -2  116.09    6.70
  -7  -5   2  119.39    8.10
  -7  -5   2  123.89    8.20
   6   5  -2   -0.50    2.70
   6   5  -2    0.50    2.30
   6   5  -2    0.30    2.20
  -6  -5   2   -0.30    2.70
  -6  -5   2    1.30    2.80
   5   5  -2  206.28    8.30
   5   5  -2  208.08    9.00
   5   5  -2  213.38    8.30
  -5  -5   2  214.78    8.80
  -5  -5   2  214.88    8.90
   4   5  -2   95.39    5.40
   4   5  -2   89.99    5.80
  -4  -5   2  115.19    6.00
  -4  -5   2   99.59    5.90
   3   5  -2    1.50    2.10
   3   5  -2    2.30    1.60
  -3  -5   2    2.00    1.90
  -3  -5   2   -2.30    1.80
   2   5  -2   89.49    4.10
   2   5  -2   94.09    4.80
  -2  -5   2   95.89    4.80
  -2  -5   2   93.99    4.50
  -2  -5   2   91.49    4.90
   1   5  -2   50.69    4.10
   1   5  -2   53.89    3.50
   1   5  -2   52.99    3.00
  -1  -5   2   46.60    3.10
  -1  -5   2   49.10    3.50
  -1  -5   2   48.60    3.40
   0   5  -2 1182.78   21.70
   0   5  -2 1161.58   19.80
   0   5  -2 1136.59   20.90
   0  -5   2 1163.08   21.20
   0  -5   2 1187.48   20.70
   0  -5   2 1147.89   20.50
  -1   5  -2  268.87    7.10
  -1   5  -2  250.97    7.30
  -1   5  -2  265.77    6.10
   1  -5   2  256.87    6.80
   1  -5   2  269.17    7.40
   1  -5   2  268.37    6.70
  -2   5  -2   10.10    1.90
  -2   5  -2   11.80    2.00
  -2   5  -2   12.20    1.50
   2  -5   2   16.40    2.40
   2  -5   2   12.40    2.00
   2  -5   2   11.10    1.80
  -3   5  -2  328.97    7.30
  -3   5  -2  324.27    8.70
  -3   5  -2  332.07    7.80
   3  -5   2  318.37    8.40
   3  -5   2  317.87    8.10
   3  -5   2  334.77    8.80
  -4   5  -2   90.69    3.50
  -4   5  -2   90.09    3.70
  -4   5  -2   87.39    4.90
   4  -5   2  101.69    4.50
   4  -5   2   99.29    4.90
  -5   5  -2   14.30    2.90
  -5   5  -2   16.50    2.10
   5  -5   2   14.40    2.70
   5  -5   2   10.60    2.40
  -6   5  -2   16.10    3.30
   6  -5   2   16.10    3.20
  -7   5  -2  175.68    8.60
   7  -5   2  179.98    8.60
  -8   5  -2   10.90    3.80
   8  -5   2   16.10    4.00
  -9   5  -2   62.19    7.40
   9  -5   2   57.49    6.80
   9   4  -2    6.50    4.10
  -9  -4   2    1.10    3.80
   8   4  -2   53.79    6.10
   8   4  -2   66.79    7.10
  -8  -4   2   35.70    5.60
  -8  -4   2   43.30    5.70
   7   4  -2   33.70    5.20
   7   4  -2   39.70    5.10
   7   4  -2   47.40    4.70
  -7  -4   2   46.30    5.80
  -7  -4   2   40.40    5.10
   6   4  -2   33.70    3.90
   6   4  -2   37.00    4.60
   6   4  -2   34.60    4.70
  -6  -4   2   27.40    4.10
  -6  -4   2   29.80    4.20
   5   4  -2   19.50    3.20
   5   4  -2   22.60    3.80
  -5  -4   2   16.00    3.20
  -5  -4   2   20.90    3.50
   4   4  -2  413.56   11.40
   4   4  -2  413.76   10.90
  -4  -4   2  405.36   11.00
  -4  -4   2  425.66   11.40
   3   4  -2   14.00    2.30
   3   4  -2   15.20    2.50
  -3  -4   2   17.00    2.50
  -3  -4   2   16.30    2.60
   2   4  -2   14.90    2.10
   2   4  -2   17.20    2.50
  -2  -4   2   12.90    2.30
  -2  -4   2   13.30    2.20
  -2  -4   2   16.40    2.30
   1   4  -2   99.19    3.80
  -1  -4   2   91.39    3.90
  -1  -4   2   93.69    4.10
  -1  -4   2   94.19    4.30
   0   4  -2 1293.17   22.50
   0   4  -2 1290.47   21.60
   0   4  -2 1297.87   22.30
   0  -4   2 1316.17   22.60
   0  -4   2 1284.37   22.00
   0  -4   2 1266.57   22.00
  -1   4  -2   -0.70    1.30
  -1   4  -2   -1.70    1.00
  -1   4  -2   -0.70    1.30
   1  -4   2   -1.00    1.20
   1  -4   2   -1.00    1.20
   1  -4   2    0.70    1.30
  -2   4  -2   10.70    1.80
  -2   4  -2    9.50    1.50
  -2   4  -2   10.60    1.90
   2  -4   2   10.90    1.80
   2  -4   2    4.60    1.60
   2  -4   2   11.60    1.90
  -3   4  -2    3.90    1.40
  -3   4  -2    4.60    1.70
   3  -4   2    4.30    1.70
   3  -4   2    2.50    1.40
  -4   4  -2  564.94    9.90
  -4   4  -2  574.04   11.90
  -4   4  -2  569.14   13.10
   4  -4   2  575.14   13.00
   4  -4   2  561.64   12.60
  -5   4  -2  142.99    6.50
  -5   4  -2  139.09    5.40
   5  -4   2  133.39    5.90
   5  -4   2  140.89    6.30
  -6   4  -2  115.39    5.50
  -6   4  -2  116.89    6.70
   6  -4   2  108.99    5.90
   6  -4   2  103.89    6.10
  -7   4  -2   10.30    3.30
   7  -4   2    8.40    3.10
  -8   4  -2    9.50    3.80
   8  -4   2   -2.50    2.70
  -9   4  -2   18.60    5.10
   9  -4   2   16.60    4.40
   9   3  -2   -3.20    3.20
   9   3  -2   -3.80    2.70
  -9  -3   2   -3.40    3.40
   8   3  -2    6.30    3.20
   8   3  -2    6.40    3.30
  -8  -3   2    7.80    3.50
  -8  -3   2    6.60    3.40
   7   3  -2   70.99    4.70
   7   3  -2   83.79    7.10
   7   3  -2   84.79    7.10
  -7  -3   2   89.69    6.50
  -7  -3   2   82.49    7.10
  -7  -3   2   74.29    5.40
   6   3  -2  344.27   11.20
   6   3  -2  342.67   11.40
  -6  -3   2  345.77   11.60
  -6  -3   2  355.86   11.10
  -6  -3   2  341.17   10.60
   5   3  -2    1.30    2.10
   5   3  -2    5.30    2.50
  -5  -3   2    1.50    2.00
  -5  -3   2    3.30    2.30
   4   3  -2    6.70    2.10
   4   3  -2    8.90    2.40
  -4  -3   2    7.90    2.20
  -4  -3   2    8.10    2.20
   3   3  -2    9.70    2.00
   3   3  -2   14.10    2.40
  -3  -3   2   14.30    2.40
  -3  -3   2   10.70    2.30
   2   3  -2  495.45   10.50
   2   3  -2  478.05   10.70
  -2  -3   2  494.55   10.60
  -2  -3   2  503.35   11.10
  -2  -3   2  505.15   10.70
   1   3  -2   79.29    3.60
   1   3  -2   83.49    3.40
  -1  -3   2   79.39    3.40
  -1  -3   2   87.19    3.80
   0   3  -2 1950.20   31.00
   0   3  -2 1988.60   31.00
   0   3  -2 1965.90   31.40
   0  -3   2 1921.61   31.20
   0  -3   2 1923.91   31.10
   0  -3   2 1948.41   31.60
  -1   3  -2  355.36    7.80
  -1   3  -2  360.76    7.10
  -1   3  -2  365.66    7.50
   1  -3   2  353.56    8.00
   1  -3   2  354.96    7.70
   1  -3   2  360.16    7.70
  -2   3  -2    7.50    1.60
  -2   3  -2    7.70    1.80
   2  -3   2    8.50    1.70
   2  -3   2    7.40    1.70
  -3   3  -2  564.94   11.50
  -3   3  -2  553.44   12.10
   3  -3   2  567.74   12.00
   3  -3   2  580.94   12.10
  -4   3  -2  176.38    5.80
  -4   3  -2  179.68    6.60
   4  -3   2  175.18    6.30
   4  -3   2  182.18    6.30
  -5   3  -2   49.60    4.00
  -5   3  -2   61.29    4.70
   5  -3   2   51.49    4.10
   5  -3   2   52.49    4.50
  -6   3  -2   42.60    4.20
  -6   3  -2   40.00    4.50
   6  -3   2   42.00    4.50
   6  -3   2   48.40    4.60
  -7   3  -2   67.99    6.60
   7  -3   2   76.99    5.80
   7  -3   2   80.69    6.10
  -8   3  -2   11.00    4.00
   8  -3   2    7.90    3.50
  -9   3  -2   -5.90    3.10
   9  -3   2   -0.70    3.10
   9   2  -2   -0.40    3.10
  -9  -2   2    3.50    4.10
   8   2  -2   14.20    3.80
   8   2  -2    8.60    3.30
  -8  -2   2    9.90    3.20
  -8  -2   2    9.50    3.70
   7   2  -2  176.98    8.50
   7   2  -2  170.38    8.40
  -7  -2   2  177.88    8.80
  -7  -2   2  177.28    7.70
  -7  -2   2  184.38    8.00
   6   2  -2  304.77   10.10
   6   2  -2  286.97   10.10
  -6  -2   2  301.77    9.70
  -6  -2   2  284.07    9.40
  -6  -2   2  314.87   10.60
   5   2  -2   -0.30    1.70
   5   2  -2   -1.70    1.50
  -5  -2   2   -1.80    1.80
  -5  -2   2    2.30    1.80
   4   2  -2   46.90    3.60
   4   2  -2   42.40    3.70
  -4  -2   2   35.20    3.20
  -4  -2   2   27.30    3.10
   3   2  -2 1394.16   24.60
   3   2  -2 1435.56   24.50
  -3  -2   2 1373.16   24.10
  -3  -2   2 1398.56   24.70
   2   2  -2 4406.36   67.99
   2   2  -2 4460.55   67.79
  -2  -2   2 4470.85   68.39
  -2  -2   2 4348.56   67.99
  -2  -2   2 4374.16   67.59
   1   2  -2 7288.27  111.19
  -1  -2   2 7223.88  112.79
  -1  -2   2 7487.85  111.29
  -1  -2   2 7333.97  110.89
   0   2  -2 7300.27  106.99
   0   2  -2 7287.17  105.99
   0  -2   2 7042.60  106.19
   0  -2   2 7291.37  106.79
   0  -2   2 6528.75  106.29
  -1   2  -2  505.05    8.30
  -1   2  -2  528.15    9.90
  -1   2  -2  510.55    9.60
   1  -2   2  493.05   10.00
   1  -2   2  500.45    9.70
   1  -2   2  512.05    9.80
  -2   2  -2    1.50    1.30
  -2   2  -2    2.10    1.50
   2  -2   2    1.10    1.10
   2  -2   2    2.40    1.40
  -3   2  -2  652.03   13.00
  -3   2  -2  639.24   13.50
   3  -2   2  657.43   13.40
   3  -2   2  669.03   13.40
  -4   2  -2  537.25   11.90
  -4   2  -2  545.55   12.70
   4  -2   2  539.55   12.50
   4  -2   2  547.15   12.50
  -5   2  -2 1246.88   23.90
  -5   2  -2 1303.67   25.30
   5  -2   2 1309.07   24.80
   5  -2   2 1257.37   24.80
  -6   2  -2   70.79    5.10
  -6   2  -2   69.89    5.40
   6  -2   2   71.89    5.50
   6  -2   2   81.89    5.60
  -7   2  -2    0.50    2.80
  -7   2  -2    2.20    2.50
   7  -2   2    0.70    2.50
   7  -2   2    7.10    2.80
  -8   2  -2    1.30    3.20
   8  -2   2   -0.90    2.60
   8  -2   2    2.30    2.90
  -9   2  -2    2.90    4.00
   9  -2   2    4.50    3.50
  10   1  -2   -0.10    3.40
 -10  -1   2    9.00    4.40
   9   1  -2  127.99    8.30
  -9  -1   2  113.89    8.80
   8   1  -2   98.19    7.00
   8   1  -2   93.49    7.10
  -8  -1   2   91.09    7.70
  -8  -1   2  107.69   10.30
   7   1  -2  113.29    6.90
   7   1  -2  117.79    6.80
  -7  -1   2  114.19    6.30
  -7  -1   2  115.49    7.00
  -7  -1   2  121.49    6.40
   6   1  -2   59.79    4.80
   6   1  -2   58.69    5.00
  -6  -1   2   58.39    4.80
  -6  -1   2   66.99    5.10
  -6  -1   2   57.39    4.60
   5   1  -2  170.78    6.60
   5   1  -2  157.18    6.50
  -5  -1   2  162.98    6.10
  -5  -1   2  167.88    6.70
  -5  -1   2  171.18    6.60
   4   1  -2   87.19    4.40
   4   1  -2   83.29    4.20
  -4  -1   2   86.89    4.40
  -4  -1   2   87.99    4.70
  -4  -1   2   83.49    4.10
   3   1  -2   54.79    3.20
   3   1  -2   50.19    3.00
  -3  -1   2   48.20    3.10
  -3  -1   2   46.50    3.20
   2   1  -2  748.43   13.80
   2   1  -2  774.52   13.90
  -2  -1   2  805.42   13.70
  -2  -1   2  774.62   14.00
  -2  -1   2  795.42   14.20
   1   1  -2 3060.09   45.70
   1   1  -2 2901.11   45.50
  -1  -1   2 2950.40   45.80
  -1  -1   2 3060.39   45.70
  -1  -1   2 2951.80   45.40
   0   1  -2  757.22   12.20
   0   1  -2  726.23   12.20
   0  -1   2  693.73   12.00
   0  -1   2  715.83   12.40
   0  -1   2  693.63   12.20
  -1   1  -2 1465.45   23.60
   1  -1   2 1506.65   23.40
   1  -1   2 1371.26   23.50
  -2   1  -2 1002.80   17.10
  -2   1  -2  991.40   17.40
   2  -1   2  940.01   17.30
   2  -1   2  941.51   17.10
  -3   1  -2  138.19    5.00
  -3   1  -2  138.99    5.30
   3  -1   2  146.39    5.30
   3  -1   2  133.79    5.10
  -4   1  -2  134.29    5.70
  -4   1  -2  147.29    5.70
   4  -1   2  144.99    5.80
   4  -1   2  157.08    6.00
  -5   1  -2   72.89    4.70
  -5   1  -2   84.09    5.30
   5  -1   2   69.49    4.80
   5  -1   2   68.59    4.80
  -6   1  -2  213.48    9.00
  -6   1  -2  222.58    8.50
   6  -1   2  210.48    8.70
   6  -1   2  224.08    8.70
  -7   1  -2   31.40    4.30
  -7   1  -2   23.50    4.30
   7  -1   2   22.40    4.10
   7  -1   2   26.20    4.20
  -8   1  -2  188.28    9.00
  -8   1  -2  181.38   10.00
   8  -1   2  171.28    9.30
   8  -1   2  176.88    9.40
  -9   1  -2    4.50    4.30
   9  -1   2    0.40    3.30
  10   0  -2  126.99    9.30
 -10   0   2  133.29    9.80
   9   0  -2   12.70    3.80
  -9   0   2   23.30    4.90
   8   0  -2    0.10    2.60
  -8   0   2    1.60    2.60
  -8   0   2   -1.50    2.10
   7   0  -2   76.59    5.50
   7   0  -2   70.49    6.00
  -7   0   2   74.19    5.90
  -7   0   2   80.79    5.10
  -7   0   2   77.69    5.50
   6   0  -2   23.40    3.30
   6   0  -2   23.30    3.40
  -6   0   2   28.60    3.30
  -6   0   2   29.90    3.90
  -6   0   2   26.30    3.60
   5   0  -2  223.18    7.20
   5   0  -2  221.08    7.30
  -5   0   2  214.28    6.60
  -5   0   2  227.88    7.80
  -5   0   2  229.68    7.50
   4   0  -2   15.20    2.10
   4   0  -2   15.60    2.30
  -4   0   2   20.90    3.00
  -4   0   2   16.50    2.00
  -4   0   2   15.10    2.30
   3   0  -2   59.49    3.10
   3   0  -2   60.59    3.10
  -3   0   2   57.99    3.10
  -3   0   2   60.89    2.90
  -3   0   2   59.29    4.00
   2   0  -2   30.00    1.90
  -2   0   2   33.60    2.00
  -2   0   2   32.40    1.80
  -2   0   2   34.10    2.90
   1   0  -2   50.59    2.00
   1   0  -2   54.09    1.90
   1   0  -2   52.29    1.90
  -1   0   2   50.79    2.00
  -1   0   2   54.39    2.10
  -1   0   2   51.39    1.60
   0   0  -2  903.91   14.50
   0   0  -2  901.41   14.70
   0   0   2  908.71   14.80
   0   0   2  926.51   14.90
   0   0   2  916.81   14.60
   0   0   2  900.81   14.40
  -1   0  -2 3266.67   49.80
  -1   0  -2 3207.08   49.60
   1   0   2 3235.88   49.50
   1   0   2 3223.58   49.20
   1   0   2 3308.97   49.50
   1   0   2 3209.18   49.80
  -2   0  -2 9030.90  137.39
  -2   0  -2 8963.40  135.19
   2   0   2 9156.38  134.99
   2   0   2 8874.51  135.29
   2   0   2 8934.11  134.89
  -3   0  -2  425.06   10.00
  -3   0  -2  396.06    9.60
   3   0   2  402.66    9.60
   3   0   2  403.76    9.90
   3   0   2  415.56    8.00
  -4   0  -2   31.20    3.20
  -4   0  -2   28.70    3.20
   4   0   2   30.50    3.30
   4   0   2   24.80    3.00
   4   0   2   32.90    2.00
  -5   0  -2    6.20    2.40
  -5   0  -2    8.60    2.70
   5   0   2    4.30    2.40
   5   0   2    6.50    1.30
   5   0   2    8.30    2.50
  -6   0  -2    3.00    2.60
  -6   0  -2    3.70    2.80
   6   0   2    1.60    2.30
   6   0   2   -2.90    2.20
  -7   0  -2    2.80    2.80
  -7   0  -2   -0.50    2.90
   7   0   2    2.30    2.70
   7   0   2   -0.50    2.60
  -8   0  -2   91.89    7.50
  -8   0  -2   97.29    8.60
   8   0   2  102.89    7.80
   8   0   2   89.99    7.50
  -9   0  -2  122.89   10.30
   9   0   2   92.89    8.50
   9   0   2   91.59    8.10
  10  -1  -2   12.50    4.50
 -10   1   2   22.10    5.20
   9  -1  -2    3.90    3.10
  -9   1   2    4.40    3.50
   8  -1  -2   45.60    5.20
  -8   1   2   41.80    5.20
  -8   1   2   59.49    5.80
   7  -1  -2  411.96   12.20
   7  -1  -2  396.86   16.10
  -7   1   2  390.76   12.20
  -7   1   2  395.76   12.30
   6  -1  -2   92.79    4.90
   6  -1  -2   93.19    5.40
  -6   1   2   87.89    4.30
  -6   1   2   83.99    5.20
  -6   1   2   80.49    5.50
   5  -1  -2  118.49    4.90
   5  -1  -2  114.19    5.10
  -5   1   2  117.89    5.20
  -5   1   2  125.69    6.00
  -5   1   2  119.19    4.30
   4  -1  -2  200.88    5.70
   4  -1  -2  195.28    5.80
  -4   1   2  202.58    5.00
  -4   1   2  198.48    6.10
  -4   1   2  199.68    7.10
   3  -1  -2   25.00    2.00
   3  -1  -2   28.80    2.10
  -3   1   2   25.20    2.10
  -3   1   2   34.30    3.40
   2  -1  -2    0.00    0.60
   2  -1  -2    0.30    0.60
  -2   1   2   -1.00    1.30
  -2   1   2   -0.50    0.70
  -2   1   2   -1.00    0.70
  -1   1   2 1548.65   25.00
  -1   1   2 1537.95   24.80
  -1   1   2 1491.55   25.30
  -1   1   2 1525.05   23.20
  -1   1   2 1552.54   23.20
   0  -1  -2 2642.04   40.40
   0  -1  -2 2644.14   40.40
   0   1   2 2633.84   42.00
   0   1   2 2712.43   40.80
   0   1   2 2664.53   40.70
   0   1   2 2735.43   41.80
   0   1   2 2700.03   41.90
   0   1   2 2801.32   41.40
  -1  -1  -2 1373.96   22.10
  -1  -1  -2 1352.76   21.90
   1   1   2 1338.27   22.40
   1   1   2 1369.96   21.20
   1   1   2 1315.67   22.50
   1   1   2 1352.16   22.20
   1   1   2 1345.17   21.50
  -2  -1  -2  412.76    9.00
  -2  -1  -2  400.66    9.00
   2   1   2  417.36    9.30
   2   1   2  400.16    8.70
   2   1   2  400.96    8.70
  -3  -1  -2  112.69    4.90
  -3  -1  -2  120.29    4.80
   3   1   2  117.59    4.20
   3   1   2  114.49    4.90
   3   1   2  118.79    4.70
  -4  -1  -2   -0.30    1.80
  -4  -1  -2    2.10    1.90
   4   1   2    0.00    1.10
   4   1   2   -0.60    1.60
   4   1   2   -0.50    1.60
  -5  -1  -2  454.55   12.40
  -5  -1  -2  460.65   12.60
   5   1   2  463.95   12.90
   5   1   2  460.95   12.20
   5   1   2  454.85   10.00
  -6  -1  -2   83.19    6.30
  -6  -1  -2   80.29    6.70
   6   1   2   71.99    6.40
   6   1   2   70.29    5.50
  -7  -1  -2    1.30    3.00
  -7  -1  -2    0.80    3.10
   7   1   2    2.80    2.80
   7   1   2    5.70    3.00
  -8  -1  -2    8.60    3.90
  -8  -1  -2    8.20    3.80
   8   1   2    8.00    3.90
   8   1   2   10.40    3.40
  -9  -1  -2   32.50    6.50
   9   1   2   23.20    5.50
  10  -2  -2    4.30    3.50
 -10   2   2    3.60    3.80
   9  -2  -2   16.30    4.00
  -9   2   2   15.30    3.90
  -9   2   2   19.30    4.20
   8  -2  -2   55.49    5.80
  -8   2   2   59.89    6.00
  -8   2   2   68.99    6.00
   7  -2  -2    1.20    2.20
  -7   2   2    3.40    2.70
  -7   2   2    1.90    2.20
   6  -2  -2   48.30    3.60
   6  -2  -2   44.70    4.00
  -6   2   2   46.70    4.30
  -6   2   2   58.69    5.40
   5  -2  -2   -1.60    1.30
   5  -2  -2   -0.70    1.10
  -5   2   2    0.50    2.00
  -5   2   2    0.30    1.50
   4  -2  -2  370.36    8.20
  -4   2   2  358.96    8.40
  -4   2   2  359.86   10.30
   3  -2  -2  870.81   14.80
   3  -2  -2  908.21   14.80
  -3   2   2  907.31   15.40
  -3   2   2  897.41   18.20
  -3   2   2  896.91   15.30
  -2   2   2 2107.29   32.00
  -2   2   2 2131.39   32.00
  -2   2   2 2110.29   34.90
  -2   2   2 2169.28   35.70
  -2   2   2 2064.49   33.90
  -1   2   2  125.19    4.30
  -1   2   2  121.69    4.60
  -1   2   2  117.29    4.40
   0  -2  -2  123.19    2.80
   0  -2  -2  124.79    2.80
   0   2   2  125.19    4.30
   0   2   2  128.29    3.20
   0   2   2  122.29    4.40
   0   2   2  122.79    4.50
   0   2   2  125.79    3.20
  -1  -2  -2   27.50    2.10
  -1  -2  -2   25.70    2.10
   1   2   2   23.70    2.60
   1   2   2   29.20    2.30
   1   2   2   24.70    2.60
   1   2   2   25.80    1.80
  -2  -2  -2  523.45   11.10
  -2  -2  -2  539.75   11.00
   2   2   2  525.35   10.40
   2   2   2  525.45   12.00
   2   2   2  528.65   11.30
   2   2   2  517.55   11.30
  -3  -2  -2   -0.30    1.40
  -3  -2  -2    2.30    1.70
   3   2   2    1.00    1.60
   3   2   2    1.40    1.40
   3   2   2   -0.30    1.30
  -4  -2  -2   19.30    2.90
  -4  -2  -2   14.30    2.80
   4   2   2   23.00    3.50
   4   2   2   22.00    2.70
   4   2   2   23.40    3.00
  -5  -2  -2  307.57   10.20
  -5  -2  -2  322.87   10.50
   5   2   2  317.87   10.80
   5   2   2  309.87    8.60
   5   2   2  307.67    9.70
  -6  -2  -2    7.20    3.20
  -6  -2  -2    8.50    3.40
   6   2   2   10.80    3.00
   6   2   2   13.70    3.70
  -7  -2  -2   28.80    5.00
  -7  -2  -2   25.00    4.70
   7   2   2   33.90    5.30
  -8  -2  -2    2.80    3.90
   8   2   2    5.70    3.90
  10  -3  -2    6.10    3.50
 -10   3   2    5.30    3.50
   9  -3  -2    1.10    2.90
  -9   3   2    2.00    3.00
  -9   3   2    3.00    3.20
   8  -3  -2    1.20    2.20
  -8   3   2    2.30    2.70
  -8   3   2    1.40    2.80
   7  -3  -2   10.60    2.80
  -7   3   2    9.50    3.40
  -7   3   2    9.10    2.90
   6  -3  -2   53.49    4.30
  -6   3   2   50.69    4.20
  -6   3   2   52.39    5.50
   5  -3  -2   67.49    3.70
  -5   3   2   59.39    5.00
  -5   3   2   75.99    4.00
   4  -3  -2  269.07    6.30
   4  -3  -2  274.37    6.40
  -4   3   2  274.67    6.80
  -4   3   2  282.07    9.30
   3  -3  -2 1210.98   18.60
   3  -3  -2 1215.18   18.60
  -3   3   2 1174.28   23.20
  -3   3   2 1201.78   19.40
  -3   3   2 1179.38   21.00
  -3   3   2 1192.48   19.40
  -2   3   2   90.99    5.00
  -2   3   2   92.69    4.70
  -2   3   2   93.39    2.00
  -2   3   2   89.49    4.20
  -2   3   2   95.39    2.00
  -1   3   2  117.09    2.50
  -1   3   2  126.09    5.40
  -1   3   2  120.79    2.50
  -1   3   2  117.99    5.10
   0  -3  -2  256.47    5.10
   0  -3  -2  260.87    5.10
   0   3   2  250.77    7.10
   0   3   2  255.67    7.30
   0   3   2  260.27    5.50
   0   3   2  253.27    5.60
   0   3   2  261.67    7.60
   0   3   2  250.87    4.70
  -1  -3  -2  535.15   10.60
   1   3   2  537.05   12.10
   1   3   2  581.44   11.20
   1   3   2  552.24   12.60
  -2  -3  -2   82.19    3.70
  -2  -3  -2   84.09    4.10
   2   3   2   87.69    4.40
   2   3   2   81.29    3.20
   2   3   2   85.59    5.00
   2   3   2   83.99    4.20
  -3  -3  -2   41.10    3.50
  -3  -3  -2   34.00    3.40
   3   3   2   30.50    3.80
   3   3   2   38.40    3.80
   3   3   2   31.00    3.20
   3   3   2   40.50    3.20
  -4  -3  -2   72.89    4.80
  -4  -3  -2   66.69    5.10
   4   3   2   78.89    5.40
   4   3   2   75.69    4.70
   4   3   2   73.49    4.40
  -5  -3  -2    9.20    3.10
  -5  -3  -2    7.10    2.90
   5   3   2    7.80    2.40
   5   3   2    9.30    3.20
   5   3   2   12.50    2.70
  -6  -3  -2    3.50    3.20
  -6  -3  -2    4.00    3.00
   6   3   2    2.00    3.00
   6   3   2    2.40    2.20
  -7  -3  -2   -6.20    2.70
   7   3   2    4.90    3.20
  -8  -3  -2    0.30    3.70
   8   3   2    7.10    4.40
  10  -4  -2   -0.90    3.10
 -10   4   2    1.30    3.70
 -10   4   2    2.80    3.20
   9  -4  -2   68.49    6.40
  -9   4   2   56.29    6.20
  -9   4   2   75.09    7.70
   8  -4  -2    4.00    2.70
  -8   4   2    9.80    3.80
  -8   4   2    4.90    2.80
   7  -4  -2   21.70    3.30
  -7   4   2   21.90    4.50
  -7   4   2   16.40    3.10
   6  -4  -2  116.79    5.40
  -6   4   2  117.59    5.50
  -6   4   2  117.69    7.40
   5  -4  -2   59.39    3.40
  -5   4   2   55.69    3.50
  -5   4   2   46.60    4.90
   4  -4  -2   91.79    3.20
   4  -4  -2   90.79    3.10
  -4   4   2   95.59    6.00
  -4   4   2   91.89    4.30
  -4   4   2   87.79    3.50
  -4   4   2   87.99    3.40
  -3   4   2    1.60    1.80
  -3   4   2    2.20    0.80
  -3   4   2    0.10    1.50
  -3   4   2    0.60    0.80
  -3   4   2   -0.90    2.00
  -2   4   2  128.59    5.30
  -2   4   2  138.89    6.30
  -2   4   2  132.29    2.70
  -2   4   2  129.49    2.70
  -2   4   2  134.09    5.90
  -1   4   2  671.03   15.00
  -1   4   2  672.13   14.90
  -1   4   2  673.53   14.40
  -1   4   2  660.33   11.10
  -1   4   2  659.13   11.10
   0  -4  -2   20.40    1.60
   0  -4  -2   21.60    1.60
   0   4   2   19.80    1.10
   0   4   2   25.40    3.10
   0   4   2   23.20    3.10
   0   4   2   22.30    1.90
   0   4   2   24.20    1.90
  -1  -4  -2    3.80    1.40
   1   4   2    7.50    1.70
   1   4   2    6.40    2.30
   1   4   2    7.20    2.20
  -2  -4  -2  266.77    7.80
  -2  -4  -2  286.87    7.50
   2   4   2  271.77    9.40
   2   4   2  287.57    8.90
   2   4   2  293.17    8.20
  -3  -4  -2   53.39    4.40
  -3  -4  -2   56.39    3.90
   3   4   2   54.09    4.70
   3   4   2   46.20    4.20
   3   4   2   52.49    5.10
  -4  -4  -2    5.80    2.60
   4   4   2    0.30    2.00
   4   4   2    6.10    2.70
   4   4   2   -4.60    2.60
  -5  -4  -2   86.89    6.30
   5   4   2   92.09    6.70
   5   4   2   99.49    7.50
   5   4   2  104.59    6.00
  -6  -4  -2    0.70    3.00
   6   4   2   -4.40    3.20
   6   4   2   -2.20    2.80
   6   4   2    3.70    2.40
  -7  -4  -2    6.80    3.90
   7   4   2    6.00    4.50
   7   4   2   14.00    4.30
   8   4   2   -0.80    3.80
   8   4   2   -2.00    4.40
  10  -5  -2    9.30    3.80
 -10   5   2   12.80    4.80
 -10   5   2    9.10    3.90
   9  -5  -2   34.30    5.00
  -9   5   2   23.20    5.10
  -9   5   2   28.60    4.70
   8  -5  -2   58.09    5.40
  -8   5   2   79.09    7.90
  -8   5   2   75.29    5.80
   7  -5  -2   40.60    4.10
  -7   5   2   43.10    5.70
  -7   5   2   41.50    4.20
   6  -5  -2  339.57    9.30
  -6   5   2  333.57    9.20
  -6   5   2  324.77   12.50
   5  -5  -2   14.80    2.00
  -5   5   2   13.60    2.50
  -5   5   2   10.50    2.00
  -5   5   2    9.10    3.30
   4  -5  -2   12.50    1.40
   4  -5  -2   10.00    1.40
  -4   5   2    8.40    2.20
  -4   5   2   12.00    1.70
  -4   5   2   10.30    1.60
  -4   5   2   12.00    3.10
  -3   5   2 1400.36   22.20
  -3   5   2 1369.56   27.10
  -3   5   2 1395.36   25.70
  -3   5   2 1393.66   28.30
  -3   5   2 1408.56   22.20
  -2   5   2   27.10    3.30
  -2   5   2   30.20    4.10
  -2   5   2   28.10    3.70
  -2   5   2   29.30    1.50
  -2   5   2   31.60    1.60
   1  -5  -2  639.24   10.60
   1  -5  -2  645.34   11.60
   1  -5  -2  643.84   10.70
  -1   5   2  654.33   11.50
  -1   5   2  653.33   11.50
  -1   5   2  642.54   15.40
  -1   5   2  638.34   14.80
   0  -5  -2   31.00    2.20
   0  -5  -2   29.60    2.10
   0   5   2   24.10    3.40
   0   5   2   23.70    3.10
   0   5   2   29.60    2.40
   0   5   2   28.10    2.20
  -1  -5  -2  135.99    5.00
   1   5   2  144.39    7.10
   1   5   2  143.99    5.30
   1   5   2  136.69    6.50
  -2  -5  -2  198.48    7.00
   2   5   2  216.28    9.00
   2   5   2  212.28    8.20
   2   5   2  203.38    7.30
  -3  -5  -2    0.20    2.10
   3   5   2   -3.40    1.90
   3   5   2   -2.30    2.60
   3   5   2   -3.20    2.00
  -4  -5  -2    4.50    2.50
   4   5   2    0.70    3.00
   4   5   2    1.90    2.50
   4   5   2    9.60    2.80
  -5  -5  -2  112.39    7.40
   5   5   2  101.39    8.10
   5   5   2   90.79    6.20
   5   5   2  106.09    7.30
  -6  -5  -2   79.99    7.40
   6   5   2   90.99    6.40
   6   5   2   82.69    7.70
   6   5   2   70.19    7.90
  -7  -5  -2    4.80    3.90
   7   5   2    2.40    4.50
   7   5   2    7.10    4.30
   9  -6  -2   39.80    5.10
  -9   6   2   46.40    6.90
  -9   6   2   35.40    5.00
   8  -6  -2   -0.40    2.30
  -8   6   2   -0.40    3.40
  -8   6   2    0.30    2.20
   7  -6  -2   43.40    4.20
  -7   6   2   41.40    4.20
  -7   6   2   47.70    6.20
   6  -6  -2   58.29    4.00
  -6   6   2   50.49    6.10
  -6   6   2   52.19    4.00
   5  -6  -2   99.09    4.10
  -5   6   2  102.69    7.60
  -5   6   2  104.09    4.40
  -5   6   2  105.69    5.50
   4  -6  -2 1743.23   28.40
  -4   6   2 1778.72   35.90
  -4   6   2 1782.12   28.90
  -4   6   2 1796.52   32.30
  -4   6   2 1784.92   34.60
   3  -6  -2  308.87    5.80
   3  -6  -2  313.17    5.90
  -3   6   2  325.57   11.60
  -3   6   2  317.47    6.60
  -3   6   2  336.27   10.00
  -3   6   2  316.87    6.50
  -3   6   2  331.97   11.00
   2  -6  -2  144.99    3.30
   2  -6  -2  142.99    3.20
  -2   6   2  148.99    7.40
  -2   6   2  146.09    3.90
  -2   6   2  144.49    3.90
  -2   6   2  149.79    6.80
   1  -6  -2  113.09    3.50
   1  -6  -2  114.89    3.50
  -1   6   2  117.19    6.30
  -1   6   2  106.89    6.50
  -1   6   2  112.29    3.80
  -1   6   2  111.49    3.90
   0  -6  -2   60.09    3.20
   0   6   2   44.60    4.50
   0   6   2   57.49    3.40
   0   6   2   59.39    5.50
  -1  -6  -2   19.60    2.70
   1   6   2   24.60    3.90
   1   6   2   16.80    3.60
   1   6   2   25.60    3.00
  -2  -6  -2  155.28    6.50
   2   6   2  165.08    7.80
   2   6   2  153.08    6.70
   2   6   2  168.78    8.70
  -3  -6  -2  456.95   12.70
   3   6   2  424.96   14.80
   3   6   2  458.45   13.10
   3   6   2  461.85   13.80
  -4  -6  -2   10.70    3.30
   4   6   2    9.60    3.20
   4   6   2    8.30    3.10
   4   6   2    6.90    3.80
  -5  -6  -2   42.80    5.40
   5   6   2   43.00    5.30
   5   6   2   49.50    6.00
   5   6   2   48.10    6.70
  -6  -6  -2    6.70    4.00
   6   6   2    0.20    4.20
   6   6   2    5.80    3.40
   6   6   2    7.90    3.90
   9  -7  -2   96.39    7.00
  -9   7   2   88.19    6.70
   8  -7  -2   31.40    4.20
  -8   7   2   30.00    4.10
   7  -7  -2    3.70    2.20
  -7   7   2   -1.40    3.40
  -7   7   2    1.40    2.00
   6  -7  -2   25.90    3.10
  -6   7   2   17.60    5.00
  -6   7   2   23.50    2.90
  -6   7   2   21.90    3.30
   5  -7  -2   68.19    3.60
  -5   7   2   65.09    3.60
  -5   7   2   65.59    5.10
  -5   7   2   47.40    6.20
   4  -7  -2    2.20    1.20
  -4   7   2   -1.60    2.20
  -4   7   2    2.00    1.30
  -4   7   2   -5.20    2.70
   3  -7  -2  106.99    3.30
  -3   7   2  104.39    6.40
  -3   7   2  109.59    3.70
  -3   7   2  111.19    7.20
   2  -7  -2  479.55    9.30
  -2   7   2  486.55   13.70
  -2   7   2  493.05    9.70
  -2   7   2  503.45   14.90
   1  -7  -2  141.29    4.70
  -1   7   2  144.19    7.50
  -1   7   2  153.38    8.20
  -1   7   2  146.89    4.90
   0  -7  -2    5.40    1.80
   0   7   2    2.40    3.10
   0   7   2    2.40    2.70
   0   7   2    4.30    1.80
  -1  -7  -2    4.70    2.10
   1   7   2    9.90    3.80
   1   7   2    6.30    3.10
   1   7   2    6.60    2.20
  -2  -7  -2   -2.30    2.00
   2   7   2    3.70    3.30
   2   7   2   -3.10    1.90
   2   7   2    0.00    2.50
  -3  -7  -2    7.60    3.10
   3   7   2    3.60    3.40
   3   7   2    2.60    2.90
   3   7   2    5.20    2.80
  -4  -7  -2    8.40    3.30
   4   7   2    3.60    3.90
   4   7   2   10.40    3.40
   4   7   2    5.60    3.40
  -5  -7  -2   20.30    4.50
   5   7   2   20.80    5.40
   5   7   2   22.60    4.70
   5   7   2   20.90    4.50
   6   7   2  179.68   10.90
   9  -8  -2   41.20    5.40
  -9   8   2   43.70    5.20
   8  -8  -2   16.60    3.50
  -8   8   2   19.90    3.70
   7  -8  -2   15.00    3.00
  -7   8   2    8.40    2.60
   6  -8  -2  122.39    5.50
  -6   8   2  112.39    5.20
  -6   8   2  117.59    6.70
   5  -8  -2   14.00    2.20
  -5   8   2   13.80    3.40
  -5   8   2    8.50    1.90
   4  -8  -2  252.57    6.60
  -4   8   2  267.47    6.70
  -4   8   2  262.77   10.00
  -4   8   2  262.67   11.40
   3  -8  -2    1.80    1.20
  -3   8   2    0.40    2.60
  -3   8   2    0.80    1.20
  -3   8   2   -3.30    2.50
   2  -8  -2  152.78    4.90
  -2   8   2  140.39    8.00
  -2   8   2  145.99    4.90
  -2   8   2  140.79    8.50
   1  -8  -2   16.00    2.30
  -1   8   2   17.90    2.40
  -1   8   2   19.80    4.20
  -1   8   2   14.00    4.10
   0  -8  -2  337.37    9.30
   0   8   2  329.47   13.00
   0   8   2  356.46   12.70
   0   8   2  355.26    9.50
  -1  -8  -2   12.00    2.80
   1   8   2    8.70    3.90
   1   8   2    5.60    3.20
   1   8   2   14.30    2.90
  -2  -8  -2  276.27    9.80
   2   8   2  279.77   10.00
   2   8   2  277.07   12.80
   2   8   2  287.97   11.90
  -3  -8  -2    4.10    2.90
   3   8   2    0.80    3.80
   3   8   2   -0.40    2.60
   3   8   2    0.00    3.10
  -4  -8  -2   24.10    4.60
   4   8   2   20.30    4.60
   4   8   2   15.00    4.10
   4   8   2   19.30    5.60
  -5  -8  -2   65.29    7.00
   5   8   2   69.89    7.70
   5   8   2   76.69    7.90
   5   8   2   91.99   10.00
   8  -9  -2   36.20    4.50
  -8   9   2   31.30    4.10
   7  -9  -2   -1.00    2.00
  -7   9   2    0.90    2.20
   6  -9  -2   16.30    2.70
  -6   9   2   21.40    2.80
  -6   9   2   14.40    3.50
   5  -9  -2    7.60    2.10
  -5   9   2   14.30    3.60
  -5   9   2   13.80    2.20
   4  -9  -2    5.80    1.70
  -4   9   2    6.00    1.70
  -4   9   2    9.10    3.30
  -4   9   2    7.50    4.10
   3  -9  -2    0.80    1.40
  -3   9   2    6.30    3.30
  -3   9   2    1.80    1.30
  -3   9   2   -1.90    2.50
   2  -9  -2   59.69    3.70
  -2   9   2   62.09    3.70
  -2   9   2   55.59    6.70
  -2   9   2   46.80    5.70
   1  -9  -2    2.20    1.80
  -1   9   2    5.20    2.00
  -1   9   2    5.10    3.50
  -1   9   2    2.60    3.40
   0  -9  -2    0.60    2.10
   0   9   2    6.60    3.60
   0   9   2    1.80    2.00
   0   9   2   -1.60    3.30
  -1  -9  -2    1.30    2.30
   1   9   2   -0.10    3.40
   1   9   2    1.80    2.40
   1   9   2    0.90    3.60
  -2  -9  -2  114.49    7.10
   2   9   2  125.79    9.90
   2   9   2  112.09    6.90
   2   9   2  111.99    8.60
  -3  -9  -2    5.20    3.20
   3   9   2    6.00    3.40
   3   9   2    4.70    4.10
   3   9   2    2.40    3.40
   7 -10  -2   31.70    4.00
  -7  10   2   26.00    3.40
   6 -10  -2   58.49    4.60
  -6  10   2   68.19    6.40
  -6  10   2   58.79    4.10
   5 -10  -2    2.10    1.80
  -5  10   2    1.40    1.60
  -5  10   2    2.80    3.10
   4 -10  -2   98.69    4.80
  -4  10   2  125.39    8.40
  -4  10   2  100.49    9.10
  -4  10   2  111.29    4.50
   3 -10  -2    3.60    1.90
  -3  10   2    5.00    3.50
  -3  10   2    5.90    1.80
  -3  10   2    6.80    3.70
   2 -10  -2   43.90    3.80
  -2  10   2   33.10    5.70
  -2  10   2   32.50    5.90
  -2  10   2   41.00    3.40
   1 -10  -2   20.90    3.10
  -1  10   2   24.40    3.20
  -1  10   2   26.50    5.40
  -1  10   2   11.60    4.00
   0 -10  -2   14.90    3.20
   0  10   2   10.00    4.50
   0  10   2   14.30    3.00
   0  10   2   19.00    4.70
  -1 -10  -2   47.70    4.90
   1  10   2   49.00    7.30
   1  10   2   46.20    6.30
   1  10   2   61.79    5.60
  -2 -10  -2    8.70    3.40
   2  10   2    0.90    3.50
   2  10   2    1.70    4.20
   2  10   2    5.10    3.10
   5 -11  -2   -0.70    1.80
  -5  11   2    2.30    1.70
  -5  11   2   -3.50    3.10
   4 -11  -2   21.60    3.00
  -4  11   2   15.60    2.30
  -4  11   2   12.70    4.90
  -4  11   2   10.50    4.30
   3 -11  -2    4.40    2.20
  -3  11   2   -1.60    3.30
  -3  11   2   -3.00    3.50
  -3  11   2    3.80    1.80
   2 -11  -2   43.30    4.10
  -2  11   2   44.00    3.70
  -2  11   2   45.90    6.90
  -2  11   2   31.20    6.40
   1 -11  -2   14.80    3.10
  -1  11   2    9.30    4.70
  -1  11   2   13.10    2.90
  -1  11   2   12.20    4.80
   0 -11  -2    6.60    2.90
   0  11   2    1.10    2.40
   0  11   2    3.60    4.10
   0  11   2    4.00    4.10
   2  12  -3  104.19   10.20
   2  12  -3  139.09    9.00
   2  12  -3  113.79   10.20
  -2 -12   3  109.89    8.50
   1  12  -3   32.30    5.30
   1  12  -3   17.20    5.20
   1  12  -3   21.80    5.50
  -1 -12   3   26.40    4.70
   0  12  -3   26.30    5.40
   0  12  -3   37.40    5.20
   0  12  -3   37.10    6.20
   0 -12   3   34.20    5.10
  -1  12  -3    8.30    4.20
  -1  12  -3   20.50    4.30
  -1  12  -3   12.80    4.40
   1 -12   3   17.40    4.00
  -2  12  -3   84.89    8.00
  -2  12  -3   95.39    8.60
  -2  12  -3   83.29    7.00
   2 -12   3   85.89    7.10
  -3  12  -3  126.49    8.60
  -3  12  -3  112.39    8.50
  -3  12  -3  111.59    7.50
   3 -12   3  106.39    7.40
  -4  12  -3  163.78    9.40
  -4  12  -3  170.38    8.80
  -4  12  -3  160.08    9.80
   4 -12   3  148.99    8.40
  -5  12  -3   74.99    6.90
   5 -12   3   68.59    6.70
   3  11  -3  143.89   10.00
   3  11  -3  153.48   10.80
   3  11  -3  191.18   10.10
  -3 -11   3  190.08   10.20
   2  11  -3   35.70    5.20
   2  11  -3   31.40    5.80
   2  11  -3   32.00    5.80
  -2 -11   3   38.10    5.30
   1  11  -3   54.79    6.70
   1  11  -3   62.89    7.30
   1  11  -3   58.09    6.10
  -1 -11   3   53.59    5.80
   0  11  -3   45.40    6.30
   0  11  -3   54.79    5.60
   0  11  -3   48.70    6.50
   0 -11   3   47.00    5.40
  -1  11  -3    0.50    2.50
  -1  11  -3    1.80    3.10
  -1  11  -3    1.50    3.10
   1 -11   3   -0.20    2.40
  -2  11  -3   22.90    4.80
  -2  11  -3   29.00    4.90
  -2  11  -3   23.30    4.00
   2 -11   3   27.20    4.20
  -3  11  -3  191.58    8.80
  -3  11  -3  196.38    9.80
  -3  11  -3  208.78   10.10
   3 -11   3  209.38    9.00
  -4  11  -3   39.40    5.20
  -4  11  -3   41.00    5.60
  -4  11  -3   52.89    5.50
   4 -11   3   55.09    5.50
  -5  11  -3   20.40    4.00
   5 -11   3   17.00    3.80
  -6  11  -3   44.50    5.60
   6 -11   3   49.40    5.80
   5  10  -3   28.20    5.70
   5  10  -3   27.20    6.30
   5  10  -3   25.90    5.40
  -5 -10   3   25.10    5.10
   4  10  -3   21.60    4.90
   4  10  -3   25.10    4.90
   4  10  -3   15.80    5.30
  -4 -10   3   21.70    4.60
   3  10  -3    9.10    4.20
   3  10  -3    3.70    3.30
   3  10  -3    3.60    3.20
  -3 -10   3   -3.20    2.60
   2  10  -3    6.50    3.80
   2  10  -3   12.70    4.40
   2  10  -3    7.40    3.30
  -2 -10   3   13.00    3.80
  -2 -10   3   15.20    3.80
   1  10  -3   38.00    5.70
   1  10  -3   24.20    4.10
   1  10  -3   40.70    5.80
  -1 -10   3   42.00    5.20
  -1 -10   3   36.90    4.60
   0  10  -3   46.90    5.00
   0  10  -3   44.60    5.60
   0  10  -3   58.29    6.50
   0 -10   3   60.59    5.40
   0 -10   3   63.69    6.10
  -1  10  -3   74.59    6.90
  -1  10  -3   75.09    5.80
  -1  10  -3   77.49    7.10
   1 -10   3   76.19    5.80
   1 -10   3   67.99    5.70
  -2  10  -3   91.39    6.80
  -2  10  -3   92.09    6.10
  -2  10  -3   90.39    6.80
   2 -10   3   95.19    7.20
   2 -10   3   89.49    6.00
  -3  10  -3  159.18    7.60
  -3  10  -3  159.78    8.20
  -3  10  -3  148.69    8.10
   3 -10   3  156.58    7.60
  -4  10  -3   17.20    3.60
  -4  10  -3   20.00    3.70
  -4  10  -3   15.30    3.80
   4 -10   3   10.80    3.10
  -5  10  -3    8.70    3.20
   5 -10   3    4.30    2.80
  -6  10  -3   23.80    4.50
   6 -10   3    8.00    3.20
  -7  10  -3    1.50    3.10
   7 -10   3   -0.50    2.80
   6   9  -3   71.99    9.00
   6   9  -3   88.39    8.30
   6   9  -3   82.49    8.40
  -6  -9   3   81.19    8.20
   5   9  -3   69.09    7.50
   5   9  -3   72.19    7.30
   5   9  -3   68.99    8.20
  -5  -9   3   74.39    7.40
   4   9  -3   12.30    4.00
   4   9  -3   20.00    4.70
   4   9  -3    4.90    4.20
  -4  -9   3   10.60    3.80
   3   9  -3   33.20    5.10
   3   9  -3   24.60    4.60
   3   9  -3   18.90    4.70
  -3  -9   3   27.30    4.50
   2   9  -3  103.59    7.50
   2   9  -3  109.69    7.90
   2   9  -3  101.89    6.90
  -2  -9   3  107.69    7.00
  -2  -9   3  105.19    6.80
   1   9  -3  184.58    9.10
   1   9  -3  175.08    9.00
   1   9  -3  173.58    8.00
  -1  -9   3  164.18    8.00
  -1  -9   3  172.88    7.80
   0   9  -3   55.39    5.70
   0   9  -3   48.30    5.30
   0   9  -3   52.39    5.00
   0  -9   3   40.40    4.20
   0  -9   3   63.29    5.20
  -1   9  -3  127.99    6.80
  -1   9  -3  142.69    7.70
  -1   9  -3  129.79    7.30
   1  -9   3  133.19    6.80
   1  -9   3  135.29    6.70
  -2   9  -3  278.07   10.10
  -2   9  -3  236.58    8.90
  -2   9  -3  243.38    9.60
   2  -9   3  253.27    9.30
   2  -9   3  257.07    8.90
  -3   9  -3   11.90    2.90
  -3   9  -3   13.70    3.20
  -3   9  -3   13.10    3.20
   3  -9   3   12.60    3.10
   3  -9   3   14.60    3.10
  -4   9  -3   37.70    4.40
  -4   9  -3   31.30    4.40
  -4   9  -3   35.80    4.10
   4  -9   3   43.00    4.90
   4  -9   3   37.20    4.40
  -5   9  -3   -2.30    2.10
  -5   9  -3    1.70    2.70
   5  -9   3   -0.50    2.20
   5  -9   3    1.80    2.60
  -6   9  -3   12.10    3.50
   6  -9   3    9.80    3.20
  -7   9  -3   90.29    7.20
   7  -9   3   68.29    6.60
  -8   9  -3   16.00    4.50
   8  -9   3   13.40    4.10
   6   8  -3  202.38   10.90
   6   8  -3  165.98   11.70
   6   8  -3  193.48   10.10
  -6  -8   3  200.88   10.50
   5   8  -3   25.90    5.80
   5   8  -3   19.40    4.50
   5   8  -3   21.50    4.40
  -5  -8   3   23.60    4.70
   4   8  -3   10.70    3.50
   4   8  -3    6.90    3.40
   4   8  -3    8.60    4.20
  -4  -8   3   10.50    3.50
   3   8  -3   33.70    5.50
   3   8  -3   21.20    3.90
   3   8  -3   29.10    4.40
  -3  -8   3   28.10    4.30
  -3  -8   3   28.20    4.20
   2   8  -3  206.38    8.60
   2   8  -3  191.48    9.00
   2   8  -3  201.18    9.50
  -2  -8   3  207.48    8.40
  -2  -8   3  189.88    8.70
   1   8  -3  136.49    7.50
   1   8  -3  141.39    6.80
   1   8  -3  135.89    7.70
  -1  -8   3  135.89    7.00
  -1  -8   3  148.69    7.00
   0   8  -3    5.30    2.70
   0   8  -3    4.10    2.70
   0   8  -3    3.20    2.40
   0  -8   3    6.60    2.50
   0  -8   3    5.70    2.30
  -1   8  -3    4.60    2.60
  -1   8  -3    4.70    2.70
  -1   8  -3    8.80    2.50
   1  -8   3    7.90    2.40
   1  -8   3    9.10    2.60
  -2   8  -3  140.19    6.90
  -2   8  -3  148.99    6.60
  -2   8  -3  156.28    7.00
   2  -8   3  152.28    6.80
   2  -8   3  139.49    6.30
  -3   8  -3   -0.10    2.00
  -3   8  -3    4.60    2.40
  -3   8  -3   -5.00    1.90
   3  -8   3    1.80    2.00
   3  -8   3    0.80    2.00
  -4   8  -3   59.99    4.50
  -4   8  -3   51.79    4.90
   4  -8   3   61.69    5.00
   4  -8   3   53.99    4.80
  -5   8  -3   95.59    6.60
  -5   8  -3   92.09    6.40
   5  -8   3  107.09    6.60
   5  -8   3   96.69    6.20
  -6   8  -3   90.99    6.50
   6  -8   3   96.49    6.60
   6  -8   3  113.69    7.10
  -7   8  -3    9.70    3.40
   7  -8   3   -0.60    2.60
   7  -8   3    7.70    3.40
  -8   8  -3   20.80    4.80
   8  -8   3   13.60    4.40
   7   7  -3    2.00    2.90
   7   7  -3   -0.90    3.60
  -7  -7   3    2.60    3.70
   6   7  -3    2.90    3.30
   6   7  -3    5.70    3.10
  -6  -7   3    0.70    3.20
   5   7  -3    5.40    3.00
   5   7  -3    3.10    3.30
  -5  -7   3    5.20    3.10
   4   7  -3  125.29    7.40
   4   7  -3  125.29    7.30
  -4  -7   3  131.69    6.90
  -4  -7   3  139.09    7.40
   3   7  -3  449.06   13.40
   3   7  -3  436.36   13.00
   3   7  -3  473.25   14.70
  -3  -7   3  453.95   12.80
  -3  -7   3  441.76   12.40
  -3  -7   3  443.56   13.50
   2   7  -3  582.74   15.90
   2   7  -3  580.04   14.70
   2   7  -3  582.74   13.10
  -2  -7   3  567.84   14.90
  -2  -7   3  602.44   14.50
  -2  -7   3  576.14   13.90
   1   7  -3  155.78    5.60
   1   7  -3  152.78    7.30
   1   7  -3  168.68    6.80
  -1  -7   3  151.38    6.70
  -1  -7   3  151.08    6.10
  -1  -7   3  158.78    6.60
   0   7  -3  113.19    5.90
   0   7  -3  118.79    4.50
   0   7  -3  111.29    5.60
   0  -7   3  120.49    5.80
   0  -7   3  111.69    5.00
   0  -7   3  107.29    5.40
  -1   7  -3    0.80    2.00
  -1   7  -3   -1.50    1.00
  -1   7  -3    0.60    1.90
   1  -7   3    0.40    1.70
   1  -7   3    2.70    1.70
   1  -7   3    0.30    1.50
  -2   7  -3   17.30    2.80
  -2   7  -3   16.50    2.70
   2  -7   3   15.10    2.60
   2  -7   3   14.70    2.30
   2  -7   3   22.90    3.20
  -3   7  -3  114.39    5.50
  -3   7  -3  104.09    5.20
  -3   7  -3  110.09    5.70
   3  -7   3   94.39    5.30
   3  -7   3  103.49    5.70
  -4   7  -3   45.30    3.60
  -4   7  -3   40.40    4.20
   4  -7   3   44.10    4.50
   4  -7   3   36.50    3.90
  -5   7  -3   19.20    3.50
   5  -7   3   17.60    3.60
   5  -7   3   19.30    3.50
  -6   7  -3  201.68    9.00
   6  -7   3  196.78    8.90
  -7   7  -3    1.80    2.90
   7  -7   3    7.40    3.10
  -8   7  -3   46.10    5.90
   8  -7   3   47.70    6.10
  -9   7  -3   27.30    5.80
   9  -7   3   20.40    5.10
   8   6  -3   40.70    6.70
  -8  -6   3   45.70    6.40
   7   6  -3   39.70    5.90
   7   6  -3   41.10    5.20
  -7  -6   3   40.40    6.60
  -7  -6   3   36.30    5.40
   6   6  -3   41.20    6.20
   6   6  -3   46.10    5.20
   6   6  -3   46.20    5.70
  -6  -6   3   47.00    5.80
  -6  -6   3   43.80    5.40
   5   6  -3  183.88    8.10
   5   6  -3  205.08    9.30
  -5  -6   3  192.18    8.70
  -5  -6   3  192.48    8.80
   4   6  -3    1.20    2.60
   4   6  -3    8.60    2.40
  -4  -6   3    0.80    2.40
  -4  -6   3    5.20    2.30
   3   6  -3   58.79    4.30
   3   6  -3   52.89    4.80
  -3  -6   3   63.39    5.00
  -3  -6   3   59.59    5.30
  -3  -6   3   61.49    4.60
   2   6  -3   94.89    6.10
   2   6  -3   98.69    4.70
   2   6  -3   99.89    5.50
  -2  -6   3  101.89    5.60
  -2  -6   3   97.89    5.00
  -2  -6   3   98.09    5.20
   1   6  -3  102.39    5.20
   1   6  -3  103.79    4.40
   1   6  -3   98.99    5.50
  -1  -6   3  106.89    5.30
  -1  -6   3   93.69    4.90
  -1  -6   3   98.29    4.70
   0   6  -3   10.90    1.80
   0   6  -3    9.00    2.30
   0   6  -3    5.50    2.00
   0  -6   3   10.30    2.20
   0  -6   3   11.80    2.10
   0  -6   3    7.40    2.10
  -1   6  -3 1041.50   20.50
  -1   6  -3 1088.19   19.10
  -1   6  -3 1101.39   20.50
   1  -6   3 1058.89   20.00
   1  -6   3 1059.69   20.80
   1  -6   3 1080.39   20.30
  -2   6  -3    0.60    1.20
  -2   6  -3    3.70    1.70
  -2   6  -3    5.70    2.00
   2  -6   3   -1.20    1.40
   2  -6   3    2.00    1.70
   2  -6   3    1.20    1.60
  -3   6  -3   18.30    3.00
  -3   6  -3   19.00    2.60
  -3   6  -3   17.90    2.20
   3  -6   3   16.90    2.60
   3  -6   3   16.40    2.50
   3  -6   3   16.30    2.80
  -4   6  -3    1.50    1.50
  -4   6  -3    3.90    2.20
  -4   6  -3    2.70    2.00
   4  -6   3    1.50    2.00
   4  -6   3    2.10    2.00
   4  -6   3    3.70    1.80
  -5   6  -3   69.69    5.40
   5  -6   3   64.69    5.10
  -6   6  -3   37.70    4.60
   6  -6   3   44.30    4.90
  -7   6  -3    2.70    3.00
   7  -6   3    3.40    2.90
  -8   6  -3  168.58    9.60
   8  -6   3  172.38    9.40
  -9   6  -3    3.10    3.90
   9  -6   3    3.70    3.30
   8   5  -3    9.70    4.10
  -8  -5   3   10.30    4.10
  -8  -5   3   15.60    4.30
   7   5  -3   75.59    6.80
   7   5  -3   73.39    7.20
   7   5  -3   71.39    5.70
  -7  -5   3   67.89    6.50
  -7  -5   3   81.39    7.20
   6   5  -3  135.49    7.30
   6   5  -3  134.99    7.90
  -6  -5   3  148.79    8.00
  -6  -5   3  119.79    7.20
   5   5  -3   82.19    5.70
   5   5  -3   78.19    5.80
  -5  -5   3   81.09    5.80
  -5  -5   3   83.69    5.90
   4   5  -3  245.18    9.10
   4   5  -3  254.97    8.60
  -4  -5   3  255.47    8.90
  -4  -5   3  257.57    8.90
   3   5  -3    6.90    2.10
   3   5  -3    7.90    2.50
  -3  -5   3    6.10    2.40
  -3  -5   3    6.40    2.10
  -3  -5   3    9.50    2.40
   2   5  -3   11.60    2.10
   2   5  -3    7.90    2.10
  -2  -5   3    8.30    2.10
  -2  -5   3   15.80    2.70
  -2  -5   3    7.90    2.10
   1   5  -3 1588.14   28.40
   1   5  -3 1622.74   28.60
   1   5  -3 1623.44   27.50
  -1  -5   3 1582.74   28.80
  -1  -5   3 1592.24   28.00
  -1  -5   3 1614.74   28.00
   0   5  -3  172.08    5.40
   0   5  -3  170.38    6.00
   0   5  -3  175.28    5.90
   0  -5   3  174.68    5.90
   0  -5   3  185.38    6.30
   0  -5   3  183.78    5.80
  -1   5  -3    8.10    2.00
  -1   5  -3    9.00    1.80
  -1   5  -3    4.80    1.40
   1  -5   3    6.90    1.90
   1  -5   3    9.50    2.00
   1  -5   3    8.50    1.80
  -2   5  -3 1609.24   26.80
  -2   5  -3 1567.64   26.80
  -2   5  -3 1584.24   28.10
   2  -5   3 1623.94   27.90
   2  -5   3 1585.34   28.50
   2  -5   3 1607.14   27.90
  -3   5  -3  166.98    5.50
  -3   5  -3  156.38    6.20
   3  -5   3  165.58    6.50
   3  -5   3  163.88    6.10
   3  -5   3  174.78    6.00
  -4   5  -3   31.30    2.30
  -4   5  -3   28.60    2.90
  -4   5  -3   30.70    3.60
   4  -5   3   24.60    3.00
   4  -5   3   29.40    3.50
  -5   5  -3  184.28    7.70
  -5   5  -3  168.88    6.30
   5  -5   3  162.68    7.20
   5  -5   3  160.68    6.80
  -6   5  -3   17.60    3.60
   6  -5   3   16.40    3.60
   6  -5   3   20.50    3.80
  -7   5  -3   73.89    6.80
   7  -5   3   66.89    6.10
  -8   5  -3   12.90    4.30
   8  -5   3    8.10    3.60
  -9   5  -3    5.40    4.30
   9  -5   3    6.60    3.80
   9   4  -3    0.70    3.60
   9   4  -3   -3.40    3.10
  -9  -4   3    3.50    3.90
   8   4  -3   33.40    5.10
   8   4  -3   25.60    4.90
  -8  -4   3   42.00    5.90
  -8  -4   3   28.30    4.70
   7   4  -3   22.20    4.00
   7   4  -3   20.70    3.50
   7   4  -3   20.20    4.00
  -7  -4   3   15.50    3.60
  -7  -4   3   11.50    3.60
  -7  -4   3   17.60    3.90
   6   4  -3   -0.50    2.20
   6   4  -3   -0.90    2.20
  -6  -4   3   -1.70    2.50
  -6  -4   3    5.90    3.00
   5   4  -3   52.19    4.70
   5   4  -3   69.29    5.90
  -5  -4   3   65.89    5.20
  -5  -4   3   56.69    5.20
   4   4  -3 1008.90   20.30
   4   4  -3  992.80   20.70
  -4  -4   3 1011.00   20.80
  -4  -4   3  982.00   20.10
   3   4  -3  202.68    7.00
   3   4  -3  194.58    6.70
  -3  -4   3  192.18    6.70
  -3  -4   3  200.78    7.40
  -3  -4   3  202.68    7.00
   2   4  -3 1066.89   20.00
   2   4  -3 1095.49   20.70
  -2  -4   3 1115.49   20.50
  -2  -4   3 1125.89   20.30
  -2  -4   3 1062.39   20.90
   1   4  -3 1655.93   28.10
   1   4  -3 1673.03   28.60
  -1  -4   3 1681.63   28.50
  -1  -4   3 1673.13   29.00
  -1  -4   3 1661.13   28.20
   0   4  -3  357.56    8.00
   0   4  -3  339.17    8.10
   0   4  -3  361.06    8.70
   0  -4   3  344.47    8.80
   0  -4   3  356.06    8.40
  -1   4  -3  392.26    8.00
  -1   4  -3  377.26    9.20
  -1   4  -3  380.56    8.60
   1  -4   3  383.16    9.40
   1  -4   3  397.36    9.10
   1  -4   3  386.66    9.00
  -2   4  -3   82.29    3.80
   2  -4   3   80.19    4.20
   2  -4   3   80.39    3.90
   2  -4   3   89.19    4.20
  -3   4  -3   41.40    3.70
  -3   4  -3   40.50    3.00
   3  -4   3   37.20    3.30
   3  -4   3   38.10    3.30
  -4   4  -3  361.36    9.30
  -4   4  -3  376.36   10.50
   4  -4   3  367.46   10.20
   4  -4   3  372.36   10.00
  -5   4  -3 1067.29   20.80
  -5   4  -3 1052.19   22.30
   5  -4   3 1033.40   21.60
   5  -4   3 1057.29   22.00
  -6   4  -3   86.09    5.30
  -6   4  -3   70.39    6.10
   6  -4   3   77.49    5.90
   6  -4   3   90.59    5.80
  -7   4  -3    2.40    3.10
   7  -4   3    5.30    3.00
   7  -4   3    3.60    2.90
  -8   4  -3   10.00    4.30
   8  -4   3   17.30    4.10
  -9   4  -3   -0.30    4.10
   9  -4   3    1.70    3.30
   9   3  -3   15.10    4.50
  -9  -3   3   16.90    4.80
   8   3  -3    2.00    3.10
   8   3  -3   14.30    4.00
  -8  -3   3   11.20    3.50
  -8  -3   3    1.10    3.30
   7   3  -3   38.10    4.90
   7   3  -3   30.50    4.40
  -7  -3   3   31.10    4.50
  -7  -3   3   25.00    4.30
  -7  -3   3   34.90    4.60
   6   3  -3  196.78    8.40
   6   3  -3  183.78    8.30
  -6  -3   3  193.48    8.00
  -6  -3   3  204.08    8.50
   5   3  -3  769.92   17.10
   5   3  -3  741.23   17.20
  -5  -3   3  743.03   16.60
  -5  -3   3  736.93   17.30
   4   3  -3    9.00    2.20
   4   3  -3   14.20    2.60
  -4  -3   3    9.60    2.20
  -4  -3   3   10.60    2.30
   3   3  -3    0.30    1.40
   3   3  -3    1.20    1.60
  -3  -3   3   -2.20    1.60
  -3  -3   3    2.80    1.50
  -3  -3   3    0.70    1.60
   2   3  -3  679.63   13.40
   2   3  -3  651.33   13.50
  -2  -3   3  657.43   13.80
  -2  -3   3  663.53   13.60
  -2  -3   3  658.03   13.20
   1   3  -3 3264.47   50.79
   1   3  -3 3248.77   51.19
  -1  -3   3 3228.08   51.09
  -1  -3   3 3294.87   50.79
  -1  -3   3 3172.38   51.49
   0   3  -3  747.13   14.30
   0   3  -3  776.02   14.00
   0  -3   3  773.52   14.10
   0  -3   3  733.13   14.20
   0  -3   3  769.62   14.60
  -1   3  -3  118.99    2.90
  -1   3  -3  120.69    4.30
  -1   3  -3  109.49    4.40
   1  -3   3  124.69    4.40
   1  -3   3  115.39    4.30
  -2   3  -3  611.14   12.40
  -2   3  -3  625.04   12.90
   2  -3   3  622.84   12.70
   2  -3   3  618.74   12.80
  -3   3  -3  747.73   15.00
  -3   3  -3  734.53   15.70
   3  -3   3  772.02   15.70
   3  -3   3  803.62   15.70
  -4   3  -3  298.17    8.30
  -4   3  -3  288.97    9.00
   4  -3   3  271.27    8.60
   4  -3   3  290.47    8.70
  -5   3  -3  412.86   12.00
  -5   3  -3  429.46   11.30
   5  -3   3  412.46   11.70
   5  -3   3  438.56   12.00
  -6   3  -3   36.20    4.20
  -6   3  -3   39.00    4.90
   6  -3   3   37.60    4.60
   6  -3   3   38.10    4.50
  -7   3  -3  202.18    9.70
  -7   3  -3  218.28    8.90
   7  -3   3  215.28    9.60
   7  -3   3  213.98    9.50
  -8   3  -3   -1.20    3.10
   8  -3   3   -2.20    2.70
  -9   3  -3   25.20    5.50
   9  -3   3   20.10    4.70
   9   2  -3    7.00    3.70
  -9  -2   3   12.00    4.40
   8   2  -3  217.38   10.00
   8   2  -3  235.38   10.40
  -8  -2   3  224.08    9.70
  -8  -2   3  249.38   10.90
   7   2  -3    9.30    3.10
   7   2  -3    8.10    3.10
  -7  -2   3    3.60    2.70
  -7  -2   3    9.90    3.20
  -7  -2   3    6.60    2.70
   6   2  -3   -0.80    2.00
   6   2  -3    2.10    2.40
  -6  -2   3   -0.20    2.10
  -6  -2   3    0.50    2.30
  -6  -2   3   -0.10    2.30
   5   2  -3   94.69    5.40
   5   2  -3   90.69    5.20
  -5  -2   3   94.19    5.50
  -5  -2   3   88.79    4.90
   4   2  -3   -0.50    1.60
   4   2  -3    1.90    1.60
  -4  -2   3    1.50    1.60
  -4  -2   3    1.80    1.60
   3   2  -3  116.19    4.70
   3   2  -3  118.49    4.80
  -3  -2   3  116.89    4.60
  -3  -2   3  109.39    4.70
   2   2  -3  290.27    7.10
   2   2  -3  292.57    7.30
  -2  -2   3  284.17    7.40
  -2  -2   3  293.17    7.30
  -2  -2   3  282.47    6.90
   1   2  -3 3741.03   58.09
   1   2  -3 3836.02   58.39
  -1  -2   3 3720.13   57.99
  -1  -2   3 3783.32   58.59
  -1  -2   3 3795.82   58.39
   0   2  -3   14.30    1.90
   0   2  -3   17.40    1.80
   0  -2   3   14.30    1.90
   0  -2   3   15.20    1.70
   0  -2   3   17.90    2.00
  -1   2  -3   45.30    2.80
  -1   2  -3   51.09    3.00
   1  -2   3   48.40    2.90
   1  -2   3   51.79    3.00
   1  -2   3   50.59    3.00
  -2   2  -3   24.60    2.60
  -2   2  -3   28.30    2.90
   2  -2   3   23.40    2.50
   2  -2   3   28.40    2.70
  -3   2  -3    3.20    1.70
  -3   2  -3    5.70    1.90
   3  -2   3    7.90    2.00
   3  -2   3    5.80    1.90
  -4   2  -3  376.16    9.90
  -4   2  -3  364.66   10.30
   4  -2   3  359.06   10.10
   4  -2   3  385.66   10.30
  -5   2  -3   22.50    3.30
  -5   2  -3   19.50    3.30
   5  -2   3   19.90    3.30
   5  -2   3   22.10    3.50
  -6   2  -3  107.79    6.20
  -6   2  -3   97.59    6.70
   6  -2   3  110.99    6.70
   6  -2   3   93.69    6.30
  -7   2  -3    3.40    2.80
  -7   2  -3    3.50    3.10
   7  -2   3    1.40    2.70
   7  -2   3    4.70    3.00
  -8   2  -3   19.30    4.70
   8  -2   3   24.00    4.60
   8  -2   3   18.30    4.40
  -9   2  -3   13.60    4.80
   9  -2   3   11.70    4.20
  10   1  -3   -1.30    3.30
 -10  -1   3    0.60    3.60
   9   1  -3  135.09    8.90
  -9  -1   3  137.69    9.10
   8   1  -3  287.77   11.20
  -8  -1   3  273.37   11.20
  -8  -1   3  282.47   10.90
   7   1  -3    4.20    2.70
   7   1  -3   -1.60    2.00
  -7  -1   3   -1.10    2.00
  -7  -1   3   -3.80    2.20
  -7  -1   3   -1.50    2.30
   6   1  -3   28.60    3.70
   6   1  -3   18.10    3.10
  -6  -1   3   25.00    3.10
  -6  -1   3   14.00    3.10
  -6  -1   3   22.30    3.60
   5   1  -3   -2.10    1.60
   5   1  -3    1.40    1.70
  -5  -1   3   -1.30    1.50
  -5  -1   3    0.10    1.80
  -5  -1   3   -0.20    2.20
   4   1  -3   85.69    4.20
   4   1  -3   78.49    4.10
  -4  -1   3   84.99    4.40
  -4  -1   3   84.89    3.90
  -4  -1   3   83.19    5.00
   3   1  -3   81.29    3.70
   3   1  -3   80.89    3.80
  -3  -1   3   78.09    3.50
  -3  -1   3   77.39    3.80
   2   1  -3  103.29    3.60
   2   1  -3   98.69    3.60
  -2  -1   3   95.79    3.80
  -2  -1   3   99.39    3.70
  -2  -1   3   98.29    3.40
   1   1  -3 1370.86   22.40
   1   1  -3 1427.86   22.60
  -1  -1   3 1403.16   22.90
  -1  -1   3 1370.26   22.20
  -1  -1   3 1355.96   22.70
   0   1  -3   40.80    2.40
   0   1  -3   39.80    2.30
   0  -1   3   38.60    2.40
   0  -1   3   38.30    2.30
   0  -1   3   36.00    2.20
  -1   1  -3    4.50    1.40
  -1   1  -3    3.90    1.40
   1  -1   3    3.50    0.70
   1  -1   3    4.80    1.40
   1  -1   3    4.10    1.40
   1  -1   3    5.30    1.50
  -2   1  -3    4.70    1.60
  -2   1  -3    1.20    1.60
   2  -1   3    0.80    1.40
   2  -1   3    1.90    1.50
  -3   1  -3 1985.80   33.40
  -3   1  -3 2025.40   34.00
   3  -1   3 1932.31   33.80
   3  -1   3 1947.01   33.40
  -4   1  -3  416.36   11.20
  -4   1  -3  431.06   10.90
   4  -1   3  417.56   11.30
   4  -1   3  432.56   11.00
  -5   1  -3  153.38    7.00
  -5   1  -3  147.19    6.80
   5  -1   3  149.09    7.10
   5  -1   3  136.19    6.70
  -6   1  -3   -3.70    2.40
  -6   1  -3    3.60    2.80
   6  -1   3    0.70    2.50
   6  -1   3   -0.20    2.30
  -7   1  -3   18.80    4.20
  -7   1  -3   17.80    3.80
   7  -1   3   14.50    3.70
   7  -1   3   16.40    4.00
  -8   1  -3    3.40    3.70
  -8   1  -3    5.60    3.50
   8  -1   3    4.60    3.30
   8  -1   3    1.10    2.90
  -9   1  -3    4.60    4.20
   9  -1   3   -0.50    3.10
   9  -1   3    2.00    4.30
  10   0  -3   50.79    6.70
 -10   0   3   49.50    6.80
   9   0  -3  142.59    8.70
  -9   0   3  127.69    8.50
  -9   0   3  138.99    8.30
   8   0  -3    1.30    2.60
  -8   0   3    2.00    2.80
  -8   0   3    3.40    2.80
   7   0  -3   -0.60    2.10
   7   0  -3   -2.70    2.10
  -7   0   3    2.20    2.60
  -7   0   3   -1.00    2.30
   6   0  -3   71.79    5.10
   6   0  -3   70.09    4.60
  -6   0   3   76.79    5.70
  -6   0   3   84.79    5.20
  -6   0   3   79.89    4.40
   5   0  -3   87.39    4.40
   5   0  -3   87.79    4.70
  -5   0   3   89.39    3.90
  -5   0   3   80.49    5.40
  -5   0   3   86.19    4.70
   4   0  -3  494.35   10.80
   4   0  -3  514.85   11.10
  -4   0   3  501.55   12.60
  -4   0   3  517.85   11.40
  -4   0   3  513.05   10.10
   3   0  -3  104.09    3.80
   3   0  -3   96.59    3.70
  -3   0   3   95.79    5.20
  -3   0   3  105.09    4.00
  -3   0   3  107.69    3.40
   2   0  -3  138.89    3.80
   2   0  -3  141.49    3.80
  -2   0   3  137.09    4.00
  -2   0   3  142.29    4.00
  -2   0   3  144.59    3.30
  -2   0   3  133.49    5.20
   1   0  -3   28.00    1.70
   1   0  -3   27.90    1.70
  -1   0   3   30.40    1.90
  -1   0   3   28.10    1.90
  -1   0   3   34.80    2.90
   0   0  -3   18.80    1.60
   0   0  -3   21.20    1.70
   0   0   3   21.80    1.70
   0   0   3   20.20    1.50
   0   0   3   18.30    1.70
   0   0   3   19.20    1.70
  -1   0  -3  182.38    5.00
  -1   0  -3  181.18    5.10
   1   0   3  176.98    4.30
   1   0   3  179.18    4.50
   1   0   3  178.78    5.10
   1   0   3  175.88    4.70
  -2   0  -3  122.09    4.60
  -2   0  -3  121.89    4.70
   2   0   3  125.49    4.30
   2   0   3  131.79    4.60
   2   0   3  133.39    4.40
   2   0   3  125.19    2.50
   2   0   3  122.69    4.70
  -3   0  -3 2059.19   34.60
  -3   0  -3 2090.39   35.00
   3   0   3 2012.30   32.90
   3   0   3 1993.20   35.00
   3   0   3 2044.60   34.40
  -4   0  -3    8.90    2.30
  -4   0  -3    8.00    2.50
   4   0   3   10.50    2.40
   4   0   3   10.10    1.70
   4   0   3   10.70    2.60
  -5   0  -3  122.99    6.60
  -5   0  -3  122.29    6.60
   5   0   3  115.49    6.20
   5   0   3  124.79    6.50
  -6   0  -3    0.50    2.60
  -6   0  -3   -1.40    2.50
   6   0   3    1.70    2.70
   6   0   3    1.20    2.40
  -7   0  -3   82.49    6.80
  -7   0  -3   91.89    7.20
   7   0   3   93.39    7.90
   7   0   3   90.89    6.50
  -8   0  -3   24.70    5.20
  -8   0  -3   28.50    5.00
   8   0   3   19.60    4.30
   8   0   3   25.40    5.00
  -9   0  -3    3.00    4.10
   9   0   3    3.90    3.90
  10  -1  -3  163.68    9.80
 -10   1   3  144.79    9.60
   9  -1  -3   -0.20    2.60
  -9   1   3   -4.50    2.70
  -9   1   3   -1.80    2.50
   8  -1  -3  309.87   11.30
  -8   1   3  307.77   11.80
  -8   1   3  300.77   11.30
   7  -1  -3   12.00    3.00
  -7   1   3   13.20    3.10
  -7   1   3   19.70    3.90
   6  -1  -3    8.90    2.50
   6  -1  -3    8.90    2.20
  -6   1   3    3.90    2.70
  -6   1   3    6.90    2.40
   5  -1  -3  778.92   15.40
   5  -1  -3  800.52   16.00
  -5   1   3  820.42   16.40
  -5   1   3  780.22   14.10
  -5   1   3  762.22   17.90
   4  -1  -3  303.47    7.20
   4  -1  -3  315.07    7.60
  -4   1   3  324.77    7.90
  -4   1   3  322.67    9.70
   3  -1  -3    1.40    1.00
  -3   1   3   -0.20    1.10
  -3   1   3    2.40    2.20
   2  -1  -3  139.29    3.10
   2  -1  -3  136.69    3.10
  -2   1   3  130.29    5.30
  -2   1   3  141.29    3.60
  -2   1   3  133.99    3.50
   1  -1  -3   56.09    1.60
   1  -1  -3   56.99    1.60
  -1   1   3   57.99    3.10
  -1   1   3   54.29    3.40
  -1   1   3   59.69    2.10
  -1   1   3   62.79    3.40
  -1   1   3   58.19    2.10
  -1   1   3   58.59    1.70
   0  -1  -3    7.60    1.10
   0  -1  -3    6.10    1.10
   0   1   3    7.20    1.20
   0   1   3    7.90    1.80
   0   1   3    8.20    1.70
   0   1   3    9.70    1.70
   0   1   3    7.40    1.20
  -1  -1  -3   11.80    1.70
  -1  -1  -3   10.60    1.70
   1   1   3   12.40    1.60
   1   1   3    9.20    1.70
   1   1   3    9.50    1.90
   1   1   3   11.10    1.50
   1   1   3   10.90    1.80
  -2  -1  -3 1509.35   26.10
  -2  -1  -3 1540.85   26.20
   2   1   3 1537.25   25.50
   2   1   3 1494.35   26.50
   2   1   3 1520.25   26.00
   2   1   3 1539.95   26.40
  -3  -1  -3   89.19    4.60
  -3  -1  -3   84.79    4.40
   3   1   3   91.69    4.80
   3   1   3   87.39    4.00
   3   1   3   91.09    4.20
  -4  -1  -3  298.97    9.30
  -4  -1  -3  305.57    9.50
   4   1   3  334.67   10.10
   4   1   3  303.97    9.00
   4   1   3  311.17    8.00
  -5  -1  -3   39.10    4.40
  -5  -1  -3   46.10    4.80
   5   1   3   34.40    3.80
   5   1   3   32.00    4.10
   5   1   3   35.40    3.20
  -6  -1  -3   35.30    4.80
  -6  -1  -3   37.10    4.80
   6   1   3   31.10    4.70
   6   1   3   31.90    4.20
  -7  -1  -3   47.10    6.10
  -7  -1  -3   48.00    5.80
   7   1   3   54.19    7.00
   7   1   3   49.40    6.00
  -8  -1  -3   92.09    8.00
   8   1   3   74.39    8.00
  10  -2  -3  123.99    8.60
 -10   2   3  108.99    8.40
   9  -2  -3    3.50    3.00
  -9   2   3    1.70    2.80
  -9   2   3    2.60    3.10
   8  -2  -3   39.30    4.80
  -8   2   3   24.70    4.10
  -8   2   3   30.60    4.80
   7  -2  -3  141.39    6.80
  -7   2   3  134.59    7.80
  -7   2   3  140.79    7.00
   6  -2  -3   35.90    3.60
  -6   2   3   32.30    3.50
  -6   2   3   40.30    5.10
   5  -2  -3   27.10    2.70
  -5   2   3   22.30    3.50
  -5   2   3   24.50    2.70
   4  -2  -3   66.89    3.00
  -4   2   3   58.09    4.70
  -4   2   3   65.29    3.20
   3  -2  -3  348.27    6.40
   3  -2  -3  346.27    6.40
  -3   2   3  334.57    9.90
  -3   2   3  339.07    6.90
  -3   2   3  347.57    6.90
  -2   2   3   10.90    1.00
  -2   2   3   11.80    2.20
  -2   2   3   10.70    2.30
  -2   2   3    9.20    0.90
  -2   2   3   10.30    2.10
  -1   2   3 6042.80   92.59
  -1   2   3 6097.99   92.19
  -1   2   3 6022.30   88.99
  -1   2   3 6005.50   89.29
  -1   2   3 5809.12   91.89
   0  -2  -3   20.80    1.60
   0  -2  -3   21.60    1.70
   0   2   3   24.50    2.80
   0   2   3   24.00    2.80
   0   2   3   23.30    1.80
   0   2   3   20.90    1.50
   0   2   3   23.40    1.90
   0   2   3   30.70    2.80
  -1  -2  -3   83.39    3.30
  -1  -2  -3   84.79    3.50
   1   2   3   90.39    3.80
   1   2   3   84.29    4.20
   1   2   3   84.09    4.20
   1   2   3   87.99    3.50
  -2  -2  -3   85.09    3.90
  -2  -2  -3   79.19    4.00
   2   2   3   82.39    3.40
   2   2   3   87.49    4.30
   2   2   3   84.49    4.60
   2   2   3   86.29    4.30
  -3  -2  -3    2.20    1.90
  -3  -2  -3    2.40    1.70
   3   2   3   -1.40    1.80
   3   2   3    1.30    1.60
   3   2   3    0.40    2.00
   3   2   3    0.50    1.30
  -4  -2  -3  138.19    6.30
  -4  -2  -3  129.19    6.50
   4   2   3  128.29    6.70
   4   2   3  129.49    5.70
   4   2   3  122.39    5.50
   4   2   3  133.69    6.60
  -5  -2  -3    5.60    2.70
  -5  -2  -3    6.50    2.90
   5   2   3   -0.70    1.90
   5   2   3    4.10    2.00
   5   2   3    2.80    2.40
  -6  -2  -3  109.49    7.20
  -6  -2  -3  103.09    7.20
   6   2   3   98.79    7.30
  -7  -2  -3   -2.70    3.10
   7   2   3    5.20    3.50
  -8  -2  -3    4.20    4.00
   8   2   3    4.30    4.10
  10  -3  -3   21.70    4.60
 -10   3   3   36.90    6.20
 -10   3   3   30.40    5.20
   9  -3  -3   14.40    3.80
  -9   3   3   15.80    4.30
  -9   3   3   12.00    3.70
   8  -3  -3   -1.30    2.20
  -8   3   3    0.00    2.50
  -8   3   3   -2.70    2.80
   7  -3  -3  560.84   14.20
  -7   3   3  557.04   14.20
  -7   3   3  565.84   16.70
   6  -3  -3  131.19    5.70
  -6   3   3  142.19    7.80
  -6   3   3  127.89    5.70
   5  -3  -3   30.50    2.70
  -5   3   3   30.10    2.90
  -5   3   3   29.30    4.10
   4  -3  -3  299.07    6.40
   4  -3  -3  292.77    6.20
  -4   3   3  297.57   10.00
  -4   3   3  291.87    6.70
  -4   3   3  290.07    6.80
  -3   3   3  253.17    5.20
  -3   3   3  253.17    5.20
  -3   3   3  260.27    7.50
  -3   3   3  260.27    8.70
  -2   3   3  618.44   14.50
  -2   3   3  637.14   13.60
  -2   3   3  648.34   14.20
  -1   3   3  253.47    8.00
  -1   3   3  251.77    4.80
  -1   3   3  256.37    4.90
  -1   3   3  264.07    8.00
  -1   3   3  254.27    7.70
   0  -3  -3  181.38    4.30
   0  -3  -3  189.28    4.30
   0   3   3  178.98    6.40
   0   3   3  180.78    6.60
   0   3   3  182.38    4.70
   0   3   3  183.08    6.10
   0   3   3  178.18    4.60
   0   3   3  180.58    3.50
   0   3   3  179.88    3.50
  -1  -3  -3  407.76    8.90
   1   3   3  399.06   10.70
   1   3   3  409.06   10.50
   1   3   3  420.26    9.30
  -2  -3  -3    6.70    1.80
  -2  -3  -3    6.00    1.90
   2   3   3    8.80    2.30
   2   3   3    7.10    2.40
   2   3   3    8.80    2.10
  -3  -3  -3    2.50    2.10
  -3  -3  -3   -0.30    1.60
   3   3   3    0.50    1.90
   3   3   3   -0.10    2.10
   3   3   3    3.70    1.80
   3   3   3    1.60    1.90
  -4  -3  -3    4.60    2.50
  -4  -3  -3    0.30    2.30
   4   3   3   -2.30    1.60
   4   3   3   -0.60    2.30
   4   3   3    3.60    2.90
  -5  -3  -3   22.10    4.00
   5   3   3   27.10    4.50
   5   3   3   22.10    4.40
   5   3   3   21.00    3.20
  -6  -3  -3   32.20    5.10
   6   3   3   31.50    5.30
   6   3   3   34.70    5.20
  -7  -3  -3   14.10    4.30
   7   3   3    8.90    4.10
   7   3   3    5.00    4.00
  -8  -3  -3   11.30    4.60
   8   3   3   15.60    5.20
   8   3   3   10.00    4.60
  10  -4  -3   65.29    6.80
 -10   4   3   63.79    7.90
 -10   4   3   62.79    6.80
   9  -4  -3    5.80    3.00
  -9   4   3    0.10    2.50
  -9   4   3    1.50    3.50
   8  -4  -3   25.80    3.90
  -8   4   3   33.70    5.80
  -8   4   3   20.90    3.80
   7  -4  -3   23.50    3.30
  -7   4   3   18.50    4.10
  -7   4   3   13.30    2.90
   6  -4  -3   24.40    2.90
  -6   4   3   25.20    4.40
  -6   4   3   22.60    2.90
   5  -4  -3  412.36    9.20
  -5   4   3  424.56    9.50
  -5   4   3  420.56   13.40
   4  -4  -3  476.25    8.60
   4  -4  -3  478.95    8.70
  -4   4   3  472.75    9.20
  -4   4   3  466.15   11.40
  -4   4   3  474.55   13.90
  -4   4   3  484.45    9.20
  -3   4   3   12.10    1.00
  -3   4   3    8.70    2.50
  -3   4   3   15.10    2.60
  -3   4   3   12.70    3.00
  -3   4   3   12.20    1.00
  -2   4   3  178.68    7.20
  -2   4   3  179.98    6.70
  -2   4   3  179.18    7.40
  -1   4   3  124.39    5.70
  -1   4   3  124.79    3.20
  -1   4   3  122.79    5.90
  -1   4   3  121.99    3.10
  -1   4   3  115.59    5.90
   0  -4  -3  185.38    4.60
   0  -4  -3  175.38    4.60
   0   4   3  181.28    4.90
   0   4   3  190.18    6.80
   0   4   3  194.38    7.50
   0   4   3  180.38    7.00
   0   4   3  181.98    5.00
  -1  -4  -3  200.28    5.90
   1   4   3  199.68    6.10
   1   4   3  197.18    7.80
   1   4   3  182.78    7.30
  -2  -4  -3  185.48    6.60
   2   4   3  190.98    7.60
   2   4   3  181.08    7.90
   2   4   3  201.98    7.00
  -3  -4  -3  210.68    7.80
   3   4   3  211.48    8.30
   3   4   3  195.18    8.80
   3   4   3  193.58    7.80
  -4  -4  -3   88.89    5.90
   4   4   3   81.99    5.80
   4   4   3   94.19    7.10
   4   4   3   93.29    6.20
  -5  -4  -3    7.50    3.30
   5   4   3    1.50    2.80
   5   4   3    3.90    3.40
   5   4   3    6.30    2.60
  -6  -4  -3   25.10    4.90
   6   4   3   22.70    5.20
   6   4   3   31.10    6.20
   6   4   3   24.90    5.10
  -7  -4  -3    7.50    4.20
   7   4   3    8.00    4.10
   7   4   3   11.90    4.90
  10  -5  -3   11.80    3.90
 -10   5   3    6.00    3.40
 -10   5   3   14.80    5.10
   9  -5  -3   65.09    6.10
  -9   5   3   64.69    6.10
  -9   5   3   76.09    8.50
   8  -5  -3   14.40    3.20
  -8   5   3   13.90    3.10
  -8   5   3   13.10    4.50
   7  -5  -3    5.00    2.20
  -7   5   3    4.40    3.50
  -7   5   3    6.30    2.30
   6  -5  -3    0.50    1.50
  -6   5   3    0.80    3.10
  -6   5   3    1.40    1.60
   5  -5  -3   27.90    2.40
  -5   5   3   20.10    4.40
  -5   5   3   23.70    3.30
  -5   5   3   23.20    2.40
   4  -5  -3   28.20    1.60
   4  -5  -3   29.30    1.60
  -4   5   3   34.90    3.90
  -4   5   3   28.60    2.00
  -4   5   3   32.10    4.70
  -4   5   3   26.80    2.00
  -3   5   3  922.91   20.70
  -3   5   3  939.61   21.60
  -3   5   3  959.80   19.70
  -3   5   3  932.71   14.70
  -3   5   3  926.01   14.70
  -2   5   3   97.09    5.90
  -2   5   3   92.49    2.20
  -2   5   3   90.39    2.20
  -2   5   3   91.09    5.40
  -2   5   3   84.19    5.90
   1  -5  -3    9.60    1.00
   1  -5  -3    9.50    1.00
  -1   5   3   10.50    1.40
  -1   5   3    8.20    1.20
  -1   5   3   11.30    2.80
  -1   5   3   14.30    3.20
  -1   5   3   13.30    2.90
   0  -5  -3  135.39    5.00
   0  -5  -3  118.59    4.10
   0   5   3  146.89    7.20
   0   5   3  124.09    4.60
   0   5   3  131.39    6.60
   0   5   3  121.99    4.40
  -1  -5  -3    0.70    1.60
   1   5   3   -0.80    2.10
   1   5   3    0.90    1.60
   1   5   3   -1.20    2.40
  -2  -5  -3  167.58    6.60
   2   5   3  165.68    7.80
   2   5   3  170.28    8.30
   2   5   3  167.98    6.70
  -3  -5  -3   -1.10    2.20
   3   5   3    0.80    2.30
   3   5   3    3.80    2.50
   3   5   3    5.30    2.90
  -4  -5  -3   59.69    5.70
   4   5   3   60.49    5.70
   4   5   3   63.79    6.80
   4   5   3   45.10    5.30
  -5  -5  -3    7.10    3.30
   5   5   3    3.40    3.60
   5   5   3   11.20    3.80
   5   5   3    3.50    2.80
  -6  -5  -3   -2.20    2.90
   6   5   3   -0.60    2.60
   6   5   3    1.70    3.40
   6   5   3   -2.00    3.50
   9  -6  -3    1.40    2.50
  -9   6   3    0.90    3.90
  -9   6   3   -1.20    2.40
   8  -6  -3    4.20    2.60
  -8   6   3    7.90    2.70
  -8   6   3    9.80    4.60
   7  -6  -3    4.50    2.20
  -7   6   3    2.10    3.50
  -7   6   3    3.40    2.10
   6  -6  -3   26.80    2.90
  -6   6   3   16.50    2.50
  -6   6   3   21.10    4.70
   5  -6  -3  205.28    5.50
  -5   6   3  194.18   10.10
  -5   6   3  206.98    5.60
  -5   6   3  194.58    7.80
   4  -6  -3  115.89    3.00
  -4   6   3  114.59    3.40
  -4   6   3  124.09    7.70
  -4   6   3  115.99    7.90
  -4   6   3  112.69    3.40
  -4   6   3  109.59    6.20
  -3   6   3  580.64   14.80
  -3   6   3  560.14    9.40
  -3   6   3  548.65   15.60
  -3   6   3  578.04   16.60
  -3   6   3  559.24    9.40
  -2   6   3   70.89    5.90
  -2   6   3   73.19    6.10
  -2   6   3   65.39    2.40
  -2   6   3   70.59    2.40
  -2   6   3   68.29    5.30
   1  -6  -3    4.70    1.20
  -1   6   3    1.70    2.60
  -1   6   3    5.10    2.50
  -1   6   3    1.90    1.30
   0  -6  -3    7.30    1.80
   0   6   3    3.50    2.90
   0   6   3    3.90    1.70
   0   6   3    5.00    2.90
  -1  -6  -3  137.99    5.70
   1   6   3  155.08    8.30
   1   6   3  150.18    7.80
   1   6   3  138.69    5.90
  -2  -6  -3  107.99    5.80
   2   6   3  112.59    7.70
   2   6   3  108.89    5.90
   2   6   3   96.49    6.70
  -3  -6  -3   42.70    4.70
   3   6   3   46.80    6.20
   3   6   3   37.90    4.70
   3   6   3   43.00    5.30
  -4  -6  -3   45.60    5.20
   4   6   3   54.89    6.10
   4   6   3   51.19    6.50
   4   6   3   46.70    5.60
  -5  -6  -3   -4.90    2.70
   5   6   3   -0.70    3.30
   5   6   3   -1.70    3.30
   5   6   3    0.00    2.70
  -6  -6  -3   -4.60    3.10
   6   6   3   -1.60    3.00
   6   6   3   -5.10    3.30
   6   6   3    3.70    4.20
   9  -7  -3   50.19    5.50
  -9   7   3   43.70    7.50
  -9   7   3   49.50    5.30
   8  -7  -3   24.70    3.80
  -8   7   3   21.00    5.70
  -8   7   3   17.20    3.20
   7  -7  -3   10.50    2.50
  -7   7   3    9.50    2.40
  -7   7   3   13.60    4.90
   6  -7  -3   25.70    2.80
  -6   7   3   26.60    2.70
  -6   7   3   22.70    3.80
  -6   7   3   32.10    5.60
   5  -7  -3  174.48    5.10
  -5   7   3  173.18    5.00
  -5   7   3  168.28    7.80
  -5   7   3  176.38   10.40
   4  -7  -3  272.87    5.70
  -4   7   3  280.57   10.10
  -4   7   3  269.87    5.80
  -4   7   3  289.27   11.70
  -4   7   3  266.77   11.90
   3  -7  -3  125.09    3.00
  -3   7   3  123.19    7.30
  -3   7   3  133.09    7.90
  -3   7   3  128.89    3.30
  -3   7   3  137.59    3.90
   2  -7  -3    7.20    1.20
  -2   7   3   10.90    3.40
  -2   7   3    4.60    3.30
  -2   7   3    8.40    1.40
   1  -7  -3    1.30    1.40
  -1   7   3    2.30    2.80
  -1   7   3    4.50    3.10
  -1   7   3    5.20    1.60
   0  -7  -3  307.67    8.20
   0   7   3  315.47   11.70
   0   7   3  305.77   12.00
   0   7   3  303.87    8.40
  -1  -7  -3   52.89    4.30
   1   7   3   51.39    4.30
   1   7   3   57.49    6.20
   1   7   3   47.20    5.90
  -2  -7  -3   12.70    2.90
   2   7   3   12.80    3.10
   2   7   3   10.90    3.60
   2   7   3    4.80    3.40
  -3  -7  -3    5.20    2.80
   3   7   3   -2.20    3.40
   3   7   3   -0.40    2.50
   3   7   3    4.40    3.20
  -4  -7  -3   22.90    4.40
   4   7   3   20.20    4.50
   4   7   3   20.70    5.40
   4   7   3   15.60    4.30
  -5  -7  -3   21.60    4.80
   5   7   3   15.90    4.30
   5   7   3   12.50    4.90
   5   7   3   15.70    4.50
   8  -8  -3  197.58    8.20
  -8   8   3  186.08    7.70
   7  -8  -3   -0.50    1.80
  -7   8   3   -1.00    1.70
   6  -8  -3    0.50    1.50
  -6   8   3    0.80    1.50
  -6   8   3    0.10    2.40
   5  -8  -3   10.20    1.80
  -5   8   3   10.30    3.30
  -5   8   3    9.70    1.60
   4  -8  -3    3.70    1.20
  -4   8   3    4.40    1.20
  -4   8   3    1.70    3.60
  -4   8   3    2.90    2.70
   3  -8  -3  147.89    4.10
  -3   8   3  158.58    8.50
  -3   8   3  149.59    9.00
  -3   8   3  147.39    4.00
   2  -8  -3   43.50    2.80
  -2   8   3   40.30    5.50
  -2   8   3   38.70    2.60
  -2   8   3   38.80    5.70
   1  -8  -3  396.36    9.40
  -1   8   3  404.56    9.40
  -1   8   3  400.86   13.90
  -1   8   3  402.16   14.60
   0  -8  -3    2.40    1.90
   0   8   3    2.00    3.20
   0   8   3   -0.30    1.70
   0   8   3    1.40    2.90
  -1  -8  -3    1.40    2.30
   1   8   3    3.70    3.10
   1   8   3   -1.40    3.20
   1   8   3    4.70    2.40
  -2  -8  -3   39.80    4.60
   2   8   3   41.20    5.70
   2   8   3   48.80    4.90
   2   8   3   43.20    6.30
  -3  -8  -3   36.90    5.00
   3   8   3   33.70    5.70
   3   8   3   30.20    6.10
   3   8   3   40.70    5.20
  -4  -8  -3   15.90    4.10
   4   8   3   16.60    4.40
   4   8   3    8.80    4.10
   4   8   3   18.40    5.30
   7  -9  -3    4.00    2.20
   6  -9  -3   21.70    2.80
  -6   9   3   28.20    4.50
  -6   9   3   22.20    2.40
   5  -9  -3   70.09    3.80
  -5   9   3   75.69    3.10
  -5   9   3   73.89    6.80
   4  -9  -3    6.50    1.60
  -4   9   3   10.60    3.70
  -4   9   3    6.90    4.00
  -4   9   3    5.80    1.30
   3  -9  -3    0.80    1.30
  -3   9   3    1.70    3.30
  -3   9   3    4.10    1.20
  -3   9   3    2.20    3.00
   2  -9  -3    9.50    2.00
  -2   9   3    5.20    3.60
  -2   9   3    4.50    3.50
  -2   9   3   10.40    1.90
   1  -9  -3   33.00    3.40
  -1   9   3   34.00    5.20
  -1   9   3   29.00    3.00
  -1   9   3   43.30    6.40
   0  -9  -3   41.30    4.00
   0   9   3   28.20    5.10
   0   9   3   34.00    5.70
   0   9   3   30.50    3.50
  -1  -9  -3   78.59    5.70
   1   9   3   67.09    8.00
   1   9   3   70.89    7.50
   1   9   3   71.29    5.50
  -2  -9  -3    4.60    2.90
   2   9   3   10.20    4.70
   2   9   3    3.80    2.90
   2   9   3    4.30    3.70
  -3  -9  -3    9.10    3.60
   3   9   3   13.10    4.60
   3   9   3   10.80    5.20
   3   9   3   13.20    4.00
   6 -10  -3   10.80    2.30
  -6  10   3   11.20    4.10
   5 -10  -3    1.40    1.60
  -5  10   3    5.60    3.40
   4 -10  -3    1.30    1.60
  -4  10   3   12.10    4.50
  -4  10   3    4.30    3.40
   3 -10  -3   52.49    3.60
  -3  10   3   46.80    2.70
  -3  10   3   39.90    6.20
  -3  10   3   42.30    6.60
   2 -10  -3    0.40    1.90
  -2  10   3    5.50    1.80
  -2  10   3    0.60    3.60
  -2  10   3    8.00    4.40
   1 -10  -3    0.90    2.00
  -1  10   3    2.80    3.70
  -1  10   3    1.20    1.80
  -1  10   3    3.30    3.80
   0 -10  -3   67.39    5.40
   0  10   3   52.09    7.50
   0  10   3   66.29    4.90
   0  10   3   56.39    7.10
  -1 -10  -3    9.80    3.20
   1  10   3    3.70    3.90
   1  10   3    7.60    4.80
   1  10   3   14.90    3.40
   4 -11  -3   37.90    3.50
  -4  11   3   30.40    6.30
  -4  11   3   29.30    5.70
   3 -11  -3    3.20    2.10
  -3  11   3    3.40    4.00
  -3  11   3    5.20    4.50
   2 -11  -3   -1.00    2.00
  -2  11   3    2.10    3.80
  -2  11   3    2.40    1.60
  -2  11   3    2.70    3.90
   2  12  -4   15.20    4.80
   2  12  -4   14.10    4.50
   2  12  -4   15.90    5.10
  -2 -12   4   15.30    4.40
   1  12  -4   84.09    7.70
   1  12  -4   89.49    8.70
   1  12  -4   83.69    8.40
  -1 -12   4   71.09    6.90
   0  12  -4    9.80    4.30
   0  12  -4    9.20    3.80
   0  12  -4   12.80    4.30
   0 -12   4   12.40    3.90
  -1  12  -4   22.30    5.10
  -1  12  -4   17.00    4.20
  -1  12  -4   21.90    5.00
   1 -12   4   15.50    4.10
  -2  12  -4   21.60    4.60
  -2  12  -4   24.60    4.40
  -2  12  -4   16.40    4.40
   2 -12   4   15.70    3.90
  -3  12  -4   78.19    7.00
  -3  12  -4   72.29    7.10
  -3  12  -4   65.49    7.00
   3 -12   4   71.69    6.70
  -4  12  -4   55.59    6.20
  -4  12  -4   63.99    6.50
   4 -12   4   59.99    6.40
  -5  12  -4   54.49    6.40
   5 -12   4   64.19    6.80
   4  11  -4   21.40    5.60
   4  11  -4   18.90    5.00
   4  11  -4   25.00    5.20
  -4 -11   4   26.70    5.50
   3  11  -4    6.50    4.00
   3  11  -4    6.80    4.00
   3  11  -4    3.40    3.80
  -3 -11   4    5.10    3.70
   2  11  -4   19.00    5.00
   2  11  -4   11.10    4.10
   2  11  -4   17.60    4.90
  -2 -11   4   20.40    4.60
  -2 -11   4   21.30    4.50
   1  11  -4    8.40    3.90
   1  11  -4    1.80    3.60
   1  11  -4    1.00    2.80
  -1 -11   4    2.80    3.00
  -1 -11   4   -0.90    2.60
   0  11  -4   -1.20    3.00
   0  11  -4    2.30    3.20
   0  11  -4   -4.60    2.30
   0 -11   4   -0.70    2.60
   0 -11   4   -1.10    2.60
  -1  11  -4    7.80    3.30
  -1  11  -4    9.70    3.60
  -1  11  -4    8.20    3.30
   1 -11   4   11.00    3.30
   1 -11   4    9.50    3.90
  -2  11  -4   28.90    4.60
  -2  11  -4   36.50    5.10
  -2  11  -4   36.80    5.20
   2 -11   4   35.00    4.80
  -3  11  -4    4.00    2.80
  -3  11  -4   -0.40    2.70
  -3  11  -4    1.10    2.70
   3 -11   4    3.20    2.90
  -4  11  -4   11.70    3.60
  -4  11  -4   21.10    4.10
  -4  11  -4   22.50    4.30
   4 -11   4   23.50    4.30
  -5  11  -4    2.30    3.10
   5 -11   4    5.40    3.10
  -6  11  -4    0.30    2.90
   6 -11   4    5.20    3.30
   5  10  -4   49.20    7.10
   5  10  -4   41.80    6.20
   5  10  -4   56.59    8.20
  -5 -10   4   53.29    6.80
   4  10  -4   33.20    5.60
   4  10  -4   35.00    5.80
   4  10  -4   24.00    5.70
  -4 -10   4   34.90    5.50
   3  10  -4    0.80    3.30
   3  10  -4   -6.40    3.00
   3  10  -4    1.30    3.30
  -3 -10   4    4.60    3.40
  -3 -10   4    4.00    3.40
   2  10  -4   -1.00    3.00
   2  10  -4    1.60    3.20
   2  10  -4    2.30    2.80
  -2 -10   4    5.00    3.10
  -2 -10   4    0.70    2.90
   1  10  -4   72.09    7.10
   1  10  -4   61.99    6.50
   1  10  -4   59.49    6.00
  -1 -10   4   59.09    6.20
  -1 -10   4   66.39    6.00
   0  10  -4    2.80    2.80
   0  10  -4   -1.60    2.50
   0  10  -4    0.60    2.70
   0 -10   4    5.90    3.00
   0 -10   4    1.90    2.40
  -1  10  -4    1.50    2.70
  -1  10  -4   -1.60    2.30
  -1  10  -4    7.00    3.00
   1 -10   4    1.90    2.60
   1 -10   4    2.50    2.60
  -2  10  -4    4.20    2.60
  -2  10  -4    3.70    2.90
  -2  10  -4    5.80    2.90
   2 -10   4    6.90    2.90
   2 -10   4    5.30    2.60
  -3  10  -4   84.39    6.20
  -3  10  -4   82.49    6.20
  -3  10  -4  101.69    6.80
   3 -10   4   92.69    6.50
   3 -10   4   88.79    6.30
  -4  10  -4   33.30    4.70
  -4  10  -4   36.40    4.50
   4 -10   4   28.30    4.50
   4 -10   4   43.60    5.40
  -5  10  -4   36.30    5.20
   5 -10   4   40.00    5.10
   5 -10   4   52.99    7.00
  -6  10  -4   10.50    3.70
   6 -10   4   15.70    4.20
  -7  10  -4   27.20    5.30
   7 -10   4   26.10    4.90
   6   9  -4   20.70    6.10
   6   9  -4   21.40    5.60
   6   9  -4   23.40    5.00
  -6  -9   4   29.40    5.60
   5   9  -4    2.70    4.20
   5   9  -4   -5.60    2.90
   5   9  -4    4.20    3.50
  -5  -9   4    2.00    3.40
   4   9  -4  129.99    9.70
   4   9  -4  135.69    8.70
   4   9  -4  133.19    8.40
  -4  -9   4  139.29    8.30
   3   9  -4   98.89    7.60
   3   9  -4  113.29    8.40
   3   9  -4  112.69    7.60
  -3  -9   4  108.49    7.20
  -3  -9   4  102.79    7.50
   2   9  -4    2.30    3.00
   2   9  -4    2.20    2.70
   2   9  -4    7.10    3.60
  -2  -9   4   16.60    3.70
  -2  -9   4    3.80    3.00
   1   9  -4   11.90    3.60
   1   9  -4    7.20    3.00
  -1  -9   4   12.40    3.40
  -1  -9   4   10.50    3.30
   0   9  -4    7.20    3.00
   0   9  -4   13.00    3.20
   0  -9   4    8.60    2.80
   0  -9   4   13.00    3.30
  -1   9  -4   -1.30    2.20
  -1   9  -4   -0.60    2.00
  -1   9  -4    2.90    2.60
   1  -9   4   -0.40    2.20
   1  -9   4   -0.60    2.20
  -2   9  -4   12.70    3.00
  -2   9  -4   10.90    3.40
  -2   9  -4    3.60    2.60
   2  -9   4    9.80    2.90
   2  -9   4   13.20    3.30
  -3   9  -4   64.79    5.60
  -3   9  -4   60.39    5.20
  -3   9  -4   62.69    5.60
   3  -9   4   55.89    5.60
   3  -9   4   59.89    5.40
  -4   9  -4    0.90    2.60
  -4   9  -4    2.00    2.20
   4  -9   4   12.40    3.30
   4  -9   4    5.00    2.70
  -5   9  -4    4.60    3.10
   5  -9   4    1.40    2.70
   5  -9   4   10.00    3.60
  -6   9  -4  163.38    8.70
   6  -9   4  151.08    8.70
   6  -9   4  154.58    8.60
  -7   9  -4    5.70    3.70
   7  -9   4    5.80    3.50
   7  -9   4    6.00    3.40
  -8   9  -4   -0.50    3.60
   8  -9   4    1.40    3.70
   8  -9   4    6.60    3.60
   7   8  -4   47.30    6.90
   7   8  -4   42.50    6.00
  -7  -8   4   43.30    6.30
   6   8  -4  188.88   10.10
   6   8  -4  193.58   10.80
  -6  -8   4  183.28   10.20
   5   8  -4    6.60    4.30
   5   8  -4   -3.10    2.60
   5   8  -4    1.00    3.00
  -5  -8   4   -1.00    2.90
   4   8  -4   23.50    5.00
   4   8  -4   25.20    4.10
  -4  -8   4   24.80    4.20
   3   8  -4    4.70    3.50
   3   8  -4    6.40    3.30
  -3  -8   4    1.00    2.70
  -3  -8   4    5.30    3.00
   2   8  -4    9.90    3.20
   2   8  -4   11.10    3.50
  -2  -8   4   10.10    3.00
  -2  -8   4    9.50    3.00
   1   8  -4  236.68    9.10
   1   8  -4  241.48    9.50
  -1  -8   4  253.47    9.50
  -1  -8   4  243.48    9.00
  -1  -8   4  236.48    9.30
   0   8  -4  750.72   17.40
   0   8  -4  745.93   17.50
   0  -8   4  748.83   17.10
   0  -8   4  744.13   17.80
   0  -8   4  719.93   18.80
  -1   8  -4  221.98    8.20
  -1   8  -4  221.08    8.40
   1  -8   4  217.48    8.20
   1  -8   4  217.68    8.60
  -2   8  -4   -1.10    1.80
  -2   8  -4    0.60    2.10
   2  -8   4   -2.10    1.80
   2  -8   4   -1.60    2.00
  -3   8  -4   10.00    2.70
  -3   8  -4    8.70    2.50
  -3   8  -4   10.10    2.50
   3  -8   4   13.40    3.20
   3  -8   4    8.90    2.60
  -4   8  -4    1.80    2.10
  -4   8  -4    5.00    2.70
   4  -8   4    3.20    2.50
   4  -8   4    5.90    2.80
  -5   8  -4   38.90    5.00
   5  -8   4   32.50    4.40
   5  -8   4   33.90    4.70
  -6   8  -4   10.50    3.60
   6  -8   4   11.80    3.60
   6  -8   4   11.90    3.60
  -7   8  -4  100.89    7.90
   7  -8   4   92.79    7.50
   7  -8   4   82.19    7.40
  -8   8  -4    5.70    3.90
   8  -8   4    2.60    3.50
   8  -8   4   12.00    4.20
   7   7  -4    8.00    3.50
   7   7  -4    0.00    3.30
  -7  -7   4    2.40    3.60
   6   7  -4   51.69    5.80
   6   7  -4   43.50    6.20
  -6  -7   4   43.60    5.60
  -6  -7   4   47.80    8.30
   5   7  -4   91.49    7.70
  -5  -7   4   76.99    6.80
  -5  -7   4   79.19    6.60
   4   7  -4    1.60    2.20
   4   7  -4    0.10    2.70
  -4  -7   4    4.90    2.80
  -4  -7   4    1.60    2.40
   3   7  -4   33.10    3.70
   3   7  -4   21.40    3.80
  -3  -7   4   23.50    3.70
  -3  -7   4   26.80    4.10
  -3  -7   4   31.50    4.10
   2   7  -4 1659.73   31.60
   2   7  -4 1634.84   30.70
   2   7  -4 1557.54   28.90
  -2  -7   4 1590.34   29.90
  -2  -7   4 1546.85   30.90
  -2  -7   4 1544.75   29.90
   1   7  -4    1.90    2.30
   1   7  -4   -1.70    1.90
   1   7  -4    3.60    1.80
  -1  -7   4    2.70    2.10
  -1  -7   4    2.00    1.80
  -1  -7   4    3.10    2.30
   0   7  -4   37.90    3.30
   0   7  -4   30.30    3.60
   0   7  -4   31.70    3.60
   0  -7   4   31.40    3.50
   0  -7   4   33.70    3.50
   0  -7   4   42.90    4.30
  -1   7  -4  244.28    7.80
  -1   7  -4  239.18    8.30
  -1   7  -4  240.68    7.10
   1  -7   4  239.68    8.50
   1  -7   4  241.18    7.80
   1  -7   4  238.48    8.10
  -2   7  -4  207.98    6.40
  -2   7  -4  206.18    7.80
  -2   7  -4  207.08    6.90
   2  -7   4  201.48    7.90
   2  -7   4  207.98    7.70
   2  -7   4  206.18    7.20
  -3   7  -4    2.90    2.30
  -3   7  -4    3.90    2.00
   3  -7   4    6.20    2.40
   3  -7   4    2.50    2.20
   3  -7   4    5.20    2.10
  -4   7  -4   62.49    4.00
  -4   7  -4   55.19    5.10
   4  -7   4   70.99    5.20
   4  -7   4   63.59    5.20
  -5   7  -4  256.57   10.00
   5  -7   4  256.27   10.20
   5  -7   4  257.17    9.80
  -6   7  -4   14.00    3.70
   6  -7   4   13.60    3.50
   6  -7   4   11.70    3.30
  -7   7  -4   29.60    5.10
   7  -7   4   27.60    4.60
  -8   7  -4  124.49    9.10
   8  -7   4  117.39    8.50
   8   6  -4   24.80    5.60
  -8  -6   4   17.60    4.60
  -8  -6   4   39.70    6.40
   7   6  -4   16.50    3.90
   7   6  -4   20.80    4.60
   7   6  -4   14.40    5.30
  -7  -6   4   26.30    5.10
  -7  -6   4   19.60    4.40
   6   6  -4    0.60    3.00
   6   6  -4    0.80    2.40
  -6  -6   4    3.80    2.90
  -6  -6   4    1.20    2.90
   5   6  -4    9.00    3.00
   5   6  -4   10.50    3.20
  -5  -6   4    5.50    2.80
  -5  -6   4   10.40    3.30
   4   6  -4   34.60    4.00
   4   6  -4   49.70    5.30
  -4  -6   4   37.00    4.20
  -4  -6   4   38.60    4.40
   3   6  -4  302.77   10.10
   3   6  -4  285.07    9.10
  -3  -6   4  304.27    9.70
  -3  -6   4  306.37   10.50
  -3  -6   4  312.77    9.80
   2   6  -4  263.77    9.00
   2   6  -4  267.97    8.30
  -2  -6   4  281.27    8.80
  -2  -6   4  281.87    9.50
  -2  -6   4  302.27    9.00
   1   6  -4   80.49    5.00
   1   6  -4   89.19    4.50
   1   6  -4   86.79    5.00
  -1  -6   4   88.19    4.70
  -1  -6   4   86.09    5.20
  -1  -6   4   83.49    4.80
   0   6  -4  245.78    8.00
   0   6  -4  244.48    7.20
   0   6  -4  256.17    7.60
   0  -6   4  251.87    7.90
   0  -6   4  243.78    8.20
   0  -6   4  258.57    7.80
  -1   6  -4  168.38    5.70
  -1   6  -4  155.28    6.30
  -1   6  -4  169.38    5.80
   1  -6   4  173.18    6.40
   1  -6   4  162.28    6.70
   1  -6   4  163.08    6.10
  -2   6  -4  293.57    9.10
  -2   6  -4  285.77    7.90
  -2   6  -4  293.87    7.50
   2  -6   4  307.27    8.90
   2  -6   4  287.87    9.20
   2  -6   4  297.77    8.60
  -3   6  -4   -1.50    1.90
  -3   6  -4   -1.00    1.40
   3  -6   4   -1.10    1.70
   3  -6   4    1.80    1.90
   3  -6   4    0.50    1.60
  -4   6  -4  266.87    8.10
  -4   6  -4  271.77    9.60
   4  -6   4  264.57    9.20
   4  -6   4  278.97    9.00
   4  -6   4  260.47    9.60
  -5   6  -4   66.89    6.00
   5  -6   4   59.59    5.40
   5  -6   4   58.29    5.10
  -6   6  -4   29.60    4.80
   6  -6   4   22.60    4.10
  -7   6  -4   52.79    6.30
   7  -6   4   58.59    6.20
  -8   6  -4    4.40    3.80
   8  -6   4    2.90    3.30
  -9   6  -4  203.68   11.90
   9  -6   4  203.18   11.50
   8   5  -4   65.19    6.90
   8   5  -4   72.99    7.70
  -8  -5   4   76.49    7.70
  -8  -5   4   75.09    7.10
   7   5  -4    9.50    3.70
   7   5  -4   14.80    4.30
  -7  -5   4   15.60    4.10
  -7  -5   4   15.90    3.90
   6   5  -4   49.40    5.40
   6   5  -4   56.29    5.60
  -6  -5   4   55.39    5.80
  -6  -5   4   70.19    6.20
   5   5  -4  317.37   11.00
   5   5  -4  330.77   10.70
  -5  -5   4  332.07   10.80
  -5  -5   4  334.67   11.30
   4   5  -4   14.80    2.90
   4   5  -4   21.00    3.70
  -4  -5   4   17.70    3.30
  -4  -5   4   19.30    3.30
   3   5  -4   69.49    4.50
   3   5  -4   70.59    4.80
  -3  -5   4   60.59    4.90
  -3  -5   4   67.39    4.60
  -3  -5   4   59.79    4.60
   2   5  -4  798.82   17.20
   2   5  -4  823.72   16.60
  -2  -5   4  818.12   16.90
  -2  -5   4  834.72   17.20
  -2  -5   4  787.62   17.60
   1   5  -4  500.55   12.10
   1   5  -4  535.75   11.80
  -1  -5   4  528.35   12.20
  -1  -5   4  530.05   12.00
  -1  -5   4  513.85   12.70
   0   5  -4  542.25   12.30
   0   5  -4  522.75   11.00
   0   5  -4  492.05   11.30
   0  -5   4  524.95   11.90
   0  -5   4  514.15   12.40
   0  -5   4  533.45   12.00
  -1   5  -4   58.29    3.90
  -1   5  -4   53.99    3.40
  -1   5  -4   60.89    3.00
   1  -5   4   55.99    3.80
   1  -5   4   48.80    3.80
   1  -5   4   59.19    3.60
  -2   5  -4   94.69    5.00
  -2   5  -4   94.89    3.40
  -2   5  -4   92.49    4.40
   2  -5   4   95.09    4.70
   2  -5   4   92.19    4.90
   2  -5   4   89.89    4.70
  -3   5  -4   45.80    3.50
  -3   5  -4   39.40    3.90
   3  -5   4   39.80    3.70
   3  -5   4   46.10    4.50
   3  -5   4   43.30    3.80
  -4   5  -4   31.70    3.40
  -4   5  -4   33.10    4.20
   4  -5   4   38.00    4.00
   4  -5   4   29.90    3.60
  -5   5  -4  140.09    6.30
  -5   5  -4  132.29    7.20
   5  -5   4  123.89    6.90
   5  -5   4  137.69    6.70
  -6   5  -4  161.48    8.20
   6  -5   4  171.58    8.30
   6  -5   4  160.28    7.70
  -7   5  -4   26.00    4.60
   7  -5   4   24.50    4.50
  -8   5  -4   32.30    5.60
   8  -5   4   41.00    5.80
  -9   5  -4   28.90    5.90
   9  -5   4   25.40    5.40
   9   4  -4   -0.40    3.20
  -9  -4   4    4.70    4.00
   8   4  -4   66.09    6.70
   8   4  -4   59.79    6.70
  -8  -4   4   64.59    6.90
  -8  -4   4   65.79    6.70
   7   4  -4  112.49    7.40
   7   4  -4  120.49    7.70
  -7  -4   4  126.19    7.40
  -7  -4   4  115.59    7.80
  -7  -4   4  119.59    7.90
   6   4  -4   75.39    6.20
   6   4  -4   77.79    6.00
  -6  -4   4   76.69    5.80
  -6  -4   4   76.29    6.60
   5   4  -4    1.20    2.20
   5   4  -4    0.00    2.20
  -5  -4   4   -0.50    2.00
  -5  -4   4    0.70    2.20
   4   4  -4    3.50    2.00
   4   4  -4   10.90    2.70
  -4  -4   4    5.90    2.40
  -4  -4   4    4.50    2.20
   3   4  -4  196.38    6.90
   3   4  -4  187.28    6.70
  -3  -4   4  176.88    7.10
  -3  -4   4  181.68    6.80
  -3  -4   4  204.18    6.90
   2   4  -4 2081.69   34.90
   2   4  -4 2038.00   35.30
  -2  -4   4 2046.00   35.70
  -2  -4   4 2082.09   34.80
  -2  -4   4 2050.49   35.20
   1   4  -4 1119.89   20.30
   1   4  -4 1073.19   20.60
  -1  -4   4 1123.69   20.40
  -1  -4   4 1098.29   20.70
  -1  -4   4 1121.19   21.10
   0   4  -4    9.80    2.10
   0   4  -4   11.00    1.90
   0   4  -4   16.00    1.90
   0  -4   4   11.90    2.10
   0  -4   4   10.90    2.10
   0  -4   4   11.40    2.20
  -1   4  -4    8.20    1.90
  -1   4  -4    7.30    1.10
  -1   4  -4    7.90    2.10
   1  -4   4   10.60    2.10
   1  -4   4    7.90    2.00
   1  -4   4    8.40    2.10
  -2   4  -4    7.00    1.90
  -2   4  -4    4.90    2.00
   2  -4   4    8.20    2.20
   2  -4   4    6.70    2.00
   2  -4   4    7.00    1.90
  -3   4  -4   47.10    4.10
  -3   4  -4   49.10    3.70
   3  -4   4   50.79    4.10
   3  -4   4   48.90    4.00
   3  -4   4   45.00    4.00
  -4   4  -4  155.48    7.10
  -4   4  -4  166.68    6.50
   4  -4   4  172.08    6.90
   4  -4   4  165.98    6.90
  -5   4  -4    2.60    2.30
  -5   4  -4   -1.00    2.20
   5  -4   4    1.00    2.00
   5  -4   4   -2.50    2.00
  -6   4  -4   52.49    5.70
  -6   4  -4   41.50    4.50
   6  -4   4   38.80    4.90
   6  -4   4   32.90    4.40
  -7   4  -4   39.00    5.50
   7  -4   4   37.40    5.00
   7  -4   4   35.50    4.90
  -8   4  -4   15.80    4.70
   8  -4   4   29.60    5.20
  -9   4  -4   45.50    7.30
   9  -4   4   32.20    5.60
   9   3  -4   20.90    4.80
  -9  -3   4   19.70    5.00
   8   3  -4   30.10    4.90
   8   3  -4   23.50    4.60
  -8  -3   4   31.90    5.30
  -8  -3   4   32.80    5.00
   7   3  -4   -0.80    2.30
   7   3  -4    0.70    2.60
  -7  -3   4   -1.40    2.20
  -7  -3   4    1.20    2.70
  -7  -3   4    1.50    3.10
   6   3  -4    5.50    2.80
   6   3  -4    6.60    2.70
  -6  -3   4    9.80    2.90
  -6  -3   4    3.70    2.60
   5   3  -4   65.19    4.90
   5   3  -4   64.39    4.90
  -5  -3   4   66.49    4.80
  -5  -3   4   67.09    5.10
   4   3  -4  639.24   14.50
   4   3  -4  666.33   14.60
  -4  -3   4  613.64   14.60
  -4  -3   4  628.44   13.90
   3   3  -4   49.40    3.60
   3   3  -4   43.70    3.60
  -3  -3   4   44.00    3.90
  -3  -3   4   44.20    3.70
  -3  -3   4   39.80    3.20
   2   3  -4  413.56    9.60
   2   3  -4  407.46    9.90
  -2  -3   4  421.86    9.60
  -2  -3   4  420.56   10.30
  -2  -3   4  405.46    9.90
   1   3  -4    2.50    1.70
   1   3  -4    1.90    1.70
  -1  -3   4    0.60    1.40
  -1  -3   4    1.40    1.50
  -1  -3   4    0.20    1.60
   0   3  -4  251.27    6.90
   0   3  -4  248.88    6.80
   0  -3   4  250.07    6.80
   0  -3   4  248.18    7.20
   0  -3   4  250.37    6.90
  -1   3  -4  309.77    8.20
  -1   3  -4  300.47    7.70
   1  -3   4  292.67    8.00
   1  -3   4  309.37    8.40
   1  -3   4  312.17    7.90
  -2   3  -4  709.83   14.40
  -2   3  -4  734.63   15.10
   2  -3   4  703.83   14.90
   2  -3   4  725.63   14.70
   2  -3   4  719.63   15.40
  -3   3  -4  162.88    6.50
  -3   3  -4  156.98    5.90
   3  -3   4  165.58    6.20
   3  -3   4  160.38    6.30
  -4   3  -4   25.10    3.10
  -4   3  -4   23.80    3.60
   4  -3   4   24.20    3.20
   4  -3   4   35.20    3.90
  -5   3  -4  525.15   13.60
  -5   3  -4  533.65   14.50
   5  -3   4  521.65   13.90
   5  -3   4  541.05   14.40
  -6   3  -4   20.90    3.70
  -6   3  -4   23.50    4.20
   6  -3   4   20.00    3.70
   6  -3   4   27.40    4.30
  -7   3  -4   57.69    5.60
  -7   3  -4   46.20    5.90
   7  -3   4   46.00    5.60
   7  -3   4   53.29    5.90
  -8   3  -4   31.40    5.60
   8  -3   4   31.30    5.10
   8  -3   4   34.40    5.60
  -9   3  -4   26.30    5.70
   9  -3   4   25.20    5.20
  10   2  -4   -2.80    3.40
 -10  -2   4    1.20    3.70
   9   2  -4   10.50    4.00
  -9  -2   4   19.80    4.80
   8   2  -4   42.80    5.60
  -8  -2   4   46.30    5.70
  -8  -2   4   51.39    6.00
   7   2  -4  375.96   12.50
   7   2  -4  409.56   12.70
  -7  -2   4  379.26   12.70
  -7  -2   4  381.36   13.00
  -7  -2   4  411.36   12.20
   6   2  -4  198.38    8.20
   6   2  -4  204.28    8.10
  -6  -2   4  220.98    8.70
  -6  -2   4  201.48    7.60
  -6  -2   4  209.48    9.10
   5   2  -4   34.10    3.60
   5   2  -4   45.40    4.20
  -5  -2   4   39.70    4.00
  -5  -2   4   45.20    3.90
   4   2  -4  181.38    6.50
   4   2  -4  177.18    6.40
  -4  -2   4  187.18    6.10
  -4  -2   4  188.58    6.70
   3   2  -4   18.10    2.40
   3   2  -4   15.90    2.30
  -3  -2   4   13.80    2.30
  -3  -2   4   17.40    2.20
  -3  -2   4   14.30    2.30
   2   2  -4   71.09    3.60
   2   2  -4   68.39    3.60
  -2  -2   4   66.49    3.70
  -2  -2   4   57.59    3.60
  -2  -2   4   60.79    3.40
   1   2  -4 1058.09   18.60
   1   2  -4 1021.40   18.40
  -1  -2   4 1064.59   18.20
  -1  -2   4 1052.09   18.90
  -1  -2   4 1007.20   18.60
   0   2  -4  620.94   12.40
   0   2  -4  611.34   12.20
   0  -2   4  628.14   12.10
   0  -2   4  630.54   12.80
   0  -2   4  626.54   12.50
  -1   2  -4   55.99    3.60
  -1   2  -4   48.30    3.40
   1  -2   4   54.79    3.30
   1  -2   4   55.39    3.30
   1  -2   4   53.89    3.50
  -2   2  -4  288.27    8.00
  -2   2  -4  283.77    7.80
   2  -2   4  278.47    8.00
   2  -2   4  280.07    5.10
   2  -2   4  286.97    7.70
  -3   2  -4   17.70    2.70
  -3   2  -4   13.70    2.40
   3  -2   4   17.60    2.80
   3  -2   4   17.20    2.60
  -4   2  -4   21.00    3.20
  -4   2  -4   16.10    2.80
   4  -2   4   13.00    2.60
   4  -2   4   21.20    3.20
  -5   2  -4  513.45   13.40
  -5   2  -4  488.65   13.90
   5  -2   4  509.15   13.50
   5  -2   4  505.75   13.90
  -6   2  -4   62.89    6.10
  -6   2  -4   63.59    5.80
   6  -2   4   59.99    5.90
   6  -2   4   47.70    5.10
  -7   2  -4  339.27   12.90
  -7   2  -4  334.07   12.00
   7  -2   4  333.47   12.10
   7  -2   4  338.07   12.70
  -8   2  -4   33.10    6.50
  -8   2  -4   19.30    5.10
   8  -2   4   16.60    4.50
   8  -2   4   21.20    4.50
  -9   2  -4   -9.60    3.10
   9  -2   4    6.70    3.60
  10   1  -4    5.50    3.90
 -10  -1   4    6.70    4.00
   9   1  -4   84.29    7.70
  -9  -1   4   81.79    7.10
  -9  -1   4   83.69    7.80
   8   1  -4   17.60    3.90
  -8  -1   4   21.80    4.40
  -8  -1   4   15.00    3.80
   7   1  -4  293.87   10.60
   7   1  -4  289.37   14.00
  -7  -1   4  299.47   10.80
  -7  -1   4  296.57   11.40
   6   1  -4   19.80    3.20
   6   1  -4   17.80    3.20
  -6  -1   4   13.50    3.00
  -6  -1   4   17.80    2.70
  -6  -1   4   19.50    4.00
   5   1  -4   30.60    3.30
   5   1  -4   35.70    3.50
  -5  -1   4   32.00    3.60
  -5  -1   4   28.10    4.10
  -5  -1   4   36.30    3.10
   4   1  -4    1.40    1.40
   4   1  -4   -2.20    1.10
  -4  -1   4    2.10    1.60
  -4  -1   4    1.30    1.40
  -4  -1   4    2.50    2.10
   3   1  -4  319.47    7.80
   3   1  -4  324.77    7.80
  -3  -1   4  316.87    8.00
  -3  -1   4  311.67    7.10
  -3  -1   4  306.47    8.00
   2   1  -4  323.17    7.40
   2   1  -4  311.07    7.30
  -2  -1   4  309.97    7.50
  -2  -1   4  309.47    6.80
  -2  -1   4  324.97    7.70
   1   1  -4  169.58    4.70
   1   1  -4  156.78    4.60
  -1  -1   4  158.28    4.30
  -1  -1   4  153.38    4.80
  -1  -1   4  161.88    4.90
   0   1  -4   49.40    2.80
   0   1  -4   50.99    2.90
   0  -1   4   46.40    2.90
   0  -1   4   49.30    2.60
   0  -1   4   46.00    3.00
  -1   1  -4  240.98    6.60
  -1   1  -4  235.58    6.70
   1  -1   4  246.88    6.80
   1  -1   4  248.18    4.90
   1  -1   4  250.17    6.90
   1  -1   4  245.88    6.30
  -2   1  -4  353.96    8.70
  -2   1  -4  339.97    8.80
   2  -1   4  334.87    8.90
   2  -1   4  339.57    8.40
   2  -1   4  339.77    7.00
  -3   1  -4  160.08    6.20
  -3   1  -4  155.78    6.20
   3  -1   4  157.98    6.30
   3  -1   4  163.08    6.00
  -4   1  -4  207.58    7.70
  -4   1  -4  193.98    7.50
   4  -1   4  200.58    7.40
   4  -1   4  200.48    7.70
  -5   1  -4  135.49    7.10
  -5   1  -4  127.09    6.80
   5  -1   4  142.49    7.30
   5  -1   4  137.89    6.60
  -6   1  -4    9.30    3.40
  -6   1  -4    8.50    3.20
   6  -1   4    6.60    3.00
   6  -1   4    2.60    2.50
  -7   1  -4   11.40    3.80
  -7   1  -4   10.70    3.70
   7  -1   4   10.90    3.70
   7  -1   4    4.80    3.00
  -8   1  -4   96.29    8.70
  -8   1  -4   87.99    7.80
   8  -1   4   95.39    8.80
   8  -1   4   95.39    8.20
  10   0  -4   73.39    7.70
 -10   0   4   82.19    8.50
   9   0  -4   16.60    4.10
  -9   0   4   19.00    4.40
  -9   0   4   15.00    4.30
   8   0  -4  471.45   14.30
  -8   0   4  463.55   15.20
  -8   0   4  460.15   14.40
   7   0  -4   -1.60    2.20
  -7   0   4    1.90    2.30
  -7   0   4    3.90    2.90
   6   0  -4   41.30    4.10
   6   0  -4   45.90    4.00
  -6   0   4   40.80    5.20
  -6   0   4   40.20    4.10
   5   0  -4  396.36   10.10
   5   0  -4  367.86    9.50
  -5   0   4  380.66   10.20
  -5   0   4  388.46    8.50
  -5   0   4  388.76   11.90
   4   0  -4    1.00    1.30
   4   0  -4    0.90    1.30
  -4   0   4    0.80    2.00
  -4   0   4    2.10    1.00
  -4   0   4    1.30    1.40
   3   0  -4  215.18    5.70
   3   0  -4  204.68    5.40
  -3   0   4  203.58    7.70
  -3   0   4  211.08    5.90
   2   0  -4 1271.47   20.90
   2   0  -4 1269.97   21.00
  -2   0   4 1272.27   23.70
  -2   0   4 1254.07   21.10
  -2   0   4 1272.67   21.30
   1   0  -4  197.18    4.80
   1   0  -4  195.18    4.80
  -1   0   4  194.58    5.10
  -1   0   4  196.58    6.50
  -1   0   4  199.68    5.00
   0   0  -4   53.09    2.70
   0   0  -4   53.79    2.90
   0   0   4   51.99    2.90
   0   0   4   44.50    2.70
   0   0   4   50.59    2.30
   0   0   4   55.19    2.80
   0   0   4   51.99    3.50
  -1   0  -4   61.49    3.30
  -1   0  -4   56.69    3.10
   1   0   4   59.69    2.90
   1   0   4   61.29    3.40
   1   0   4   63.09    3.10
   1   0   4   56.49    3.40
   1   0   4   56.09    2.80
  -2   0  -4  149.39    5.50
  -2   0  -4  152.78    5.40
   2   0   4  163.48    5.20
   2   0   4  145.59    4.80
   2   0   4  155.48    3.70
   2   0   4  157.98    5.80
  -3   0  -4  841.32   17.40
  -3   0  -4  874.81   17.40
   3   0   4  830.02   16.30
   3   0   4  810.62   17.50
   3   0   4  842.52   16.80
  -4   0  -4   58.39    4.60
  -4   0  -4   54.19    4.70
   4   0   4   52.09    4.70
   4   0   4   60.09    4.30
  -5   0  -4   71.59    5.60
  -5   0  -4   56.29    5.10
   5   0   4   75.29    5.50
   5   0   4   73.49    5.10
  -6   0  -4  106.29    7.30
  -6   0  -4  108.69    7.20
   6   0   4  111.89    7.10
   6   0   4  117.79    6.80
  -7   0  -4   19.30    4.60
  -7   0  -4   16.00    4.20
   7   0   4   18.50    5.00
   7   0   4   16.00    3.90
  -8   0  -4   -0.30    5.50
  -8   0  -4    0.70    3.40
   8   0   4    0.30    3.40
  10  -1  -4   20.80    4.90
 -10   1   4   32.20    5.70
 -10   1   4   23.80    5.00
   9  -1  -4   36.60    5.40
  -9   1   4   28.90    5.10
  -9   1   4   41.40    5.50
   8  -1  -4   80.49    6.20
  -8   1   4   88.39    7.00
  -8   1   4   85.39    6.50
   7  -1  -4   30.70    4.00
  -7   1   4   30.80    4.10
  -7   1   4   33.10    4.80
   6  -1  -4  216.18    7.60
  -6   1   4  211.58    7.80
  -6   1   4  220.38    9.50
   5  -1  -4   51.19    3.10
   5  -1  -4   60.49    3.80
  -5   1   4   52.79    5.10
  -5   1   4   57.49    3.90
   4  -1  -4  319.57    7.60
  -4   1   4  316.17    7.90
  -4   1   4  319.87   10.30
   3  -1  -4  824.42   14.10
   3  -1  -4  792.02   14.10
  -3   1   4  801.52   17.70
  -3   1   4  819.12   14.60
   2  -1  -4  340.57    6.50
   2  -1  -4  352.36    6.60
  -2   1   4  338.37    7.10
  -2   1   4  351.76    7.10
  -2   1   4  336.27    9.60
   1  -1  -4  270.97    5.60
   1  -1  -4  274.57    5.60
  -1   1   4  283.07    7.30
  -1   1   4  280.47    5.50
  -1   1   4  278.07    6.10
  -1   1   4  276.57    8.00
   0  -1  -4  850.11   14.80
   0   1   4  848.72   14.80
   0   1   4  840.42   16.50
   0   1   4  854.21   15.20
   0   1   4  847.82   15.90
   0   1   4  850.31   16.00
  -1  -1  -4    4.00    1.40
  -1  -1  -4    1.60    1.30
   1   1   4    2.60    1.30
   1   1   4    2.50    1.60
   1   1   4    2.40    1.50
   1   1   4    3.10    1.00
   1   1   4    3.20    1.30
   1   1   4    1.00    1.30
  -2  -1  -4  368.76    9.20
  -2  -1  -4  372.06    9.10
   2   1   4  369.56    6.90
   2   1   4  377.76    9.60
   2   1   4  362.56    9.10
   2   1   4  370.26    8.40
   2   1   4  370.76    9.40
  -3  -1  -4    5.70    2.10
  -3  -1  -4    8.40    2.20
   3   1   4    2.90    2.20
   3   1   4    4.90    1.90
   3   1   4    7.70    2.20
   3   1   4    6.10    1.90
  -4  -1  -4    2.10    2.20
  -4  -1  -4    3.70    2.30
   4   1   4    1.40    2.20
   4   1   4    4.70    2.50
   4   1   4    0.90    1.70
   4   1   4    2.00    1.80
  -5  -1  -4   34.00    4.40
  -5  -1  -4   36.50    4.60
   5   1   4   36.80    3.50
   5   1   4   37.00    4.50
   5   1   4   23.30    4.00
   5   1   4   27.50    3.60
  -6  -1  -4   19.70    4.10
  -6  -1  -4   24.80    4.50
   6   1   4   19.50    4.10
  -7  -1  -4   36.10    5.40
   7   1   4   38.20    5.60
  -8  -1  -4    0.50    3.80
   8   1   4   -5.50    3.40
   8   1   4    5.00    3.90
  10  -2  -4   38.50    5.70
 -10   2   4   33.00    5.90
 -10   2   4   32.00    5.40
   9  -2  -4   63.59    6.40
  -9   2   4   59.29    6.10
  -9   2   4   64.69    7.20
   8  -2  -4   -5.30    1.90
  -8   2   4    0.10    2.50
  -8   2   4    0.00    3.00
   7  -2  -4   -2.80    1.80
  -7   2   4    3.30    3.10
  -7   2   4   -3.10    2.00
   6  -2  -4   72.69    4.60
  -6   2   4   83.89    4.80
  -6   2   4   78.19    6.40
   5  -2  -4   22.10    2.50
  -5   2   4   19.80    3.60
  -5   2   4   15.40    2.30
   4  -2  -4  127.79    4.00
  -4   2   4  139.99    4.40
  -4   2   4  140.79    4.50
  -4   2   4  134.19    6.90
   3  -2  -4   28.00    1.60
   3  -2  -4   30.70    1.60
  -3   2   4   33.10    2.00
  -3   2   4   25.70    3.40
  -3   2   4   35.20    2.00
  -2   2   4  298.47    8.60
  -2   2   4  294.67    9.20
  -2   2   4  290.97    8.40
  -2   2   4  298.97    5.90
  -2   2   4  299.67    5.90
   1  -2  -4   61.49    2.00
   1  -2  -4   65.09    2.00
  -1   2   4   66.39    4.10
  -1   2   4   59.99    4.10
  -1   2   4   67.79    4.10
  -1   2   4   64.89    2.50
  -1   2   4   65.89    2.40
   0  -2  -4  968.90   16.70
   0  -2  -4  993.90   16.70
   0   2   4  973.60   18.90
   0   2   4  996.80   18.70
   0   2   4 1009.60   17.20
   0   2   4  972.20   19.20
   0   2   4  974.00   16.30
  -1  -2  -4  197.68    7.20
  -1  -2  -4  202.28    5.80
   1   2   4  186.38    5.60
   1   2   4  198.18    6.80
   1   2   4  202.28    6.00
   1   2   4  196.18    6.70
  -2  -2  -4   51.59    3.70
  -2  -2  -4   58.09    3.50
   2   2   4   55.29    2.80
   2   2   4   49.20    3.80
   2   2   4   53.19    3.90
   2   2   4   51.89    4.00
  -3  -2  -4  102.49    5.00
  -3  -2  -4   94.49    5.40
   3   2   4  105.69    5.30
   3   2   4   89.19    5.40
   3   2   4  100.29    5.70
   3   2   4   92.29    4.40
  -4  -2  -4   17.00    3.40
  -4  -2  -4   18.70    3.30
   4   2   4   24.10    4.00
   4   2   4   18.60    3.00
   4   2   4   21.70    3.70
  -5  -2  -4   52.39    5.50
   5   2   4   57.79    4.70
   5   2   4   49.20    5.50
   5   2   4   38.40    5.00
  -6  -2  -4    1.90    3.10
   6   2   4    0.10    2.80
   6   2   4    0.10    2.90
  -7  -2  -4   21.40    4.70
   7   2   4   29.70    5.50
   7   2   4   26.40    5.20
  -8  -2  -4   13.50    4.60
   8   2   4    9.20    4.60
   8   2   4   12.50    4.70
  10  -3  -4   54.29    6.40
 -10   3   4   58.29    7.40
 -10   3   4   46.20    6.20
   9  -3  -4    5.70    3.30
  -9   3   4    5.10    3.80
  -9   3   4    0.80    2.70
   8  -3  -4   23.20    3.80
  -8   3   4   28.10    5.10
  -8   3   4   23.50    3.80
   7  -3  -4   69.19    5.00
  -7   3   4   51.39    4.60
  -7   3   4   63.49    6.90
   6  -3  -4  249.97    7.70
  -6   3   4  252.17   10.80
  -6   3   4  255.27    7.90
   5  -3  -4   71.39    3.50
  -5   3   4   70.49    6.10
  -5   3   4   67.79    3.70
   4  -3  -4    6.20    1.20
   4  -3  -4    7.90    1.20
  -4   3   4    8.40    1.50
  -4   3   4    6.00    1.30
  -4   3   4    4.80    2.70
  -3   3   4   36.10    3.70
  -3   3   4   32.80    1.70
  -3   3   4   31.50    1.70
  -3   3   4   31.30    3.80
  -2   3   4  781.52   12.60
  -2   3   4  785.22   16.70
  -2   3   4  780.02   17.00
  -2   3   4  775.92   12.50
  -2   3   4  773.52   17.40
   1  -3  -4  310.37    5.40
   1  -3  -4  300.47    5.40
  -1   3   4  310.77    9.20
  -1   3   4  308.37    6.20
  -1   3   4  312.17    6.30
  -1   3   4  324.07    9.40
  -1   3   4  307.67    9.10
   0  -3  -4   82.79    3.10
   0  -3  -4   80.99    3.10
   0   3   4   79.99    3.40
   0   3   4   80.69    3.30
   0   3   4   89.39    4.60
   0   3   4   77.79    4.70
   0   3   4   79.99    4.90
   0   3   4   79.99    2.10
   0   3   4   80.19    2.10
  -1  -3  -4    6.80    1.70
   1   3   4    7.50    2.50
   1   3   4    6.10    1.80
   1   3   4    5.80    1.80
   1   3   4    9.60    2.50
  -2  -3  -4  131.99    5.60
   2   3   4  151.88    6.60
   2   3   4  128.59    5.70
   2   3   4  140.49    6.60
  -3  -3  -4   68.79    5.00
   3   3   4   61.69    4.80
   3   3   4   72.29    5.40
   3   3   4   68.29    5.10
  -4  -3  -4  131.49    7.10
   4   3   4  132.89    7.20
   4   3   4  134.99    6.70
   4   3   4  142.79    7.80
  -5  -3  -4    8.20    3.30
   5   3   4    8.80    2.80
   5   3   4   10.30    3.40
   5   3   4    9.30    3.50
  -6  -3  -4   -0.20    3.10
   6   3   4   -1.80    2.80
   6   3   4    0.20    3.00
  -7  -3  -4   13.20    4.70
   7   3   4    4.10    3.90
   7   3   4    3.50    4.10
  10  -4  -4   47.50    6.00
 -10   4   4   48.70    5.70
 -10   4   4   47.10    7.20
   9  -4  -4   -2.60    2.30
  -9   4   4   -2.60    3.30
  -9   4   4    1.40    2.70
   8  -4  -4   51.39    5.10
  -8   4   4   61.69    7.40
  -8   4   4   57.69    5.30
   7  -4  -4   43.90    4.10
  -7   4   4   50.69    6.50
  -7   4   4   45.60    4.20
   6  -4  -4  189.68    6.40
  -6   4   4  188.88    9.70
  -6   4   4  192.48    6.60
   5  -4  -4  152.08    4.70
  -5   4   4  142.39    4.80
  -5   4   4  155.38    8.50
   4  -4  -4  295.47    5.60
   4  -4  -4  290.47    5.60
  -4   4   4  299.17    6.30
  -4   4   4  292.07    6.30
  -4   4   4  307.67   11.20
  -4   4   4  296.17    9.30
  -3   4   4   10.00    2.60
  -3   4   4   13.30    1.00
  -3   4   4   13.30    3.20
  -3   4   4   16.90    3.40
  -3   4   4   14.20    1.10
  -2   4   4  115.69    2.50
  -2   4   4  116.99    5.90
  -2   4   4  115.49    2.50
  -2   4   4  119.19    6.40
  -2   4   4  116.49    6.20
   1  -4  -4  120.09    2.80
   1  -4  -4  115.99    2.80
  -1   4   4  110.59    6.00
  -1   4   4  105.39    6.00
  -1   4   4  115.59    3.40
  -1   4   4  107.59    6.00
  -1   4   4  117.69    3.40
   0  -4  -4    4.30    1.30
   0  -4  -4    3.20    1.20
   0   4   4    3.40    1.30
   0   4   4    4.70    1.50
   0   4   4    3.60    2.30
   0   4   4    5.50    2.50
   0   4   4    1.70    1.90
  -1  -4  -4  672.03   13.80
   1   4   4  683.93   14.20
   1   4   4  668.03   16.20
   1   4   4  658.93   16.40
  -2  -4  -4  499.85   12.20
   2   4   4  506.15   13.70
   2   4   4  486.65   12.40
   2   4   4  485.15   14.00
  -3  -4  -4    0.60    2.10
   3   4   4    2.10    2.50
   3   4   4    0.00    2.60
   3   4   4   -3.30    2.00
  -4  -4  -4    2.70    2.80
   4   4   4    1.90    2.50
   4   4   4    0.60    2.80
   4   4   4    1.90    2.50
  -5  -4  -4   24.80    4.50
   5   4   4   27.20    4.60
   5   4   4   33.50    4.50
   5   4   4   29.60    5.30
  -6  -4  -4    9.70    3.80
   6   4   4    4.80    3.70
   6   4   4    1.50    3.30
   7   4   4   71.59    8.10
   9  -5  -4   85.49    6.60
  -9   5   4   69.99    6.20
  -9   5   4   72.99    8.80
   8  -5  -4   31.90    4.10
  -8   5   4   31.70    4.00
  -8   5   4   34.70    5.90
   7  -5  -4   23.40    3.10
  -7   5   4   32.10    5.40
  -7   5   4   24.80    3.20
   6  -5  -4   49.40    3.50
  -6   5   4   48.90    3.50
  -6   5   4   55.99    6.80
   5  -5  -4    4.40    1.30
  -5   5   4    4.10    1.40
  -5   5   4   -1.90    3.00
  -4   5   4  583.54   16.90
  -4   5   4  572.44    9.90
  -4   5   4  571.64   14.50
  -4   5   4  565.84    9.90
  -3   5   4  132.29    7.60
  -3   5   4  134.59    7.40
  -3   5   4  146.59    6.90
  -2   5   4  541.75   15.00
  -2   5   4  548.25    9.00
  -2   5   4  556.84   15.30
  -2   5   4  544.85    9.00
  -2   5   4  550.64   14.40
   1  -5  -4  277.47    5.70
   1  -5  -4  271.97    5.70
  -1   5   4  269.37    6.10
  -1   5   4  273.47    9.80
  -1   5   4  269.77    6.10
  -1   5   4  261.47    9.80
  -1   5   4  281.07   10.20
   0  -5  -4   58.89    3.20
   0   5   4   53.49    5.20
   0   5   4   54.69    3.40
   0   5   4   50.59    5.10
  -1  -5  -4    4.70    1.90
   1   5   4    0.00    2.50
   1   5   4   -0.30    1.80
   1   5   4    1.90    1.00
   1   5   4    2.00    2.60
  -2  -5  -4   65.29    4.70
   2   5   4   67.99    6.40
   2   5   4   67.29    4.80
   2   5   4   65.59    6.10
  -3  -5  -4   76.69    5.70
   3   5   4   75.09    6.80
   3   5   4   76.59    6.10
   3   5   4   69.99    5.50
  -4  -5  -4   93.49    6.80
   4   5   4   93.19    6.60
   4   5   4   98.39    7.60
   4   5   4   77.59    6.90
  -5  -5  -4   16.40    4.20
   5   5   4   25.50    4.60
   5   5   4   17.30    4.10
   5   5   4   27.90    5.60
  -6  -5  -4   22.50    5.10
   6   5   4   27.90    5.50
   6   5   4   21.90    5.30
   9  -6  -4   22.50    4.00
  -9   6   4   26.10    6.20
  -9   6   4   17.20    3.70
   8  -6  -4   13.70    3.10
  -8   6   4    1.10    4.20
  -8   6   4    8.10    2.80
   7  -6  -4    4.40    2.00
  -7   6   4    0.00    1.80
  -7   6   4    1.40    3.60
   6  -6  -4    4.50    1.60
  -6   6   4   10.50    4.30
  -6   6   4    7.20    1.80
   5  -6  -4   24.60    1.90
  -5   6   4   26.10    4.00
  -5   6   4   21.20    1.90
  -5   6   4   16.20    4.70
  -4   6   4   73.69    6.10
  -4   6   4   61.09    6.60
  -4   6   4   63.29    6.60
  -3   6   4  304.27   11.70
  -3   6   4  320.47   11.00
  -3   6   4  326.27   12.40
  -2   6   4  814.12   13.30
  -2   6   4  817.82   20.30
  -2   6   4  814.42   13.30
  -2   6   4  827.72   20.70
  -2   6   4  804.22   19.50
   1  -6  -4  622.74   11.50
  -1   6   4  616.04   11.70
  -1   6   4  614.44   16.50
  -1   6   4  601.94   16.90
   0  -6  -4   34.90    3.00
   0   6   4   41.70    3.30
   0   6   4   30.40    4.70
   0   6   4   42.00    5.10
  -1  -6  -4  105.49    5.20
   1   6   4  114.99    7.40
   1   6   4   94.59    7.30
   1   6   4  111.49    5.50
  -2  -6  -4   66.89    5.30
   2   6   4   89.99    5.70
   2   6   4   95.39    7.60
   2   6   4   85.69    6.80
  -3  -6  -4    3.60    2.90
   3   6   4    6.70    3.00
   3   6   4    9.90    4.00
   3   6   4    6.50    3.20
  -4  -6  -4   11.30    3.80
   4   6   4   15.40    4.20
   4   6   4   13.00    3.90
   4   6   4   16.00    4.90
  -5  -6  -4  196.38   10.20
   5   6   4  190.78   10.30
   5   6   4  168.98   11.00
   5   6   4  166.18    9.50
   9  -7  -4   14.70    3.50
  -9   7   4   14.90    5.40
  -9   7   4    9.50    3.10
   8  -7  -4    0.30    2.10
  -8   7   4    0.00    2.00
  -8   7   4   -4.60    3.70
   7  -7  -4    2.60    1.80
  -7   7   4    3.50    1.90
  -7   7   4    1.90    4.00
   6  -7  -4    4.80    1.80
  -6   7   4    3.60    4.00
  -6   7   4    7.30    1.70
   5  -7  -4   79.69    3.00
  -5   7   4   77.69    6.10
  -5   7   4   95.59    9.20
  -4   7   4  142.19    9.70
  -4   7   4  146.09    7.80
  -4   7   4  160.78    9.40
  -3   7   4   66.89    6.60
  -3   7   4   85.49    7.50
  -3   7   4   84.59    6.50
   2  -7  -4    7.70    1.20
  -2   7   4    7.50    3.20
  -2   7   4    9.70    1.30
  -2   7   4   13.40    4.10
   1  -7  -4   36.70    2.90
  -1   7   4   35.40    5.10
  -1   7   4   33.90    5.40
  -1   7   4   37.60    2.80
   0  -7  -4   63.79    4.10
   0   7   4   69.69    7.20
   0   7   4   69.99    4.10
   0   7   4   57.79    5.90
  -1  -7  -4   26.80    3.50
   1   7   4   35.00    3.80
   1   7   4   31.90    5.20
   1   7   4   28.70    4.60
  -2  -7  -4   90.59    6.10
   2   7   4   99.09    6.10
   2   7   4   98.69    9.00
   2   7   4   87.69    7.70
  -3  -7  -4   16.30    3.90
   3   7   4   29.60    4.50
   3   7   4    9.70    3.70
   3   7   4   24.80    5.60
  -4  -7  -4    6.60    3.50
   4   7   4    6.10    3.60
   4   7   4    6.70    4.40
   4   7   4    8.30    3.90
   8  -8  -4   17.40    3.20
  -8   8   4    7.00    5.20
  -8   8   4   16.20    2.80
   7  -8  -4  152.88    6.20
  -7   8   4  157.28   11.40
  -7   8   4  145.09    5.50
   6  -8  -4  134.39    5.00
  -6   8   4  123.69    7.80
  -6   8   4  130.49    4.20
  -6   8   4  133.19   10.40
   5  -8  -4  136.99    4.10
  -5   8   4  130.09    8.10
   4  -8  -4   -0.70    0.80
  -4   8   4    5.20    3.20
  -4   8   4   -0.90    3.50
   3  -8  -4    1.90    1.00
  -3   8   4   -0.20    2.90
  -3   8   4    2.90    3.40
   2  -8  -4  114.89    4.00
  -2   8   4  121.99    8.50
  -2   8   4  103.79    7.90
  -2   8   4  116.59    3.70
   1  -8  -4    4.60    1.80
  -1   8   4    3.10    3.40
  -1   8   4    2.30    3.20
  -1   8   4    0.40    1.50
   0  -8  -4    3.40    2.00
   0   8   4    1.20    3.30
   0   8   4    6.00    2.00
   0   8   4    2.40    3.40
  -1  -8  -4  129.99    6.60
   1   8   4  142.49    9.80
   1   8   4  142.19    6.80
   1   8   4  133.89    9.10
  -2  -8  -4    2.00    2.50
   2   8   4    7.10    2.90
   2   8   4    2.80    3.60
   2   8   4    6.90    4.10
  -3  -8  -4   21.70    4.30
   3   8   4   26.20    5.30
   3   8   4   24.70    4.50
   3   8   4   30.60    6.20
   7  -9  -4   50.79    4.20
  -7   9   4   51.39    5.00
   6  -9  -4    1.80    1.60
  -6   9   4    4.10    3.30
  -5   9   4    3.10    3.30
  -4   9   4    7.50    4.70
  -4   9   4   11.10    4.00
   3  -9  -4    3.00    1.40
  -3   9   4    4.90    3.90
  -3   9   4    3.80    3.40
   2  -9  -4    1.40    1.60
  -2   9   4    0.10    3.10
  -2   9   4    0.80    1.20
  -2   9   4    6.90    4.10
   1  -9  -4   -0.20    1.70
  -1   9   4   -2.50    3.30
  -1   9   4   -0.60    1.50
  -1   9   4   -0.30    3.50
   0  -9  -4    3.80    2.20
   0   9   4    2.80    3.90
   0   9   4    2.00    2.10
   0   9   4   -0.50    3.10
  -1  -9  -4   -2.80    2.20
   1   9   4    3.70    2.50
   1   9   4    0.40    4.00
   1   9   4    3.90    3.60
  -2  -9  -4    0.90    2.60
   2   9   4    0.50    3.70
   2   9   4    0.80    4.40
   2   9   4    0.00    2.60
  -5  10   4    2.70    3.80
  -4  10   4    4.50    4.50
  -4  10   4   -2.70    3.10
   3 -10  -4    4.30    1.80
  -3  10   4    1.10    4.20
  -3  10   4    2.10    3.70
   2 -10  -4   37.40    3.50
  -2  10   4   33.60    6.30
  -2  10   4   45.60    6.80
   1 -10  -4   15.50    2.90
  -1  10   4   13.20    5.00
  -1  10   4   20.40    2.70
  -1  10   4   15.90    5.10
   0 -10  -4    6.20    2.70
   0  10   4    7.80    4.30
   0  10   4    1.90    2.20
   0  10   4    9.40    4.90
   2  12  -5    2.60    3.60
   2  12  -5    4.80    3.80
   2  12  -5   -5.30    3.00
  -2 -12   5   -1.10    3.20
  -2 -12   5    1.00    3.60
   1  12  -5    1.20    3.50
   1  12  -5    5.20    3.80
   1  12  -5    4.80    3.40
  -1 -12   5    2.50    3.20
  -1 -12   5    2.60    3.40
   0  12  -5  126.19    9.50
   0  12  -5  128.79    8.50
   0  12  -5  123.29    8.70
   0 -12   5  106.59    8.20
  -1  12  -5    3.30    3.30
  -1  12  -5    8.70    3.70
  -1  12  -5   -0.40    3.10
   1 -12   5    7.00    3.50
  -2  12  -5    9.40    3.90
  -2  12  -5   11.20    3.70
  -2  12  -5   17.30    4.20
   2 -12   5   15.50    4.10
  -3  12  -5   18.10    4.30
  -3  12  -5   24.30    4.90
   3 -12   5   25.10    4.80
  -4  12  -5   80.89    7.30
  -4  12  -5   85.09    7.80
   4 -12   5  105.79    8.00
  -5  12  -5    4.80    3.80
   5 -12   5    4.20    3.70
   4  11  -5    2.40    4.00
   4  11  -5    2.30    4.30
   4  11  -5    5.70    3.70
  -4 -11   5    8.10    4.10
   3  11  -5   80.49    8.40
   3  11  -5   92.09    9.00
   3  11  -5   86.99    8.20
  -3 -11   5   71.69    7.40
  -3 -11   5   76.89    8.00
   2  11  -5   10.90    4.00
   2  11  -5   20.70    4.80
   2  11  -5   12.30    4.10
  -2 -11   5   10.30    4.00
  -2 -11   5   23.50    4.60
   1  11  -5   69.89    7.60
   1  11  -5   61.19    6.60
   1  11  -5   54.89    6.50
  -1 -11   5   60.99    6.40
  -1 -11   5   49.90    6.00
   0  11  -5    1.70    3.10
   0  11  -5    7.70    3.50
   0  11  -5   10.50    4.00
   0 -11   5    5.40    3.10
   0 -11   5    5.60    3.20
  -1  11  -5  107.79    7.30
  -1  11  -5  103.09    7.80
  -1  11  -5  112.39    7.70
   1 -11   5  114.29    7.60
   1 -11   5  115.39    7.60
  -2  11  -5    2.00    2.90
  -2  11  -5    0.40    2.70
  -2  11  -5    3.90    3.10
   2 -11   5    2.30    3.00
   2 -11   5    3.20    3.00
  -3  11  -5   48.30    5.70
  -3  11  -5   53.09    6.00
   3 -11   5   64.79    6.80
   3 -11   5   58.19    6.10
  -4  11  -5   77.29    7.10
  -4  11  -5   94.59    6.90
   4 -11   5   90.89    7.70
   4 -11   5  103.19    9.60
  -5  11  -5   72.29    7.20
   5 -11   5   82.29    7.50
  -6  11  -5   19.40    4.80
   6 -11   5   19.90    4.80
   5  10  -5    2.90    4.60
   5  10  -5    9.30    4.10
   5  10  -5    7.20    4.10
  -5 -10   5    1.90    3.70
   4  10  -5  135.29    9.40
   4  10  -5  151.98    9.50
   4  10  -5  140.69   10.00
  -4 -10   5  143.89    9.30
   3  10  -5    5.40    3.70
   3  10  -5    6.90    3.90
   3  10  -5   17.60    4.30
  -3 -10   5    7.40    3.70
  -3 -10   5   10.10    4.10
   2  10  -5    9.50    3.90
   2  10  -5   14.40    4.10
  -2 -10   5    4.90    3.20
  -2 -10   5    5.40    3.40
   1  10  -5   -1.10    2.70
   1  10  -5    3.10    3.00
  -1 -10   5    3.70    3.10
  -1 -10   5    8.80    3.30
   0  10  -5    0.10    2.70
   0  10  -5    0.30    2.40
   0 -10   5    0.60    2.60
   0 -10   5    2.40    2.80
  -1  10  -5   54.19    5.30
  -1  10  -5   50.59    5.50
   1 -10   5   57.69    5.80
   1 -10   5   72.19    6.70
  -2  10  -5   19.30    3.70
  -2  10  -5   21.30    4.00
  -2  10  -5   12.80    3.50
   2 -10   5   30.80    4.70
   2 -10   5   18.30    3.90
  -3  10  -5   28.00    4.40
  -3  10  -5   25.50    4.00
  -3  10  -5   21.70    4.20
   3 -10   5   21.70    4.10
   3 -10   5   27.30    4.50
  -4  10  -5   69.09    5.90
  -4  10  -5   68.49    6.70
   4 -10   5   70.59    6.80
   4 -10   5   82.09    6.90
  -5  10  -5   -0.80    2.80
   5 -10   5    3.00    3.20
   5 -10   5    1.70    2.90
  -6  10  -5   95.09    8.30
   6 -10   5   98.89    8.40
   6 -10   5   87.19    8.10
  -7  10  -5    9.30    4.50
   7 -10   5   15.50    4.90
   7 -10   5   22.70    4.80
   6   9  -5    3.00    5.00
   6   9  -5    6.40    3.90
   6   9  -5    3.40    4.10
  -6  -9   5    4.50    3.80
   5   9  -5  226.68   11.40
   5   9  -5  219.48   12.40
   5   9  -5  247.58   11.70
  -5  -9   5  249.97   11.40
   4   9  -5   10.60    4.50
   4   9  -5   19.90    4.40
  -4  -9   5   18.10    4.30
  -4  -9   5   14.50    4.30
   3   9  -5  100.79    8.00
   3   9  -5  113.19    7.60
  -3  -9   5   92.49    7.30
  -3  -9   5  103.89    7.30
   2   9  -5   13.60    3.80
   2   9  -5   19.50    4.10
  -2  -9   5   11.50    3.40
  -2  -9   5   13.50    3.40
   1   9  -5  244.48   10.00
   1   9  -5  234.98    9.80
  -1  -9   5  255.57   10.30
  -1  -9   5  235.98    9.70
   0   9  -5    9.70    3.00
   0   9  -5   15.20    3.50
   0  -9   5    1.80    2.50
   0  -9   5    7.50    2.80
  -1   9  -5  545.25   14.00
  -1   9  -5  527.65   14.90
   1  -9   5  527.95   14.50
   1  -9   5  514.85   15.10
  -2   9  -5   76.89    5.20
  -2   9  -5   87.89    6.30
   2  -9   5   94.99    6.20
   2  -9   5   84.89    6.20
  -3   9  -5   15.40    3.80
  -3   9  -5   12.20    2.90
   3  -9   5   18.30    3.80
   3  -9   5   15.60    3.50
  -4   9  -5  156.18    8.30
  -4   9  -5  145.59    7.00
   4  -9   5  146.79    8.00
   4  -9   5  151.28    8.30
  -5   9  -5  112.19    7.60
   5  -9   5   95.79    7.00
   5  -9   5   97.99    7.50
  -6   9  -5   -2.40    2.90
   6  -9   5   -1.30    2.80
   6  -9   5   -0.50    2.80
  -7   9  -5    1.80    3.70
   7  -9   5    0.80    3.20
   7  -9   5    1.80    3.30
   7   8  -5   -3.10    3.30
   7   8  -5    1.00    3.20
  -7  -8   5   -1.40    3.50
   6   8  -5    8.60    3.90
   6   8  -5    7.60    3.80
  -6  -8   5   16.50    4.50
   5   8  -5  117.79    8.20
  -5  -8   5  108.59    7.80
   4   8  -5  160.08    8.80
   4   8  -5  135.69    9.20
  -4  -8   5  156.58    8.90
  -4  -8   5  166.58    8.60
  -4  -8   5  160.68    8.50
   3   8  -5   11.70    3.70
   3   8  -5   12.70    3.60
  -3  -8   5   16.00    3.40
  -3  -8   5    8.90    3.10
  -3  -8   5   16.20    3.70
   2   8  -5    2.50    2.80
   2   8  -5    5.60    3.10
   2   8  -5   15.40    3.60
  -2  -8   5   18.30    3.50
  -2  -8   5    8.30    3.00
  -2  -8   5   10.90    3.10
   1   8  -5   40.70    4.00
   1   8  -5   47.40    5.00
   1   8  -5   34.60    4.40
  -1  -8   5   42.00    4.60
  -1  -8   5   38.00    4.30
  -1  -8   5   43.00    5.00
   0   8  -5  201.88    8.50
   0   8  -5  212.08    8.00
   0   8  -5  189.18    8.40
   0  -8   5  197.58    8.60
   0  -8   5  192.98    7.70
  -1   8  -5  171.98    7.80
  -1   8  -5  189.58    7.10
   1  -8   5  165.28    7.60
   1  -8   5  161.38    7.80
   1  -8   5  166.38    7.10
  -2   8  -5    4.70    2.60
  -2   8  -5    3.70    2.00
   2  -8   5    3.90    2.60
   2  -8   5    1.00    2.70
   2  -8   5    5.30    2.50
  -3   8  -5   -4.80    2.10
   3  -8   5    2.10    2.20
   3  -8   5    2.10    2.40
  -4   8  -5   79.89    6.30
   4  -8   5   79.59    6.30
   4  -8   5   82.39    6.10
  -5   8  -5    6.90    3.10
   5  -8   5    6.50    3.10
   5  -8   5    5.50    3.00
  -6   8  -5   28.10    4.90
   6  -8   5   35.10    5.40
   6  -8   5   27.30    4.70
  -7   8  -5   42.80    6.20
   7  -8   5   54.39    6.90
   7  -8   5   31.80    5.30
  -8   8  -5   21.40    5.70
   8  -8   5   16.50    4.70
   8  -8   5    3.80    3.90
   7   7  -5   26.70    5.50
  -7  -7   5   17.10    4.70
  -7  -7   5   24.40    4.90
   6   7  -5    9.30    3.60
  -6  -7   5    7.00    3.40
  -6  -7   5   10.40    3.70
   5   7  -5   16.30    3.60
   5   7  -5   10.00    3.80
  -5  -7   5   13.30    3.60
  -5  -7   5   19.90    4.10
   4   7  -5   11.30    3.60
   4   7  -5   12.50    3.10
  -4  -7   5   10.10    3.50
  -4  -7   5   10.10    3.10
  -4  -7   5   13.10    3.40
   3   7  -5    0.50    2.00
   3   7  -5    2.10    2.60
  -3  -7   5    5.30    2.50
  -3  -7   5   -1.60    2.00
  -3  -7   5    4.80    2.80
   2   7  -5  492.45   13.80
   2   7  -5  502.45   12.80
   2   7  -5  505.85   13.90
  -2  -7   5  505.55   14.40
  -2  -7   5  509.05   13.40
  -2  -7   5  490.15   13.30
   1   7  -5 2388.96   41.40
   1   7  -5 2384.76   42.90
   1   7  -5 2476.05   42.10
  -1  -7   5 2399.06   42.20
  -1  -7   5 2425.76   43.60
  -1  -7   5 2432.46   42.30
   0   7  -5  419.16   10.90
   0   7  -5  441.06   11.00
   0   7  -5  422.46   12.00
   0  -7   5  417.86   11.70
   0  -7   5  415.36   12.20
   0  -7   5  426.36   11.60
  -1   7  -5  136.69    6.80
  -1   7  -5  145.19    5.60
  -1   7  -5  149.29    6.00
   1  -7   5  149.39    6.70
   1  -7   5  145.19    6.40
   1  -7   5  145.29    6.80
  -2   7  -5   -0.80    1.50
  -2   7  -5    0.20    2.10
  -2   7  -5   -0.10    1.70
   2  -7   5    2.50    2.20
   2  -7   5    4.30    2.40
   2  -7   5    1.60    2.00
  -3   7  -5    0.80    1.70
  -3   7  -5    3.10    2.50
   3  -7   5    0.20    2.20
   3  -7   5    1.80    1.90
   3  -7   5   -1.50    1.90
  -4   7  -5   27.20    3.90
   4  -7   5   38.40    4.90
   4  -7   5   28.60    3.90
   4  -7   5   28.40    4.10
  -5   7  -5  202.98    9.40
   5  -7   5  199.08    9.00
   5  -7   5  201.78    9.40
  -6   7  -5    6.00    3.30
   6  -7   5    6.60    3.60
   6  -7   5    2.10    2.90
  -7   7  -5   57.49    7.00
   7  -7   5   50.89    6.40
   7  -7   5   78.19    7.40
  -8   7  -5   -0.10    3.70
   8  -7   5    6.60    3.80
   8  -7   5    0.20    3.40
   8   6  -5    3.90    3.80
   8   6  -5   10.70    3.50
  -8  -6   5    8.20    4.40
   7   6  -5    4.00    3.10
   7   6  -5    6.90    3.50
  -7  -6   5    8.60    3.70
  -7  -6   5    8.50    3.60
   6   6  -5   90.89    6.90
   6   6  -5   82.79    7.40
  -6  -6   5   88.29    7.60
  -6  -6   5   89.19    7.30
   5   6  -5   21.50    3.90
   5   6  -5   19.60    3.70
  -5  -6   5   13.40    3.60
  -5  -6   5   25.60    4.10
   4   6  -5   28.90    4.10
   4   6  -5   16.90    3.30
  -4  -6   5   18.50    3.50
  -4  -6   5   25.70    4.00
  -4  -6   5   23.00    3.90
   3   6  -5  100.99    5.80
   3   6  -5  112.29    6.40
  -3  -6   5  111.49    6.60
  -3  -6   5   99.29    5.90
  -3  -6   5   98.29    5.90
   2   6  -5   -0.50    2.00
   2   6  -5   -1.20    1.70
  -2  -6   5    1.20    2.10
  -2  -6   5    2.80    1.90
  -2  -6   5    0.30    2.10
   1   6  -5  323.57    9.20
   1   6  -5  308.97    9.80
   1   6  -5  342.07    9.40
  -1  -6   5  326.57    9.50
  -1  -6   5  320.77    9.60
  -1  -6   5  321.97   10.30
   0   6  -5  157.78    6.10
   0   6  -5  149.09    6.60
   0   6  -5  154.88    5.60
   0  -6   5  159.78    6.50
   0  -6   5  159.58    6.40
   0  -6   5  161.58    7.00
  -1   6  -5  122.69    4.40
  -1   6  -5  116.29    5.70
  -1   6  -5  115.19    5.30
   1  -6   5  107.09    5.60
   1  -6   5  131.59    6.40
   1  -6   5  125.89    5.70
  -2   6  -5    3.10    1.90
  -2   6  -5    2.20    1.30
  -2   6  -5    4.30    2.20
   2  -6   5    2.60    2.00
   2  -6   5    0.60    2.10
   2  -6   5    3.80    2.20
  -3   6  -5  914.21   20.00
  -3   6  -5  888.21   18.50
   3  -6   5  872.31   19.40
   3  -6   5  868.71   19.30
   3  -6   5  926.71   20.50
  -4   6  -5   32.70    4.30
  -4   6  -5   33.70    3.80
   4  -6   5   37.90    4.30
   4  -6   5   40.70    5.00
   4  -6   5   35.20    4.20
  -5   6  -5   13.30    3.60
  -5   6  -5   12.90    3.70
   5  -6   5   13.90    3.60
   5  -6   5   17.20    3.30
   5  -6   5   12.90    3.30
  -6   6  -5    3.70    3.20
   6  -6   5    5.10    3.00
   6  -6   5    4.20    2.90
  -7   6  -5   53.69    6.70
   7  -6   5   63.89    6.60
  -8   6  -5   21.30    5.30
   8  -6   5   16.80    4.50
   8   5  -5   16.20    4.30
   8   5  -5   13.30    4.20
  -8  -5   5   12.70    4.40
  -8  -5   5   19.80    4.80
   7   5  -5  211.98    9.90
   7   5  -5  182.38    9.50
  -7  -5   5  193.38    9.30
  -7  -5   5  195.98    9.90
   6   5  -5  116.29    7.50
   6   5  -5  107.29    7.00
  -6  -5   5  112.39    7.30
  -6  -5   5  101.99    6.80
   5   5  -5   67.29    5.80
   5   5  -5   62.19    5.70
  -5  -5   5   55.19    5.40
  -5  -5   5   66.69    5.50
   4   5  -5  179.88    7.50
   4   5  -5  173.48    7.60
  -4  -5   5  180.38    8.10
  -4  -5   5  188.18    7.60
  -4  -5   5  176.18    7.70
   3   5  -5  258.17    8.40
   3   5  -5  239.08    8.40
  -3  -5   5  238.58    8.30
  -3  -5   5  225.98    8.10
   2   5  -5  430.16   11.60
   2   5  -5  431.36   11.20
  -2  -5   5  464.55   11.30
  -2  -5   5  445.86   11.50
  -2  -5   5  427.56   11.80
   1   5  -5  228.68    7.30
   1   5  -5  233.18    7.90
  -1  -5   5  222.78    7.30
  -1  -5   5  218.98    7.60
  -1  -5   5  228.98    8.00
   0   5  -5    1.80    1.60
   0   5  -5   -1.00    1.50
   0   5  -5    1.90    1.30
   0  -5   5    0.90    1.60
   0  -5   5    0.40    1.70
   0  -5   5   -1.60    1.60
  -1   5  -5  530.95   12.40
  -1   5  -5  545.45   13.10
  -1   5  -5  549.15   10.00
   1  -5   5  562.54   13.60
   1  -5   5  533.65   12.70
   1  -5   5  544.65   12.90
  -2   5  -5   38.50    3.60
  -2   5  -5   37.10    3.80
   2  -5   5   42.00    3.90
   2  -5   5   36.30    3.90
   2  -5   5   41.70    4.10
  -3   5  -5    6.40    2.60
  -3   5  -5    6.40    2.20
   3  -5   5    5.70    2.60
   3  -5   5    5.90    2.30
   3  -5   5    5.90    2.40
  -4   5  -5  473.25   13.40
  -4   5  -5  457.55   12.20
   4  -5   5  471.45   13.00
   4  -5   5  475.35   13.80
   4  -5   5  447.46   12.80
  -5   5  -5   13.20    3.20
  -5   5  -5   14.00    3.60
   5  -5   5   13.50    3.30
   5  -5   5   14.60    3.20
  -6   5  -5   10.60    3.10
  -6   5  -5    9.70    3.40
   6  -5   5    2.00    2.70
   6  -5   5    5.30    2.90
  -7   5  -5   53.79    6.50
   7  -5   5   48.50    5.90
  -8   5  -5   24.90    5.50
   8  -5   5   17.10    4.50
   9   4  -5   -5.00    2.80
  -9  -4   5   -1.10    3.30
   8   4  -5   76.19    7.20
  -8  -4   5   84.09    7.90
  -8  -4   5   79.79    7.60
   7   4  -5   12.30    3.60
   7   4  -5    3.30    3.00
  -7  -4   5   10.40    3.80
  -7  -4   5   11.40    3.30
  -7  -4   5    8.80    3.90
   6   4  -5    0.70    2.50
   6   4  -5    1.90    2.70
  -6  -4   5   -3.10    2.30
  -6  -4   5   -2.10    2.20
   5   4  -5  222.58    8.70
   5   4  -5  224.58    8.80
  -5  -4   5  214.68    8.60
  -5  -4   5  216.68    8.20
   4   4  -5    3.20    2.30
   4   4  -5    0.20    2.00
  -4  -4   5   -0.30    1.90
  -4  -4   5   -0.60    1.90
  -4  -4   5    1.00    2.40
   3   4  -5   11.00    2.40
   3   4  -5   11.80    2.40
  -3  -4   5   19.00    3.00
  -3  -4   5   15.80    2.70
  -3  -4   5   14.50    2.60
   2   4  -5  407.76   10.50
   2   4  -5  408.96   10.10
  -2  -4   5  398.26   10.80
  -2  -4   5  416.96   10.70
  -2  -4   5  387.76   10.00
   1   4  -5  342.07    9.10
  -1  -4   5  324.57    8.90
  -1  -4   5  320.77    8.60
  -1  -4   5  318.97    9.20
   0   4  -5    0.50    1.60
   0   4  -5    2.20    1.60
   0   4  -5    2.20    1.10
   0  -4   5    2.00    1.50
   0  -4   5    4.40    2.00
   0  -4   5    0.70    1.50
  -1   4  -5  141.69    5.70
  -1   4  -5  136.39    5.40
   1  -4   5  147.19    5.80
   1  -4   5  138.89    5.90
   1  -4   5  129.59    5.50
  -2   4  -5    7.00    2.30
  -2   4  -5   13.70    2.50
   2  -4   5   15.50    2.80
   2  -4   5   14.80    2.50
   2  -4   5   17.40    2.60
  -3   4  -5  100.49    5.30
  -3   4  -5  106.79    5.80
   3  -4   5  109.69    5.60
   3  -4   5  107.59    5.50
   3  -4   5   99.79    5.90
  -4   4  -5  116.19    5.90
  -4   4  -5  119.49    6.60
   4  -4   5  110.39    6.10
   4  -4   5  118.99    6.30
  -5   4  -5   -1.10    2.60
  -5   4  -5    0.50    2.30
   5  -4   5   -0.40    2.20
   5  -4   5    3.70    2.60
  -6   4  -5   -0.80    2.50
  -6   4  -5   -5.60    2.50
   6  -4   5   -0.90    2.50
   6  -4   5    3.30    2.80
  -7   4  -5   61.79    6.60
   7  -4   5   73.19    6.90
   7  -4   5   60.69    6.40
  -8   4  -5   15.90    5.20
   8  -4   5   16.20    4.40
   9   3  -5    3.00    3.40
  -9  -3   5    5.40    3.80
  -9  -3   5    6.60    3.90
   8   3  -5    1.10    2.70
  -8  -3   5   12.00    3.90
  -8  -3   5   -0.20    3.00
   7   3  -5    6.20    3.00
   7   3  -5    6.00    3.00
  -7  -3   5    8.90    3.20
  -7  -3   5    3.80    3.40
   6   3  -5    3.20    2.50
   6   3  -5    7.20    2.70
  -6  -3   5   10.00    2.70
  -6  -3   5    6.50    2.90
   5   3  -5   52.79    4.80
   5   3  -5   57.59    4.60
  -5  -3   5   52.49    4.70
  -5  -3   5   52.89    4.40
   4   3  -5    8.10    2.30
   4   3  -5    9.90    2.40
  -4  -3   5   11.60    2.40
  -4  -3   5    3.50    2.10
  -4  -3   5   10.50    2.60
   3   3  -5  751.72   15.80
   3   3  -5  738.63   15.70
  -3  -3   5  747.43   16.30
  -3  -3   5  734.73   16.00
  -3  -3   5  765.22   15.30
   2   3  -5   16.20    2.30
   2   3  -5   16.80    2.30
  -2  -3   5   14.30    2.40
  -2  -3   5   18.40    2.40
  -2  -3   5   17.80    2.60
   1   3  -5    2.50    1.70
   1   3  -5    1.00    1.60
  -1  -3   5    2.50    1.70
  -1  -3   5    1.00    1.40
  -1  -3   5    1.50    1.60
   0   3  -5  121.59    4.90
   0   3  -5  134.89    5.20
   0  -3   5  120.19    5.30
   0  -3   5  118.09    5.00
   0  -3   5  122.89    4.90
  -1   3  -5  768.22   16.00
  -1   3  -5  757.82   15.50
   1  -3   5  793.22   16.40
   1  -3   5  763.72   16.00
   1  -3   5  788.32   15.50
  -2   3  -5   13.00    2.40
  -2   3  -5   11.70    2.40
   2  -3   5   12.50    2.40
   2  -3   5   12.80    2.40
   2  -3   5   10.20    2.30
  -3   3  -5   69.59    4.60
  -3   3  -5   65.69    4.80
   3  -3   5   65.39    1.90
   3  -3   5   64.89    4.60
   3  -3   5   61.09    4.30
   3  -3   5   63.89    4.30
  -4   3  -5   12.70    2.90
  -4   3  -5    9.10    2.80
   4  -3   5   20.20    3.30
   4  -3   5   17.70    3.40
  -5   3  -5    2.00    2.70
  -5   3  -5   -1.30    2.30
   5  -3   5   -1.50    2.20
   5  -3   5   -0.10    2.20
  -6   3  -5   12.90    3.60
  -6   3  -5    7.10    3.40
   6  -3   5   11.20    3.40
   6  -3   5   10.10    3.40
  -7   3  -5   57.39    6.40
  -7   3  -5   56.99    6.10
   7  -3   5   61.19    6.60
   7  -3   5   45.70    5.70
  -8   3  -5   24.30    5.40
   8  -3   5   16.00    4.50
   8  -3   5   14.10    4.30
   9   2  -5   10.60    4.10
  -9  -2   5   18.50    4.70
  -9  -2   5   12.90    4.10
   8   2  -5   19.30    4.10
  -8  -2   5   14.80    4.00
  -8  -2   5   13.70    3.90
   7   2  -5    3.00    2.70
  -7  -2   5   -0.30    2.60
  -7  -2   5   -2.80    2.70
   6   2  -5  338.57   10.90
   6   2  -5  325.67   10.30
  -6  -2   5  337.67    9.70
  -6  -2   5  324.47   10.90
  -6  -2   5  328.87   12.00
   5   2  -5   33.10    3.70
   5   2  -5   27.90    3.50
  -5  -2   5   29.90    3.20
  -5  -2   5   28.40    3.50
   4   2  -5   12.80    2.40
   4   2  -5   15.00    2.50
  -4  -2   5   16.40    2.30
  -4  -2   5   15.50    2.60
   3   2  -5   79.49    4.20
   3   2  -5   78.39    4.10
  -3  -2   5   75.69    3.80
  -3  -2   5   78.99    4.20
  -3  -2   5   91.09    4.50
   2   2  -5  102.39    4.30
   2   2  -5  102.29    4.40
  -2  -2   5   95.89    4.40
  -2  -2   5   96.19    4.40
  -2  -2   5   96.79    4.00
   1   2  -5  211.58    6.30
   1   2  -5  197.38    6.10
  -1  -2   5  211.28    5.90
  -1  -2   5  219.98    6.60
  -1  -2   5  211.38    6.40
   0   2  -5  815.32   15.60
   0   2  -5  795.42   15.50
   0  -2   5  802.72   16.00
   0  -2   5  798.02   15.80
   0  -2   5  793.72   15.10
  -1   2  -5  704.53   14.40
  -1   2  -5  705.63   14.10
   1  -2   5  671.63   14.40
   1  -2   5  686.53   14.70
   1  -2   5  675.73   13.70
  -2   2  -5   22.20    2.90
  -2   2  -5   23.40    3.00
   2  -2   5   23.20    2.70
   2  -2   5   18.60    2.60
   2  -2   5   23.20    1.00
   2  -2   5   30.10    3.50
  -3   2  -5   13.70    2.80
  -3   2  -5   11.00    2.50
   3  -2   5    6.50    2.40
   3  -2   5   12.00    1.40
   3  -2   5    9.80    2.30
  -4   2  -5   53.39    4.90
  -4   2  -5   66.89    5.30
   4  -2   5   67.79    5.20
   4  -2   5   54.79    4.70
  -5   2  -5  152.68    7.80
  -5   2  -5  154.98    7.70
   5  -2   5  156.48    7.50
   5  -2   5  167.38    8.10
  -6   2  -5   65.19    6.20
  -6   2  -5   52.59    5.80
   6  -2   5   46.60    5.40
   6  -2   5   41.30    5.00
  -7   2  -5    3.90    3.60
  -7   2  -5    2.80    3.20
   7  -2   5   11.30    3.70
   7  -2   5    8.80    4.00
  -8   2  -5    7.70    4.30
  -8   2  -5    6.70    4.10
   8  -2   5    7.90    5.50
   8  -2   5    6.00    4.20
  10   1  -5   -2.60    3.40
 -10  -1   5    0.00    3.80
   9   1  -5   55.09    6.50
  -9  -1   5   73.49    7.80
  -9  -1   5   63.19    7.00
   8   1  -5   33.20    4.80
  -8  -1   5   35.40    5.50
  -8  -1   5   49.00    5.90
   7   1  -5  799.32   19.10
  -7  -1   5  758.22   19.00
  -7  -1   5  795.92   20.80
   6   1  -5   16.70    3.00
   6   1  -5   13.00    2.90
  -6  -1   5   21.40    3.50
  -6  -1   5   17.50    4.10
   5   1  -5    3.30    1.90
   5   1  -5    5.30    1.90
  -5  -1   5    0.70    1.50
  -5  -1   5    0.20    2.70
  -5  -1   5   -0.20    1.80
   4   1  -5    2.30    1.50
   4   1  -5    2.10    1.50
  -4  -1   5    1.20    1.30
  -4  -1   5    3.10    1.70
  -4  -1   5    3.10    2.50
   3   1  -5   79.69    3.80
   3   1  -5   76.89    3.90
  -3  -1   5   70.89    3.10
  -3  -1   5   78.69    3.90
  -3  -1   5   75.19    3.90
   2   1  -5    0.80    1.30
   2   1  -5    0.30    1.30
  -2  -1   5    0.50    1.10
  -2  -1   5   -0.10    1.30
  -2  -1   5    1.00    1.30
   1   1  -5  277.57    6.90
   1   1  -5  279.77    7.00
  -1  -1   5  272.27    7.20
  -1  -1   5  267.27    7.10
  -1  -1   5  278.57    6.30
   0   1  -5  819.22   15.40
   0   1  -5  804.32   15.40
   0  -1   5  818.72   15.90
   0  -1   5  831.62   14.90
   0  -1   5  837.02   15.90
  -1   1  -5    8.60    2.00
   1  -1   5   10.70    1.80
   1  -1   5   10.90    2.10
   1  -1   5    6.40    1.80
   1  -1   5   10.80    1.30
  -2   1  -5    4.90    1.90
  -2   1  -5    8.20    2.10
   2  -1   5    7.60    2.20
   2  -1   5    8.60    1.90
   2  -1   5    6.50    2.00
   2  -1   5    8.70    1.30
  -3   1  -5   51.89    4.40
  -3   1  -5   38.60    3.80
   3  -1   5   41.10    4.20
   3  -1   5   46.00    3.80
   3  -1   5   44.60    2.80
   3  -1   5   40.90    2.00
  -4   1  -5  473.45   12.90
  -4   1  -5  467.95   12.80
   4  -1   5  456.95   10.80
   4  -1   5  493.65   12.50
   4  -1   5  479.45   13.30
  -5   1  -5  168.88    8.00
  -5   1  -5  169.58    8.10
   5  -1   5  158.48    7.40
   5  -1   5  166.28    8.30
  -6   1  -5   27.60    4.80
  -6   1  -5   20.80    4.10
   6  -1   5   33.80    4.60
   6  -1   5   38.80    5.40
  -7   1  -5   74.39    7.60
  -7   1  -5   69.59    6.90
   7  -1   5   57.69    6.60
  -8   1  -5   14.30    4.60
   8  -1   5   22.10    5.20
  10   0  -5    8.50    4.10
 -10   0   5    6.60    4.10
 -10   0   5    5.40    4.10
   9   0  -5    9.40    3.70
  -9   0   5    8.30    3.80
  -9   0   5    2.60    3.40
   8   0  -5   47.70    5.50
  -8   0   5   41.90    5.30
  -8   0   5   44.10    6.00
   7   0  -5   32.50    4.30
  -7   0   5   33.30    4.40
  -7   0   5   37.30    5.20
   6   0  -5   11.50    2.70
  -6   0   5   11.50    2.80
  -6   0   5   14.40    4.00
   5   0  -5   52.19    4.10
   5   0  -5   50.49    3.40
  -5   0   5   53.49    4.00
  -5   0   5   42.60    4.90
   4   0  -5  918.31   17.10
   4   0  -5  916.01   17.40
  -4   0   5  945.11   17.90
  -4   0   5  924.41   20.80
   3   0  -5 1012.10   17.80
   3   0  -5 1006.70   18.10
  -3   0   5 1029.40   21.40
  -3   0   5 1006.90   18.50
   2   0  -5  522.55   10.20
  -2   0   5  501.15   10.10
  -2   0   5  517.85   12.90
  -2   0   5  507.85   10.60
   1   0  -5  126.19    4.00
   1   0  -5  122.49    4.10
  -1   0   5  123.99    4.40
  -1   0   5  126.19    5.60
  -1   0   5  127.19    4.20
   0   0  -5  144.89    4.50
   0   0  -5  137.09    4.70
   0   0   5  141.69    4.60
   0   0   5  147.19    3.90
   0   0   5  139.99    5.50
   0   0   5  143.29    4.90
   0   0   5  143.99    4.80
  -1   0  -5   24.60    2.60
  -1   0  -5   17.70    2.30
   1   0   5   23.30    2.20
   1   0   5   19.10    2.60
   1   0   5   23.80    2.10
   1   0   5   22.90    2.40
   1   0   5   25.60    2.70
  -2   0  -5   81.69    4.50
  -2   0  -5   87.29    4.70
   2   0   5   85.29    4.00
   2   0   5   85.99    4.70
   2   0   5   87.29    3.10
   2   0   5   79.39    3.70
  -3   0  -5    0.40    2.00
  -3   0  -5    0.50    1.90
   3   0   5   -0.10    2.00
   3   0   5   -1.70    1.40
   3   0   5    3.40    1.80
  -4   0  -5  959.10   20.70
  -4   0  -5  965.20   20.80
   4   0   5  965.10   19.80
   4   0   5  971.00   21.50
   4   0   5  927.91   19.10
  -5   0  -5    3.40    2.80
  -5   0  -5    1.50    2.60
   5   0   5    4.10    2.60
   5   0   5    3.30    2.30
   5   0   5    0.40    2.10
  -6   0  -5   15.60    4.00
  -6   0  -5   10.80    3.90
   6   0   5   12.40    3.40
   6   0   5   22.40    4.50
  -7   0  -5   -1.00    3.20
   7   0   5    0.10    3.30
  -8   0  -5   16.40    5.00
   8   0   5   18.00    5.30
  10  -1  -5  121.19    8.90
 -10   1   5  129.19    8.80
 -10   1   5  138.19    9.80
   9  -1  -5    6.30    3.30
  -9   1   5   11.80    3.70
  -9   1   5   11.50    4.30
   8  -1  -5  403.56   12.90
  -8   1   5  420.86   15.20
  -8   1   5  390.96   12.90
   7  -1  -5  432.86   12.40
  -7   1   5  455.25   12.70
  -7   1   5  426.96   14.90
   6  -1  -5    9.60    2.50
  -6   1   5   10.20    3.40
  -6   1   5   18.90    3.10
   5  -1  -5   16.60    2.40
  -5   1   5   25.30    4.20
  -5   1   5   15.90    2.50
   4  -1  -5   56.89    3.20
  -4   1   5   56.79    3.30
  -4   1   5   56.89    5.00
   3  -1  -5  236.58    5.80
   3  -1  -5  233.48    5.80
  -3   1   5  230.38    8.80
  -3   1   5  242.08    6.20
   2  -1  -5 1458.35   24.00
   2  -1  -5 1499.05   24.10
  -2   1   5 1484.65   28.10
  -2   1   5 1500.55   24.60
  -2   1   5 1477.85   24.50
   1  -1  -5  274.67    6.30
   1  -1  -5  275.67    6.30
  -1   1   5  279.37    6.70
  -1   1   5  291.37    8.60
  -1   1   5  285.17    7.90
  -1   1   5  287.47    6.10
   0  -1  -5  112.79    4.00
   0   1   5  111.29    3.90
   0   1   5  113.89    4.30
   0   1   5  110.49    4.60
   0   1   5  109.39    4.80
  -1  -1  -5   88.19    3.90
  -1  -1  -5   83.09    4.10
   1   1   5   93.29    4.10
   1   1   5  100.09    4.50
   1   1   5   96.29    5.00
   1   1   5   89.89    4.30
   1   1   5   90.09    3.90
  -2  -1  -5    3.80    1.80
  -2  -1  -5    0.20    1.70
   2   1   5   -0.40    1.20
   2   1   5    2.60    1.70
   2   1   5    0.60    1.00
   2   1   5   -0.10    1.80
   2   1   5   -0.60    1.70
  -3  -1  -5   95.99    5.60
  -3  -1  -5  101.59    5.20
   3   1   5   86.19    5.20
   3   1   5   86.89    4.40
   3   1   5  102.99    5.80
   3   1   5   87.49    4.90
  -4  -1  -5   10.30    3.00
  -4  -1  -5   10.70    3.00
   4   1   5   12.00    3.00
   4   1   5   12.40    2.80
  -5  -1  -5   33.50    4.50
   5   1   5   37.10    4.90
   5   1   5   41.10    4.60
  -6  -1  -5   -1.70    2.80
   6   1   5   -0.10    2.50
   6   1   5   -4.30    2.70
  -7  -1  -5    7.10    4.10
   7   1   5   -1.10    3.40
  10  -2  -5    0.50    3.30
 -10   2   5    2.90    4.00
 -10   2   5   -0.80    3.10
   9  -2  -5   -2.70    2.40
  -9   2   5   -0.50    3.10
  -9   2   5    4.10    3.10
   8  -2  -5  179.78    8.40
  -8   2   5  173.18   10.20
  -8   2   5  172.98    8.00
   7  -2  -5    8.90    2.70
  -7   2   5    9.10    3.70
  -7   2   5    5.50    2.50
   6  -2  -5  216.88    7.40
  -6   2   5  220.98    7.60
  -6   2   5  229.98   10.40
   5  -2  -5  565.94   12.20
  -5   2   5  595.44   16.60
  -5   2   5  572.54   12.60
   4  -2  -5   13.20    1.60
   4  -2  -5   10.90    1.60
  -4   2   5    9.50    1.60
  -4   2   5   10.10    1.80
  -4   2   5    8.80    3.00
   3  -2  -5  235.18    5.20
   3  -2  -5  234.58    5.20
  -3   2   5  229.38    5.70
  -3   2   5  231.08    8.90
  -3   2   5  235.58    5.60
   2  -2  -5    4.20    0.90
   2  -2  -5    6.20    1.00
  -2   2   5    0.50    2.00
  -2   2   5    3.40    2.00
  -2   2   5    4.80    1.10
  -2   2   5    5.10    1.20
   1  -2  -5   31.10    2.00
   1  -2  -5   35.40    2.10
  -1   2   5   39.20    3.60
  -1   2   5   35.10    3.70
  -1   2   5   34.20    2.20
  -1   2   5   34.80    2.30
  -1   2   5   37.60    3.90
   0  -2  -5   27.90    2.30
   0   2   5   24.80    2.00
   0   2   5   23.90    3.10
   0   2   5   24.20    2.40
   0   2   5   24.40    3.00
   0   2   5   23.60    2.90
  -1  -2  -5 1949.30   32.70
   1   2   5 1967.20   32.60
   1   2   5 1918.81   34.10
   1   2   5 1976.30   34.90
   1   2   5 1928.11   33.20
   1   2   5 1929.11   32.30
  -2  -2  -5  339.37    9.40
   2   2   5  334.97    9.60
   2   2   5  338.67   10.00
   2   2   5  336.27   10.20
  -3  -2  -5   19.40    3.20
   3   2   5   15.80    3.20
   3   2   5   20.80    3.30
   3   2   5   17.00    3.10
  -4  -2  -5  140.89    7.40
   4   2   5  142.29    6.80
   4   2   5  135.69    7.40
   4   2   5  139.19    7.20
  -5  -2  -5    3.10    3.00
   5   2   5    2.10    2.90
   5   2   5    4.70    2.70
   5   2   5    8.50    3.10
  -6  -2  -5   14.40    4.20
   6   2   5   20.00    4.50
   6   2   5   11.10    3.60
  -7  -2  -5   36.80    5.90
   7   2   5   54.59    6.90
   7   2   5   58.59    7.40
  10  -3  -5   82.99    7.70
 -10   3   5   79.79    8.90
 -10   3   5   68.19    6.90
   9  -3  -5  126.29    7.70
  -9   3   5  115.39    9.20
  -9   3   5  139.19    7.90
   8  -3  -5    3.20    2.50
  -8   3   5   -0.50    3.50
  -8   3   5   -0.90    2.10
   7  -3  -5    6.40    2.30
  -7   3   5    6.20    3.80
  -7   3   5    7.30    2.40
   6  -3  -5    1.90    1.80
  -6   3   5   -1.70    1.50
  -6   3   5    0.90    2.70
   5  -3  -5  561.84   11.60
  -5   3   5  579.14   12.00
  -5   3   5  572.34   16.90
   4  -3  -5  135.59    3.80
   4  -3  -5  130.19    3.80
  -4   3   5  118.39    7.50
  -4   3   5  128.29    4.10
  -4   3   5  128.19    4.10
   3  -3  -5  147.19    3.10
   3  -3  -5  150.68    3.20
  -3   3   5  150.88    3.90
  -3   3   5  161.18    7.80
  -3   3   5  151.58    3.90
   2  -3  -5   75.79    2.00
   2  -3  -5   71.39    1.90
  -2   3   5   72.29    5.50
  -2   3   5   72.99    5.00
  -2   3   5   73.59    2.70
  -2   3   5   70.59    2.60
  -2   3   5   70.19    5.00
   1  -3  -5  609.74   10.90
   1  -3  -5  615.84   11.00
  -1   3   5  630.24   11.60
  -1   3   5  625.14   14.90
  -1   3   5  630.44   15.10
  -1   3   5  596.34   14.70
  -1   3   5  615.54   11.50
   0  -3  -5  217.38    6.00
   0   3   5  214.18    7.60
   0   3   5  211.78    8.20
   0   3   5  214.98    8.00
   0   3   5  214.88    4.20
   0   3   5  225.38    8.90
   0   3   5  221.58    6.30
   0   3   5  222.48    4.20
  -1  -3  -5  679.33   14.10
   1   3   5  667.13   14.30
   1   3   5  700.53   16.40
   1   3   5  669.83   14.40
   1   3   5  676.83   16.00
   1   3   5  670.13   13.10
  -2  -3  -5  327.97    9.60
   2   3   5  326.57    9.80
   2   3   5  338.77   10.90
   2   3   5  339.27   10.70
  -3  -3  -5   34.50    4.10
   3   3   5   36.40    4.30
   3   3   5   22.50    3.70
   3   3   5   35.40    4.60
  -4  -3  -5    7.00    3.00
   4   3   5    7.00    2.90
   4   3   5    8.70    2.90
   4   3   5    9.00    3.00
  -5  -3  -5    6.50    3.20
   5   3   5    0.80    2.80
   5   3   5    8.30    3.30
   5   3   5    6.70    3.00
  -6  -3  -5   15.30    4.30
   6   3   5    7.60    3.80
   6   3   5   11.60    4.20
  10  -4  -5   24.10    4.70
 -10   4   5   15.10    4.10
 -10   4   5   22.10    5.90
   9  -4  -5    1.40    2.70
  -9   4   5    0.40    3.80
  -9   4   5   -1.60    2.20
   8  -4  -5    6.60    2.70
  -8   4   5   12.80    4.80
  -8   4   5    6.60    2.60
   7  -4  -5   82.39    5.00
  -7   4   5   73.69    4.90
  -7   4   5   76.29    7.90
   6  -4  -5   -1.70    1.30
  -6   4   5    0.40    1.50
  -6   4   5   -1.60    2.90
   5  -4  -5  163.28    4.80
  -5   4   5  160.08    5.00
  -5   4   5  161.98    9.10
   4  -4  -5   33.80    1.70
   4  -4  -5   36.20    1.70
  -4   4   5   38.10    5.30
  -4   4   5   34.60    2.10
  -4   4   5   36.10    2.10
  -3   4   5    2.60    2.60
  -3   4   5   -0.30    0.70
  -3   4   5   -2.80    2.30
  -3   4   5   -1.40    2.20
  -2   4   5   79.49    6.10
  -2   4   5   83.89    2.70
  -2   4   5   81.39    2.60
  -2   4   5  101.39    6.20
  -2   4   5   84.19    5.70
   1  -4  -5   18.30    1.70
   1  -4  -5   18.80    1.70
  -1   4   5   17.60    1.80
  -1   4   5   19.90    1.90
  -1   4   5   17.90    3.40
  -1   4   5   12.00    3.10
  -1   4   5   20.00    3.60
   0  -4  -5   33.10    2.70
   0   4   5   34.90    4.40
   0   4   5   36.10    3.00
   0   4   5   36.80    4.10
   0   4   5   32.70    4.00
  -1  -4  -5   93.89    4.80
   1   4   5   91.39    6.40
   1   4   5   91.09    4.70
   1   4   5   85.99    3.40
   1   4   5   76.29    5.80
  -2  -4  -5  147.59    6.50
   2   4   5  138.19    7.40
   2   4   5  151.28    6.70
   2   4   5  141.79    7.70
  -3  -4  -5   23.90    3.80
   3   4   5   21.60    3.60
   3   4   5   21.90    4.00
   3   4   5   21.80    4.20
  -4  -4  -5    6.70    3.20
   4   4   5    9.50    3.70
   4   4   5    5.70    2.90
   4   4   5    5.20    2.80
  -5  -4  -5   59.49    6.50
   5   4   5   64.39    6.60
   5   4   5   59.79    6.00
   5   4   5   61.99    6.70
  -6  -4  -5   17.70    4.70
   6   4   5    7.90    4.10
   6   4   5    9.30    4.20
   9  -5  -5   14.70    3.60
  -9   5   5   13.60    5.20
  -9   5   5   16.10    3.50
   8  -5  -5    9.90    2.90
  -8   5   5   10.70    4.50
  -8   5   5    4.80    2.50
   7  -5  -5   35.30    3.60
  -7   5   5   32.90    3.40
  -7   5   5   38.50    6.40
   6  -5  -5   11.40    1.90
  -6   5   5    9.60    1.90
  -6   5   5    8.40    3.70
   5  -5  -5   -0.10    1.00
  -5   5   5   -4.60    2.60
  -5   5   5    1.40    1.10
  -4   5   5    4.40    3.30
  -4   5   5    4.40    0.80
  -4   5   5    3.70    0.80
  -4   5   5    6.30    3.00
  -3   5   5   83.49    6.70
  -3   5   5   92.19    6.30
  -3   5   5   75.09    6.60
  -2   5   5   38.10    1.70
  -2   5   5   34.80    1.80
  -2   5   5   31.80    4.40
  -2   5   5   36.00    4.70
  -2   5   5   39.00    4.60
   1  -5  -5  257.27    6.00
  -1   5   5  233.78    9.90
  -1   5   5  264.07    6.30
  -1   5   5  257.47   10.00
  -1   5   5  252.27    9.90
   0  -5  -5  109.49    4.60
   0   5   5  111.59    4.70
   0   5   5  117.39    7.20
   0   5   5  104.19    7.00
  -1  -5  -5   32.10    3.40
   1   5   5   33.80    4.60
   1   5   5   33.80    3.50
   1   5   5   33.80    4.90
  -2  -5  -5   44.70    4.40
   2   5   5   46.50    5.70
   2   5   5   41.10    4.40
   2   5   5   47.00    3.30
   2   5   5   46.40    5.50
  -3  -5  -5   23.80    4.00
   3   5   5   26.50    4.60
   3   5   5   22.80    3.80
   3   5   5   18.20    4.20
  -4  -5  -5   -1.30    2.70
   4   5   5   -3.70    2.80
   4   5   5    3.00    2.90
   4   5   5   -3.20    2.60
  -5  -5  -5   -1.00    3.10
   5   5   5    5.00    3.50
   5   5   5   -1.30    3.30
   5   5   5    2.90    3.40
   9  -6  -5   10.00    3.20
  -9   6   5   12.10    5.40
  -9   6   5   19.00    3.60
   8  -6  -5  110.99    6.20
  -8   6   5  100.89    5.60
  -8   6   5  115.89   10.00
   7  -6  -5    1.00    1.70
  -7   6   5    2.20    1.70
  -7   6   5    0.80    3.90
   6  -6  -5   40.10    2.90
  -6   6   5   43.10    6.50
  -6   6   5   33.30    2.70
   5  -6  -5   20.30    1.60
  -5   6   5   22.30    1.60
  -5   6   5   16.70    4.80
  -4   6   5   13.30    4.40
  -4   6   5   21.30    4.10
  -4   6   5   19.40    4.60
  -3   6   5  316.97   11.60
  -3   6   5  311.17   12.50
  -3   6   5  308.17   12.10
   2  -6  -5   22.40    1.60
  -2   6   5   27.20    4.70
  -2   6   5   24.40    4.60
  -2   6   5   15.80    3.80
  -2   6   5   25.10    1.70
   1  -6  -5  170.98    5.10
  -1   6   5  178.38    5.20
  -1   6   5  185.98    9.10
  -1   6   5  170.48    9.20
   0  -6  -5   -1.50    1.50
   0   6   5   -0.70    2.60
   0   6   5   -0.50    2.80
   0   6   5    2.20    1.70
  -1  -6  -5  199.88    7.30
   1   6   5  194.38    7.30
   1   6   5  184.08    9.70
   1   6   5  221.78   10.10
  -2  -6  -5    3.60    2.40
   2   6   5   -0.30    3.20
   2   6   5    5.50    3.30
   2   6   5   -1.70    2.10
  -3  -6  -5    6.90    3.10
   3   6   5   11.80    3.90
   3   6   5    7.80    3.00
   3   6   5    6.50    3.70
  -4  -6  -5   10.40    3.70
   4   6   5    5.40    3.70
   4   6   5   17.70    5.00
   4   6   5   11.20    3.70
   8  -7  -5    4.30    2.30
  -8   7   5   -0.90    1.80
  -8   7   5   -1.50    4.10
   7  -7  -5   26.00    3.10
  -7   7   5   17.40    2.40
  -7   7   5   25.20    6.10
   6  -7  -5   11.30    1.90
  -6   7   5    9.60    4.50
  -6   7   5   14.50    1.60
   5  -7  -5    2.40    0.90
  -5   7   5   -1.30    3.50
  -5   7   5   -0.90    2.80
  -4   7   5   30.50    5.30
  -4   7   5   32.80    5.80
  -4   7   5   33.40    5.00
  -3   7   5  118.79    7.80
  -3   7   5  127.59    8.60
  -3   7   5  122.39    8.90
   2  -7  -5   47.80    2.50
  -2   7   5   49.20    6.10
  -2   7   5   51.99    6.40
  -2   7   5   44.30    2.10
   1  -7  -5   46.10    3.30
  -1   7   5   56.79    6.70
  -1   7   5   40.30    3.00
  -1   7   5   51.49    6.20
   0  -7  -5   18.50    2.70
   0   7   5   17.30    2.70
   0   7   5   16.90    4.30
   0   7   5   16.00    4.60
  -1  -7  -5   37.60    4.10
   1   7   5   45.20    4.40
   1   7   5   49.00    6.40
   1   7   5   36.90    5.70
  -2  -7  -5   32.30    4.30
   2   7   5   33.60    5.70
   2   7   5   41.00    6.40
   2   7   5   35.90    4.40
  -3  -7  -5    6.80    3.40
   3   7   5    3.00    3.90
   3   7   5    3.70    3.70
   3   7   5    2.80    2.90
   7  -8  -5   17.40    2.70
  -7   8   5   15.20    6.00
   6  -8  -5   77.59    3.60
  -6   8   5   70.39    8.70
  -5   8   5  112.79    9.70
  -5   8   5  113.89    8.00
  -4   8   5   83.49    7.90
  -4   8   5   86.49    8.60
  -3   8   5   12.80    4.00
  -3   8   5    6.10    4.10
   2  -8  -5   92.69    3.80
  -2   8   5  105.19    8.90
  -2   8   5   89.29    2.90
  -2   8   5   81.29    8.00
   1  -8  -5    6.00    1.90
  -1   8   5    0.50    3.30
  -1   8   5    7.50    1.90
  -1   8   5    4.60    4.00
   0  -8  -5   41.30    4.00
   0   8   5   43.40    6.70
   0   8   5   43.10    3.90
   0   8   5   39.40    6.00
  -1  -8  -5   13.10    3.10
   1   8   5   17.10    3.20
   1   8   5   19.20    4.80
   1   8   5   19.60    5.20
  -2  -8  -5    0.70    2.60
   2   8   5    4.50    3.80
   2   8   5    0.30    3.90
   2   8   5    3.20    2.60
  -5   9   5   14.00    4.60
  -4   9   5   46.10    7.20
  -4   9   5   55.39    7.20
  -3   9   5   -3.80    3.10
  -3   9   5   -1.70    3.50
   2  -9  -5   42.80    3.40
  -2   9   5   34.10    6.00
  -2   9   5   42.20    6.80
   1  -9  -5    3.80    2.10
  -1   9   5    6.60    4.30
  -1   9   5   -2.70    3.30
  -1   9   5    2.70    1.70
   0  -9  -5    3.10    2.30
   0   9   5   -1.20    1.90
   0   9   5    1.90    4.10
   0   9   5   -3.30    3.10
  -1  -9  -5    3.40    2.70
   1   9   5    3.40    2.60
   1   9   5    1.90    4.50
   1   9   5    0.50    3.50
   2  12  -6    0.90    3.60
   2  12  -6    0.60    3.10
   2  12  -6    2.20    3.60
  -2 -12   6   -1.10    3.40
  -2 -12   6   -0.80    3.30
   1  12  -6    5.00    3.80
   1  12  -6    3.90    3.40
   1  12  -6   -2.00    2.90
  -1 -12   6    2.30    3.40
  -1 -12   6    3.50    3.40
   0  12  -6   18.20    4.30
   0  12  -6   18.00    4.50
   0  12  -6   17.70    4.60
   0 -12   6   20.00    4.80
   0 -12   6   23.10    4.90
  -1  12  -6   62.99    7.10
  -1  12  -6   77.79    7.60
   1 -12   6   83.99    7.50
   1 -12   6   81.99    8.00
  -2  12  -6   -1.80    3.10
  -2  12  -6    5.00    3.50
   2 -12   6    4.30    3.60
   2 -12   6    2.60    3.20
  -3  12  -6   42.40    5.90
  -3  12  -6   29.00    5.20
   3 -12   6   31.80    5.40
   3 -12   6   28.40    8.20
  -4  12  -6    5.80    3.70
   4 -12   6    9.10    3.90
   4  11  -6    3.70    3.60
   4  11  -6   -3.30    3.80
   4  11  -6   -3.60    3.20
  -4 -11   6    0.90    3.60
   3  11  -6    9.80    4.40
   3  11  -6   16.50    4.90
   3  11  -6   15.90    4.80
  -3 -11   6   15.60    4.60
  -3 -11   6   14.60    4.80
   2  11  -6    6.50    3.70
   2  11  -6    7.70    3.90
  -2 -11   6    1.30    3.20
  -2 -11   6    2.40    3.40
   1  11  -6   38.80    5.60
   1  11  -6   43.10    5.90
  -1 -11   6   49.50    6.40
  -1 -11   6   40.40    5.50
   0  11  -6   -1.00    2.40
   0  11  -6   -4.20    2.90
   0 -11   6   -0.40    2.90
   0 -11   6    0.30    2.90
  -1  11  -6  106.39    6.90
  -1  11  -6  115.99    7.90
   1 -11   6  108.59    7.70
   1 -11   6   92.49    7.50
  -2  11  -6   51.89    6.10
  -2  11  -6   65.39    6.70
   2 -11   6   46.70    5.80
   2 -11   6   73.99    7.40
  -3  11  -6   -0.70    2.90
  -3  11  -6    4.10    3.00
   3 -11   6    5.60    3.40
   3 -11   6    2.60    3.00
  -4  11  -6    0.60    3.10
  -4  11  -6    6.30    3.20
   4 -11   6    1.30    3.00
   4 -11   6    2.80    3.40
  -5  11  -6    1.50    3.40
   5 -11   6    4.90    3.60
   5 -11   6    1.80    3.30
   5  10  -6   16.30    5.30
   5  10  -6   18.60    5.10
   5  10  -6   20.00    4.90
  -5 -10   6   13.90    4.60
   4  10  -6    1.00    3.80
   4  10  -6    2.90    3.80
  -4 -10   6   -0.80    3.20
  -4 -10   6   -2.10    2.90
   3  10  -6  141.09    9.00
   3  10  -6  161.38    9.70
  -3 -10   6  149.39    9.00
  -3 -10   6  159.98    9.80
   2  10  -6  158.18    9.40
   2  10  -6  193.38    9.80
  -2 -10   6  181.78    9.70
  -2 -10   6  185.08    9.40
   1  10  -6  123.09    7.80
   1  10  -6  124.39    8.10
  -1 -10   6  139.49    8.30
  -1 -10   6  117.99    7.70
   0  10  -6   29.00    4.90
   0  10  -6   31.00    4.40
   0 -10   6   25.00    4.20
   0 -10   6   25.80    4.70
  -1  10  -6   78.09    5.70
  -1  10  -6   82.29    7.20
   1 -10   6   92.29    7.00
   1 -10   6   90.59    7.00
  -2  10  -6   -0.30    2.90
   2 -10   6    2.30    2.90
   2 -10   6    0.20    2.60
  -3  10  -6   61.79    6.50
   3 -10   6   60.39    6.20
   3 -10   6   67.69    6.80
  -4  10  -6   13.30    4.10
  -4  10  -6   27.70    4.20
   4 -10   6   25.60    4.50
   4 -10   6   17.20    4.40
  -5  10  -6  183.88   10.20
   5 -10   6  192.78   10.10
   5 -10   6  178.28   10.10
  -6  10  -6    0.60    3.50
   6 -10   6    0.50    3.50
   6 -10   6    4.60    3.50
   6   9  -6   -4.30    3.10
   6   9  -6  -10.80    3.90
  -6  -9   6   -0.30    3.20
   5   9  -6    6.60    4.00
   5   9  -6   -1.30    4.10
  -5  -9   6    4.00    3.50
   4   9  -6  223.78   11.00
   4   9  -6  225.68   11.60
  -4  -9   6  203.98   11.00
  -4  -9   6  246.68   10.70
   3   9  -6   33.50    5.50
   3   9  -6   30.10    4.90
  -3  -9   6   37.60    5.00
  -3  -9   6   40.90    5.50
   2   9  -6  599.84   17.00
   2   9  -6  578.74   16.50
  -2  -9   6  577.34   16.40
  -2  -9   6  578.54   17.30
   1   9  -6    1.10    2.70
   1   9  -6   -1.60    2.40
  -1  -9   6    0.10    2.70
  -1  -9   6   -0.90    2.70
   0   9  -6   25.20    4.50
   0   9  -6   27.60    3.90
   0  -9   6   27.90    4.20
   0  -9   6   33.20    4.70
  -1   9  -6   -0.30    1.90
  -1   9  -6    0.20    2.50
   1  -9   6   -0.10    2.40
   1  -9   6    4.10    2.80
  -2   9  -6  177.48    8.80
   2  -9   6  189.68    9.10
   2  -9   6  206.98    9.00
  -3   9  -6  120.29    7.60
   3  -9   6  121.59    7.40
   3  -9   6  118.39    7.70
  -4   9  -6   38.60    5.30
   4  -9   6   46.10    5.90
   4  -9   6   44.30    5.40
  -5   9  -6   66.29    6.90
   5  -9   6   80.99    7.90
   5  -9   6   61.19    6.50
  -6   9  -6   38.40    5.90
   6  -9   6   28.90    5.50
   6  -9   6   30.90    5.30
  -7   9  -6   69.69    7.60
   7  -9   6   79.09    8.00
   7  -9   6   78.49    8.50
   7   8  -6    2.80    4.00
  -7  -8   6    0.60    3.40
   6   8  -6    1.60    3.60
  -6  -8   6    6.00    3.70
   5   8  -6   19.60    4.30
  -5  -8   6   32.00    5.00
  -5  -8   6   30.00    4.80
   4   8  -6    6.30    3.00
   4   8  -6    7.30    3.50
  -4  -8   6    9.50    4.00
  -4  -8   6    4.80    2.90
  -4  -8   6    7.40    3.30
   3   8  -6  161.58    7.70
   3   8  -6  171.78    9.20
   3   8  -6  177.28    8.80
  -3  -8   6  176.48    8.60
  -3  -8   6  190.98    8.70
  -3  -8   6  179.08    9.20
   2   8  -6   -2.70    2.50
   2   8  -6    1.30    2.10
   2   8  -6    5.00    3.00
  -2  -8   6   -0.80    2.20
  -2  -8   6   -3.40    2.30
  -2  -8   6    2.50    2.80
   1   8  -6   78.79    6.00
   1   8  -6   75.99    5.20
   1   8  -6   70.99    5.40
  -1  -8   6   73.39    5.70
  -1  -8   6   65.39    6.10
  -1  -8   6   80.19    5.50
   0   8  -6   20.10    3.60
   0   8  -6   29.50    3.70
   0   8  -6   21.30    3.20
   0  -8   6   22.40    4.10
   0  -8   6   20.30    3.60
   0  -8   6   28.20    4.00
  -1   8  -6  434.36   11.60
  -1   8  -6  435.76   13.20
  -1   8  -6  446.86   11.00
   1  -8   6  458.85   13.80
   1  -8   6  430.46   12.50
  -2   8  -6  277.97   10.30
   2  -8   6  253.37    9.80
   2  -8   6  261.37    9.50
   2  -8   6  264.57   10.60
  -3   8  -6   84.09    6.30
   3  -8   6  101.89    6.90
   3  -8   6   94.89    6.50
  -4   8  -6   -0.30    2.80
   4  -8   6   -2.90    2.20
   4  -8   6    2.20    2.70
  -5   8  -6   28.90    4.90
   5  -8   6   33.00    4.90
   5  -8   6   33.10    5.40
  -6   8  -6   78.69    7.80
   6  -8   6   98.19    8.80
   6  -8   6   78.59    7.10
  -7   8  -6    3.70    4.10
   7  -8   6    2.90    3.30
   7  -8   6    2.30    3.70
   7   7  -6  242.38   12.00
  -7  -7   6  250.87   12.00
  -7  -7   6  259.37   11.50
   6   7  -6   92.59    7.30
   6   7  -6  115.19    8.00
  -6  -7   6  107.39    7.80
  -6  -7   6  102.09    7.70
   5   7  -6   36.20    4.70
   5   7  -6   28.00    4.90
  -5  -7   6   32.00    5.00
  -5  -7   6   32.10    4.70
   4   7  -6   21.40    3.80
   4   7  -6   24.10    4.50
  -4  -7   6   33.00    4.70
  -4  -7   6   28.00    4.70
  -4  -7   6   22.50    4.00
   3   7  -6   80.29    5.70
   3   7  -6   80.19    6.10
  -3  -7   6   84.09    6.70
  -3  -7   6   78.59    5.90
  -3  -7   6   68.99    6.40
   2   7  -6  101.19    5.90
   2   7  -6  116.99    6.70
   2   7  -6  115.09    6.70
  -2  -7   6  108.79    6.40
  -2  -7   6  124.49    7.10
  -2  -7   6  117.39    6.50
   1   7  -6  106.89    5.80
   1   7  -6  110.29    6.50
   1   7  -6  104.19    5.70
  -1  -7   6  111.49    6.70
  -1  -7   6  111.19    6.00
  -1  -7   6  111.19    6.40
   0   7  -6 1289.27   24.90
   0   7  -6 1320.37   26.50
   0   7  -6 1282.97   23.80
   0  -7   6 1285.77   25.90
   0  -7   6 1303.47   26.00
   0  -7   6 1302.47   27.00
  -1   7  -6   59.89    3.50
  -1   7  -6   62.99    5.60
  -1   7  -6   58.79    4.60
   1  -7   6   54.79    5.00
   1  -7   6   58.19    5.70
   1  -7   6   56.19    5.10
  -2   7  -6   -1.30    2.30
  -2   7  -6   -3.00    1.50
   2  -7   6    1.40    2.40
   2  -7   6   -3.00    2.10
   2  -7   6   -1.00    1.90
  -3   7  -6    1.80    2.00
  -3   7  -6    0.70    2.30
   3  -7   6    3.40    2.40
   3  -7   6   -0.70    2.30
   3  -7   6    0.20    2.60
  -4   7  -6  179.28    8.80
   4  -7   6  183.38    9.10
   4  -7   6  172.38    8.40
   4  -7   6  187.28    8.30
  -5   7  -6   16.80    4.10
   5  -7   6   20.80    4.10
   5  -7   6   23.30    4.20
  -6   7  -6   16.50    4.80
   6  -7   6   16.80    4.00
   6  -7   6   18.50    4.50
  -7   7  -6   21.70    5.30
   7  -7   6   12.90    4.50
   7  -7   6   14.60    4.20
  -8   7  -6    2.00    4.20
   8  -7   6    6.80    4.00
   8  -7   6   -1.20    3.70
   8   6  -6   -1.20    3.10
  -8  -6   6   -7.30    3.60
  -8  -6   6   -2.80    3.20
   7   6  -6   -0.20    3.00
   7   6  -6    5.00    3.30
  -7  -6   6    0.60    3.10
  -7  -6   6    3.60    3.30
   6   6  -6  134.89    7.90
   6   6  -6  141.59    8.30
  -6  -6   6  149.19    8.60
  -6  -6   6  147.79    8.20
   5   6  -6   14.40    3.60
   5   6  -6   14.10    3.50
  -5  -6   6   17.80    3.60
  -5  -6   6   20.50    4.00
   4   6  -6   -0.20    2.20
   4   6  -6   -2.30    2.30
  -4  -6   6    3.40    2.40
  -4  -6   6    3.60    2.70
  -4  -6   6    0.00    2.30
   3   6  -6  225.18    8.60
   3   6  -6  241.68    9.40
  -3  -6   6  229.38    8.70
  -3  -6   6  257.67    9.80
  -3  -6   6  254.27    9.30
   2   6  -6  186.08    7.50
   2   6  -6  176.38    7.70
  -2  -6   6  183.18    8.10
  -2  -6   6  181.18    7.40
  -2  -6   6  194.28    7.60
   1   6  -6  130.19    6.00
   1   6  -6  122.79    6.20
   1   6  -6  127.09    5.60
  -1  -6   6  126.59    6.20
  -1  -6   6  124.09    6.60
  -1  -6   6  128.29    6.30
   0   6  -6   10.20    2.50
   0   6  -6   15.50    2.10
   0   6  -6   16.70    3.20
   0  -6   6   12.20    2.80
   0  -6   6   17.10    3.30
   0  -6   6   15.80    2.90
  -1   6  -6    3.60    2.40
  -1   6  -6    5.10    2.10
  -1   6  -6    6.40    1.30
   1  -6   6    9.50    2.70
   1  -6   6    9.00    2.60
   1  -6   6   10.20    3.00
  -2   6  -6   -3.20    2.00
  -2   6  -6   -0.90    1.80
   2  -6   6    3.00    2.40
   2  -6   6    2.60    2.30
   2  -6   6   -0.80    2.00
  -3   6  -6   58.49    4.90
  -3   6  -6   42.00    4.80
   3  -6   6   46.40    4.60
   3  -6   6   48.40    5.00
   3  -6   6   46.00    5.10
  -4   6  -6   67.89    5.20
  -4   6  -6   71.19    6.30
   4  -6   6   74.19    6.30
   4  -6   6   62.59    6.20
   4  -6   6   62.69    5.60
  -5   6  -6   34.20    4.30
  -5   6  -6   38.50    5.30
   5  -6   6   41.90    5.20
   5  -6   6   25.80    4.40
   5  -6   6   32.50    4.70
  -6   6  -6   11.80    4.10
   6  -6   6   12.00    3.80
   6  -6   6   11.60    3.60
   6  -6   6    3.10    3.70
  -7   6  -6    4.60    3.90
   7  -6   6    3.20    3.10
   7  -6   6    8.20    4.00
  -8   6  -6    3.60    4.50
   8  -6   6   -1.60    3.50
   8  -6   6    1.20    3.70
   8   5  -6    6.60    3.70
  -8  -5   6    3.00    4.00
  -8  -5   6    3.50    3.80
   7   5  -6   15.70    4.30
   7   5  -6   13.10    3.90
  -7  -5   6   13.50    4.10
   6   5  -6   52.39    5.60
   6   5  -6   71.29    6.30
  -6  -5   6   62.79    5.70
  -6  -5   6   61.49    6.30
   5   5  -6    1.60    2.20
   5   5  -6    5.20    2.70
  -5  -5   6   -0.80    2.40
  -5  -5   6   -0.40    2.10
   4   5  -6   17.80    3.40
   4   5  -6   25.70    3.80
  -4  -5   6   22.30    3.60
  -4  -5   6   27.60    4.10
  -4  -5   6   26.00    3.60
   3   5  -6   51.59    4.50
   3   5  -6   56.39    4.90
  -3  -5   6   61.09    5.00
  -3  -5   6   48.90    4.60
  -3  -5   6   47.20    4.20
   2   5  -6   24.20    3.50
   2   5  -6   19.60    3.00
  -2  -5   6   17.10    2.90
  -2  -5   6   28.10    3.80
  -2  -5   6   21.50    3.40
   1   5  -6   62.69    4.40
   1   5  -6   54.69    4.60
  -1  -5   6   43.70    4.00
  -1  -5   6   58.79    4.60
  -1  -5   6   55.99    4.10
   0   5  -6   74.79    4.60
   0   5  -6   72.09    4.80
   0   5  -6   68.39    3.00
   0  -5   6   68.59    4.90
   0  -5   6   82.09    4.70
   0  -5   6   65.89    4.50
  -1   5  -6   34.30    3.70
  -1   5  -6   37.40    3.70
   1  -5   6   41.10    4.30
   1  -5   6   43.20    4.20
   1  -5   6   42.70    3.90
  -2   5  -6  315.17    9.50
  -2   5  -6  295.67   10.00
   2  -5   6  320.37   10.50
   2  -5   6  310.37    9.90
   2  -5   6  316.47    9.70
  -3   5  -6   28.20    3.80
  -3   5  -6   30.30    4.00
  -3   5  -6   25.80    3.60
   3  -5   6   29.90    4.20
   3  -5   6   31.00    4.00
   3  -5   6   35.30    4.10
  -4   5  -6   57.09    5.60
  -4   5  -6   68.69    5.20
   4  -5   6   68.59    5.90
   4  -5   6   64.49    5.50
   4  -5   6   59.89    6.00
  -5   5  -6   54.59    5.60
  -5   5  -6   52.29    5.20
   5  -5   6   55.69    5.60
   5  -5   6   44.40    5.50
   5  -5   6   54.39    5.60
  -6   5  -6   14.00    3.60
  -6   5  -6   17.70    4.60
   6  -5   6   15.50    4.20
   6  -5   6   20.10    4.20
   6  -5   6   12.20    3.70
  -7   5  -6   -1.40    3.30
   7  -5   6   -0.20    3.00
   7  -5   6    0.00    4.80
  -8   5  -6   58.09    7.80
   8  -5   6   62.09    7.30
   9   4  -6  146.09    9.60
  -9  -4   6  136.09   10.20
  -9  -4   6  126.99    9.60
   8   4  -6   16.70    4.30
  -8  -4   6   18.30    4.80
  -8  -4   6   13.30    4.20
   7   4  -6   12.70    3.70
   7   4  -6   14.60    3.70
  -7  -4   6   14.20    4.60
  -7  -4   6   13.60    3.90
   6   4  -6   35.90    4.80
   6   4  -6   34.60    4.50
  -6  -4   6   45.40    5.40
  -6  -4   6   45.50    4.70
   5   4  -6  179.28    7.90
   5   4  -6  163.18    7.60
  -5  -4   6  165.78    7.80
  -5  -4   6  174.48    7.30
   4   4  -6   -0.40    2.10
   4   4  -6   -1.90    1.80
  -4  -4   6    2.80    2.00
  -4  -4   6    3.30    2.50
  -4  -4   6   -1.60    1.90
   3   4  -6   -1.30    1.80
   3   4  -6   -1.60    1.70
  -3  -4   6   -1.40    1.80
  -3  -4   6   -2.70    1.70
  -3  -4   6   -0.80    1.90
   2   4  -6  136.19    6.10
   2   4  -6  155.08    6.20
  -2  -4   6  140.79    5.80
  -2  -4   6  145.89    6.30
  -2  -4   6  149.69    6.60
   1   4  -6  443.16   11.10
   1   4  -6  456.75   11.40
  -1  -4   6  460.85   10.90
  -1  -4   6  432.16   11.40
  -1  -4   6  412.16   11.40
   0   4  -6    2.00    1.70
   0   4  -6   -0.10    0.90
   0   4  -6    1.50    1.80
   0  -4   6   -0.90    1.60
   0  -4   6    0.60    1.80
   0  -4   6    1.00    1.60
  -1   4  -6   34.10    3.40
  -1   4  -6   38.80    3.80
   1  -4   6   39.00    3.90
   1  -4   6   46.00    4.00
   1  -4   6   41.60    4.20
  -2   4  -6   20.00    3.00
  -2   4  -6   23.90    3.30
   2  -4   6   21.10    3.20
   2  -4   6   21.40    3.20
   2  -4   6   28.30    3.50
  -3   4  -6  143.29    7.20
  -3   4  -6  140.99    6.70
   3  -4   6  152.88    7.10
   3  -4   6  141.59    6.70
   3  -4   6  143.69    7.20
  -4   4  -6   22.10    3.70
  -4   4  -6   22.50    3.70
   4  -4   6   25.30    4.10
   4  -4   6   25.30    4.00
   4  -4   6   19.40    3.40
  -5   4  -6    8.40    3.40
  -5   4  -6    2.20    2.70
   5  -4   6   10.50    3.10
   5  -4   6   -4.00    2.20
  -6   4  -6   76.39    6.40
  -6   4  -6   80.39    7.30
   6  -4   6   85.99    6.80
   6  -4   6   99.09    7.20
  -7   4  -6    6.30    4.00
  -7   4  -6    7.30    3.70
   7  -4   6    6.10    3.40
   7  -4   6    5.10    3.50
  -8   4  -6    5.00    4.20
   8  -4   6   -4.00    3.00
   9   3  -6  146.19    9.50
  -9  -3   6  158.78   10.30
  -9  -3   6  159.98   10.10
   8   3  -6   46.00    5.80
  -8  -3   6   55.89    6.80
  -8  -3   6   41.50    5.90
   7   3  -6   -3.60    2.40
  -7  -3   6    8.80    3.80
  -7  -3   6   10.60    3.40
   6   3  -6   -3.20    2.00
   6   3  -6    4.40    2.60
  -6  -3   6   -4.60    2.10
   5   3  -6   15.50    3.20
   5   3  -6   15.20    3.20
  -5  -3   6   10.60    2.60
  -5  -3   6    9.90    2.80
   4   3  -6    0.90    1.90
   4   3  -6    1.70    2.00
  -4  -3   6   -2.30    1.80
  -4  -3   6    3.00    1.80
  -4  -3   6    3.20    2.00
   3   3  -6    1.70    1.70
   3   3  -6    0.50    1.60
  -3  -3   6    0.80    1.80
  -3  -3   6    0.30    1.50
  -3  -3   6   -1.70    1.50
   2   3  -6   79.89    4.40
   2   3  -6   78.89    4.40
  -2  -3   6   76.09    4.10
  -2  -3   6   80.29    4.40
  -2  -3   6   77.99    4.60
   1   3  -6  105.39    5.00
   1   3  -6   94.79    4.70
  -1  -3   6   95.19    4.90
  -1  -3   6   98.19    4.80
  -1  -3   6   88.59    4.30
   0   3  -6  116.39    5.30
   0   3  -6  120.39    5.30
   0  -3   6  124.59    5.60
   0  -3   6  124.89    5.50
   0  -3   6  126.19    5.10
  -1   3  -6   24.10    3.10
  -1   3  -6   15.70    2.60
   1  -3   6   21.70    3.20
   1  -3   6   15.40    2.70
   1  -3   6   21.00    2.70
  -2   3  -6  391.46   10.60
  -2   3  -6  387.56   10.70
   2  -3   6  365.86   10.10
   2  -3   6  379.66   11.00
   2  -3   6  368.46   10.70
  -3   3  -6  169.18    7.20
  -3   3  -6  179.48    7.50
   3  -3   6  176.68    7.60
   3  -3   6  168.08    7.70
   3  -3   6  186.48    7.30
  -4   3  -6   20.00    3.70
  -4   3  -6   16.70    3.30
   4  -3   6   21.00    3.40
   4  -3   6   24.30    4.10
   4  -3   6   21.50    3.50
  -5   3  -6   33.10    5.00
  -5   3  -6   20.60    4.00
   5  -3   6   19.00    3.70
   5  -3   6   30.30    4.60
  -6   3  -6   -2.40    2.80
  -6   3  -6    4.50    3.10
   6  -3   6    3.80    2.90
   6  -3   6    0.00    2.70
  -7   3  -6   16.80    4.40
  -7   3  -6   24.10    5.20
   7  -3   6   24.60    5.20
   7  -3   6   20.40    4.30
  -8   3  -6   44.40    6.80
   8  -3   6   51.49    7.30
   9   2  -6   30.10    5.30
  -9  -2   6   29.80    5.60
  -9  -2   6   23.80    5.20
   8   2  -6   13.80    3.90
  -8  -2   6    9.00    3.50
  -8  -2   6   17.80    4.60
   7   2  -6   97.39    6.60
  -7  -2   6   93.59    6.70
  -7  -2   6   85.19    7.50
   6   2  -6    0.40    2.20
  -6  -2   6   -4.40    2.90
  -6  -2   6    1.60    2.40
   5   2  -6 1515.95   28.20
   5   2  -6 1505.15   28.80
  -5  -2   6 1540.85   27.10
  -5  -2   6 1534.35   29.20
   4   2  -6   64.29    4.10
  -4  -2   6   65.19    4.50
  -4  -2   6   60.19    4.40
  -4  -2   6   69.39    3.80
   3   2  -6  724.03   14.90
   3   2  -6  684.23   15.00
  -3  -2   6  730.03   15.50
  -3  -2   6  717.23   15.40
  -3  -2   6  700.83   13.90
   2   2  -6   32.10    3.00
   2   2  -6   27.50    2.80
  -2  -2   6   31.10    2.60
  -2  -2   6   25.10    2.90
  -2  -2   6   26.00    2.90
   1   2  -6   98.99    4.40
   1   2  -6   93.19    4.50
  -1  -2   6   98.69    4.60
  -1  -2   6   94.59    4.00
  -1  -2   6   95.59    4.60
   0   2  -6   45.90    3.60
   0   2  -6   54.59    3.60
   0  -2   6   51.39    3.80
   0  -2   6   61.69    3.90
   0  -2   6   55.09    3.30
  -1   2  -6   35.40    3.40
  -1   2  -6   36.60    3.40
   1  -2   6   34.60    3.60
   1  -2   6   30.40    3.30
   1  -2   6   36.10    3.20
  -2   2  -6  192.78    7.30
  -2   2  -6  190.58    7.00
   2  -2   6  190.88    6.60
   2  -2   6  187.78    7.20
   2  -2   6  183.88    7.30
  -3   2  -6  214.78    8.10
  -3   2  -6  211.68    8.00
   3  -2   6  202.88    8.30
   3  -2   6  195.48    7.40
   3  -2   6  209.18    8.10
  -4   2  -6  210.28    8.70
  -4   2  -6  195.78    8.30
   4  -2   6  198.18    8.00
   4  -2   6  212.98    8.90
  -5   2  -6   49.10    5.20
  -5   2  -6   52.89    5.70
   5  -2   6   43.90    5.10
   5  -2   6   60.59    5.50
  -6   2  -6    7.90    3.50
  -6   2  -6    4.90    3.40
   6  -2   6    6.10    3.50
   6  -2   6   11.50    3.40
  -7   2  -6  209.68   10.70
  -7   2  -6  215.98   11.10
   7  -2   6  220.78   11.30
  -8   2  -6   17.60    4.80
   8  -2   6   12.60    4.90
  10   1  -6    5.70    3.80
 -10  -1   6   -5.20    3.10
 -10  -1   6   -2.90    3.60
   9   1  -6   57.49    6.40
  -9  -1   6   44.80    6.50
  -9  -1   6   54.29    6.50
   8   1  -6   73.49    6.60
  -8  -1   6   59.89    7.00
  -8  -1   6   70.89    6.60
   7   1  -6   -0.60    2.40
  -7  -1   6   -1.90    2.80
  -7  -1   6    2.00    2.60
   6   1  -6 1031.80   22.00
  -6  -1   6 1040.80   25.00
  -6  -1   6 1042.50   22.30
   5   1  -6    3.80    2.10
  -5  -1   6    4.70    2.20
  -5  -1   6    6.80    3.50
   4   1  -6   83.79    4.50
   4   1  -6   84.99    4.20
  -4  -1   6   91.59    3.60
  -4  -1   6   83.59    4.60
  -4  -1   6   94.79    6.60
   3   1  -6  485.25   11.00
   3   1  -6  474.55   10.60
  -3  -1   6  478.75   11.00
  -3  -1   6  492.25    9.40
  -3  -1   6  458.85   11.20
   2   1  -6 1095.09   19.50
   2   1  -6 1077.29   19.80
  -2  -1   6 1095.39   19.80
  -2  -1   6 1046.10   18.10
  -2  -1   6 1060.09   20.00
   1   1  -6   -1.10    1.30
   1   1  -6   -1.50    1.30
  -1  -1   6   -0.20    1.00
  -1  -1   6   -0.90    1.20
  -1  -1   6   -0.90    1.30
   0   1  -6    9.60    2.10
   0   1  -6    5.90    1.80
   0  -1   6   12.70    1.70
   0  -1   6    8.60    2.00
   0  -1   6   14.70    2.30
  -1   1  -6  269.07    7.70
  -1   1  -6  245.68    7.60
   1  -1   6  255.77    8.00
   1  -1   6  261.07    5.80
   1  -1   6  251.87    7.90
   1  -1   6  248.18    6.90
  -2   1  -6    4.50    2.10
  -2   1  -6    9.60    2.50
   2  -1   6    5.60    2.30
   2  -1   6    4.90    1.80
   2  -1   6    5.70    2.10
   2  -1   6    3.20    1.30
   2  -1   6    2.60    1.60
  -3   1  -6  135.89    6.50
  -3   1  -6  120.39    6.30
   3  -1   6  133.49    4.60
   3  -1   6  128.89    6.80
   3  -1   6  133.49    6.50
   3  -1   6  139.79    6.00
  -4   1  -6  103.89    6.50
  -4   1  -6  102.59    6.30
   4  -1   6  100.49    6.60
   4  -1   6  100.19    4.60
   4  -1   6  103.19    5.70
  -5   1  -6  110.49    7.10
  -5   1  -6  107.49    7.00
   5  -1   6  107.19    7.10
   5  -1   6  109.39    7.40
  -6   1  -6  214.18   10.20
  -6   1  -6  258.67   12.00
   6  -1   6  219.78   10.50
  -7   1  -6    3.10    3.80
   7  -1   6    9.30    4.20
  10   0  -6    2.20    3.50
 -10   0   6    4.10    3.80
 -10   0   6   -0.60    3.30
   9   0  -6   -0.80    2.70
  -9   0   6    1.70    3.70
  -9   0   6    2.90    3.00
   8   0  -6   47.20    5.40
  -8   0   6   59.59    7.20
  -8   0   6   41.20    5.00
   7   0  -6  193.68    8.50
  -7   0   6  203.68   10.50
  -7   0   6  192.78    8.40
   6   0  -6  277.77    9.20
  -6   0   6  281.27   11.80
  -6   0   6  271.17    9.30
   5   0  -6   63.89    4.30
  -5   0   6   68.89    6.80
  -5   0   6   58.89    4.20
   4   0  -6   75.19    4.10
  -4   0   6   84.89    6.40
  -4   0   6   83.09    4.40
   3   0  -6  111.39    4.50
  -3   0   6  108.29    6.50
  -3   0   6  110.19    4.60
   2   0  -6  370.86    8.60
  -2   0   6  365.76   11.00
  -2   0   6  369.36    8.80
  -2   0   6  368.96    8.30
   1   0  -6   50.29    3.10
   1   0  -6   52.19    3.40
  -1   0   6   45.00    4.20
  -1   0   6   46.20    3.10
  -1   0   6   58.19    3.10
   0   0  -6  218.48    6.60
   0   0  -6  213.78    6.20
   0   0   6  212.18    6.70
   0   0   6  226.48    6.60
   0   0   6  209.88    6.20
   0   0   6  221.48    7.30
  -1   0  -6  161.78    5.80
  -1   0  -6  163.88    6.10
   1   0   6  159.48    6.00
   1   0   6  162.38    5.70
   1   0   6  152.98    6.10
   1   0   6  161.58    5.30
   1   0   6  162.08    4.90
  -2   0  -6   -2.60    1.50
  -2   0  -6    0.70    2.00
   2   0   6    2.20    1.30
   2   0   6    1.20    2.00
   2   0   6    3.90    2.10
   2   0   6    1.50    1.50
   2   0   6    0.20    1.30
  -3   0  -6    2.70    2.50
  -3   0  -6    1.80    2.00
   3   0   6    1.50    1.70
   3   0   6   -0.80    2.20
   3   0   6    8.20    3.20
  -4   0  -6   16.80    3.80
  -4   0  -6   10.20    3.30
   4   0   6   12.10    3.10
   4   0   6   13.60    2.60
  -5   0  -6  184.18    9.10
   5   0   6  163.88    8.80
  -6   0  -6   -1.70    3.10
   6   0   6   -1.60    3.10
  -7   0  -6   11.20    4.30
   7   0   6   13.10    4.80
  10  -1  -6   -3.20    3.10
 -10   1   6   -1.40    3.30
 -10   1   6   -1.00    3.70
   9  -1  -6   53.99    6.10
  -9   1   6   63.19    6.40
  -9   1   6   71.09    8.10
   8  -1  -6    7.20    3.10
  -8   1   6    6.30    2.90
  -8   1   6    2.50    3.70
   7  -1  -6  119.99    6.50
  -7   1   6  109.79    6.40
  -7   1   6  105.59    8.20
   6  -1  -6  217.28    7.80
  -6   1   6  218.98    8.00
  -6   1   6  232.48   10.70
   5  -1  -6   -1.70    1.40
  -5   1   6    2.70    2.60
  -5   1   6   -1.50    1.50
   4  -1  -6  199.78    6.10
  -4   1   6  195.78    6.30
  -4   1   6  201.38    9.20
   3  -1  -6    2.30    1.30
  -3   1   6    2.40    1.40
  -3   1   6    3.90    2.60
   2  -1  -6  444.26    9.40
  -2   1   6  451.55    8.50
  -2   1   6  454.95    9.90
  -2   1   6  471.65   12.90
   1  -1  -6   55.89    3.10
  -1   1   6   51.29    3.90
  -1   1   6   54.99    3.20
  -1   1   6   51.89    4.50
  -1   1   6   57.69    2.70
   0  -1  -6   90.29    4.20
   0   1   6   93.59    4.40
   0   1   6   81.69    4.80
   0   1   6   87.59    3.80
   0   1   6   90.79    4.60
  -1  -1  -6   65.29    4.10
   1   1   6   59.59    4.10
   1   1   6   61.49    3.80
   1   1   6   63.69    3.80
   1   1   6   58.99    4.00
  -2  -1  -6  546.65   13.20
   2   1   6  528.05   12.60
   2   1   6  526.75   13.40
   2   1   6  541.65   10.60
   2   1   6  537.75   13.10
  -3  -1  -6   30.50    3.80
   3   1   6   42.40    4.10
   3   1   6   33.70    4.20
  -4  -1  -6   38.50    4.50
   4   1   6   44.00    4.40
   4   1   6   42.00    5.20
  -5  -1  -6    1.50    3.00
   5   1   6    4.90    2.50
   5   1   6    0.70    3.00
  -6  -1  -6   -2.00    3.20
   6   1   6    3.00    3.50
  -7  -1  -6  104.09    9.10
   7   1   6   94.49    9.00
  10  -2  -6   68.49    7.10
 -10   2   6   67.79    8.30
 -10   2   6   67.09    7.00
   9  -2  -6   27.10    4.50
  -9   2   6   30.50    4.80
  -9   2   6   35.50    6.40
   8  -2  -6    9.10    3.00
  -8   2   6    3.80    3.90
  -8   2   6    5.40    2.90
   7  -2  -6   19.10    3.30
  -7   2   6   19.60    3.20
  -7   2   6   20.20    4.60
   6  -2  -6   96.19    5.00
  -6   2   6   97.19    5.20
  -6   2   6   97.99    7.80
  -5   2   6   91.39    4.40
  -5   2   6   92.59    7.20
   4  -2  -6    2.40    1.40
  -4   2   6   -3.30    2.50
  -4   2   6    2.20    1.50
   3  -2  -6   99.39    3.60
   3  -2  -6  105.39    5.40
  -3   2   6  108.99    6.80
  -3   2   6  107.09    3.80
  -3   2   6  110.19    4.00
   2  -2  -6    0.80    1.00
   2  -2  -6    1.60    1.10
  -2   2   6   -3.70    1.80
  -2   2   6   -0.50    1.10
  -2   2   6    1.40    2.10
  -2   2   6    0.70    1.20
   1  -2  -6   39.30    2.70
  -1   2   6   43.80    4.30
  -1   2   6   40.50    2.90
  -1   2   6   40.40    3.90
  -1   2   6   45.10    2.90
   0  -2  -6  225.18    6.60
   0   2   6  235.58    5.80
   0   2   6  227.18    6.90
   0   2   6  224.08    7.90
   0   2   6  219.88    8.60
   0   2   6  231.48    7.90
  -1  -2  -6   15.10    2.50
   1   2   6   14.50    2.80
   1   2   6   20.10    3.40
   1   2   6   17.00    2.80
   1   2   6   18.50    2.70
   1   2   6   13.10    2.20
  -2  -2  -6  170.78    7.00
   2   2   6  169.88    7.10
   2   2   6  159.88    6.40
   2   2   6  164.68    7.60
   2   2   6  170.58    7.20
  -3  -2  -6    9.90    2.90
   3   2   6    4.80    2.60
   3   2   6    7.00    2.90
   3   2   6    7.20    2.70
  -4  -2  -6   17.30    3.70
   4   2   6   14.30    3.60
   4   2   6   17.40    3.50
  -5  -2  -6    0.70    3.00
   5   2   6    6.50    2.80
   5   2   6    2.80    3.20
  -6  -2  -6    3.00    3.70
   6   2   6   10.20    4.10
   9  -3  -6   53.99    5.60
  -9   3   6   69.09    8.50
  -9   3   6   61.79    6.00
   8  -3  -6   90.69    6.00
  -8   3   6   80.49    8.50
  -8   3   6   91.69    6.00
   7  -3  -6    0.20    2.00
  -7   3   6    1.30    1.90
  -7   3   6    0.40    3.20
   6  -3  -6  108.99    5.00
  -6   3   6  106.89    8.20
  -6   3   6  116.49    5.30
   5  -3  -6   26.30    2.50
  -5   3   6   27.60    2.70
  -5   3   6   28.60    5.10
   4  -3  -6  532.75   10.20
  -4   3   6  514.55   15.90
  -4   3   6  531.45   10.60
   3  -3  -6   30.80    2.00
   3  -3  -6   29.30    2.90
  -3   3   6   34.80    4.90
  -3   3   6   34.70    2.30
  -3   3   6   28.60    2.10
   2  -3  -6   45.20    2.30
  -2   3   6   42.60    5.00
  -2   3   6   41.10    2.60
  -2   3   6   44.70    2.50
  -2   3   6   45.80    5.00
   1  -3  -6    1.80    1.30
  -1   3   6    4.00    2.60
  -1   3   6    4.10    2.50
  -1   3   6    3.80    1.50
  -1   3   6    5.30    2.60
   0  -3  -6    4.90    1.70
   0   3   6    4.40    2.30
   0   3   6    4.40    1.70
   0   3   6    5.80    2.50
   0   3   6    5.00    2.70
  -1  -3  -6  329.57    9.20
   1   3   6  329.67   10.70
   1   3   6  326.47   11.20
   1   3   6  339.77    9.60
   1   3   6  330.37    9.30
   1   3   6  330.97    7.90
  -2  -3  -6  161.88    7.00
   2   3   6  143.59    7.40
   2   3   6  160.68    8.00
   2   3   6  156.68    6.10
   2   3   6  152.58    7.00
  -3  -3  -6    5.10    2.70
   3   3   6   14.10    3.40
   3   3   6   10.90    3.10
   3   3   6   14.50    3.40
  -4  -3  -6   93.19    6.90
   4   3   6  104.09    6.90
   4   3   6   87.09    6.80
   4   3   6   91.19    6.70
  -5  -3  -6   -0.10    3.20
   5   3   6    6.40    3.50
   5   3   6   -1.30    2.70
  -6  -3  -6   -1.40    3.50
   6   3   6    0.40    3.30
   9  -4  -6    6.50    3.20
  -9   4   6    8.10    4.60
  -9   4   6    7.70    3.20
   8  -4  -6    7.80    2.80
  -8   4   6    8.50    4.40
  -8   4   6    4.30    2.40
   7  -4  -6   14.60    2.70
  -7   4   6   11.00    2.50
  -7   4   6   14.90    4.80
   6  -4  -6   70.99    4.00
  -6   4   6   77.39    7.90
  -6   4   6   66.29    4.00
   5  -4  -6   43.30    2.70
  -5   4   6   43.40    6.00
  -5   4   6   37.20    2.70
   4  -4  -6  109.79    3.30
  -4   4   6  103.69    7.60
  -4   4   6  109.39    3.40
   3  -4  -6   70.39    2.20
  -3   4   6   70.19    2.60
  -3   4   6   70.89    2.50
  -3   4   6   77.09    6.40
  -3   4   6   77.29    7.00
   2  -4  -6  147.29    3.90
  -2   4   6  149.49    4.30
  -2   4   6  168.78    8.20
  -2   4   6  154.38    7.90
  -2   4   6  155.48    8.00
   1  -4  -6   17.60    2.00
  -1   4   6   20.50    2.20
  -1   4   6   20.90    3.80
  -1   4   6   20.50    3.60
  -1   4   6   18.60    3.70
   0  -4  -6  181.58    6.00
   0   4   6  180.88    7.80
   0   4   6  182.58    8.70
   0   4   6  179.38    8.40
   0   4   6  176.78    6.20
  -1  -4  -6   36.10    3.60
   1   4   6   37.20    5.00
   1   4   6   38.80    3.80
   1   4   6   40.00    4.90
  -2  -4  -6   11.10    2.90
   2   4   6    5.70    2.40
   2   4   6    6.90    2.00
   2   4   6    8.10    3.20
   2   4   6    4.10    3.00
  -3  -4  -6  122.19    7.00
   3   4   6  114.29    7.60
   3   4   6  103.79    5.70
   3   4   6  111.39    6.80
   3   4   6  110.29    7.50
  -4  -4  -6  134.69    8.20
   4   4   6  138.79    8.70
   4   4   6  141.29    8.20
   4   4   6  151.58    8.50
  -5  -4  -6    4.40    3.50
   5   4   6    4.40    3.60
   5   4   6   11.50    4.10
   5   4   6    2.30    3.20
   9  -5  -6   26.70    4.20
  -9   5   6   33.10    4.30
  -9   5   6   24.60    6.20
   8  -5  -6   24.40    3.60
  -8   5   6   26.70    3.50
  -8   5   6   30.60    6.30
   7  -5  -6    6.40    2.10
  -7   5   6    9.40    4.20
  -7   5   6    5.60    2.10
   6  -5  -6  110.39    4.50
  -6   5   6  108.69    8.80
  -6   5   6  120.59    4.40
   5  -5  -6    2.00    1.10
  -5   5   6   -0.20    1.00
  -5   5   6    0.20    3.60
  -4   5   6    2.60    3.20
  -3   5   6   13.40    3.90
  -3   5   6    9.50    3.70
  -3   5   6    3.20    3.10
   2  -5  -6   21.50    1.70
  -2   5   6   20.10    4.30
  -2   5   6   25.10    4.50
  -2   5   6   24.50    1.90
  -2   5   6   24.70    4.60
   1  -5  -6   81.19    3.70
  -1   5   6   79.39    7.00
  -1   5   6   84.29    6.40
  -1   5   6   70.79    6.40
  -1   5   6   72.69    3.60
   0  -5  -6  233.88    7.40
   0   5   6  239.58   10.50
   0   5   6  261.17    7.70
   0   5   6  254.47   10.70
  -1  -5  -6    7.50    2.50
   1   5   6    3.70    3.30
   1   5   6    4.50    2.20
   1   5   6    3.40    3.10
  -2  -5  -6    0.70    2.30
   2   5   6    0.90    2.90
   2   5   6   -1.70    2.10
   2   5   6    0.80    2.80
  -3  -5  -6    6.90    3.10
   3   5   6    0.10    3.10
   3   5   6   -0.60    2.40
   3   5   6    0.20    2.50
   3   5   6    3.30    3.20
  -4  -5  -6   66.69    6.70
   4   5   6   62.99    6.90
   4   5   6   63.79    5.10
   4   5   6   77.49    7.20
   4   5   6   66.19    7.40
   8  -6  -6    2.40    2.30
  -8   6   6    6.70    2.30
  -8   6   6   -1.40    4.00
   7  -6  -6    8.30    2.20
  -7   6   6   11.10    4.70
  -7   6   6    6.90    1.90
   6  -6  -6  101.79    4.10
  -6   6   6  102.69    3.50
  -6   6   6   92.39    9.20
  -5   6   6  105.79    8.80
  -4   6   6    5.60    3.50
  -4   6   6    8.00    4.10
  -3   6   6    6.30    3.50
  -3   6   6   -0.40    3.20
  -3   6   6    4.10    3.40
   2  -6  -6   73.09    3.00
  -2   6   6   71.09    6.80
  -2   6   6   82.09    7.10
  -2   6   6   72.19    2.70
  -2   6   6   73.69    7.00
   1  -6  -6  444.76   10.00
  -1   6   6  443.66   15.00
  -1   6   6  448.46   15.10
  -1   6   6  459.45   10.00
   0  -6  -6   22.20    3.00
   0   6   6   23.50    4.60
   0   6   6   25.40    3.00
   0   6   6   31.40    5.40
  -1  -6  -6   28.90    3.70
   1   6   6   35.20    5.50
   1   6   6   31.80    3.80
   1   6   6   29.60    5.30
  -2  -6  -6    2.00    2.60
   2   6   6    0.00    2.40
   2   6   6   -5.00    2.60
   2   6   6    2.90    3.60
  -3  -6  -6   18.30    4.10
   3   6   6   24.60    5.30
   3   6   6    9.20    4.20
   3   6   6   13.50    3.80
   8  -7  -6    4.50    2.30
  -8   7   6    5.70    2.20
  -8   7   6   -1.00    4.50
   7  -7  -6    0.00    1.60
  -7   7   6   -2.80    4.00
  -7   7   6    1.00    1.70
   6  -7  -6   27.80    2.40
  -6   7   6   29.20    6.10
  -5   7   6    7.60    4.20
  -4   7   6   37.60    6.20
  -4   7   6   40.80    5.90
  -4   7   6   52.69    7.00
  -3   7   6   11.40    4.50
  -3   7   6    8.40    3.80
  -3   7   6    2.80    3.60
   2  -7  -6  135.89    4.40
  -2   7   6  135.79    9.20
  -2   7   6  144.29    3.60
  -2   7   6  137.69    9.00
   1  -7  -6    0.50    1.60
  -1   7   6   -1.80    2.90
  -1   7   6   -2.00    3.10
  -1   7   6   -1.40    1.40
   0  -7  -6   10.50    2.60
   0   7   6   19.20    2.90
   0   7   6   16.50    4.70
   0   7   6   12.20    4.10
  -1  -7  -6   32.60    4.10
   1   7   6   42.20    6.30
   1   7   6   39.00    4.20
   1   7   6   40.10    6.30
  -2  -7  -6    0.50    2.80
   2   7   6    5.60    3.90
   2   7   6    2.30    3.80
   2   7   6   -1.80    2.40
  -7   8   6    3.50    5.10
  -6   8   6    0.70    4.40
  -5   8   6  192.08   11.10
  -5   8   6  207.38   12.80
  -4   8   6   26.60    6.00
  -4   8   6   19.00    4.70
  -3   8   6  102.99    8.80
  -3   8   6  108.49    9.10
   2  -8  -6   -0.60    1.40
  -2   8   6    0.80    3.60
  -2   8   6    4.60    3.90
   1  -8  -6   37.90    3.60
  -1   8   6   40.00    6.10
  -1   8   6   42.90    6.70
  -1   8   6   43.30    3.20
   0  -8  -6    5.80    2.40
   0   8   6    0.80    3.50
   0   8   6    3.80    2.10
   0   8   6    3.40    3.90
  -1  -8  -6    0.10    2.60
   1   8   6   -5.70    3.10
   1   8   6    1.20    2.40
   1   8   6    4.50    4.10
  -5   9   6   39.80    6.60
  -4   9   6  132.99   10.70
  -4   9   6  143.79   10.30
  -3   9   6   53.49    7.70
  -3   9   6   41.20    6.80
   2  -9  -6    4.00    2.40
  -2   9   6    7.40    4.50
  -2   9   6    4.40    4.20
   1  -9  -6   10.40    2.60
  -1   9   6   14.90    2.50
  -1   9   6   13.60    4.90
  -1   9   6   11.30    4.70
   2  12  -7    0.00    3.40
   2  12  -7    0.70    3.60
   2  12  -7    0.90    3.50
  -2 -12   7   -4.20    3.20
  -2 -12   7    3.50    3.70
   1  12  -7   30.80    5.60
   1  12  -7   27.70    5.60
  -1 -12   7   23.10    5.10
  -1 -12   7   19.00    5.00
   0  12  -7    3.80    3.70
   0 -12   7   -2.00    3.20
   0 -12   7    1.70    3.20
  -1  12  -7   20.50    4.80
  -1  12  -7    5.80    3.70
   1 -12   7   13.10    4.40
   1 -12   7   15.60    4.40
  -2  12  -7   14.80    4.70
  -2  12  -7    3.90    3.50
   2 -12   7    7.10    3.90
   2 -12   7    5.60    3.70
  -3  12  -7   10.70    4.30
  -3  12  -7    4.80    3.30
   3 -12   7    7.10    3.60
   3 -12   7    2.20    3.40
   3  11  -7   73.09    7.70
   3  11  -7   85.39    8.40
  -3 -11   7   81.59    7.70
  -3 -11   7   90.79    9.20
   2  11  -7   56.59    7.20
   2  11  -7   60.19    6.70
  -2 -11   7   63.69    7.60
  -2 -11   7   72.49    7.30
   1  11  -7    0.80    3.40
   1  11  -7    2.30    2.90
  -1 -11   7   -5.40    2.30
  -1 -11   7    5.50    3.50
   0  11  -7   21.50    4.80
   0 -11   7   23.30    5.20
   0 -11   7   23.40    4.60
  -1  11  -7   21.60    4.90
   1 -11   7   19.20    4.50
   1 -11   7   20.40    4.50
  -2  11  -7   70.39    7.20
   2 -11   7   63.39    6.60
   2 -11   7   64.19    7.20
  -3  11  -7  205.78   10.70
   3 -11   7  208.48   10.90
   3 -11   7  224.08   10.90
  -4  11  -7   63.29    7.50
   4 -11   7   59.79    6.80
   4 -11   7   70.79    7.60
  -5  11  -7    6.60    4.20
   5 -11   7   -2.40    3.20
   5 -11   7   -2.10    3.40
   5  10  -7    1.30    3.70
   5  10  -7   -0.10    3.70
  -5 -10   7    2.60    3.70
   4  10  -7  185.58   10.70
   4  10  -7  171.68   10.70
  -4 -10   7  151.28   10.30
  -4 -10   7  161.88    9.70
   3  10  -7  136.39    9.20
   3  10  -7  131.99    8.80
  -3 -10   7  156.38    9.20
  -3 -10   7  127.29    9.30
   2  10  -7   83.19    6.90
   2  10  -7   62.79    6.90
  -2 -10   7   82.99    8.20
  -2 -10   7   90.49    7.60
   1  10  -7   71.09    6.30
   1  10  -7   66.59    7.00
  -1 -10   7   62.79    7.00
  -1 -10   7   68.29    6.70
   0  10  -7    3.20    3.30
   0  10  -7    9.40    4.60
   0 -10   7    3.20    2.90
   0 -10   7    1.50    3.00
  -1  10  -7   14.20    4.00
   1 -10   7    6.20    3.30
   1 -10   7    5.40    3.20
  -2  10  -7   49.30    6.10
   2 -10   7   30.20    4.80
   2 -10   7   47.80    6.10
  -3  10  -7    1.10    3.10
   3 -10   7    4.00    3.10
   3 -10   7    1.10    3.20
  -4  10  -7   11.00    4.10
   4 -10   7    7.90    3.80
   4 -10   7   11.90    3.90
  -5  10  -7   37.80    5.70
   5 -10   7   38.00    5.80
   5 -10   7   47.30    6.50
  -6  10  -7   -0.40    3.80
   6 -10   7   -2.70    3.10
   6 -10   7    7.60    3.90
   6   9  -7   -1.10    3.30
  -6  -9   7   -0.40    3.70
   5   9  -7   39.30    6.00
   5   9  -7   36.80    6.70
  -5  -9   7   30.70    5.40
   4   9  -7   15.20    4.50
   4   9  -7   18.00    4.90
  -4  -9   7   25.70    4.60
  -4  -9   7   27.50    5.30
   3   9  -7  590.24   17.70
   3   9  -7  589.94   17.50
  -3  -9   7  582.04   19.00
  -3  -9   7  572.54   18.10
  -3  -9   7  608.44   17.30
   2   9  -7  103.89    7.50
   2   9  -7  116.99    7.20
  -2  -9   7  100.49    6.80
  -2  -9   7  101.29    7.70
  -2  -9   7  104.29    7.30
   1   9  -7  167.38    7.80
   1   9  -7  171.78    9.00
  -1  -9   7  181.68    8.50
  -1  -9   7  167.38    8.60
  -1  -9   7  162.58    9.20
   0   9  -7   49.30    4.50
   0   9  -7   40.70    5.10
   0  -9   7   46.20    5.70
   0  -9   7   49.20    6.10
   0  -9   7   44.10    5.20
  -1   9  -7   11.10    3.70
   1  -9   7    3.20    2.80
   1  -9   7   10.80    3.40
  -2   9  -7  117.69    7.60
   2  -9   7  117.99    7.80
   2  -9   7  114.99    7.50
  -3   9  -7  301.47   11.90
   3  -9   7  293.87   11.60
   3  -9   7  317.37   12.80
  -4   9  -7  209.58   10.40
   4  -9   7  211.18   10.60
   4  -9   7  205.18   10.00
  -5   9  -7   -1.10    3.50
   5  -9   7    0.20    3.30
   5  -9   7    3.70    3.30
  -6   9  -7   -0.80    3.60
   6  -9   7    3.50    3.50
   6  -9   7    1.00    3.40
   7   8  -7   -5.70    2.90
   6   8  -7   37.30    6.20
  -6  -8   7   34.10    5.40
  -6  -8   7   32.00    5.40
   5   8  -7    6.00    3.40
   5   8  -7    2.60    2.90
  -5  -8   7   -1.70    3.10
  -5  -8   7    8.20    3.40
   4   8  -7   12.30    4.00
   4   8  -7   14.80    3.70
  -4  -8   7   13.30    4.10
  -4  -8   7    9.70    3.30
  -4  -8   7   11.60    3.60
   3   8  -7   98.79    7.20
   3   8  -7   83.59    6.30
  -3  -8   7   91.89    6.80
  -3  -8   7   84.09    7.00
  -3  -8   7   93.69    6.70
   2   8  -7    6.40    2.90
   2   8  -7   10.50    3.30
   2   8  -7   -2.90    2.20
  -2  -8   7    4.20    3.00
  -2  -8   7    6.20    2.90
  -2  -8   7    6.00    3.00
   1   8  -7   34.80    4.00
   1   8  -7   29.30    4.50
   1   8  -7   40.40    4.50
  -1  -8   7   39.10    4.90
  -1  -8   7   39.90    4.60
  -1  -8   7   29.70    4.60
   0   8  -7   20.00    3.30
   0   8  -7   17.90    3.70
   0   8  -7   17.90    2.90
   0  -8   7   14.80    3.30
   0  -8   7   19.00    3.80
   0  -8   7   19.90    3.70
  -1   8  -7  238.68    8.80
  -1   8  -7  227.18    9.70
   1  -8   7  214.28    9.00
   1  -8   7  239.28   10.20
   1  -8   7  235.28    9.50
  -2   8  -7   42.60    4.50
  -2   8  -7   33.80    4.90
   2  -8   7   34.20    5.20
   2  -8   7   36.10    4.50
   2  -8   7   32.80    4.30
  -3   8  -7   73.59    6.90
   3  -8   7   76.59    6.70
   3  -8   7   82.29    7.40
   3  -8   7   62.79    5.90
  -4   8  -7    1.70    3.20
   4  -8   7    3.20    3.20
   4  -8   7    4.90    3.10
  -5   8  -7   -0.30    3.30
   5  -8   7    2.70    3.30
   5  -8   7   -1.90    2.90
  -6   8  -7   77.69    8.00
   6  -8   7   68.79    7.40
   6  -8   7   85.49    8.70
  -7   8  -7    2.00    4.10
   7  -8   7    9.10    4.40
   7  -8   7    1.40    3.90
   7   7  -7   10.90    4.10
   7   7  -7   16.10    4.60
  -7  -7   7    6.30    3.60
   6   7  -7  136.69    8.50
   6   7  -7  140.99    8.80
  -6  -7   7  150.58    9.20
  -6  -7   7  146.99    8.60
   5   7  -7    3.60    3.30
   5   7  -7    7.30    3.20
  -5  -7   7    4.60    3.10
  -5  -7   7    1.20    3.10
  -5  -7   7    7.20    3.20
   4   7  -7    2.50    3.00
   4   7  -7   -1.80    2.30
  -4  -7   7    6.40    2.90
  -4  -7   7    5.00    3.20
  -4  -7   7    1.80    2.30
   3   7  -7  150.28    8.20
   3   7  -7  148.39    7.50
  -3  -7   7  152.48    8.30
  -3  -7   7  162.08    7.80
  -3  -7   7  150.08    7.80
   2   7  -7   46.10    5.20
   2   7  -7   36.50    4.30
  -2  -7   7   49.30    5.00
  -2  -7   7   47.80    5.40
  -2  -7   7   35.70    4.30
   1   7  -7   -1.10    1.90
   1   7  -7   -3.80    2.10
   1   7  -7   -2.30    1.80
  -1  -7   7   -2.40    2.20
  -1  -7   7    0.70    2.20
  -1  -7   7    2.00    2.40
   0   7  -7   -0.90    1.50
   0   7  -7    0.10    2.10
   0   7  -7    3.80    2.80
   0  -7   7   -3.30    2.10
   0  -7   7   -0.20    1.90
   0  -7   7    1.20    2.40
  -1   7  -7  942.91   21.60
  -1   7  -7  941.11   20.40
   1  -7   7  944.11   21.10
   1  -7   7  942.91   21.10
   1  -7   7  901.21   21.80
  -2   7  -7   32.10    4.60
  -2   7  -7   31.70    4.00
   2  -7   7   40.00    5.20
   2  -7   7   32.30    4.20
   2  -7   7   31.80    4.20
  -3   7  -7   98.09    6.10
  -3   7  -7   96.99    6.90
   3  -7   7   84.99    6.20
   3  -7   7   99.99    6.50
   3  -7   7   95.29    7.00
  -4   7  -7   11.60    3.50
  -4   7  -7    7.90    3.10
   4  -7   7    7.60    3.10
   4  -7   7   15.90    4.10
   4  -7   7    6.70    3.10
  -5   7  -7   43.30    5.90
   5  -7   7   45.80    6.30
   5  -7   7   44.60    6.10
   5  -7   7   43.70    5.50
  -6   7  -7    6.10    4.30
   6  -7   7    1.10    3.00
   6  -7   7    7.40    3.90
  -7   7  -7   28.50    6.40
   7  -7   7   22.20    4.80
   7  -7   7   24.80    5.60
   8   6  -7   27.90    5.40
  -8  -6   7   30.90    6.10
  -8  -6   7   29.80    6.60
   7   6  -7  187.28   10.00
   7   6  -7  179.18   10.00
  -7  -6   7  199.88   10.60
   6   6  -7    8.70    3.40
   6   6  -7    6.60    3.10
  -6  -6   7    6.80    3.20
  -6  -6   7    6.50    3.30
   5   6  -7   21.10    4.00
   5   6  -7   13.30    3.80
  -5  -6   7   14.50    3.90
  -5  -6   7   19.60    3.90
  -5  -6   7   29.40    4.60
   4   6  -7   98.49    6.60
   4   6  -7  105.19    6.80
  -4  -6   7  107.89    6.50
  -4  -6   7  106.69    6.90
  -4  -6   7   94.09    6.90
   3   6  -7    3.60    2.60
   3   6  -7   -1.20    2.20
  -3  -6   7   -1.60    2.30
  -3  -6   7    2.40    2.40
  -3  -6   7    3.10    2.50
  -2  -6   7  169.58    7.40
  -2  -6   7  152.58    7.50
   1   6  -7    4.90    2.10
   1   6  -7    3.30    2.40
   1   6  -7    0.20    2.00
  -1  -6   7    2.40    2.20
  -1  -6   7    3.20    2.40
  -1  -6   7    3.00    2.20
   0   6  -7  536.45   10.80
   0   6  -7  531.05   13.80
   0   6  -7  567.64   14.70
   0  -6   7  543.85   14.50
   0  -6   7  542.35   14.00
   0  -6   7  557.94   15.10
  -1   6  -7    8.10    3.00
  -1   6  -7    3.00    2.40
   1  -6   7    4.10    2.40
   1  -6   7    4.50    2.60
   1  -6   7   10.30    3.10
  -2   6  -7  194.78    8.00
  -2   6  -7  186.98    8.40
   2  -6   7  205.18    9.00
   2  -6   7  197.08    8.30
   2  -6   7  184.58    8.10
  -3   6  -7  136.49    7.00
  -3   6  -7  118.59    7.30
   3  -6   7  123.89    7.30
   3  -6   7  129.29    7.20
   3  -6   7  121.69    7.00
  -4   6  -7  116.49    7.50
  -4   6  -7  111.59    6.90
   4  -6   7  124.39    7.20
   4  -6   7  104.09    7.00
   4  -6   7  111.99    7.60
  -5   6  -7   70.49    7.10
  -5   6  -7   61.09    5.80
   5  -6   7   64.49    6.40
   5  -6   7   70.99    7.30
   5  -6   7   69.89    6.80
  -6   6  -7   -4.10    3.00
   6  -6   7   -0.20    3.10
   6  -6   7    1.70    3.20
   6  -6   7    2.10    3.00
  -7   6  -7    6.30    4.40
   7  -6   7   -0.50    3.20
   7  -6   7    0.40    3.40
   8   5  -7    2.50    3.40
  -8  -5   7    1.90    3.30
  -8  -5   7   -2.10    3.60
   7   5  -7   52.79    6.20
  -7  -5   7   56.39    6.70
   6   5  -7   22.40    4.30
   6   5  -7   29.90    4.70
  -6  -5   7   28.50    5.60
  -6  -5   7   23.40    4.30
   5   5  -7  108.19    6.90
   5   5  -7  121.79    7.10
  -5  -5   7  132.69    7.50
  -5  -5   7  127.99    6.80
   4   5  -7   91.29    6.10
   4   5  -7   91.29    6.10
  -4  -5   7   82.99    5.60
  -4  -5   7   88.49    6.40
  -4  -5   7  104.79    6.50
   3   5  -7   61.69    4.80
   3   5  -7   73.99    5.30
  -3  -5   7   58.59    4.90
  -3  -5   7   71.29    5.50
  -3  -5   7   57.49    5.10
   2   5  -7   40.70    4.40
   2   5  -7   30.90    3.80
  -2  -5   7   36.10    4.30
  -2  -5   7   40.90    4.70
  -2  -5   7   31.10    3.60
   1   5  -7    9.10    2.60
   1   5  -7    8.50    2.40
  -1  -5   7   12.20    2.60
  -1  -5   7   13.80    3.00
  -1  -5   7    9.30    2.60
   0   5  -7   68.69    5.00
   0   5  -7   61.99    4.70
   0   5  -7   70.19    2.70
   0  -5   7   73.29    5.00
   0  -5   7   69.89    5.20
   0  -5   7   75.69    5.20
  -1   5  -7  240.38    8.80
  -1   5  -7  254.07    8.80
   1  -5   7  235.58    9.20
   1  -5   7  254.67    8.70
   1  -5   7  245.88    9.00
  -2   5  -7   52.19    5.20
  -2   5  -7   52.19    4.80
   2  -5   7   63.89    6.00
   2  -5   7   46.70    4.50
   2  -5   7   49.70    5.00
  -3   5  -7   26.30    3.90
  -3   5  -7   13.40    3.40
   3  -5   7   19.90    3.80
   3  -5   7   14.00    3.50
   3  -5   7   19.10    3.40
  -4   5  -7   93.89    6.50
  -4   5  -7   87.29    6.80
   4  -5   7   97.29    6.50
   4  -5   7  101.49    6.80
   4  -5   7   90.39    6.60
  -5   5  -7   15.20    3.80
  -5   5  -7   16.50    4.20
   5  -5   7   18.90    4.40
   5  -5   7   15.70    3.90
   5  -5   7   17.60    3.90
  -6   5  -7    2.70    3.50
  -6   5  -7    6.60    3.30
   6  -5   7   10.30    3.80
   6  -5   7    7.20    3.40
   6  -5   7    1.10    3.50
  -7   5  -7    4.00    3.80
   7  -5   7    0.90    3.50
   7  -5   7    2.10    3.70
   7  -5   7    6.20    3.60
   9   4  -7   -0.50    3.50
  -9  -4   7   -3.20    3.40
  -9  -4   7    3.10    3.80
   8   4  -7   31.00    5.20
  -8  -4   7   38.30    6.40
  -8  -4   7   34.00    5.50
   7   4  -7   13.10    3.70
  -7  -4   7   15.30    4.10
  -7  -4   7   17.30    5.20
   6   4  -7   42.40    5.10
   6   4  -7   37.80    4.80
  -6  -4   7   37.80    4.90
   5   4  -7   48.80    4.90
   5   4  -7   52.69    5.10
  -5  -4   7   58.89    4.90
  -5  -4   7   48.90    5.20
   4   4  -7   86.29    5.80
   4   4  -7   94.79    5.70
  -4  -4   7   93.09    6.00
  -4  -4   7   94.49    6.10
  -4  -4   7  101.59    5.50
   3   4  -7  145.09    6.60
   3   4  -7  130.09    6.40
  -3  -4   7  137.99    6.80
  -3  -4   7  140.49    6.80
  -3  -4   7  130.09    6.00
   2   4  -7    6.20    2.40
   2   4  -7    7.70    2.50
  -2  -4   7    7.70    2.50
  -2  -4   7    9.40    2.30
  -2  -4   7    6.10    2.40
   1   4  -7   50.99    4.40
   1   4  -7   48.20    4.10
  -1  -4   7   56.19    4.50
  -1  -4   7   50.99    3.90
  -1  -4   7   57.69    4.50
   0   4  -7  161.38    6.70
   0   4  -7  150.58    3.40
   0   4  -7  143.39    6.50
   0  -4   7  158.18    7.00
   0  -4   7  148.79    6.20
   0  -4   7  158.68    6.80
  -1   4  -7   61.69    4.70
  -1   4  -7   60.39    4.70
   1  -4   7   59.19    4.90
   1  -4   7   63.39    4.60
   1  -4   7   53.19    4.90
  -2   4  -7   28.10    4.00
  -2   4  -7   24.90    3.60
   2  -4   7   26.90    3.90
   2  -4   7   30.00    4.20
   2  -4   7   23.50    3.40
  -3   4  -7  111.29    6.60
  -3   4  -7  103.79    6.40
   3  -4   7   95.29    6.30
   3  -4   7  112.89    6.30
   3  -4   7  123.19    7.10
  -4   4  -7    9.80    3.10
  -4   4  -7    8.70    3.30
   4  -4   7    7.70    3.20
   4  -4   7   12.90    3.60
   4  -4   7    8.40    3.10
  -5   4  -7    7.20    3.30
  -5   4  -7    3.80    3.30
   5  -4   7   13.60    3.50
   5  -4   7    9.10    3.40
   5  -4   7   12.20    4.00
  -6   4  -7    3.40    3.40
  -6   4  -7   -1.30    2.90
   6  -4   7    0.70    3.00
   6  -4   7    1.60    3.10
   6  -4   7    4.40    3.30
  -7   4  -7    4.50    3.90
  -7   4  -7    2.50    3.90
   7  -4   7    3.30    3.60
   7  -4   7    2.30    3.30
   7  -4   7   -1.30    2.80
   9   3  -7   74.59    7.90
  -9  -3   7   76.49    8.40
  -9  -3   7   79.79    8.20
   8   3  -7   -2.50    2.80
  -8  -3   7    4.20    4.30
  -8  -3   7   -0.50    2.90
   7   3  -7  192.98    9.40
  -7  -3   7  204.08    9.70
  -7  -3   7  200.28   11.10
   6   3  -7   80.69    6.10
  -6  -3   7   84.19    8.10
  -6  -3   7   93.09    6.40
   5   3  -7   36.20    4.00
   5   3  -7   33.10    4.20
  -5  -3   7   34.80    4.40
   4   3  -7    0.30    2.00
  -4  -3   7   -1.30    1.60
  -4  -3   7    2.00    2.10
  -4  -3   7   -0.60    2.00
   3   3  -7  696.23   15.70
   3   3  -7  667.43   15.40
  -3  -3   7  719.73   16.20
  -3  -3   7  700.23   16.10
  -3  -3   7  686.63   14.50
   2   3  -7  540.35   13.00
   2   3  -7  562.04   13.10
  -2  -3   7  535.35   13.50
  -2  -3   7  548.25   13.40
  -2  -3   7  540.45   12.10
   1   3  -7    2.20    1.80
   1   3  -7    0.60    1.80
  -1  -3   7   -0.50    1.40
  -1  -3   7    1.20    1.80
  -1  -3   7   -0.80    1.70
   0   3  -7   77.09    4.70
   0   3  -7   80.29    4.70
   0  -3   7   79.79    4.40
   0  -3   7   70.79    4.80
   0  -3   7   74.69    4.80
  -1   3  -7  129.09    6.20
  -1   3  -7  143.09    6.20
   1  -3   7  128.79    6.30
   1  -3   7  126.79    5.70
   1  -3   7  137.79    6.50
  -2   3  -7  185.88    7.60
  -2   3  -7  177.28    7.50
   2  -3   7  185.58    7.10
   2  -3   7  181.08    7.70
   2  -3   7  174.98    7.80
  -3   3  -7   22.20    3.70
  -3   3  -7   25.20    3.80
   3  -3   7   22.30    3.70
   3  -3   7   20.30    3.30
   3  -3   7   16.20    3.20
  -4   3  -7  339.47   11.50
  -4   3  -7  335.77   11.80
   4  -3   7  342.97   11.10
   4  -3   7  340.27   12.30
   4  -3   7  343.97   11.90
  -5   3  -7    0.10    2.80
  -5   3  -7    2.00    2.50
   5  -3   7   -2.00    2.10
   5  -3   7    0.30    2.40
   5  -3   7   -2.70    2.50
  -6   3  -7    1.50    3.00
  -6   3  -7    1.40    3.20
   6  -3   7    5.10    4.20
   6  -3   7    5.60    3.20
  -7   3  -7    4.80    4.00
  -7   3  -7    2.70    3.60
   7  -3   7    3.50    3.70
   9   2  -7   35.30    5.80
  -9  -2   7   35.00    5.80
  -9  -2   7   38.90    6.60
   8   2  -7  111.69    7.90
  -8  -2   7  104.09    7.60
  -8  -2   7   82.99    8.40
   7   2  -7  104.19    7.10
  -7  -2   7  111.19    8.70
  -7  -2   7  124.79    7.50
   6   2  -7   24.70    3.80
  -6  -2   7   22.40    5.00
  -6  -2   7   28.10    4.20
   5   2  -7   -1.60    1.90
  -5  -2   7    4.10    2.30
  -5  -2   7   -3.10    2.60
   4   2  -7  422.66   11.30
   4   2  -7  421.06   11.00
  -4  -2   7  420.16   11.50
  -4  -2   7  427.66   11.60
   3   2  -7  375.16    9.90
   3   2  -7  390.26   10.40
  -3  -2   7  379.56   10.30
  -3  -2   7  362.76   10.30
  -3  -2   7  355.66    8.60
   2   2  -7  105.79    4.90
   2   2  -7  100.79    5.00
  -2  -2   7   94.69    4.10
  -2  -2   7   87.49    4.90
  -2  -2   7   99.99    5.00
   1   2  -7  127.59    5.50
   1   2  -7  124.59    5.30
  -1  -2   7  128.29    4.70
  -1  -2   7  122.09    5.50
  -1  -2   7  122.39    5.60
   0   2  -7    6.50    2.10
   0   2  -7    5.80    2.20
   0  -2   7    0.80    1.80
   0  -2   7    3.00    2.00
   0  -2   7    2.60    1.50
  -1   2  -7  166.08    6.90
  -1   2  -7  164.58    6.50
   1  -2   7  172.78    6.20
   1  -2   7  174.18    7.10
   1  -2   7  164.78    7.00
  -2   2  -7  195.68    7.80
  -2   2  -7  192.68    7.70
   2  -2   7  212.58    7.30
   2  -2   7  209.38    8.20
   2  -2   7  196.58    8.00
  -3   2  -7    9.70    3.00
  -3   2  -7    7.40    2.80
   3  -2   7    9.20    3.10
   3  -2   7    6.60    2.40
   3  -2   7    5.90    2.70
  -4   2  -7   31.50    4.60
  -4   2  -7   35.60    4.70
   4  -2   7   32.70    4.70
   4  -2   7   32.80    4.10
   4  -2   7   36.30    4.90
  -5   2  -7    0.20    2.80
  -5   2  -7    0.10    2.70
   5  -2   7    2.10    2.70
   5  -2   7    4.80    3.30
  -6   2  -7    3.50    3.50
   6  -2   7    6.10    3.80
  -7   2  -7   36.60    6.00
   7  -2   7   41.80    6.80
   9   1  -7   38.10    5.70
  -9  -1   7   49.60    6.30
  -9  -1   7   45.10    6.90
   8   1  -7   92.29    7.20
  -8  -1   7   75.09    8.10
  -8  -1   7   73.59    6.90
   7   1  -7   10.60    3.30
  -7  -1   7   11.70    3.30
  -7  -1   7   18.10    5.00
   6   1  -7   32.90    4.10
  -6  -1   7   28.30    5.30
  -6  -1   7   39.80    4.50
   5   1  -7 1164.28   22.90
  -5  -1   7 1106.19   23.00
  -5  -1   7 1136.29   26.50
   4   1  -7   43.00    3.90
  -4  -1   7   40.20    3.80
  -4  -1   7   48.10    5.90
   3   1  -7  419.36   10.50
   3   1  -7  441.46   10.80
  -3  -1   7  439.46   10.60
  -3  -1   7  444.16   11.10
  -3  -1   7  446.26   13.70
   2   1  -7   12.90    2.30
   2   1  -7   17.10    2.30
  -2  -1   7   24.70    4.10
  -2  -1   7   16.60    2.50
  -2  -1   7   18.20    2.60
   1   1  -7   43.00    3.60
   1   1  -7   52.19    3.40
  -1  -1   7   44.00    3.70
  -1  -1   7   43.00    2.80
  -1  -1   7   49.60    3.60
   0   1  -7    1.20    1.60
   0   1  -7    0.40    1.80
   0  -1   7    0.20    2.10
   0  -1   7    0.30    1.60
   0  -1   7   -0.60    1.20
   0  -1   7    0.20    1.80
  -1   1  -7  164.58    6.80
  -1   1  -7  177.38    6.70
   1  -1   7  179.18    7.10
   1  -1   7  181.58    7.00
   1  -1   7  182.48    6.80
   1  -1   7  176.78    5.80
  -2   1  -7  135.29    6.70
  -2   1  -7  134.09    6.30
   2  -1   7  141.29    6.70
   2  -1   7  145.29    7.60
   2  -1   7  129.79    4.50
   2  -1   7  138.49    5.30
   2  -1   7  136.49    6.70
  -3   1  -7   35.00    4.20
  -3   1  -7   40.50    4.50
   3  -1   7   35.90    4.60
   3  -1   7   31.10    4.10
  -4   1  -7    3.50    2.80
   4  -1   7    9.30    3.10
   4  -1   7    2.70    2.70
  -5   1  -7   18.20    4.20
   5  -1   7   13.20    4.00
  -6   1  -7   83.09    7.70
   6  -1   7   84.59    8.40
  -7   1  -7   -3.10    3.50
   7  -1   7   -2.50    3.40
   9   0  -7   17.40    4.30
  -9   0   7   17.90    4.20
  -9   0   7   13.50    5.10
   8   0  -7    1.50    2.80
  -8   0   7    2.30    2.80
  -8   0   7   -0.10    3.60
   7   0  -7   56.69    5.30
  -7   0   7   65.19    5.80
  -7   0   7   53.59    6.80
   6   0  -7    0.90    2.00
  -6   0   7    0.40    2.00
  -6   0   7    1.60    3.50
  -5   0   7   13.20    4.10
  -5   0   7   10.20    2.50
   4   0  -7   79.89    4.60
  -4   0   7   81.69    4.60
  -4   0   7   73.59    6.60
   3   0  -7  101.59    4.70
  -3   0   7   93.39    4.60
  -3   0   7   92.79    6.60
  -3   0   7  105.49    4.30
   2   0  -7  514.95   11.50
  -2   0   7  526.75   11.90
  -2   0   7  521.65   11.10
  -2   0   7  527.35   14.50
   1   0  -7  341.47    8.80
  -1   0   7  350.16    9.20
  -1   0   7  329.27    8.40
  -1   0   7  350.46   10.80
   0   0  -7  191.58    6.80
   0   0   7  195.98    7.00
   0   0   7  193.48    6.30
   0   0   7  198.78    6.50
   0   0   7  193.38    7.50
  -1   0  -7  119.99    5.90
   1   0   7  123.09    5.90
   1   0   7  118.79    4.80
   1   0   7  113.59    5.50
   1   0   7  121.59    5.50
  -2   0  -7   26.70    3.60
   2   0   7   25.40    2.70
   2   0   7   25.60    3.50
   2   0   7   28.70    3.70
   2   0   7   24.50    2.90
  -3   0  -7    6.30    2.90
   3   0   7    7.30    2.40
   3   0   7   10.40    2.90
   3   0   7    4.70    2.80
  -4   0  -7   76.99    6.50
   4   0   7   63.29    6.20
   4   0   7   74.89    5.80
  -5   0  -7   27.00    4.90
   5   0   7   27.20    5.00
  -6   0  -7  302.47   12.90
   6   0   7  282.17   12.80
   9  -1  -7    3.50    3.10
  -9   1   7   -1.10    2.80
  -9   1   7    1.00    3.60
   8  -1  -7   54.29    5.60
  -8   1   7   60.59    7.70
  -8   1   7   48.50    5.20
   7  -1  -7    0.30    2.30
  -7   1   7    3.20    2.40
  -7   1   7    0.60    3.20
   6  -1  -7  186.48    7.30
  -6   1   7  176.08    7.20
  -6   1   7  189.78   10.20
   5  -1  -7  480.35   11.50
  -5   1   7  484.15   11.90
  -5   1   7  456.55   15.40
   4  -1  -7   41.70    3.30
  -4   1   7   45.70    3.60
  -4   1   7   44.30    5.60
   3  -1  -7  484.15   10.70
  -3   1   7  491.85   11.10
  -3   1   7  478.65   14.60
   2  -1  -7   38.40    3.00
  -2   1   7   40.00    3.40
  -2   1   7   41.50    2.30
  -2   1   7   49.00    5.30
   1  -1  -7   24.30    2.70
  -1   1   7   27.50    3.70
  -1   1   7   28.40    2.40
  -1   1   7   28.70    3.00
   0  -1  -7  829.22   16.60
   0   1   7  815.12   17.90
   0   1   7  795.92   17.00
   0   1   7  818.42   15.80
   0   1   7  811.22   16.90
  -1  -1  -7  556.14   13.50
   1   1   7  570.54   13.10
   1   1   7  578.64   13.90
   1   1   7  565.64   13.00
   1   1   7  574.54   13.30
  -2  -1  -7   10.90    2.90
   2   1   7   10.00    2.50
   2   1   7   10.70    2.60
   2   1   7   10.40    2.80
  -3  -1  -7   33.30    4.40
   3   1   7   48.40    4.40
   3   1   7   40.40    4.80
   3   1   7   39.10    4.50
  -4  -1  -7   38.20    5.10
   4   1   7   40.40    5.30
   4   1   7   45.80    5.10
  -5  -1  -7   49.30    6.10
   5   1   7   36.10    5.40
  -6  -1  -7  149.19    9.90
   6   1   7  161.18   10.00
   9  -2  -7   73.29    6.70
  -9   2   7   82.29    7.20
  -9   2   7   73.29    8.80
   8  -2  -7   17.50    3.70
  -8   2   7   20.00    5.10
  -8   2   7   22.50    3.80
   7  -2  -7   45.10    4.50
  -7   2   7   56.29    4.90
  -7   2   7   44.00    6.50
   6  -2  -7   29.40    3.40
  -6   2   7   34.40    3.60
  -6   2   7   21.30    4.80
   5  -2  -7   19.90    2.60
  -5   2   7   19.30    4.60
  -5   2   7   17.80    2.60
   4  -2  -7    1.90    1.50
  -4   2   7    3.40    1.60
  -4   2   7   -1.80    2.70
   3  -2  -7   10.30    1.90
  -3   2   7   18.80    4.10
  -3   2   7   11.40    2.00
   2  -2  -7   28.20    2.60
  -2   2   7   25.70    4.30
  -2   2   7   27.40    2.70
   1  -2  -7   -0.40    1.40
  -1   2   7    0.00    2.10
  -1   2   7    1.60    1.60
  -1   2   7   -0.60    2.10
   0  -2  -7    0.10    1.70
   0   2   7    0.50    2.10
   0   2   7    0.20    2.20
   0   2   7    3.00    1.80
   0   2   7   -0.30    1.20
  -1  -2  -7   18.10    3.00
   1   2   7   19.70    3.30
   1   2   7   18.00    3.10
   1   2   7   23.40    3.10
   1   2   7   22.70    2.80
  -2  -2  -7   42.20    4.40
   2   2   7   41.50    4.30
   2   2   7   40.80    4.00
   2   2   7   42.20    4.50
  -3  -2  -7  102.59    6.60
   3   2   7  104.29    6.40
   3   2   7  108.49    6.10
   3   2   7   97.89    6.50
  -4  -2  -7   93.39    7.20
   4   2   7  111.39    6.80
   4   2   7   86.29    6.30
   4   2   7   90.29    6.90
  -5  -2  -7    6.70    3.90
   5   2   7   11.70    4.00
  -6  -2  -7   17.20    5.00
   6   2   7   15.90    4.90
   9  -3  -7   12.00    3.60
  -9   3   7   12.80    3.50
  -9   3   7   15.70    5.20
   8  -3  -7   -3.20    2.20
  -8   3   7    5.00    4.00
  -8   3   7   -0.10    2.10
   7  -3  -7   51.39    4.60
  -7   3   7   63.29    4.60
  -7   3   7   48.70    7.10
   6  -3  -7    7.60    2.10
  -6   3   7    5.70    4.10
  -6   3   7    7.50    2.20
   5  -3  -7   70.99    3.80
  -5   3   7   60.19    6.80
  -5   3   7   67.99    3.80
   4  -3  -7   13.40    1.90
  -4   3   7   12.20    1.90
  -4   3   7   15.60    4.20
   3  -3  -7  163.08    4.80
  -3   3   7  152.28    8.50
  -3   3   7  168.78    5.10
   2  -3  -7   13.10    1.90
  -2   3   7   15.20    2.10
  -2   3   7   10.70    3.40
  -2   3   7   21.40    3.80
   1  -3  -7    9.70    1.90
  -1   3   7    8.70    3.10
  -1   3   7   11.20    2.10
  -1   3   7   14.00    3.30
   0  -3  -7    3.40    2.00
   0   3   7    5.50    2.80
   0   3   7    8.30    2.50
   0   3   7    3.60    2.00
  -1  -3  -7  181.88    7.20
   1   3   7  188.48    9.30
   1   3   7  184.88    7.40
   1   3   7  187.78    5.70
   1   3   7  177.98    8.20
  -2  -3  -7   33.10    4.10
   2   3   7   32.30    3.40
   2   3   7   36.80    4.70
   2   3   7   34.40    4.20
   2   3   7   37.60    5.10
  -3  -3  -7   43.00    5.10
   3   3   7   52.19    5.50
   3   3   7   62.99    4.90
   3   3   7   71.99    6.40
  -4  -3  -7   61.09    6.30
   4   3   7   86.59    7.40
   4   3   7   87.19    6.30
   4   3   7   69.49    7.00
  -5  -3  -7   -0.70    3.20
   5   3   7   -0.80    3.10
   5   3   7    2.00    2.80
   9  -4  -7   41.00    4.90
  -9   4   7   34.80    4.60
  -9   4   7   45.60    7.60
   8  -4  -7    1.40    2.20
  -8   4   7    3.50    2.30
  -8   4   7    7.70    4.50
   7  -4  -7   23.80    3.20
  -7   4   7   24.90    5.50
  -7   4   7   19.70    2.90
   6  -4  -7    4.50    1.80
  -6   4   7    8.40    1.90
  -6   4   7    7.80    4.30
   5  -4  -7  130.79    4.70
  -5   4   7  135.49    9.20
  -5   4   7  136.79    4.60
   4  -4  -7    1.30    1.20
  -4   4   7    3.90    3.20
  -4   4   7    1.60    1.20
   3  -4  -7  222.78    5.50
  -3   4   7  229.08    5.60
  -3   4   7  229.08   10.50
   2  -4  -7   16.70    1.90
  -2   4   7   21.10    4.30
  -2   4   7   16.60    2.00
  -2   4   7   19.00    4.10
   1  -4  -7   57.69    3.60
  -1   4   7   63.19    6.50
  -1   4   7   64.99    6.20
  -1   4   7   66.89    6.20
  -1   4   7   63.79    3.80
   0  -4  -7   71.59    4.40
   0   4   7   63.29    5.40
   0   4   7   73.29    7.00
   0   4   7   74.99    6.00
   0   4   7   75.39    4.60
  -1  -4  -7  107.89    5.90
   1   4   7  121.59    6.10
   1   4   7  119.19    7.90
   1   4   7  116.29    7.40
  -2  -4  -7   81.29    5.90
   2   4   7   73.29    6.80
   2   4   7   81.89    5.90
   2   4   7   83.89    7.20
  -3  -4  -7    6.20    3.00
   3   4   7    7.60    3.60
   3   4   7    6.20    2.40
   3   4   7    2.20    2.90
   3   4   7    8.30    3.40
  -4  -4  -7   17.80    4.30
   4   4   7   25.10    4.70
   4   4   7   23.70    4.80
   4   4   7   21.90    3.70
   8  -5  -7    2.10    2.20
  -8   5   7    1.50    4.30
  -8   5   7   -2.30    1.90
   7  -5  -7   30.20    3.40
  -7   5   7   33.00    6.40
  -7   5   7   34.30    3.20
   6  -5  -7    8.10    1.90
  -6   5   7   13.20    1.90
  -6   5   7   13.90    4.70
   5  -5  -7   25.00    2.20
  -5   5   7   20.30    5.10
  -5   5   7   21.20    1.70
   4  -5  -7   37.40    2.20
  -4   5   7   44.10    6.10
  -4   5   7   41.90    1.70
   3  -5  -7   11.10    1.50
  -3   5   7   12.70    1.30
  -3   5   7   11.30    4.10
  -3   5   7   10.60    3.80
   2  -5  -7   40.90    2.70
  -2   5   7   37.70    5.40
  -2   5   7   48.40    5.90
  -2   5   7   44.50    2.80
  -2   5   7   39.70    5.50
   1  -5  -7    2.30    1.60
  -1   5   7    1.40    2.70
  -1   5   7    1.00    3.10
  -1   5   7    1.00    2.90
  -1   5   7    2.50    1.60
   0  -5  -7   98.59    5.10
   0   5   7   85.89    5.00
   0   5   7   95.99    7.30
   0   5   7   89.39    7.90
  -1  -5  -7  141.99    6.90
   1   5   7  159.98    9.20
   1   5   7  147.19    9.20
   1   5   7  151.98    7.00
  -2  -5  -7    6.70    2.90
   2   5   7    5.70    3.30
   2   5   7    2.70    3.40
   2   5   7    3.10    2.70
  -3  -5  -7  119.29    7.80
   3   5   7  110.39    8.60
   3   5   7  121.09    8.70
   3   5   7  118.59    7.70
   8  -6  -7   50.29    4.60
  -8   6   7   57.99    8.60
  -8   6   7   51.49    4.00
   7  -6  -7   12.50    2.40
  -7   6   7    8.40    4.90
  -7   6   7    7.80    1.70
   6  -6  -7    1.80    1.40
  -6   6   7   -1.40    3.80
   5  -6  -7   10.00    1.70
  -5   6   7   10.60    4.50
  -4   6   7   -2.10    3.10
   3  -6  -7   21.80    1.80
  -3   6   7   18.30    4.80
  -3   6   7   17.80    4.70
  -3   6   7   14.30    4.30
   2  -6  -7    2.90    1.50
  -2   6   7    2.30    1.20
  -2   6   7   -2.90    3.10
  -2   6   7    4.10    3.30
  -2   6   7    6.70    3.60
   1  -6  -7   44.90    3.60
  -1   6   7   45.40    6.30
  -1   6   7   26.90    5.10
  -1   6   7   44.40    3.30
   0  -6  -7  145.69    6.50
   0   6   7  137.49    9.40
   0   6   7  140.89    9.50
   0   6   7  160.38    6.40
  -1  -6  -7    0.40    2.20
   1   6   7    3.40    2.50
   1   6   7   -0.90    3.10
   1   6   7   -2.50    3.20
  -2  -6  -7   72.39    6.20
   2   6   7   68.89    7.60
   2   6   7   72.69    7.90
   2   6   7   62.09    5.80
   7  -7  -7   80.09    4.90
  -7   7   7   78.99    9.90
  -6   7   7   -3.70    3.80
  -5   7   7  210.58   12.60
  -4   7   7   12.00    4.90
  -3   7   7    7.60    4.10
  -3   7   7   10.60    4.50
  -3   7   7   10.70    4.40
   2  -7  -7    4.80    1.70
  -2   7   7   -0.30    3.50
  -2   7   7    2.60    3.70
   1  -7  -7   54.49    4.00
  -1   7   7   46.40    6.60
  -1   7   7   55.39    3.60
  -1   7   7   40.70    6.40
   0  -7  -7    1.10    2.20
   0   7   7    0.60    1.90
   0   7   7    1.90    3.80
   0   7   7    3.20    3.90
  -1  -7  -7   -0.80    2.50
   1   7   7    1.70    4.00
   1   7   7   -0.70    3.40
   1   7   7   -2.60    2.10
  -5   8   7    1.30    4.50
  -4   8   7   48.20    7.10
  -3   8   7  186.28   11.30
  -3   8   7  160.08   11.10
   2  -8  -7  234.08    7.00
  -2   8   7  248.58   12.90
  -2   8   7  252.97   13.20
   1  -8  -7    3.50    2.10
  -1   8   7   -0.70    3.80
  -1   8   7    4.80    4.10
  -1   8   7    1.60    1.60
   1  12  -8   -0.50    3.70
  -1 -12   8   -2.60    3.10
  -1 -12   8    1.80    3.40
   0  12  -8   28.00    5.80
   0 -12   8   27.70    5.50
   0 -12   8   27.70    5.90
  -1  12  -8    6.80    4.30
   1 -12   8   16.10    4.80
   1 -12   8   22.80    5.00
  -2  12  -8   27.60    5.50
   2 -12   8   35.80    6.20
   2 -12   8   42.00    6.30
   3  11  -8   71.99    8.10
   3  11  -8   58.39    6.90
  -3 -11   8   71.79    8.60
  -3 -11   8   67.19    7.40
   2  11  -8   51.59    6.80
  -2 -11   8   50.89    7.10
  -2 -11   8   49.50    6.40
   1  11  -8    5.40    3.60
  -1 -11   8    0.80    3.50
  -1 -11   8    1.60    3.30
   0  11  -8   14.00    4.60
   0 -11   8   16.30    4.10
   0 -11   8   17.40    4.70
  -1  11  -8    6.00    3.80
   1 -11   8   -0.90    3.00
   1 -11   8    4.30    3.40
  -2  11  -8   44.90    6.30
   2 -11   8   25.80    5.10
   2 -11   8   32.80    5.90
  -3  11  -8   98.49    9.00
   3 -11   8  104.59    9.50
   3 -11   8   99.59    8.70
  -4  11  -8   95.49    9.10
   4 -11   8  108.79    8.90
   4 -11   8   93.39    8.60
   4  10  -8   42.50    6.30
   4  10  -8   37.50    6.30
  -4 -10   8   40.00    5.90
  -4 -10   8   39.70    6.50
   3  10  -8   74.99    7.30
   3  10  -8   75.59    7.60
  -3 -10   8   64.39    6.90
  -3 -10   8   61.99    7.30
   2  10  -8    9.40    4.10
   2  10  -8   10.40    3.40
  -2 -10   8    5.40    3.50
  -2 -10   8   -1.50    3.30
   1  10  -8  383.76   14.50
  -1 -10   8  417.26   15.30
  -1 -10   8  412.66   14.40
   0  10  -8   29.90    5.40
   0 -10   8   30.20    5.10
   0 -10   8   37.70    5.30
  -1  10  -8   37.00    5.70
   1 -10   8   37.00    5.40
   1 -10   8   42.70    5.90
  -2  10  -8   10.30    3.90
   2 -10   8   11.90    4.20
   2 -10   8   13.90    4.00
  -3  10  -8   52.49    6.70
   3 -10   8   60.59    6.50
   3 -10   8   50.19    6.50
  -4  10  -8    9.20    4.20
   4 -10   8   11.60    4.40
   4 -10   8    5.90    3.80
  -5  10  -8   80.09    8.20
   5 -10   8   79.59    7.90
   5 -10   8   90.49    9.10
   5   9  -8    4.50    3.80
  -5  -9   8   -5.30    2.90
  -5  -9   8   -1.90    3.20
   4   9  -8    6.20    4.10
   4   9  -8    0.60    3.40
  -4  -9   8    5.90    3.90
  -4  -9   8    3.90    3.20
  -4  -9   8   12.30    3.90
   3   9  -8    1.00    3.40
   3   9  -8    1.40    3.00
  -3  -9   8   -0.10    3.30
  -3  -9   8    2.10    2.80
  -3  -9   8    2.00    3.00
   2   9  -8  682.13   17.50
   2   9  -8  684.03   19.30
  -2  -9   8  659.33   18.30
  -2  -9   8  704.93   18.90
  -2  -9   8  678.43   19.80
   1   9  -8   22.20    4.50
  -1  -9   8   33.30    4.70
  -1  -9   8   34.80    5.10
  -1  -9   8   28.70    5.20
   0   9  -8   53.59    6.30
   0  -9   8   56.59    6.00
   0  -9   8   37.10    5.10
   0  -9   8   41.80    5.80
  -1   9  -8   11.10    3.80
   1  -9   8    9.00    3.50
   1  -9   8   11.40    3.50
   1  -9   8   11.40    3.30
  -2   9  -8    1.60    2.90
   2  -9   8    4.00    3.10
   2  -9   8    0.80    2.90
  -3   9  -8   46.10    6.10
   3  -9   8   60.79    6.40
   3  -9   8   48.00    6.30
  -4   9  -8  227.38   11.30
   4  -9   8  219.68   10.70
   4  -9   8  223.48   11.50
  -5   9  -8  161.38   10.20
   5  -9   8  133.19    9.90
   5  -9   8  124.79    8.70
  -6   9  -8    4.80    4.20
   6  -9   8    3.60    3.70
   6  -9   8   12.60    4.60
   6   8  -8    7.60    5.90
   6   8  -8   13.50    4.70
  -6  -8   8    7.80    4.10
   5   8  -8   25.30    5.00
   5   8  -8   22.00    4.50
  -5  -8   8   18.30    4.60
  -5  -8   8   26.20    4.70
  -5  -8   8   25.80    4.80
   4   8  -8   10.80    3.50
   4   8  -8   10.30    3.40
  -4  -8   8   13.80    3.70
  -4  -8   8    7.30    3.50
  -4  -8   8   10.50    3.80
   3   8  -8    9.60    3.70
   3   8  -8    6.60    3.20
  -3  -8   8    8.40    3.30
  -3  -8   8    6.60    3.40
  -3  -8   8    7.40    3.40
   2   8  -8   20.80    4.00
   2   8  -8   17.30    3.50
   2   8  -8   12.20    3.50
  -2  -8   8   17.90    3.80
  -2  -8   8   13.30    3.60
  -2  -8   8   11.00    3.60
   1   8  -8  212.68    9.70
  -1  -8   8  199.88    9.10
  -1  -8   8  181.28    9.40
  -1  -8   8  203.08    9.00
   0   8  -8   65.39    6.40
   0   8  -8   58.99    5.50
   0  -8   8   63.19    6.00
   0  -8   8   70.89    6.30
   0  -8   8   56.49    6.30
  -1   8  -8   -1.60    2.10
  -1   8  -8   -3.90    2.60
   1  -8   8   -2.00    2.20
   1  -8   8   -0.10    2.60
   1  -8   8    1.70    2.70
  -2   8  -8   82.19    7.30
  -2   8  -8   89.29    6.10
   2  -8   8   90.69    8.00
   2  -8   8   71.09    6.40
   2  -8   8   84.49    6.50
  -3   8  -8  311.67   12.20
   3  -8   8  272.17   11.00
   3  -8   8  270.77   11.10
   3  -8   8  287.97   12.30
  -4   8  -8    9.70    3.80
   4  -8   8    9.60    4.20
   4  -8   8   17.80    4.20
  -5   8  -8    3.60    3.60
   5  -8   8   -1.40    3.10
   5  -8   8    4.50    3.30
  -6   8  -8    7.60    4.50
   6  -8   8    0.50    3.40
   6  -8   8    7.10    4.00
   7   7  -8    3.90    3.50
  -7  -7   8    5.30    4.00
   6   7  -8   57.19    6.40
   6   7  -8   55.29    6.40
  -6  -7   8   59.59    6.90
   5   7  -8   71.89    6.70
   5   7  -8   92.39    7.20
  -5  -7   8   92.89    7.20
  -5  -7   8   81.09    7.50
  -5  -7   8   92.19    7.30
   4   7  -8   -3.20    2.50
   4   7  -8    2.20    2.60
  -4  -7   8   -1.40    2.50
  -4  -7   8    1.10    2.80
  -4  -7   8   -2.60    2.30
   3   7  -8    3.60    2.80
   3   7  -8    1.30    2.50
  -3  -7   8   -0.40    2.50
  -3  -7   8    2.70    2.60
  -3  -7   8    0.20    2.50
   2   7  -8   18.70    3.90
  -2  -7   8   22.30    3.90
  -2  -7   8   18.30    3.80
  -2  -7   8   16.10    3.50
   1   7  -8   29.70    4.00
   1   7  -8   40.40    3.80
   1   7  -8   41.60    5.10
  -1  -7   8   42.20    4.80
  -1  -7   8   31.20    4.50
  -1  -7   8   37.70    5.10
   0   7  -8   25.50    4.30
   0   7  -8   22.80    3.80
   0  -7   8   19.10    3.60
   0  -7   8   29.80    4.40
   0  -7   8   26.20    4.40
  -1   7  -8    0.20    2.40
  -1   7  -8   -0.50    2.30
   1  -7   8    0.40    2.30
   1  -7   8   -1.40    2.40
   1  -7   8    0.40    2.40
  -2   7  -8  514.65   15.30
  -2   7  -8  516.75   14.50
   2  -7   8  520.55   16.20
   2  -7   8  515.45   15.10
   2  -7   8  545.35   15.10
  -3   7  -8   35.30    4.90
  -3   7  -8   35.80    4.70
   3  -7   8   36.80    5.10
   3  -7   8   34.80    5.20
   3  -7   8   41.20    5.10
  -4   7  -8   79.59    7.40
  -4   7  -8   62.59    5.90
   4  -7   8   78.49    7.00
   4  -7   8   61.59    6.70
   4  -7   8   68.79    6.80
  -5   7  -8    3.20    3.60
   5  -7   8   10.40    3.90
   5  -7   8    2.40    3.40
   5  -7   8    1.70    3.10
  -6   7  -8    6.30    4.00
   6  -7   8   19.60    4.80
   6  -7   8   13.30    4.30
   8   6  -8    9.80    4.20
  -8  -6   8    9.70    5.60
  -8  -6   8   13.80    4.60
   7   6  -8    6.30    3.60
  -7  -6   8    3.40    3.70
   6   6  -8   -1.20    2.80
   6   6  -8   -0.70    2.80
  -6  -6   8    1.70    3.20
   5   6  -8  132.49    8.00
   5   6  -8  141.89    8.20
  -5  -6   8  146.59    8.40
  -5  -6   8  127.69    7.30
  -5  -6   8  131.29    8.20
   4   6  -8   32.90    4.50
   4   6  -8   46.60    5.20
  -4  -6   8   33.70    4.40
  -4  -6   8   27.10    4.30
  -4  -6   8   34.60    4.90
   3   6  -8   17.00    3.70
   3   6  -8    7.90    2.90
  -3  -6   8   16.90    3.50
  -3  -6   8   17.60    4.00
  -3  -6   8   10.40    3.10
   2   6  -8   40.70    4.60
   2   6  -8   34.20    4.10
  -2  -6   8   41.60    4.40
  -2  -6   8   41.40    5.00
  -2  -6   8   34.70    4.40
   1   6  -8   15.60    3.30
   1   6  -8   18.70    3.90
   1   6  -8   12.10    2.40
  -1  -6   8   24.00    3.70
  -1  -6   8   12.70    3.00
  -1  -6   8   14.60    3.50
   0   6  -8   29.10    3.90
   0   6  -8   33.10    4.40
   0  -6   8   27.00    3.90
   0  -6   8   37.50    4.60
   0  -6   8   24.70    4.30
  -1   6  -8   15.10    3.30
  -1   6  -8   17.10    3.50
   1  -6   8    8.20    3.10
   1  -6   8   16.60    3.30
   1  -6   8   13.40    3.50
  -2   6  -8    7.10    3.10
  -2   6  -8    5.10    2.70
   2  -6   8    2.30    2.80
   2  -6   8   -0.60    2.40
   2  -6   8    1.30    2.40
  -3   6  -8   61.69    6.40
  -3   6  -8   50.19    5.10
   3  -6   8   56.89    6.40
   3  -6   8   52.59    5.30
   3  -6   8   58.99    6.20
  -4   6  -8    5.10    3.00
  -4   6  -8    0.60    2.90
   4  -6   8    0.00    2.60
   4  -6   8   -1.10    2.60
   4  -6   8   -0.40    2.60
  -5   6  -8    2.40    3.60
  -5   6  -8    0.80    2.80
   5  -6   8    2.30    3.10
   5  -6   8    4.70    3.50
   5  -6   8    6.60    3.40
  -6   6  -8   26.30    5.90
   6  -6   8   30.10    5.10
   6  -6   8   23.00    4.90
   6  -6   8   27.60    5.40
  -7   6  -8   19.50    5.70
   7  -6   8   12.90    4.90
   7  -6   8   13.00    4.40
   8   5  -8   30.70    5.40
  -8  -5   8   21.90    6.20
  -8  -5   8   25.60    5.40
   7   5  -8    2.60    3.20
  -7  -5   8   -6.60    2.80
   6   5  -8   -1.90    2.60
  -6  -5   8    4.70    3.30
   5   5  -8   97.69    6.60
   5   5  -8   86.79    6.60
  -5  -5   8   89.29    6.90
  -5  -5   8  105.39    7.00
   4   5  -8   41.20    4.80
   4   5  -8   39.70    4.90
  -4  -5   8   38.20    4.20
  -4  -5   8   41.30    4.80
  -4  -5   8   54.89    5.80
   3   5  -8  111.09    6.50
   3   5  -8  101.79    6.20
  -3  -5   8  113.29    6.10
  -3  -5   8   95.79    6.10
  -3  -5   8   96.59    6.50
   2   5  -8  465.05   13.10
   2   5  -8  453.35   13.00
  -2  -5   8  462.75   12.30
  -2  -5   8  475.65   13.50
  -2  -5   8  440.16   13.60
   1   5  -8    6.50    2.80
   1   5  -8    4.90    2.50
  -1  -5   8   10.80    2.70
  -1  -5   8    9.20    2.90
  -1  -5   8   10.70    2.90
   0   5  -8    6.20    2.60
   0   5  -8    8.40    2.80
   0  -5   8    9.50    2.90
   0  -5   8    7.70    2.80
   0  -5   8    7.30    2.60
  -1   5  -8    0.40    2.20
  -1   5  -8    0.10    2.30
   1  -5   8   -0.30    2.20
   1  -5   8    1.80    2.40
   1  -5   8   -0.70    2.00
  -2   5  -8   14.40    3.20
  -2   5  -8   17.40    3.50
   2  -5   8   14.50    3.40
   2  -5   8   13.70    3.10
   2  -5   8   12.90    3.30
  -3   5  -8  186.28    8.60
  -3   5  -8  184.68    9.00
   3  -5   8  176.48    9.00
   3  -5   8  180.98    8.90
   3  -5   8  178.28    8.30
  -4   5  -8   48.80    5.90
  -4   5  -8   48.20    5.50
   4  -5   8   56.89    6.30
   4  -5   8   45.60    5.70
   4  -5   8   46.00    5.10
  -5   5  -8   14.70    4.10
  -5   5  -8    2.80    3.80
   5  -5   8    8.00    3.60
   5  -5   8   11.20    3.50
   5  -5   8   11.70    4.00
  -6   5  -8   -2.80    3.10
  -6   5  -8   -2.30    3.60
   6  -5   8    2.30    3.60
   6  -5   8    1.50    3.10
   6  -5   8    1.40    3.40
  -7   5  -8   17.20    5.70
   7  -5   8   13.60    4.80
   7  -5   8   10.90    4.80
   8   4  -8  250.57   11.80
  -8  -4   8  226.08   13.00
  -8  -4   8  249.78   11.90
   7   4  -8   86.89    7.50
  -7  -4   8   89.59    7.70
  -7  -4   8   98.39    9.70
   6   4  -8   46.10    5.50
  -6  -4   8   59.99    6.30
   5   4  -8   -2.90    2.00
  -5  -4   8   -0.90    2.40
  -5  -4   8    0.70    2.50
   4   4  -8  188.78    8.10
  -4  -4   8  185.28    7.90
  -4  -4   8  196.98    8.60
  -4  -4   8  193.48    8.50
   3   4  -8   56.29    4.90
   3   4  -8   68.89    5.20
  -3  -4   8   69.79    5.40
  -3  -4   8   70.19    4.70
  -3  -4   8   59.19    5.20
   2   4  -8   95.19    5.70
   2   4  -8   94.89    5.70
  -2  -4   8   88.29    5.10
  -2  -4   8   83.59    5.60
  -2  -4   8   90.09    5.90
   1   4  -8    4.40    2.30
   1   4  -8    1.30    2.00
  -1  -4   8    1.70    2.10
  -1  -4   8    1.90    2.20
  -1  -4   8    1.40    2.00
   0   4  -8  305.47    9.90
   0   4  -8  309.27   10.00
   0  -4   8  293.77   10.30
   0  -4   8  303.37    9.30
   0  -4   8  307.67   10.20
  -1   4  -8   51.59    5.00
  -1   4  -8   65.89    5.70
   1  -4   8   57.79    4.70
   1  -4   8   67.29    6.00
   1  -4   8   70.49    5.30
  -2   4  -8   83.89    6.00
  -2   4  -8   97.19    6.30
   2  -4   8   82.59    6.10
   2  -4   8   93.79    5.70
   2  -4   8   84.29    6.20
  -3   4  -8   34.40    4.60
  -3   4  -8   39.00    4.80
   3  -4   8   25.60    4.30
   3  -4   8   37.80    4.30
   3  -4   8   39.70    4.80
  -4   4  -8   22.50    4.30
  -4   4  -8   30.70    5.00
   4  -4   8   30.10    4.90
   4  -4   8   26.70    4.70
   4  -4   8   37.30    4.50
  -5   4  -8   27.40    4.90
  -5   4  -8   23.90    4.50
   5  -4   8   21.10    4.60
   5  -4   8   26.20    4.30
   5  -4   8   22.50    4.70
  -6   4  -8   -0.60    3.60
  -6   4  -8    0.80    3.70
   6  -4   8   -0.30    3.10
   6  -4   8   -3.90    3.00
  -7   4  -8    2.90    4.50
   7  -4   8    6.20    4.40
   7  -4   8    6.20    4.40
   9   3  -8    7.30    3.90
  -9  -3   8   -3.20    3.00
  -9  -3   8    4.20    4.10
   8   3  -8  184.98    9.90
  -8  -3   8  190.58   11.90
  -8  -3   8  186.38   10.10
   7   3  -8   13.10    3.80
  -7  -3   8   10.70    4.80
  -7  -3   8   12.30    3.70
   6   3  -8  329.77   11.70
  -6  -3   8  351.96   12.00
  -6  -3   8  343.27   14.30
   5   3  -8    3.40    2.50
  -5  -3   8   -1.30    2.20
   4   3  -8  463.95   12.70
  -4  -3   8  454.85   13.00
  -4  -3   8  439.86   12.80
   3   3  -8  118.79    6.40
   3   3  -8  126.49    6.00
  -3  -3   8  128.79    6.40
  -3  -3   8  124.89    6.50
   2   3  -8  144.99    6.40
   2   3  -8  148.89    6.60
  -2  -3   8  138.09    6.80
  -2  -3   8  156.38    6.90
  -2  -3   8  140.79    5.70
   1   3  -8  112.49    5.90
   1   3  -8  105.39    5.60
  -1  -3   8  115.99    6.10
  -1  -3   8  115.59    6.10
  -1  -3   8  103.29    5.00
   0   3  -8   56.89    4.50
   0   3  -8   35.40    3.90
   0  -3   8   48.20    4.00
   0  -3   8   50.49    4.60
   0  -3   8   47.90    4.70
  -1   3  -8   47.30    4.60
  -1   3  -8   56.59    4.90
   1  -3   8   38.20    4.40
   1  -3   8   46.60    4.20
   1  -3   8   50.89    4.90
  -2   3  -8   46.80    4.80
  -2   3  -8   31.90    4.20
   2  -3   8   36.70    4.00
   2  -3   8   40.50    4.80
   2  -3   8   42.10    4.90
  -3   3  -8  444.56   13.60
  -3   3  -8  472.85   13.80
   3  -3   8  460.75   14.10
   3  -3   8  448.26   12.50
   3  -3   8  416.06   13.70
  -4   3  -8   22.10    4.30
  -4   3  -8   26.60    4.50
   4  -3   8   35.80    5.20
   4  -3   8   19.40    4.10
  -5   3  -8    1.00    4.40
  -5   3  -8   -0.70    3.00
   5  -3   8   -1.90    2.90
   5  -3   8   -1.30    2.80
  -6   3  -8    3.80    3.70
   6  -3   8    1.00    3.30
   6  -3   8    3.60    3.60
   9   2  -8  133.59    9.20
  -9  -2   8  135.99   10.90
  -9  -2   8  107.69    8.40
   8   2  -8   -1.10    2.80
  -8  -2   8    6.80    4.70
  -8  -2   8    8.70    3.50
   7   2  -8    1.30    2.70
  -7  -2   8    1.90    2.60
  -7  -2   8    1.90    3.90
   6   2  -8   10.40    3.10
  -6  -2   8    9.60    4.20
  -6  -2   8    9.30    3.00
   5   2  -8    5.10    2.50
  -5  -2   8    4.30    3.70
  -5  -2   8    8.70    2.80
   4   2  -8  182.78    7.50
  -4  -2   8  188.78    7.60
  -4  -2   8  181.88    9.90
  -4  -2   8  189.48    7.60
   3   2  -8  648.54   15.20
  -3  -2   8  632.74   15.30
  -3  -2   8  658.43   15.00
   2   2  -8    7.40    2.50
   2   2  -8   11.80    2.70
  -2  -2   8   17.50    2.90
  -2  -2   8    7.80    2.40
   1   2  -8  177.38    6.80
   1   2  -8  193.18    7.30
  -1  -2   8  193.88    7.20
  -1  -2   8  192.68    7.50
   0   2  -8    4.20    2.10
   0   2  -8    1.40    2.20
   0  -2   8    1.70    2.10
   0  -2   8    0.10    2.00
  -1   2  -8    0.80    2.30
  -1   2  -8    2.60    2.00
   1  -2   8    2.10    2.40
   1  -2   8    1.20    2.20
  -2   2  -8   14.40    3.20
  -2   2  -8   16.60    3.30
   2  -2   8   16.70    3.50
   2  -2   8   10.50    3.00
  -3   2  -8   13.30    3.60
   3  -2   8    1.90    2.60
   3  -2   8    8.00    3.00
  -4   2  -8   28.70    4.60
   4  -2   8   36.00    5.00
   4  -2   8   32.50    4.80
  -5   2  -8   25.70    4.80
   5  -2   8   17.40    4.40
   5  -2   8   23.00    4.80
  -6   2  -8   57.59    6.80
   6  -2   8   33.50    5.80
   6  -2   8   27.30    5.50
   9   1  -8    4.10    3.40
  -9  -1   8    2.70    3.30
  -9  -1   8    2.90    4.40
   8   1  -8   17.90    4.10
  -8  -1   8   15.20    5.20
  -8  -1   8   10.50    3.80
   7   1  -8   91.39    6.50
  -7  -1   8   95.69    9.30
  -7  -1   8   63.99    6.00
   6   1  -8   45.60    4.80
  -6  -1   8   28.70    5.40
  -6  -1   8   39.30    4.50
   5   1  -8   45.00    4.30
  -5  -1   8   55.79    4.80
  -5  -1   8   46.40    5.90
   4   1  -8 1136.89   23.10
  -4  -1   8 1175.48   27.30
  -4  -1   8 1179.98   23.40
   3   1  -8  164.98    6.70
  -3  -1   8  174.98    6.90
  -3  -1   8  176.08    9.10
  -3  -1   8  172.08    6.40
   2   1  -8    1.80    1.90
  -2  -1   8    4.20    2.10
  -2  -1   8    5.20    3.10
  -2  -1   8    4.50    1.90
   1   1  -8   33.60    3.70
  -1  -1   8   36.70    3.60
  -1  -1   8   40.00    4.80
  -1  -1   8   35.50    3.70
   0   1  -8  744.33   16.70
   0  -1   8  739.23   17.50
   0  -1   8  750.42   16.50
   0  -1   8  763.92   17.20
  -1   1  -8  100.79    6.00
   1  -1   8  101.29    5.80
   1  -1   8  106.19    5.70
   1  -1   8   87.99    5.80
  -2   1  -8   33.90    4.30
   2  -1   8   27.90    3.90
   2  -1   8   36.70    4.70
  -3   1  -8   90.09    6.60
   3  -1   8   80.79    6.00
   3  -1   8   79.59    6.20
  -4   1  -8   29.90    4.90
   4  -1   8   28.20    4.70
   4  -1   8   21.90    4.50
  -5   1  -8   21.90    5.00
   5  -1   8   18.60    4.40
   5  -1   8   14.70    4.30
  -6   1  -8  167.88   10.60
   6  -1   8  159.98   10.20
   6  -1   8  160.08   10.20
   9   0  -8   16.20    4.20
  -9   0   8    9.00    4.80
  -9   0   8   15.40    4.10
   8   0  -8    2.60    2.90
  -8   0   8    0.40    2.70
  -8   0   8    1.60    3.80
   7   0  -8   91.19    6.20
  -7   0   8   64.19    7.50
  -7   0   8   80.39    5.90
   6   0  -8   37.00    4.20
  -6   0   8   33.20    6.20
  -6   0   8   35.50    4.10
   5   0  -8  282.07    9.10
  -5   0   8  273.47    9.10
  -5   0   8  278.47   12.40
   4   0  -8   93.99    5.10
  -4   0   8   94.19    5.30
  -4   0   8   97.89    7.80
   3   0  -8    1.00    1.80
  -3   0   8    1.60    3.20
  -3   0   8    1.00    1.50
  -3   0   8   -0.60    1.70
   2   0  -8   16.50    2.70
  -2   0   8   13.90    2.60
  -2   0   8   15.20    2.30
  -2   0   8   15.10    3.90
   1   0  -8  207.08    7.30
  -1   0   8  202.08    7.40
  -1   0   8  207.08    8.90
  -1   0   8  195.88    6.50
   0   0  -8  207.18    7.50
   0   0   8  197.78    7.50
   0   0   8  198.88    8.10
   0   0   8  189.78    6.90
  -1   0  -8    1.30    2.30
   1   0   8    0.40    1.80
   1   0   8   -2.30    1.70
   1   0   8   -0.10    2.10
   1   0   8   -2.30    1.50
  -2   0  -8    0.00    2.30
   2   0   8   -1.90    2.10
   2   0   8   -0.10    2.00
  -3   0  -8    3.10    2.80
   3   0   8    4.50    2.70
   3   0   8    7.60    3.20
  -4   0  -8    1.40    3.10
   4   0   8    1.70    2.50
   4   0   8    0.00    2.70
  -5   0  -8    8.80    4.00
   5   0   8    1.90    3.50
   5   0   8    4.70    3.30
  -6   0  -8    8.30    4.50
   6   0   8   17.30    4.70
   6   0   8   15.70    4.70
   9  -1  -8   53.89    6.10
  -9   1   8   70.99    9.00
  -9   1   8   42.50    5.40
   8  -1  -8  118.09    7.40
  -8   1   8   90.89    9.40
  -8   1   8  107.39    7.00
   7  -1  -8    2.00    2.20
  -7   1   8    3.80    4.00
  -7   1   8    2.50    2.30
   6  -1  -8   -3.10    1.80
  -6   1   8    4.50    2.30
  -6   1   8   -1.50    2.90
   5  -1  -8   36.00    3.70
  -5   1   8   32.90    3.60
  -5   1   8   29.80    5.10
   4  -1  -8  324.17    8.90
  -4   1   8  315.77    9.00
  -4   1   8  309.37   12.50
   3  -1  -8   22.90    2.80
  -3   1   8   19.00    2.70
  -3   1   8   20.30    4.30
   2  -1  -8   50.19    3.70
  -2   1   8   47.20    2.40
  -2   1   8   47.30    5.40
  -2   1   8   49.00    3.90
   1  -1  -8  159.08    6.20
  -1   1   8  156.18    5.00
  -1   1   8  164.98    6.50
  -1   1   8  163.28    7.90
   0  -1  -8   38.70    3.90
   0   1   8   38.00    3.30
   0   1   8   46.10    4.70
   0   1   8   34.40    3.90
   0   1   8   41.20    4.10
  -1  -1  -8   19.60    3.20
   1   1   8   21.20    3.40
   1   1   8   22.70    3.10
   1   1   8   27.40    3.50
   1   1   8   19.90    3.20
  -2  -1  -8    8.00    2.90
   2   1   8    1.60    2.10
   2   1   8    6.90    2.70
   2   1   8    3.90    2.80
  -3  -1  -8   37.60    5.00
   3   1   8   28.70    4.20
   3   1   8   31.30    4.60
  -4  -1  -8   74.09    6.80
   4   1   8   85.19    7.70
   4   1   8   92.99    6.70
  -5  -1  -8    1.40    3.50
   5   1   8    7.30    3.50
   5   1   8    3.80    3.60
   9  -2  -8   54.79    6.10
  -9   2   8   61.19    8.60
  -9   2   8   51.29    5.60
   8  -2  -8    1.90    2.60
  -8   2   8   -2.70    2.00
  -8   2   8    3.30    3.70
   7  -2  -8    8.90    2.70
  -7   2   8   10.40    2.70
  -7   2   8    8.90    4.70
   6  -2  -8   84.49    5.10
  -6   2   8  100.49    5.30
  -6   2   8   69.99    7.60
   5  -2  -8   -1.10    1.60
  -5   2   8    1.60    3.00
  -5   2   8    2.90    1.70
   4  -2  -8    5.40    1.90
  -4   2   8    1.60    3.20
  -4   2   8    5.00    2.00
   3  -2  -8  112.09    4.80
  -3   2   8  115.69    5.00
  -3   2   8  102.89    7.60
   2  -2  -8   36.30    3.20
  -2   2   8   31.40    4.80
  -2   2   8   31.80    3.10
   1  -2  -8   -2.10    1.50
  -1   2   8    1.40    2.40
  -1   2   8   -0.40    2.30
  -1   2   8    3.70    1.90
   0  -2  -8   40.70    3.90
   0   2   8   45.20    2.80
   0   2   8   54.19    5.10
   0   2   8   45.40    4.20
   0   2   8   51.79    5.00
  -1  -2  -8    2.90    2.20
   1   2   8    0.10    2.30
   1   2   8    0.70    1.70
   1   2   8   -0.90    2.00
  -2  -2  -8   49.10    5.00
   2   2   8   63.29    5.50
   2   2   8   57.49    4.50
   2   2   8   45.00    5.00
  -3  -2  -8    2.70    2.90
   3   2   8    0.10    2.20
   3   2   8    0.30    2.80
  -4  -2  -8    3.50    3.30
   4   2   8    2.30    2.60
   4   2   8    4.40    3.40
  -5  -2  -8    4.10    4.00
   5   2   8    3.30    3.00
   5   2   8   -1.90    3.20
   9  -3  -8    8.30    3.30
  -9   3   8    7.50    4.60
  -9   3   8    6.60    3.10
   8  -3  -8   68.79    5.90
  -8   3   8   48.70    4.90
  -8   3   8   53.49    7.80
   7  -3  -8   17.40    3.20
  -7   3   8    9.80    4.70
  -7   3   8   14.30    2.80
   6  -3  -8   73.29    4.60
  -6   3   8   57.29    7.10
  -6   3   8   67.69    4.40
   5  -3  -8    1.90    1.60
  -5   3   8    0.20    1.50
  -5   3   8   -1.40    3.00
   4  -3  -8  108.59    4.60
  -4   3   8  124.59    8.60
  -4   3   8  109.59    4.50
   3  -3  -8   79.49    3.90
  -3   3   8   70.59    7.20
  -3   3   8   80.19    4.00
   2  -3  -8   12.40    2.20
  -2   3   8    9.90    3.40
  -2   3   8   12.20    2.30
   1  -3  -8    9.50    2.20
  -1   3   8   11.10    2.40
  -1   3   8   14.50    3.60
  -1   3   8    5.90    3.00
   0  -3  -8   11.90    2.70
   0   3   8   18.60    3.50
   0   3   8   17.70    3.00
   0   3   8   13.20    3.40
  -1  -3  -8   17.40    3.20
   1   3   8   19.40    3.80
   1   3   8   13.60    3.00
  -2  -3  -8    7.00    3.00
   2   3   8    4.80    2.70
   2   3   8    7.90    3.30
   2   3   8    5.40    2.10
  -3  -3  -8   35.40    5.00
   3   3   8   36.20    4.10
   3   3   8   39.20    5.20
  -4  -3  -8  107.09    8.20
   4   3   8   99.99    6.70
   4   3   8  106.79    8.10
   8  -4  -8   23.90    3.80
  -8   4   8   23.30    6.20
  -8   4   8   20.50    3.30
   7  -4  -8  175.28    7.10
  -7   4   8  178.78   11.80
  -7   4   8  181.48    6.80
   6  -4  -8  123.19    5.30
  -6   4   8  116.99    9.50
  -6   4   8  126.19    5.10
   5  -4  -8   15.40    2.20
  -5   4   8   14.40    4.40
  -5   4   8   13.40    2.00
   4  -4  -8    2.10    1.40
  -4   4   8    5.20    1.50
  -4   4   8    7.20    3.90
   3  -4  -8   13.20    2.00
  -3   4   8    6.30    3.60
  -3   4   8   10.80    1.90
   2  -4  -8   16.60    2.30
  -2   4   8   16.10    4.10
  -2   4   8   12.30    3.80
  -2   4   8   17.90    2.40
   1  -4  -8   36.40    3.40
  -1   4   8   36.60    4.90
  -1   4   8   43.80    5.50
  -1   4   8   43.70    3.70
   0  -4  -8   62.59    4.60
   0   4   8   76.29    4.80
   0   4   8   64.39    6.40
  -1  -4  -8    5.00    2.60
   1   4   8    3.80    3.20
   1   4   8    8.30    2.80
  -2  -4  -8    3.70    2.80
   2   4   8    0.90    2.40
   2   4   8   -0.90    2.80
  -3  -4  -8  103.59    7.60
   3   4   8  127.19    8.40
   3   4   8  109.09    7.50
   8  -5  -8    8.40    2.90
  -8   5   8    7.20    2.40
  -8   5   8    6.90    5.10
   7  -5  -8    1.00    1.90
  -7   5   8   -1.50    1.50
  -7   5   8    3.50    4.70
   6  -5  -8  145.29    5.50
  -6   5   8  133.89   10.40
  -6   5   8  149.19    4.70
   5  -5  -8   20.90    2.30
  -5   5   8   27.60    5.70
  -5   5   8   21.60    1.70
   4  -5  -8    7.60    1.60
  -4   5   8    7.00    1.10
  -4   5   8   -0.10    3.20
   3  -5  -8    2.80    1.40
  -3   5   8    2.50    1.20
  -3   5   8    5.80    3.60
   2  -5  -8   -1.10    1.50
  -2   5   8   -1.50    2.90
  -2   5   8    0.50    1.40
  -2   5   8   -4.00    2.50
   1  -5  -8   41.50    3.70
  -1   5   8   36.70    5.20
  -1   5   8   38.40    5.60
  -1   5   8   45.80    3.70
   0  -5  -8   11.60    2.80
   0   5   8   10.80    2.70
   0   5   8   17.80    4.60
  -1  -5  -8  205.88    8.60
   1   5   8  199.08    8.40
   1   5   8  211.58   11.40
   1   5   8  214.78   10.80
  -2  -5  -8   10.20    3.50
   2   5   8    6.40    3.00
   2   5   8   10.30    4.10
   7  -6  -8   57.09    4.10
  -7   6   8   47.70    8.00
   6  -6  -8    9.70    2.20
  -6   6   8   19.60    5.90
  -5   6   8   84.69    9.10
  -4   6   8    8.00    4.40
   3  -6  -8   57.19    3.20
  -3   6   8   60.99    7.50
  -3   6   8   64.69    7.90
   2  -6  -8    3.30    1.70
  -2   6   8    2.70    3.30
  -2   6   8    4.10    1.50
  -2   6   8    3.00    3.80
   1  -6  -8    0.90    1.90
  -1   6   8    2.60    1.80
  -1   6   8   -3.80    3.40
  -1   6   8    1.80    3.50
   0  -6  -8   87.49    5.60
   0   6   8   73.69    8.10
   0   6   8   88.39    8.60
   0   6   8   77.79    5.10
  -1  -6  -8   40.50    4.80
   1   6   8   55.49    7.20
   1   6   8   49.90    5.00
   1   6   8   38.80    6.40
  -5   7   8   37.50    7.20
  -4   7   8  192.58   12.20
  -3   7   8    5.80    4.40
  -3   7   8   10.20    4.50
   2  -7  -8   54.49    3.90
  -2   7   8   45.10    7.20
  -2   7   8   56.39    7.60
   1  -7  -8   16.80    2.90
  -1   7   8   13.10    2.40
  -1   7   8    5.70    4.40
  -1   7   8   12.70    4.90
   3  11  -9  383.86   15.60
  -3 -11   9  345.57   15.50
   2  11  -9   59.89    7.60
  -2 -11   9   68.09    7.30
  -2 -11   9   74.69    8.40
   1  11  -9   -4.60    3.30
  -1 -11   9    5.80    3.80
  -1 -11   9    7.20    4.10
   0  11  -9   12.60    4.70
   0 -11   9   19.30    4.80
   0 -11   9   21.50    5.30
  -1  11  -9   -2.40    3.50
   1 -11   9    2.70    3.50
   1 -11   9    7.30    3.80
  -2  11  -9   -2.80    3.00
   2 -11   9    2.00    3.40
   2 -11   9    1.10    3.40
  -3  11  -9   27.20    5.50
   3 -11   9   38.40    6.00
   3 -11   9   43.00    6.90
   4  10  -9    8.80    4.30
   4  10  -9    5.00    4.10
  -4 -10   9    8.20    4.00
  -4 -10   9    1.20    3.80
   3  10  -9    7.30    4.00
  -3 -10   9    0.30    3.20
  -3 -10   9    3.90    3.60
   2  10  -9   15.10    4.60
  -2 -10   9   11.30    4.20
  -2 -10   9   17.60    4.20
   1  10  -9  101.69    8.90
  -1 -10   9   89.09    8.30
  -1 -10   9  101.59    8.40
   0  10  -9   52.69    6.80
   0 -10   9   53.89    6.20
   0 -10   9   60.29    7.50
  -1  10  -9  150.88    9.40
   1 -10   9  145.69    9.60
   1 -10   9  130.59    8.80
  -2  10  -9   10.60    4.30
   2 -10   9    6.50    4.20
   2 -10   9    8.30    3.60
  -3  10  -9    8.60    4.30
   3 -10   9    8.30    3.90
   3 -10   9    7.10    3.60
  -4  10  -9   46.30    6.60
   4 -10   9   53.79    6.70
   4 -10   9   51.29    7.00
   5   9  -9   34.50    6.00
  -5  -9   9   26.80    5.60
  -5  -9   9   34.60    6.10
  -5  -9   9   33.00    5.90
   4   9  -9   29.90    5.40
   4   9  -9   26.80    5.50
  -4  -9   9   29.40    5.60
  -4  -9   9   33.00    5.60
  -4  -9   9   26.90    5.00
   3   9  -9   18.80    4.20
   3   9  -9   19.50    5.60
   3   9  -9   19.20    4.50
  -3  -9   9   22.60    4.90
  -3  -9   9   18.50    4.30
  -3  -9   9   18.30    4.50
   2   9  -9   36.00    5.60
   2   9  -9   25.60    4.60
  -2  -9   9   36.90    5.20
  -2  -9   9   38.60    5.30
  -2  -9   9   33.10    5.70
   1   9  -9  107.09    7.90
   1   9  -9  103.69    7.90
  -1  -9   9  117.29    8.50
  -1  -9   9   98.39    7.40
  -1  -9   9  102.89    7.50
   0   9  -9    2.30    3.70
   0  -9   9    3.60    3.30
   0  -9   9    6.10    3.50
   0  -9   9    4.60    3.20
  -1   9  -9   32.00    5.10
   1  -9   9   39.20    5.50
   1  -9   9   38.80    5.40
   1  -9   9   43.20    5.60
  -2   9  -9    1.80    2.90
   2  -9   9    7.20    3.50
   2  -9   9    7.10    3.70
  -3   9  -9   11.60    4.30
   3  -9   9   10.70    4.20
   3  -9   9    8.10    3.80
  -4   9  -9   45.10    6.40
   4  -9   9   55.99    6.80
   4  -9   9   52.19    6.90
  -5   9  -9   75.29    8.10
   5  -9   9   59.39    7.10
   5  -9   9   92.39    9.40
   6   8  -9   -1.50    3.10
  -6  -8   9   -0.30    3.30
   5   8  -9    3.60    3.80
   5   8  -9    6.60    3.50
  -5  -8   9    7.60    3.80
  -5  -8   9   12.60    4.60
   4   8  -9   92.09    8.30
   4   8  -9   86.59    7.50
  -4  -8   9   73.29    6.90
  -4  -8   9   75.09    7.80
  -4  -8   9   75.99    7.60
   3   8  -9    4.10    3.00
   3   8  -9   -2.50    2.50
  -3  -8   9   -3.40    2.30
  -3  -8   9   -3.30    2.40
  -3  -8   9    5.00    3.40
   2   8  -9   93.39    7.30
   2   8  -9  106.19    7.30
  -2  -8   9   97.59    7.60
  -2  -8   9  105.89    7.30
  -2  -8   9  106.19    7.30
   1   8  -9   20.90    4.10
   1   8  -9   20.40    4.00
  -1  -8   9   12.60    3.70
  -1  -8   9   16.90    3.90
  -1  -8   9   15.50    3.50
   0   8  -9   12.40    3.40
   0   8  -9    9.90    3.50
   0  -8   9    6.60    3.00
   0  -8   9    5.70    3.20
   0  -8   9    5.80    3.00
  -1   8  -9   34.10    4.70
  -1   8  -9   35.70    5.10
   1  -8   9   26.00    4.60
   1  -8   9   35.30    5.20
   1  -8   9   30.90    4.60
  -2   8  -9   99.89    7.60
  -2   8  -9   88.69    6.60
   2  -8   9   94.19    7.00
   2  -8   9   75.99    6.90
   2  -8   9   89.89    8.30
  -3   8  -9   44.70    6.10
   3  -8   9   39.60    6.10
   3  -8   9   40.10    5.50
   3  -8   9   45.00    5.90
  -4   8  -9  128.79    9.00
   4  -8   9  120.89    9.10
   4  -8   9  122.49   12.00
   4  -8   9  136.09    8.80
  -5   8  -9    9.40    4.40
   5  -8   9    6.70    3.80
   5  -8   9    1.40    3.40
   7   7  -9   18.60    4.70
  -7  -7   9   13.10    4.80
   6   7  -9  105.39    8.20
  -6  -7   9  115.59    8.60
   5   7  -9   -3.10    2.90
   5   7  -9    1.60    2.80
  -5  -7   9    5.70    3.40
  -5  -7   9   -2.60    3.10
   4   7  -9    2.90    3.30
   4   7  -9    2.00    2.90
  -4  -7   9    5.90    3.10
  -4  -7   9    2.10    3.10
  -4  -7   9    8.90    3.20
   3   7  -9   61.49    6.60
   3   7  -9   57.89    5.80
  -3  -7   9   56.39    6.40
  -3  -7   9   52.19    5.40
  -3  -7   9   37.30    5.00
   2   7  -9   66.39    6.40
   2   7  -9   65.09    6.10
  -2  -7   9   68.59    5.90
  -2  -7   9   80.19    7.00
  -2  -7   9   55.59    6.10
   1   7  -9   12.00    3.60
   1   7  -9   16.10    3.50
  -1  -7   9   15.20    3.60
  -1  -7   9    8.70    3.10
  -1  -7   9   11.00    3.40
   0   7  -9   56.39    5.70
   0   7  -9   50.69    5.50
   0  -7   9   54.59    5.90
   0  -7   9   50.19    5.30
   0  -7   9   57.19    5.90
  -1   7  -9   67.69    6.50
  -1   7  -9   72.79    6.30
   1  -7   9   69.49    7.10
   1  -7   9   65.59    6.20
   1  -7   9   55.39    5.70
  -2   7  -9   94.09    7.90
  -2   7  -9   95.19    6.90
   2  -7   9   76.99    6.50
   2  -7   9   90.79    7.40
   2  -7   9   97.59    7.00
  -3   7  -9   -2.00    3.00
  -3   7  -9    1.50    2.90
   3  -7   9    0.10    3.10
   3  -7   9    4.20    3.20
   3  -7   9    1.00    2.80
  -4   7  -9   32.80    5.00
  -4   7  -9   22.30    5.00
   4  -7   9   38.30    6.10
   4  -7   9   41.60    5.90
   4  -7   9   30.80    5.00
  -5   7  -9    1.40    3.60
   5  -7   9    3.20    3.30
   5  -7   9   -2.20    3.40
   5  -7   9    0.20    3.30
  -6   7  -9   12.30    4.90
   6  -7   9   20.10    4.80
   6  -7   9   13.70    4.90
   7   6  -9    4.20    3.70
  -7  -6   9   11.40    4.30
   6   6  -9   73.49    7.30
  -6  -6   9   71.69    7.40
   5   6  -9   20.00    4.30
  -5  -6   9   23.40    4.70
  -5  -6   9   24.70    4.90
   4   6  -9   32.10    4.70
   4   6  -9   29.00    4.60
  -4  -6   9   26.20    4.40
  -4  -6   9   27.70    4.60
   3   6  -9    0.50    2.30
  -3  -6   9   -1.90    2.40
  -3  -6   9    2.20    2.50
  -3  -6   9   -1.90    2.50
   2   6  -9   34.70    4.90
   2   6  -9   27.30    4.10
  -2  -6   9   36.60    4.40
  -2  -6   9   31.90    4.80
  -2  -6   9   39.30    5.30
   1   6  -9    0.40    2.60
   1   6  -9    2.10    2.60
  -1  -6   9    0.00    2.20
  -1  -6   9    3.00    2.70
  -1  -6   9    1.30    2.50
   0   6  -9  106.39    6.90
   0   6  -9  108.29    6.80
   0  -6   9  106.89    6.50
   0  -6   9  113.39    7.10
   0  -6   9  111.79    7.20
  -1   6  -9    6.20    3.20
  -1   6  -9   10.90    3.30
   1  -6   9   10.20    3.00
   1  -6   9   10.60    3.40
   1  -6   9   10.60    3.50
  -2   6  -9  121.69    7.40
  -2   6  -9  116.09    7.60
   2  -6   9  117.39    7.90
   2  -6   9  116.99    7.40
   2  -6   9  104.79    6.90
  -3   6  -9   47.00    5.60
  -3   6  -9   40.30    5.50
   3  -6   9   39.60    5.00
   3  -6   9   29.50    5.00
   3  -6   9   36.70    5.40
  -4   6  -9   18.50    4.80
  -4   6  -9   17.30    4.10
   4  -6   9   11.20    4.10
   4  -6   9   20.10    4.20
   4  -6   9   12.80    4.10
  -5   6  -9    8.50    4.00
  -5   6  -9    0.80    3.60
   5  -6   9    7.80    3.80
   5  -6   9    3.10    3.30
   5  -6   9    5.20    3.70
  -6   6  -9   17.90    5.20
   6  -6   9   31.50    6.20
   6  -6   9   12.10    4.30
   8   5  -9   53.39    6.90
  -8  -5   9   62.79    8.70
  -8  -5   9   54.79    7.30
   7   5  -9  211.58   11.00
  -7  -5   9  205.88   10.90
   6   5  -9   89.79    7.70
  -6  -5   9   94.09    8.10
   5   5  -9   55.89    6.10
  -5  -5   9   65.19    6.50
  -5  -5   9   58.89    6.20
   4   5  -9  201.78    9.30
   4   5  -9  213.18   10.50
  -4  -5   9  221.18    9.70
  -4  -5   9  208.98    9.60
   3   5  -9   70.79    5.60
   3   5  -9   69.19    6.00
  -3  -5   9   76.69    6.70
  -3  -5   9   66.49    6.10
  -3  -5   9   66.59    6.70
   2   5  -9   14.80    3.20
   2   5  -9   11.80    3.30
  -2  -5   9   16.00    3.60
  -2  -5   9   18.30    3.20
  -2  -5   9   20.70    4.00
   1   5  -9  467.55   13.60
   1   5  -9  472.35   13.40
  -1  -5   9  463.45   12.70
  -1  -5   9  455.85   13.90
  -1  -5   9  456.35   13.90
   0   5  -9   80.39    5.90
   0   5  -9   76.59    6.00
   0  -5   9   74.19    6.00
   0  -5   9   85.19    5.60
   0  -5   9   97.39    6.40
  -1   5  -9    8.60    3.10
  -1   5  -9   12.00    3.30
   1  -5   9    5.90    3.10
   1  -5   9    8.10    2.70
   1  -5   9    8.10    3.20
  -2   5  -9  528.75   15.50
  -2   5  -9  539.25   15.40
   2  -5   9  536.45   14.70
   2  -5   9  530.45   16.10
   2  -5   9  526.75   15.80
  -3   5  -9   95.09    7.20
  -3   5  -9   91.69    7.10
   3  -5   9  101.69    7.40
   3  -5   9  110.99    7.70
   3  -5   9  115.89    7.10
  -4   5  -9    9.00    3.80
  -4   5  -9   10.10    3.90
   4  -5   9    8.00    3.60
   4  -5   9    2.00    2.80
   4  -5   9    7.30    3.70
  -5   5  -9    3.20    3.50
  -5   5  -9    2.60    3.70
   5  -5   9    6.20    3.60
   5  -5   9    0.70    3.00
  -6   5  -9   19.70    5.00
   6  -5   9   29.80    5.90
   6  -5   9    3.60    4.10
   8   4  -9   83.89    7.90
  -8  -4   9   89.29   10.00
  -8  -4   9   80.69    8.10
   7   4  -9  214.08   10.50
  -7  -4   9  210.88   10.70
  -7  -4   9  194.38   12.20
   6   4  -9  126.19    7.80
  -6  -4   9  143.99    8.40
   5   4  -9    0.90    2.70
  -5  -4   9   -1.60    2.50
  -5  -4   9    0.60    2.60
   4   4  -9    3.80    2.70
  -4  -4   9    9.50    3.10
  -4  -4   9   12.60    3.40
   3   4  -9   11.70    3.20
  -3  -4   9    4.80    2.70
  -3  -4   9    5.80    2.80
   2   4  -9  197.48    8.40
   2   4  -9  211.78    8.30
  -2  -4   9  197.78    8.80
  -2  -4   9  210.68    8.80
   1   4  -9   58.99    5.40
   1   4  -9   52.79    4.90
  -1  -4   9   47.90    4.90
  -1  -4   9   63.89    5.90
  -1  -4   9   64.99    5.30
   0   4  -9    1.10    2.30
   0   4  -9    2.40    2.50
   0  -4   9    0.80    1.90
   0  -4   9   -1.00    2.20
   0  -4   9    3.40    2.60
  -1   4  -9   74.09    5.70
  -1   4  -9   78.69    5.80
   1  -4   9   59.89    5.60
   1  -4   9   64.49    4.90
   1  -4   9   65.79    6.10
  -2   4  -9   53.79    5.60
  -2   4  -9   46.60    5.00
   2  -4   9   36.70    4.80
   2  -4   9   45.60    5.40
   2  -4   9   44.00    5.70
  -3   4  -9    3.80    3.20
  -3   4  -9    3.30    2.90
   3  -4   9    0.40    2.70
   3  -4   9   -0.70    2.50
  -4   4  -9   14.90    5.10
  -4   4  -9    1.40    3.30
   4  -4   9    7.10    3.80
   4  -4   9    4.50    3.00
  -5   4  -9   28.70    5.20
   5  -4   9   21.30    4.90
   5  -4   9   18.00    4.50
  -6   4  -9    8.10    4.20
   6  -4   9   15.80    4.80
   6  -4   9   11.60    4.30
   8   3  -9   14.20    4.50
  -8  -3   9    6.50    3.70
  -8  -3   9    6.40    4.50
   7   3  -9  206.78   10.20
  -7  -3   9  213.88   12.40
  -7  -3   9  211.48   10.20
   6   3  -9    0.10    2.50
  -6  -3   9    3.90    2.80
  -6  -3   9    4.30    4.10
   5   3  -9   31.20    4.30
  -5  -3   9   35.30    4.50
  -5  -3   9   36.00    6.40
   4   3  -9   10.70    3.10
  -4  -3   9    6.10    2.70
  -4  -3   9   10.80    3.00
   3   3  -9    7.80    2.70
  -3  -3   9    6.70    2.60
  -3  -3   9    6.90    2.70
   2   3  -9  230.68    8.80
  -2  -3   9  205.58    8.70
  -2  -3   9  223.38    8.70
   1   3  -9  190.08    8.10
  -1  -3   9  178.18    8.00
  -1  -3   9  178.88    7.80
   0   3  -9  485.45   13.60
   0  -3   9  507.25   14.00
   0  -3   9  521.45   14.30
  -1   3  -9   36.20    4.40
   1  -3   9   36.60    4.50
   1  -3   9   51.59    5.40
  -2   3  -9    2.90    2.90
   2  -3   9   -0.70    2.50
   2  -3   9    6.50    3.00
  -3   3  -9    8.90    3.60
   3  -3   9    9.10    3.70
   3  -3   9   12.80    3.60
  -4   3  -9    0.40    3.20
   4  -3   9    0.30    3.10
   4  -3   9    0.60    2.80
  -5   3  -9    1.70    3.40
   5  -3   9    3.50    3.20
   5  -3   9   -1.20    3.30
  -6   3  -9  191.58   11.10
   6  -3   9  164.78   10.70
   6  -3   9  198.28   11.40
   8   2  -9   26.90    5.10
  -8  -2   9   20.60    4.50
  -8  -2   9   26.60    6.00
   7   2  -9   59.19    6.20
  -7  -2   9   53.59    7.60
  -7  -2   9   45.20    5.40
   6   2  -9    1.50    2.60
  -6  -2   9    3.10    2.70
  -6  -2   9    0.20    3.80
   5   2  -9  208.98    8.50
  -5  -2   9  206.08    8.80
  -5  -2   9  207.78   11.40
   4   2  -9   23.70    3.50
  -4  -2   9   18.40    4.70
  -4  -2   9   20.00    3.40
  -4  -2   9   19.10    3.50
   3   2  -9  233.68    8.60
  -3  -2   9  232.58   11.10
  -3  -2   9  234.08    8.30
  -3  -2   9  242.78    8.90
   2   2  -9  266.77    9.30
  -2  -2   9  275.37    9.10
  -2  -2   9  265.57    9.30
   1   2  -9   10.20    2.80
  -1  -2   9   17.30    3.30
  -1  -2   9   11.80    2.80
   0   2  -9   46.20    4.70
   0  -2   9   58.39    5.10
   0  -2   9   53.09    5.10
  -1   2  -9   37.40    4.50
   1  -2   9   46.10    4.90
   1  -2   9   33.80    4.50
   1  -2   9   54.69    5.20
  -2   2  -9    0.40    2.70
   2  -2   9    0.40    2.50
   2  -2   9    0.30    2.40
  -3   2  -9   67.49    6.30
   3  -2   9   55.99    6.30
   3  -2   9   67.69    6.40
  -4   2  -9   20.00    4.60
   4  -2   9   19.50    4.40
   4  -2   9   17.20    4.30
  -5   2  -9    8.20    4.10
   5  -2   9    0.00    3.40
   5  -2   9    2.40    3.30
   9   1  -9    5.90    3.60
  -9  -1   9    0.40    3.10
  -9  -1   9    2.30    4.20
   8   1  -9    6.60    3.30
  -8  -1   9    5.80    4.50
  -8  -1   9    8.60    3.40
   7   1  -9   59.79    6.00
  -7  -1   9   55.09    5.80
  -7  -1   9   58.59    8.00
   6   1  -9  111.39    6.90
  -6  -1   9   98.19    6.40
  -6  -1   9  110.29    9.10
   5   1  -9   80.49    5.60
  -5  -1   9   88.69    5.80
  -5  -1   9   60.59    7.10
   4   1  -9   11.20    2.70
  -4  -1   9    9.50    2.80
  -4  -1   9    1.50    3.40
   3   1  -9  984.90   20.90
  -3  -1   9 1009.10   21.20
  -3  -1   9  990.50   19.80
  -3  -1   9 1012.50   24.70
   2   1  -9    4.20    2.30
  -2  -1   9   13.50    4.00
  -2  -1   9    1.60    2.20
  -2  -1   9    9.60    2.40
   1   1  -9  597.64   14.60
  -1  -1   9  585.04   16.30
  -1  -1   9  583.94   13.90
  -1  -1   9  586.04   14.80
   0   1  -9  174.88    7.60
   0  -1   9  165.88    8.00
   0  -1   9  156.28    6.90
   0  -1   9  160.88    7.40
  -1   1  -9  102.69    6.40
   1  -1   9  113.19    6.70
   1  -1   9   98.59    6.10
   1  -1   9  108.19    6.30
  -2   1  -9    3.50    2.90
   2  -1   9    3.90    2.60
   2  -1   9    3.80    2.80
  -3   1  -9   44.30    5.50
   3  -1   9   46.00    5.40
   3  -1   9   39.90    5.40
  -4   1  -9   23.30    4.60
   4  -1   9   18.80    4.50
   4  -1   9   19.30    4.30
  -5   1  -9   87.49    8.20
   5  -1   9   74.09    7.80
   5  -1   9   82.39    7.70
   9   0  -9    0.90    3.10
  -9   0   9    1.30    3.10
  -9   0   9    9.30    4.90
   8   0  -9    2.50    2.80
  -8   0   9    1.50    2.60
  -8   0   9    0.40    3.90
   7   0  -9   -0.90    2.40
  -7   0   9    4.70    4.10
  -7   0   9    5.50    2.70
   6   0  -9   44.30    4.60
  -6   0   9   32.10    5.80
  -6   0   9   39.10    4.50
   5   0  -9    5.10    2.30
  -5   0   9    5.40    2.40
  -5   0   9    6.20    3.80
   4   0  -9  155.38    6.70
  -4   0   9  150.58    9.50
  -4   0   9  153.88    6.80
   3   0  -9    0.10    1.90
  -3   0   9   -0.10    1.90
  -3   0   9   -0.60    3.00
  -3   0   9   -0.30    1.50
   2   0  -9  121.39    5.90
  -2   0   9  116.39    7.70
  -2   0   9  121.29    4.90
  -2   0   9  112.39    5.90
   1   0  -9    2.10    2.30
  -1   0   9    5.80    2.40
  -1   0   9    2.50    1.80
  -1   0   9    4.80    2.90
   0   0  -9  109.79    6.10
   0   0   9   99.69    6.10
   0   0   9  100.09    6.40
   0   0   9  100.09    5.30
  -1   0  -9  103.09    6.50
   1   0   9   97.99    6.40
   1   0   9   95.29    5.70
  -2   0  -9   13.70    3.70
   2   0   9   12.00    3.10
   2   0   9   13.30    3.50
  -3   0  -9   -0.90    2.80
   3   0   9   -0.10    2.70
   3   0   9    1.30    2.60
  -4   0  -9   -2.00    3.30
   4   0   9    5.30    3.40
   4   0   9   -0.70    2.60
  -5   0  -9    2.40    3.90
   5   0   9    2.90    3.70
   5   0   9    4.20    3.20
   8  -1  -9   80.19    6.70
  -8   1   9   60.09    8.00
  -8   1   9   59.99    6.00
   7  -1  -9   80.39    6.00
  -7   1   9   94.99    6.10
  -7   1   9   66.99    8.00
  -6   1   9    3.60    3.70
  -6   1   9   10.50    2.70
   5  -1  -9    0.10    1.80
  -5   1   9   -1.30    3.30
  -5   1   9   -3.20    1.70
   4  -1  -9    8.50    2.30
  -4   1   9    4.00    3.60
  -4   1   9    5.60    2.20
   3  -1  -9   33.30    3.60
  -3   1   9   30.70    3.50
  -3   1   9   36.30    5.20
   2  -1  -9    9.60    2.50
  -2   1   9   13.50    2.60
  -2   1   9   14.00    4.00
   1  -1  -9   21.40    3.30
  -1   1   9   24.40    3.40
  -1   1   9   19.20    3.80
  -1   1   9   26.70    2.40
   0  -1  -9   -1.00    2.10
   0   1   9    2.60    2.60
   0   1   9    3.70    2.40
   0   1   9    3.90    1.80
  -1  -1  -9   40.70    4.70
   1   1   9   41.80    4.00
   1   1   9   42.70    4.90
  -2  -1  -9   -0.20    2.70
   2   1   9    1.10    2.60
   2   1   9    2.90    2.30
  -3  -1  -9   49.20    5.80
   3   1   9   59.29    5.60
   3   1   9   49.70    5.80
  -4  -1  -9    2.00    3.40
   4   1   9    5.00    3.70
   4   1   9   -1.50    2.60
   8  -2  -9   18.00    3.70
  -8   2   9   28.00    6.50
  -8   2   9   19.50    3.80
   7  -2  -9   76.79    5.70
  -7   2   9   67.09    8.50
  -7   2   9   68.19    5.30
  -6   2   9   42.70    6.60
  -6   2   9   56.79    4.70
   5  -2  -9   84.79    5.10
  -5   2   9   78.69    8.40
  -5   2   9   93.29    5.10
   4  -2  -9    8.10    2.30
  -4   2   9   13.20    2.60
  -4   2   9    9.10    4.00
   3  -2  -9    6.90    2.10
  -3   2   9    2.50    1.90
  -3   2   9    5.20    3.20
   2  -2  -9    2.40    1.90
  -2   2   9   -0.40    1.70
  -2   2   9   -1.10    2.60
   1  -2  -9  126.59    6.10
  -1   2   9  120.89    7.60
  -1   2   9  127.79    6.20
   0  -2  -9   41.10    4.20
   0   2   9   42.80    4.80
   0   2   9   43.30    4.80
   0   2   9   37.00    4.20
  -1  -2  -9    0.80    2.50
   1   2   9    2.70    2.80
   1   2   9    2.80    3.30
   1   2   9    0.60    2.30
  -2  -2  -9   44.20    5.20
   2   2   9   42.60    4.20
   2   2   9   36.60    4.90
  -3  -2  -9    2.80    3.20
   3   2   9    1.70    2.30
   3   2   9    2.50    3.30
  -4  -2  -9   10.70    4.20
   4   2   9   21.40    4.10
   4   2   9   13.00    4.20
   8  -3  -9    3.40    2.70
  -8   3   9   -4.00    3.70
  -8   3   9    0.30    2.30
   7  -3  -9   76.49    5.50
  -7   3   9   75.19    5.10
  -7   3   9   71.09    8.60
  -6   3   9   20.10    3.00
  -6   3   9   20.00    5.60
   5  -3  -9   -1.50    1.60
  -5   3   9    0.90    3.10
  -5   3   9    0.40    1.70
   4  -3  -9    1.60    1.70
  -4   3   9    1.60    1.70
  -4   3   9   -0.10    3.30
   3  -3  -9   26.30    3.00
  -3   3   9   30.00    3.10
  -3   3   9   23.90    4.90
   2  -3  -9  113.39    5.40
  -2   3   9  122.59    5.50
  -2   3   9   98.99    7.50
   1  -3  -9    0.80    1.90
  -1   3   9   -1.00    1.80
  -1   3   9   -1.10    2.50
  -1   3   9   -4.40    2.50
   0  -3  -9   28.50    3.70
   0   3   9   26.20    3.70
   0   3   9   34.40    4.70
  -1  -3  -9   27.30    4.10
   1   3   9   17.10    3.50
   1   3   9   24.10    4.20
  -2  -3  -9   47.10    5.50
   2   3   9   55.29    5.90
  -3  -3  -9    0.00    3.20
   3   3   9    6.00    3.40
   7  -4  -9    8.30    2.50
  -7   4   9    4.60    2.10
  -7   4   9    6.50    4.90
  -6   4   9    7.00    4.20
  -6   4   9   13.10    2.30
   5  -4  -9   26.50    3.00
  -5   4   9   25.90    5.90
  -5   4   9   21.00    2.50
   4  -4  -9   53.79    3.70
  -4   4   9   73.99    8.20
  -4   4   9   57.19    3.40
   3  -4  -9   21.20    2.70
  -3   4   9   22.60    4.90
  -3   4   9   21.80    2.50
   2  -4  -9    4.40    2.00
  -2   4   9    1.80    1.70
  -2   4   9    5.00    3.30
   1  -4  -9    9.90    2.60
  -1   4   9    9.20    3.40
  -1   4   9    9.80    3.70
  -1   4   9    5.60    2.20
   0  -4  -9    7.90    2.80
   0   4   9   11.10    3.90
   0   4   9   10.40    2.90
  -1  -4  -9    4.70    2.80
   1   4   9    6.00    2.70
   1   4   9    3.00    3.20
  -2  -4  -9    6.40    3.50
   2   4   9    6.70    3.20
   7  -5  -9    9.50    2.50
  -7   5   9    9.40    2.00
  -7   5   9   -0.40    4.50
  -6   5   9   27.30    6.20
   5  -5  -9  180.68    6.00
  -5   5   9  174.78   11.40
   4  -5  -9    5.40    1.90
  -4   5   9   13.20    4.60
   3  -5  -9   -2.70    1.40
  -3   5   9    1.40    3.50
  -3   5   9    0.30    1.30
   2  -5  -9   29.90    3.30
  -2   5   9   23.60    5.00
  -2   5   9   24.10    5.30
  -2   5   9   32.40    3.00
   1  -5  -9    7.60    2.40
  -1   5   9    4.20    2.10
  -1   5   9    3.20    3.70
   0  -5  -9   66.29    5.60
   0   5   9   70.89    5.20
   0   5   9   71.39    7.40
  -1  -5  -9   39.30    4.80
   1   5   9   32.40    5.60
   1   5   9   35.40    4.50
  -5   6   9   -1.10    4.00
  -4   6   9   38.50    6.70
   3  -6  -9   79.29    4.30
  -3   6   9   78.59    8.60
   2  -6  -9    3.60    2.00
  -2   6   9    4.50    1.70
  -2   6   9    2.10    3.40
  -2   6   9    1.60    3.90
   1  -6  -9   42.80    4.30
  -1   6   9   42.80    3.80
  -1   6   9   36.80    6.20
   1  11 -10    3.10    3.80
  -1 -11  10    2.90    3.70
  -1 -11  10   -0.60    3.50
   0  11 -10    6.00    4.20
   0 -11  10    1.80    3.50
   0 -11  10    7.20    4.20
  -1  11 -10   76.59    8.10
   1 -11  10   78.89    7.90
   1 -11  10   90.29    9.00
   3  10 -10   68.79    8.10
  -3 -10  10   52.59    6.60
  -3 -10  10   43.60    7.00
   2  10 -10   47.20    6.60
  -2 -10  10   50.49    6.90
  -2 -10  10   55.99    6.50
   1  10 -10   20.10    5.20
  -1 -10  10   26.00    5.80
  -1 -10  10   27.10    5.00
   0  10 -10   71.39    7.70
   0 -10  10   76.39    8.30
   0 -10  10  102.29    8.50
  -1  10 -10   63.99    7.70
   1 -10  10   75.59    7.40
   1 -10  10   77.69    8.30
  -2  10 -10    6.20    4.10
   2 -10  10    8.00    4.10
   2 -10  10   10.00    4.50
  -3  10 -10   26.90    5.60
   3 -10  10   21.30    4.90
   3 -10  10   30.00    5.80
   5   9 -10   -3.00    4.80
  -5  -9  10   -1.70    3.60
  -5  -9  10    0.50    3.50
   4   9 -10    0.90    3.50
   4   9 -10    8.90    5.00
  -4  -9  10   -0.60    3.10
  -4  -9  10    2.00    3.60
   3   9 -10   11.40    4.00
   3   9 -10    6.10    3.70
  -3  -9  10   10.00    4.00
  -3  -9  10    9.00    3.70
  -3  -9  10    4.30    3.60
   2   9 -10   96.19    8.00
   2   9 -10   72.09    7.40
  -2  -9  10   96.59    7.70
  -2  -9  10  100.89    8.20
  -2  -9  10   90.99    7.20
   1   9 -10  175.38   10.10
  -1  -9  10  173.88    9.70
  -1  -9  10  158.68   10.10
  -1  -9  10  181.48    9.60
   0   9 -10  245.28   11.60
   0   9 -10  253.17   11.90
   0  -9  10  234.28   11.70
   0  -9  10  239.58   11.20
   0  -9  10  229.98   10.60
  -1   9 -10   27.00    4.90
   1  -9  10   23.90    4.90
   1  -9  10   19.40    4.60
   1  -9  10   17.40    4.20
  -2   9 -10    5.10    4.00
   2  -9  10    0.00    3.40
   2  -9  10    6.50    3.60
   2  -9  10    3.10    3.10
  -3   9 -10   61.19    7.40
   3  -9  10   48.00    6.10
   3  -9  10   54.69    7.30
  -4   9 -10    0.30    3.80
   4  -9  10    1.90    3.50
   4  -9  10   -1.90    3.40
   5   8 -10    7.80    3.90
  -5  -8  10    4.70    3.70
  -5  -8  10    3.20    3.70
   4   8 -10   20.70    4.90
   4   8 -10   28.00    4.90
  -4  -8  10   23.40    5.00
  -4  -8  10   35.80    5.80
   3   8 -10    8.10    3.50
   3   8 -10    7.30    3.80
  -3  -8  10   10.10    4.00
  -3  -8  10   -0.50    2.70
  -3  -8  10    6.90    3.70
   2   8 -10    2.40    3.10
  -2  -8  10   -2.10    2.40
  -2  -8  10   -2.60    2.30
  -2  -8  10   -3.50    2.70
   1   8 -10    0.10    3.00
   1   8 -10    3.30    2.80
  -1  -8  10   -1.80    2.70
  -1  -8  10   -3.60    2.60
  -1  -8  10   -2.40    2.70
   0   8 -10   11.20    3.60
   0   8 -10   12.60    4.00
   0  -8  10    9.40    3.30
   0  -8  10    6.80    3.20
   0  -8  10    5.00    3.30
  -1   8 -10    0.50    3.00
  -1   8 -10   -3.30    2.60
   1  -8  10    1.60    2.60
   1  -8  10    1.30    2.80
   1  -8  10    1.90    3.20
  -2   8 -10   13.60    4.10
  -2   8 -10   25.40    4.40
   2  -8  10   20.20    4.30
   2  -8  10   25.90    5.00
   2  -8  10   17.60    4.50
  -3   8 -10   44.40    6.00
   3  -8  10   39.60    6.00
   3  -8  10   50.39    6.60
   3  -8  10   54.39    6.30
  -4   8 -10  130.79    9.60
   4  -8  10  143.29    9.60
   4  -8  10  143.19   10.10
   4  -8  10  152.38    9.40
   6   7 -10   45.40    6.20
  -6  -7  10   63.69    7.40
   5   7 -10   40.20    5.70
  -5  -7  10   52.89    6.80
  -5  -7  10   34.90    5.90
   4   7 -10  320.37   12.70
  -4  -7  10  307.27   13.00
  -4  -7  10  297.87   12.60
   3   7 -10   31.10    5.00
   3   7 -10   18.70    4.20
  -3  -7  10   34.10    5.30
  -3  -7  10   21.30    4.40
   2   7 -10   17.30    4.00
   2   7 -10   28.10    4.80
  -2  -7  10   21.50    4.20
  -2  -7  10   21.40    3.90
  -2  -7  10   17.50    4.30
   1   7 -10    1.80    2.80
   1   7 -10    1.20    2.70
  -1  -7  10    2.30    2.80
  -1  -7  10    1.90    2.70
  -1  -7  10   -3.70    2.40
   0   7 -10   95.99    7.30
   0   7 -10  108.09    7.40
   0  -7  10  117.99    8.00
   0  -7  10   97.59    7.40
   0  -7  10   97.39    6.70
  -1   7 -10    3.10    3.00
  -1   7 -10   -0.20    2.60
   1  -7  10    5.10    3.10
   1  -7  10    7.80    3.50
   1  -7  10    2.90    2.70
  -2   7 -10  167.78    9.50
  -2   7 -10  176.08    9.30
   2  -7  10  172.58    9.10
   2  -7  10  182.98    9.70
   2  -7  10  182.38   10.10
  -3   7 -10  423.16   15.10
  -3   7 -10  389.36   13.90
   3  -7  10  404.96   14.00
   3  -7  10  388.36   14.70
   3  -7  10  383.36   15.20
  -4   7 -10    9.90    4.00
  -4   7 -10   15.20    4.70
   4  -7  10   15.50    4.80
   4  -7  10    6.20    4.50
   4  -7  10   12.70    4.40
  -5   7 -10    1.70    4.00
   5  -7  10   -2.70    3.10
   5  -7  10    5.70    4.00
   7   6 -10   31.20    5.70
  -7  -6  10   24.80    5.40
   6   6 -10   12.20    4.30
  -6  -6  10   14.70    4.20
   5   6 -10    2.00    3.00
  -5  -6  10   -1.30    3.10
  -5  -6  10   -5.30    2.80
   4   6 -10   -1.90    2.70
  -4  -6  10   -0.90    2.80
  -4  -6  10    0.10    3.00
   3   6 -10  203.38    9.50
  -3  -6  10  209.08   10.10
  -3  -6  10  209.98   10.00
   2   6 -10    1.00    2.80
   2   6 -10   -0.40    2.60
  -2  -6  10   -1.30    2.50
  -2  -6  10   -0.20    2.70
   1   6 -10   -2.30    2.40
   1   6 -10   -1.10    2.40
  -1  -6  10   -1.70    2.50
  -1  -6  10    4.60    3.10
   0   6 -10   68.19    6.20
   0   6 -10   81.99    6.50
   0  -6  10   76.89    6.00
   0  -6  10  100.19    7.20
   0  -6  10   88.29    6.90
  -1   6 -10   -1.00    2.60
  -1   6 -10    1.60    2.70
   1  -6  10    0.10    2.60
   1  -6  10   -3.90    2.40
   1  -6  10   -1.70    2.20
  -2   6 -10   18.80    4.20
  -2   6 -10   26.90    4.70
   2  -6  10   20.10    4.60
   2  -6  10   14.80    4.50
   2  -6  10   26.20    4.80
  -3   6 -10   -2.70    2.80
  -3   6 -10    1.80    3.10
   3  -6  10   -0.10    3.00
   3  -6  10   -1.00    2.90
  -4   6 -10    9.80    4.00
  -4   6 -10   12.20    4.30
   4  -6  10    9.20    3.80
   4  -6  10    4.20    3.70
  -5   6 -10    4.20    4.00
   5  -6  10    6.20    4.10
   5  -6  10    9.70    4.40
   7   5 -10  123.89    9.00
  -7  -5  10  130.59    9.10
  -7  -5  10  132.59   12.30
   6   5 -10   10.50    4.00
  -6  -5  10   13.60    4.20
   5   5 -10   62.89    6.30
  -5  -5  10   64.19    6.50
  -5  -5  10   72.09    7.10
  -4  -5  10  205.88    9.90
  -4  -5  10  209.48    9.80
   3   5 -10    1.00    2.90
  -3  -5  10   -2.50    2.50
  -3  -5  10    1.90    2.80
   2   5 -10    2.90    2.80
  -2  -5  10    1.00    2.50
  -2  -5  10    7.70    3.30
   1   5 -10   54.29    5.60
  -1  -5  10   65.09    6.30
  -1  -5  10   62.69    6.10
   0   5 -10  366.76   12.50
   0   5 -10  378.86   12.90
   0  -5  10  342.77   12.50
   0  -5  10  379.96   12.80
  -1   5 -10    1.50    3.00
  -1   5 -10    9.30    3.40
   1  -5  10    6.40    3.20
   1  -5  10    0.80    2.70
  -2   5 -10   71.59    6.70
  -2   5 -10   70.79    8.60
   2  -5  10   97.69    7.50
   2  -5  10   99.99    8.30
  -3   5 -10   48.50    5.90
   3  -5  10   29.40    5.30
   3  -5  10   33.90    5.30
  -4   5 -10   40.90    5.80
   4  -5  10   50.29    6.80
   4  -5  10   39.20    6.20
  -5   5 -10   15.60    4.80
   5  -5  10   27.10    5.70
   5  -5  10   20.10    4.90
   8   4 -10   21.20    5.10
  -8  -4  10   15.20    4.80
  -8  -4  10   18.60    6.20
   7   4 -10    8.90    3.90
  -7  -4  10    0.30    3.10
  -7  -4  10   16.30    5.80
   6   4 -10  240.28   11.00
  -6  -4  10  246.28   11.10
  -6  -4  10  232.58   13.40
   5   4 -10   70.39    6.50
  -5  -4  10   90.19    6.80
  -5  -4  10   65.29    6.50
   4   4 -10    1.30    2.40
  -4  -4  10    1.50    2.60
  -4  -4  10    0.50    2.50
   3   4 -10   14.90    3.60
  -3  -4  10   18.50    3.80
  -3  -4  10   20.80    4.00
   2   4 -10   49.80    5.20
  -2  -4  10   42.70    5.00
  -2  -4  10   48.50    5.30
   1   4 -10  105.29    6.90
  -1  -4  10  113.49    6.90
  -1  -4  10   99.79    6.80
   0   4 -10  171.88    8.60
   0  -4  10  178.18    8.60
   0  -4  10  173.68    8.70
  -1   4 -10    4.50    2.90
   1  -4  10    0.50    2.90
   1  -4  10    3.70    2.90
  -2   4 -10  195.28    9.70
   2  -4  10  209.08   10.00
   2  -4  10  198.68    9.80
  -3   4 -10    4.00    3.50
   3  -4  10   -0.10    3.00
   3  -4  10   -4.70    2.50
  -4   4 -10   35.60    5.50
   4  -4  10   33.30    5.50
   4  -4  10   31.00    5.70
  -5   4 -10   -2.90    3.40
   5  -4  10   -0.70    3.60
   5  -4  10   -3.70    3.10
   8   3 -10   11.60    4.30
  -8  -3  10    9.20    5.10
  -8  -3  10   20.20    4.90
   7   3 -10    6.60    3.60
  -7  -3  10   10.60    3.90
  -7  -3  10   16.00    5.70
   6   3 -10  200.18    9.70
  -6  -3  10  191.18    9.50
  -6  -3  10  192.68   12.20
  -5  -3  10   42.30    6.80
  -5  -3  10   47.60    5.50
   4   3 -10  236.48    9.50
  -4  -3  10  234.38   12.30
  -4  -3  10  215.78    9.00
  -4  -3  10  207.38    9.30
   3   3 -10   82.89    6.10
  -3  -3  10   73.49    5.60
  -3  -3  10   87.69    6.20
   2   3 -10   95.89    6.40
  -2  -3  10   90.29    6.10
  -2  -3  10   99.19    6.50
   1   3 -10    8.10    2.90
  -1  -3  10    3.00    2.60
  -1  -3  10    3.30    2.50
   0   3 -10  274.27   10.40
   0  -3  10  271.87   10.30
   0  -3  10  290.27   11.00
  -1   3 -10  242.78   10.00
   1  -3  10  214.78    9.60
   1  -3  10  244.68   10.30
  -2   3 -10   51.49    6.00
   2  -3  10   47.60    5.70
   2  -3  10   49.00    5.80
  -3   3 -10   32.10    5.20
   3  -3  10   34.70    5.20
   3  -3  10   30.40    5.20
  -4   3 -10   -0.40    3.40
   4  -3  10    7.80    4.10
   4  -3  10   -2.80    2.80
  -5   3 -10  242.58   12.20
   5  -3  10  243.88   12.50
   5  -3  10  235.18   12.30
   8   2 -10   12.70    4.30
  -8  -2  10    5.90    3.60
  -8  -2  10    3.80    4.70
   7   2 -10   12.00    3.80
  -7  -2  10    7.70    4.70
  -7  -2  10   13.40    3.80
   6   2 -10   -1.20    2.40
  -6  -2  10    1.60    3.90
  -6  -2  10    0.40    2.60
   5   2 -10   95.69    6.50
  -5  -2  10   96.49    6.50
  -5  -2  10  104.69    9.10
   4   2 -10  197.08    8.80
  -4  -2  10  195.28    8.60
  -4  -2  10  202.38    8.10
  -4  -2  10  206.58   11.60
   3   2 -10   20.70    3.60
  -3  -2  10   12.40    4.30
  -3  -2  10   11.20    3.10
  -3  -2  10   15.30    3.00
   2   2 -10   78.29    5.80
  -2  -2  10   79.39    5.30
  -2  -2  10   88.79    8.10
  -2  -2  10   74.09    5.70
   1   2 -10  222.08    9.10
  -1  -2  10  237.28    8.90
  -1  -2  10  236.58   10.70
  -1  -2  10  233.48    9.30
   0   2 -10    4.60    2.80
   0  -2  10    8.90    3.40
   0  -2  10    2.50    2.40
   0  -2  10    4.70    2.90
  -1   2 -10   27.10    4.40
   1  -2  10   31.30    4.60
   1  -2  10   29.40    4.30
   1  -2  10   37.60    4.60
  -2   2 -10   13.70    3.90
   2  -2  10   18.70    4.00
   2  -2  10   22.90    4.40
  -3   2 -10   -0.80    3.20
   3  -2  10    1.20    2.80
   3  -2  10    1.70    3.20
  -4   2 -10   20.00    4.80
   4  -2  10   27.80    4.90
   4  -2  10   28.70    5.40
  -5   2 -10    4.60    4.00
   5  -2  10    0.20    3.60
   5  -2  10    3.60    3.80
   8   1 -10    2.60    3.20
  -8  -1  10    7.70    3.50
  -8  -1  10   10.30    5.10
   7   1 -10    4.10    3.10
  -7  -1  10    4.70    3.10
  -7  -1  10    8.00    4.80
   6   1 -10   35.80    4.70
  -6  -1  10   38.40    7.00
  -6  -1  10   34.40    4.70
   5   1 -10   57.19    5.50
  -5  -1  10   48.50    5.00
  -5  -1  10   59.89    7.90
   4   1 -10   25.20    3.80
  -4  -1  10   35.30    4.20
  -4  -1  10   19.90    5.20
   3   1 -10  170.18    7.70
  -3  -1  10  188.08   10.40
  -3  -1  10  178.88    6.80
  -3  -1  10  172.48    7.80
   2   1 -10  104.89    6.30
  -2  -1  10  100.99    5.50
  -2  -1  10  101.49    7.90
  -2  -1  10  111.79    6.40
   1   1 -10   -4.10    1.90
  -1  -1  10   -6.40    2.20
  -1  -1  10    1.10    2.40
  -1  -1  10    0.20    1.90
   0   1 -10   76.99    6.00
   0  -1  10   59.79    5.50
   0  -1  10   71.29    5.20
   0  -1  10   69.69    6.20
  -1   1 -10   46.60    5.20
   1  -1  10   49.60    5.00
   1  -1  10   50.19    5.50
  -2   1 -10   12.00    3.70
   2  -1  10   10.20    3.60
   2  -1  10   13.00    3.50
  -3   1 -10   -4.30    2.90
   3  -1  10    0.20    2.80
   3  -1  10    0.70    3.10
  -4   1 -10   -0.80    3.50
   4  -1  10    4.70    3.70
   4  -1  10    1.30    3.20
   8   0 -10    2.40    3.00
  -8   0  10    1.10    2.80
  -8   0  10    0.20    4.00
   7   0 -10   36.10    4.90
  -7   0  10   31.00    6.20
  -7   0  10   30.40    4.40
  -6   0  10   -4.20    3.00
  -6   0  10   -1.70    2.20
   5   0 -10   62.29    5.40
  -5   0  10   51.69    6.90
  -5   0  10   67.29    5.20
   4   0 -10  123.09    6.50
  -4   0  10  121.89    6.50
  -4   0  10  120.39    9.10
   3   0 -10    0.30    2.10
  -3   0  10   -1.50    2.10
  -3   0  10    0.50    3.00
   2   0 -10   25.30    3.60
  -2   0  10   17.90    3.30
  -2   0  10   15.00    4.20
  -2   0  10   20.20    2.60
   1   0 -10    3.40    2.60
  -1   0  10    6.60    3.20
  -1   0  10    3.60    2.50
  -1   0  10    3.90    1.90
   0   0 -10  107.59    6.70
   0   0  10  110.49    6.90
   0   0  10  107.49    5.60
   0   0  10  100.09    6.60
  -1   0 -10   34.90    4.70
   1   0  10   29.80    4.50
   1   0  10   38.10    4.30
  -2   0 -10    5.70    3.40
   2   0  10    7.20    3.30
   2   0  10    9.70    3.10
  -3   0 -10    0.80    3.40
   3   0  10    2.80    2.70
   3   0  10   -2.80    2.70
  -4   0 -10    0.70    3.80
   4   0  10    0.50    3.20
   4   0  10    0.90    3.00
   8  -1 -10    4.20    3.20
  -8   1  10   13.00    5.50
  -8   1  10    7.10    3.30
   7  -1 -10   53.79    5.50
  -7   1  10   52.89    5.30
  -7   1  10   50.19    7.70
   6  -1 -10  246.78    9.10
  -6   1  10  236.08    9.00
  -6   1  10  231.08   13.10
   5  -1 -10   36.90    4.20
  -5   1  10   42.00    4.40
  -5   1  10   38.40    6.10
   4  -1 -10   16.20    3.00
  -4   1  10   20.70    3.30
  -4   1  10   12.90    4.60
   3  -1 -10   67.69    5.00
  -3   1  10   75.39    7.80
  -3   1  10   67.89    5.00
   2  -1 -10    9.50    2.80
  -2   1  10    7.80    3.50
  -2   1  10    9.20    2.70
   1  -1 -10    0.20    2.30
  -1   1  10    3.20    2.50
  -1   1  10    4.40    2.90
   0  -1 -10    4.30    2.90
   0   1  10    4.80    2.70
  -1  -1 -10    6.50    3.20
   1   1  10   11.40    2.70
   1   1  10    9.10    3.20
  -2  -1 -10   24.50    4.50
   2   1  10   18.50    3.50
   2   1  10   17.00    3.90
  -3  -1 -10   14.20    4.30
   3   1  10   16.30    4.30
   3   1  10   14.60    3.50
   7  -2 -10    5.90    2.80
  -7   2  10    4.40    2.70
  -7   2  10    4.50    4.20
   6  -2 -10   30.50    3.90
  -6   2  10   33.40    6.40
  -6   2  10   36.60    4.00
   5  -2 -10   47.50    4.50
  -5   2  10   38.10    4.00
  -5   2  10   53.09    7.40
   4  -2 -10   59.19    4.60
  -4   2  10   61.59    4.50
  -4   2  10   39.30    6.00
   3  -2 -10   12.40    2.80
  -3   2  10   14.50    4.30
  -3   2  10   15.70    2.90
   2  -2 -10   63.89    4.90
  -2   2  10   45.60    4.30
  -2   2  10   47.40    6.10
   1  -2 -10   18.10    3.30
  -1   2  10   16.60    4.10
  -1   2  10   17.00    3.20
   0  -2 -10    0.00    2.50
   0   2  10   -2.90    2.10
  -1  -2 -10  112.19    7.20
   1   2  10  113.79    7.20
  -2  -2 -10   18.50    4.10
   2   2  10   16.50    4.00
   7  -3 -10    8.60    3.00
  -7   3  10    4.10    4.10
  -7   3  10    6.00    2.40
   6  -3 -10  101.39    5.80
  -6   3  10  111.99   10.90
  -6   3  10  115.69    5.60
   5  -3 -10   20.10    3.10
  -5   3  10   16.20    5.20
  -5   3  10   15.20    2.70
   4  -3 -10   -0.20    1.80
  -4   3  10    4.00    2.00
  -4   3  10   -4.90    2.60
   3  -3 -10    3.10    2.10
  -3   3  10    1.20    3.10
  -3   3  10   -0.60    1.80
   2  -3 -10    8.60    2.60
  -2   3  10   12.30    3.90
  -2   3  10   11.00    2.70
   1  -3 -10  174.68    7.70
  -1   3  10  192.98    7.80
  -1   3  10  186.58   11.30
   0  -3 -10   19.60    3.70
   0   3  10   17.30    3.50
  -1  -3 -10   28.60    4.60
   1   3  10   26.20    4.40
  -2  -3 -10   18.20    4.40
   2   3  10   20.60    4.40
   6  -4 -10  236.38    8.10
  -6   4  10  228.58   13.50
  -6   4  10  219.08    7.00
   5  -4 -10    5.10    2.20
  -5   4  10    8.80    4.80
  -5   4  10    6.00    1.80
   4  -4 -10   44.40    3.90
  -4   4  10   45.20    7.00
  -4   4  10   32.60    3.10
   3  -4 -10    0.50    1.90
  -3   4  10    1.50    1.80
  -3   4  10    0.60    3.40
   2  -4 -10    5.80    2.40
  -2   4  10    2.80    2.00
  -2   4  10    1.30    3.30
   1  -4 -10    2.20    2.20
  -1   4  10    2.30    2.20
   0  -4 -10   47.80    5.00
   0   4  10   40.40    4.60
   5  -5 -10   48.50    4.00
  -5   5  10   47.10    7.70
   4  -5 -10  238.18    7.60
  -4   5  10  232.08   13.20
   3  -5 -10   34.90    3.60
  -3   5  10   40.10    6.70
  -3   5  10   34.30    2.90
   2  -5 -10   -1.60    2.10
  -2   5  10   -1.80    3.90
  -2   5  10    0.40    1.90
   2  10 -11   20.70    5.30
  -2 -10  11   28.20    6.00
  -2 -10  11   23.70    6.60
   1  10 -11    1.50    3.90
  -1 -10  11    6.70    3.80
  -1 -10  11   -1.60    3.50
   0  10 -11    1.80    3.90
   0 -10  11   -0.10    3.30
   0 -10  11   12.40    4.40
  -1  10 -11   20.30    5.40
   1 -10  11   30.80    6.00
   1 -10  11   27.80    5.40
   4   9 -11   51.59    6.50
  -4  -9  11   39.60    6.30
  -4  -9  11   60.19    7.60
   3   9 -11   29.30    5.40
   3   9 -11   30.20    6.10
  -3  -9  11   40.40    6.50
  -3  -9  11   30.00    5.60
   2   9 -11    7.40    3.80
   2   9 -11    5.90    3.50
  -2  -9  11    0.60    3.30
  -2  -9  11    2.80    3.20
   1   9 -11   25.80    4.90
   1   9 -11   30.20    5.60
  -1  -9  11   16.80    4.80
  -1  -9  11   29.40    5.40
   0   9 -11    5.60    4.00
   0   9 -11    1.30    3.10
   0  -9  11    6.30    3.60
   0  -9  11   -1.10    3.20
   0  -9  11    0.50    3.10
  -1   9 -11   39.40    6.40
   1  -9  11   25.40    5.50
   1  -9  11   36.50    5.60
   1  -9  11   29.40    5.60
  -2   9 -11   99.69    9.20
   2  -9  11  102.89    9.10
   2  -9  11  116.09    8.70
   2  -9  11   89.99    8.80
  -3   9 -11   23.90    5.60
   3  -9  11   27.50    5.80
   5   8 -11   40.80    6.20
  -5  -8  11   37.80    6.50
  -5  -8  11   45.80    6.80
   4   8 -11   44.10    6.10
  -4  -8  11   54.89    7.10
  -4  -8  11   49.10    6.70
   3   8 -11   39.80    5.70
  -3  -8  11   48.70    6.50
  -3  -8  11   41.30    6.10
   2   8 -11   69.49    7.10
   2   8 -11   67.79    7.10
  -2  -8  11   62.69    7.00
  -2  -8  11   64.99    7.10
   1   8 -11    1.90    3.20
   1   8 -11    0.70    2.90
  -1  -8  11    1.50    3.20
  -1  -8  11   -2.00    2.70
   0   8 -11   79.29    7.50
   0   8 -11   66.49    7.00
   0  -8  11   83.99    8.20
   0  -8  11   62.69    7.00
  -1   8 -11   -1.20    2.90
  -1   8 -11   -1.20    2.80
   1  -8  11   -0.10    2.90
   1  -8  11   -0.50    3.20
  -2   8 -11   17.70    4.80
  -2   8 -11   27.80    4.90
   2  -8  11   23.50    5.00
   2  -8  11   18.80    5.00
  -3   8 -11   13.70    4.60
   3  -8  11   25.80    5.40
   3  -8  11   20.40    5.10
   5   7 -11   90.29    8.40
  -5  -7  11   65.39    7.50
  -5  -7  11   65.79    7.80
   4   7 -11   -5.00    2.90
  -4  -7  11    2.30    3.40
  -4  -7  11    5.20    3.50
  -3  -7  11  181.78   10.10
  -3  -7  11  175.08   10.00
   2   7 -11   60.59    6.70
  -2  -7  11   52.59    6.60
  -2  -7  11   68.59    7.30
   1   7 -11  125.59    8.50
  -1  -7  11  133.39    8.60
  -1  -7  11  113.99    8.30
   0   7 -11   19.40    4.10
   0   7 -11   21.20    5.20
   0  -7  11   17.20    4.40
   0  -7  11   13.70    4.00
  -1   7 -11   79.39    7.70
  -1   7 -11   92.69    7.30
   1  -7  11   98.69    7.80
   1  -7  11   82.29    7.80
  -2   7 -11   24.00    4.80
  -2   7 -11   25.40    6.50
   2  -7  11   27.70    5.30
   2  -7  11   21.20    4.70
  -3   7 -11   -5.00    2.90
   3  -7  11    7.30    3.80
   3  -7  11    1.10    3.50
  -4   7 -11   79.99    8.00
   4  -7  11   78.19    8.50
   4  -7  11   81.39    8.90
   6   6 -11   34.10    5.90
  -6  -6  11   20.40    5.20
   5   6 -11    5.90    3.80
  -5  -6  11   10.90    4.30
  -5  -6  11   11.10    4.10
  -4  -6  11    5.30    3.40
  -4  -6  11   11.60    4.00
   3   6 -11    5.60    3.30
  -3  -6  11    6.70    3.40
  -3  -6  11    5.60    3.40
   2   6 -11  181.38    9.70
  -2  -6  11  196.58   10.00
  -2  -6  11  169.88    9.30
   1   6 -11   36.70    5.30
  -1  -6  11   30.70    5.00
  -1  -6  11   29.10    5.20
   0   6 -11    4.50    3.20
   0  -6  11   10.50    3.70
   0  -6  11    7.90    3.40
  -1   6 -11    8.90    3.70
   1  -6  11   10.40    3.60
   1  -6  11   15.90    4.50
  -2   6 -11   36.00    5.50
   2  -6  11   38.40    5.90
   2  -6  11   34.90    5.70
  -3   6 -11   31.10    5.50
   3  -6  11    7.70    4.00
   3  -6  11   17.60    4.70
  -4   6 -11   -0.80    3.60
   4  -6  11    4.80    3.60
   4  -6  11   -2.50    3.30
   7   5 -11   37.40    6.10
  -7  -5  11   32.90    7.40
  -7  -5  11   32.40    6.00
   6   5 -11   38.10    6.00
  -6  -5  11   39.10    6.20
  -6  -5  11   25.90    6.70
   5   5 -11    1.60    3.10
  -5  -5  11    4.30    3.40
  -5  -5  11   -0.20    3.10
   4   5 -11   45.70    5.80
  -4  -5  11   53.69    6.20
  -4  -5  11   44.20    5.80
   3   5 -11   -0.50    2.80
  -3  -5  11    6.10    3.20
  -3  -5  11   -1.50    2.70
   2   5 -11    0.80    2.90
  -2  -5  11    3.40    3.00
  -2  -5  11   -0.40    2.60
   1   5 -11   64.49    6.50
  -1  -5  11   68.69    6.60
  -1  -5  11   71.49    7.10
   0   5 -11   34.20    5.20
   0  -5  11   34.50    5.10
   0  -5  11   26.90    4.50
  -1   5 -11  161.18    9.20
   1  -5  11  158.38    9.30
   1  -5  11  158.78    9.10
  -2   5 -11   62.49    6.70
   2  -5  11   60.79    6.90
   2  -5  11   49.00    6.20
  -3   5 -11   27.70    5.30
   3  -5  11   28.40    5.50
   3  -5  11   22.80    5.00
  -4   5 -11   56.79    7.00
   4  -5  11   51.49    6.80
   4  -5  11   50.29    6.90
   7   4 -11    1.70    3.50
  -7  -4  11    4.80    3.70
  -7  -4  11    2.20    4.60
   6   4 -11   23.60    4.90
  -6  -4  11   27.40    6.30
  -6  -4  11   29.30    5.10
  -5  -4  11  538.65   16.00
  -5  -4  11  552.54   16.90
   4   4 -11    1.00    2.70
  -4  -4  11    0.60    2.80
  -4  -4  11    8.90    3.30
   3   4 -11    2.00    2.70
  -3  -4  11    3.10    3.10
  -3  -4  11    1.50    2.60
   2   4 -11   -0.50    2.40
  -2  -4  11    6.00    3.30
  -2  -4  11    1.50    2.60
   1   4 -11   -2.40    2.40
  -1  -4  11    2.20    2.70
  -1  -4  11    1.70    2.70
   0   4 -11   60.69    6.40
   0  -4  11   49.90    5.70
   0  -4  11   45.70    5.70
  -1   4 -11   80.59    7.20
   1  -4  11   76.49    7.10
   1  -4  11   76.89    7.00
  -2   4 -11   -3.50    2.80
   2  -4  11   -0.40    3.10
   2  -4  11   -2.50    3.10
  -3   4 -11   18.90    4.90
   3  -4  11   23.70    5.10
   3  -4  11   30.00    5.30
  -4   4 -11    5.30    4.20
   4  -4  11   -1.60    3.20
   4  -4  11   -0.20    3.20
   7   3 -11   65.59    7.00
  -7  -3  11   59.59    8.70
  -7  -3  11   52.89    6.30
   6   3 -11    4.20    3.30
  -6  -3  11    5.20    4.90
  -6  -3  11    7.20    3.50
   5   3 -11  184.88    9.20
  -5  -3  11  165.78    8.90
  -5  -3  11  197.08   12.20
   4   3 -11   17.40    4.00
  -4  -3  11   14.20    4.90
  -4  -3  11   17.90    4.00
  -4  -3  11   19.10    3.80
   3   3 -11    4.90    3.00
  -3  -3  11   -1.30    3.30
  -3  -3  11    5.30    2.60
  -3  -3  11    4.30    2.90
   2   3 -11   43.60    5.20
  -2  -3  11   43.00    4.90
  -2  -3  11   50.59    5.60
  -2  -3  11   33.40    6.00
   1   3 -11  247.78   10.40
  -1  -3  11  240.18    9.90
  -1  -3  11  250.77   12.00
  -1  -3  11  250.57   10.30
   0   3 -11   56.89    6.00
   0  -3  11   45.10    5.50
   0  -3  11   53.49    5.60
   0  -3  11   42.60    5.80
  -1   3 -11    6.80    3.60
   1  -3  11    3.90    3.30
   1  -3  11    4.40    3.10
  -2   3 -11   82.89    7.50
   2  -3  11   85.79    6.90
   2  -3  11   84.49    7.90
  -3   3 -11    8.90    4.20
   3  -3  11    0.10    3.20
   3  -3  11   10.30    3.80
  -4   3 -11    7.50    4.50
   4  -3  11   15.30    4.50
   4  -3  11   14.00    4.70
   7   2 -11   26.60    4.90
  -7  -2  11   27.40    4.80
  -7  -2  11   24.20    6.20
   6   2 -11   55.89    6.10
  -6  -2  11   48.50    5.70
  -6  -2  11   64.69    8.70
   5   2 -11   17.50    3.80
  -5  -2  11   12.40    3.60
  -5  -2  11   16.40    5.20
   4   2 -11   14.80    3.70
  -4  -2  11   18.40    5.10
  -4  -2  11   22.20    4.00
  -4  -2  11   20.40    3.50
   3   2 -11   32.50    4.50
  -3  -2  11   27.30    5.50
  -3  -2  11   21.80    4.00
  -3  -2  11   27.20    3.90
   2   2 -11   82.59    6.50
  -2  -2  11   85.49    5.60
  -2  -2  11   89.99    8.00
  -2  -2  11   85.29    6.40
   1   2 -11  226.58    9.80
  -1  -2  11  230.48    9.10
  -1  -2  11  263.47   11.50
  -1  -2  11  243.78   10.20
   0   2 -11    4.30    3.00
   0  -2  11    7.20    3.00
   0  -2  11    5.70    3.30
   0  -2  11    5.00    3.30
  -1   2 -11    4.80    3.20
   1  -2  11    7.80    3.20
   1  -2  11    8.60    3.50
  -2   2 -11   -4.20    2.90
   2  -2  11   -0.30    2.80
   2  -2  11    0.10    3.00
  -3   2 -11   12.00    4.40
   3  -2  11   12.40    4.20
   3  -2  11   12.60    4.00
   7   1 -11   51.89    6.00
  -7  -1  11   39.10    5.20
  -7  -1  11   31.80    6.90
  -6  -1  11    9.70    3.50
  -6  -1  11   19.00    5.90
   5   1 -11    1.50    2.50
  -5  -1  11   -0.30    3.50
  -5  -1  11    2.30    2.40
   4   1 -11    8.10    2.90
  -4  -1  11    7.90    2.90
  -4  -1  11    1.60    3.70
   3   1 -11   13.40    3.40
  -3  -1  11   18.60    3.70
  -3  -1  11   18.80    3.00
  -3  -1  11   21.10    5.20
   2   1 -11  157.18    7.90
  -2  -1  11  159.48    8.00
  -2  -1  11  153.38    6.60
  -2  -1  11  142.79    9.50
   1   1 -11   39.80    4.90
  -1  -1  11   44.10    5.20
  -1  -1  11   56.39    6.50
  -1  -1  11   48.60    4.60
   0   1 -11   52.49    5.70
   0  -1  11   53.29    5.00
   0  -1  11   44.90    5.60
   0  -1  11   49.50    5.80
  -1   1 -11    6.10    3.30
   1  -1  11    9.80    3.20
   1  -1  11    3.90    3.30
  -2   1 -11   14.70    4.20
   2  -1  11   10.10    3.40
   2  -1  11    9.60    3.80
  -3   1 -11   33.80    5.70
   3  -1  11   42.20    5.60
   3  -1  11   35.30    5.80
   7   0 -11    4.60    3.10
  -7   0  11    6.00    3.00
  -7   0  11    2.90    4.30
   6   0 -11   -0.20    2.20
  -6   0  11   -4.40    2.10
  -6   0  11    1.20    3.60
   5   0 -11    3.30    2.70
  -5   0  11    6.00    4.30
  -5   0  11    7.70    2.90
   4   0 -11  127.39    7.10
  -4   0  11  133.79    7.20
  -4   0  11  151.88   10.40
   3   0 -11   45.60    4.90
  -3   0  11   41.20    6.10
  -3   0  11   52.09    5.10
   2   0 -11  122.19    7.10
  -2   0  11  127.59    7.10
  -2   0  11  144.09    9.10
   1   0 -11  132.29    7.60
  -1   0  11  137.59    8.60
  -1   0  11  142.89    7.80
   0   0 -11   31.00    4.70
   0   0  11   32.90    4.80
   0   0  11   45.70    4.30
  -1   0 -11   18.60    4.20
   1   0  11    7.90    2.80
   1   0  11    8.80    3.50
  -2   0 -11   61.29    6.60
   2   0  11   59.89    6.60
   2   0  11   75.59    5.90
   7  -1 -11   12.20    3.60
  -7   1  11    8.00    4.60
  -7   1  11    9.70    3.30
   6  -1 -11   48.70    5.20
  -6   1  11   46.00    5.00
  -6   1  11   56.99    8.30
   5  -1 -11  146.49    7.60
  -5   1  11  144.19   10.80
  -5   1  11  142.59    7.20
   4  -1 -11   74.39    5.60
  -4   1  11   74.99    8.30
  -4   1  11   66.89    5.30
   3  -1 -11    8.60    2.80
  -3   1  11    5.50    3.50
  -3   1  11    3.50    2.40
   2  -1 -11  157.88    7.70
  -2   1  11  158.98    9.60
  -2   1  11  150.18    7.30
   1  -1 -11   27.60    4.30
  -1   1  11   33.40    5.10
  -1   1  11   26.00    4.10
   0  -1 -11   14.60    3.70
   0   1  11   16.90    3.80
  -1  -1 -11    1.60    2.90
   1   1  11    2.90    3.00
  -2  -1 -11   24.70    5.00
   2   1  11   31.90    5.10
   6  -2 -11  155.88    7.60
  -6   2  11  124.79   10.60
  -6   2  11  150.08    7.00
   5  -2 -11  135.29    7.00
  -5   2  11  118.69    6.30
   4  -2 -11    1.40    2.30
  -4   2  11    4.20    2.30
  -4   2  11   -1.60    3.20
   3  -2 -11   60.09    5.20
  -3   2  11   54.39    7.00
  -3   2  11   54.19    4.90
   2  -2 -11    5.40    2.60
  -2   2  11   12.00    3.00
  -2   2  11   14.70    4.40
   1  -2 -11    0.00    2.60
  -1   2  11    3.30    2.60
   0  -2 -11   88.49    6.70
   0   2  11   86.29    6.50
  -1  -2 -11    2.20    3.20
   1   2  11   -0.80    2.70
   5  -3 -11  100.09    5.90
  -5   3  11   97.59    5.40
  -5   3  11   82.69    9.00
   4  -3 -11  105.19    5.90
  -4   3  11   85.49    8.80
  -4   3  11   97.39    5.40
   3  -3 -11   23.30    3.60
  -3   3  11   29.30    3.60
  -3   3  11   20.20    5.00
   2  -3 -11   -0.40    2.20
  -2   3  11   -2.30    1.80
  -2   3  11   -0.70    3.00
   1  -3 -11   -3.00    2.20
  -1   3  11    1.50    2.60
   0  -3 -11   85.89    6.60
   0   3  11   85.69    6.50
   2   9 -12    6.10    4.10
  -2  -9  12    5.20    4.10
  -2  -9  12    1.60    3.90
   1   9 -12   53.49    6.50
  -1  -9  12   48.20    6.70
  -1  -9  12   48.00    7.20
   0   9 -12   -2.50    3.40
   0  -9  12   -1.20    3.30
   0  -9  12    3.40    3.70
   3   8 -12   27.80    5.30
  -3  -8  12   24.30    5.20
  -3  -8  12   32.60    5.70
   2   8 -12  109.19    8.50
  -2  -8  12  115.29    8.90
  -2  -8  12  109.69    8.70
   1   8 -12    4.30    3.60
  -1  -8  12    1.80    3.60
  -1  -8  12    0.90    3.50
   0   8 -12   19.00    4.80
   0  -8  12   14.80    4.70
   0  -8  12   21.20    5.00
  -1   8 -12    4.40    3.50
   1  -8  12    3.30    3.60
   1  -8  12    1.50    3.40
  -2   8 -12   16.00    4.70
   2  -8  12   14.40    4.70
   2  -8  12   14.10    4.70
   4   7 -12    1.30    3.30
  -4  -7  12    0.80    3.30
  -4  -7  12   -0.10    3.10
   3   7 -12  103.99    8.10
  -3  -7  12   87.79    8.40
  -3  -7  12   95.39    8.90
   2   7 -12  100.89    8.60
  -2  -7  12  112.09    8.70
  -2  -7  12  124.09    8.90
   1   7 -12   40.00    5.90
  -1  -7  12   32.70    5.40
  -1  -7  12   42.50    6.20
   0   7 -12    8.60    3.80
   0  -7  12    7.80    3.80
   0  -7  12   -2.20    3.20
  -1   7 -12   16.70    4.60
   1  -7  12   22.20    5.10
   1  -7  12   28.70    5.40
  -2   7 -12   13.80    4.50
   2  -7  12    8.10    4.10
   2  -7  12    8.40    4.10
   5   6 -12    6.00    3.90
  -5  -6  12    1.90    3.60
  -5  -6  12    9.00    4.00
  -4  -6  12   71.49    7.50
  -4  -6  12   80.39    8.00
   3   6 -12    0.30    3.00
  -3  -6  12   -4.30    2.50
  -3  -6  12   -2.10    3.00
   2   6 -12   53.19    6.60
  -2  -6  12   53.19    6.40
  -2  -6  12   39.60    5.80
   1   6 -12  125.99    8.80
  -1  -6  12  124.69    9.00
  -1  -6  12  148.19    9.10
   0   6 -12    0.30    3.30
   0  -6  12   -0.40    3.30
   0  -6  12   -3.30    2.80
  -1   6 -12   19.40    4.70
   1  -6  12   10.60    4.10
   1  -6  12   19.10    4.60
  -2   6 -12   54.09    6.80
   2  -6  12   47.60    6.60
   2  -6  12   30.10    5.50
   6   5 -12   44.10    6.40
  -6  -5  12   56.39    7.10
  -6  -5  12   56.89    9.10
   5   5 -12   73.19    7.40
  -5  -5  12   69.79    7.10
  -5  -5  12   71.79    7.50
   4   5 -12    6.60    3.60
  -4  -5  12    7.60    3.70
  -4  -5  12    5.00    3.40
   3   5 -12   20.80    4.60
  -3  -5  12   23.30    4.50
  -3  -5  12   22.90    4.70
   2   5 -12   65.89    6.80
  -2  -5  12   70.79    7.20
  -2  -5  12   74.19    7.30
   1   5 -12   50.79    6.20
  -1  -5  12   64.19    7.10
  -1  -5  12   49.99    6.10
   0   5 -12   69.89    7.30
   0  -5  12   65.69    6.90
   0  -5  12   75.29    7.50
  -1   5 -12   11.90    4.20
   1  -5  12   10.00    4.00
   1  -5  12    6.80    3.80
  -2   5 -12   53.59    6.80
   2  -5  12   41.20    6.00
   2  -5  12   40.70    6.20
   3  -5  12    1.50    4.00
   6   4 -12  149.88    9.60
  -6  -4  12  145.09   12.00
  -6  -4  12  145.19    9.40
  -5  -4  12   33.10    6.60
  -5  -4  12   35.70    5.50
   4   4 -12  157.38    9.20
  -4  -4  12  123.89   10.90
  -4  -4  12  146.39    8.40
  -4  -4  12  130.49    8.50
   3   4 -12  145.79    8.90
  -3  -4  12  152.58    8.90
  -3  -4  12  117.29   10.20
  -3  -4  12  150.28    8.30
   2   4 -12    9.50    3.70
  -2  -4  12   14.50    3.90
  -2  -4  12    9.20    3.40
   1   4 -12    6.00    3.30
  -1  -4  12   -3.90    2.60
  -1  -4  12    0.40    2.80
   0   4 -12    9.30    3.80
   0  -4  12    3.80    3.10
   0  -4  12    8.20    3.60
  -1   4 -12   23.30    5.10
   1  -4  12   16.50    4.30
   1  -4  12   22.30    5.10
  -2   4 -12  103.19    8.70
   2  -4  12   88.89    8.40
   2  -4  12   81.29    7.70
   6   3 -12   10.90    3.90
  -6  -3  12   11.40    5.70
  -6  -3  12   12.20    3.90
   5   3 -12   71.79    6.80
  -5  -3  12   62.39    6.60
  -5  -3  12   64.89    8.50
   4   3 -12   62.09    6.70
  -4  -3  12   63.29    6.40
  -4  -3  12   49.70    7.40
  -4  -3  12   76.19    6.10
   3   3 -12   -0.20    2.90
  -3  -3  12   -1.40    3.70
  -3  -3  12   -0.80    2.70
  -3  -3  12    1.50    2.50
   2   3 -12   22.80    4.50
  -2  -3  12   18.30    3.90
  -2  -3  12   11.90    4.50
  -2  -3  12   13.20    3.80
   1   3 -12    4.80    3.40
  -1  -3  12   10.40    4.30
  -1  -3  12   10.60    3.30
  -1  -3  12    4.00    3.20
   0   3 -12    7.40    3.60
   0  -3  12   18.10    4.00
   0  -3  12   10.20    4.10
   0  -3  12   11.40    3.90
  -1   3 -12  229.58   11.20
   1  -3  12  225.58   10.50
   1  -3  12  246.68   11.60
  -2   3 -12    1.30    3.60
   2  -3  12   -0.10    2.90
   2  -3  12   -3.20    2.90
  -6  -2  12   19.00    6.00
  -6  -2  12   12.40    3.70
   5   2 -12    0.30    2.90
  -5  -2  12    3.20    3.00
  -5  -2  12    3.40    3.90
   4   2 -12   40.60    5.40
  -4  -2  12   35.20    5.00
  -4  -2  12   40.20    7.10
   3   2 -12   11.30    3.50
  -3  -2  12   17.50    5.10
  -3  -2  12   14.40    3.70
  -3  -2  12   10.30    2.90
   2   2 -12   34.10    5.10
  -2  -2  12   34.20    5.00
  -2  -2  12   45.20    4.80
  -2  -2  12   38.90    6.30
   1   2 -12   -2.10    2.70
  -1  -2  12    4.90    2.90
  -1  -2  12    2.30    2.90
  -1  -2  12   -2.90    2.80
   0   2 -12  169.68    9.20
   0  -2  12  153.18    8.00
   0  -2  12  138.29    8.70
  -1   2 -12   26.60    5.10
   1  -2  12   22.10    4.90
   1  -2  12   15.60    3.80
  -2   2 -12   30.30    5.50
   2  -2  12   35.50    5.30
   2  -2  12   27.80    5.30
  -6  -1  12   17.30    5.60
  -6  -1  12   32.90    4.70
   5   1 -12    2.50    2.90
  -5  -1  12   -1.70    2.40
  -5  -1  12   -0.40    3.90
   4   1 -12   -1.60    2.60
  -4  -1  12    0.60    2.50
  -4  -1  12    1.70    3.70
   3   1 -12    8.10    3.30
  -3  -1  12    8.70    4.30
  -3  -1  12    7.20    3.20
   2   1 -12    1.80    2.60
  -2  -1  12    5.20    3.70
  -2  -1  12    0.30    2.60
   1   1 -12  239.18   10.40
  -1  -1  12  228.18   10.20
  -1  -1  12  228.18   11.30
  -1  -1  12  225.88    8.40
   0   1 -12    3.20    3.00
   0  -1  12    4.40    2.50
   0  -1  12    4.90    3.20
  -1   1 -12    9.10    4.00
   1  -1  12   10.70    3.30
   1  -1  12   13.60    4.20
   6   0 -12  150.08    8.40
  -6   0  12  155.78    8.20
  -6   0  12  156.78   12.10
   5   0 -12    6.40    3.00
  -5   0  12   -0.50    3.80
  -5   0  12   -2.40    2.30
   4   0 -12    9.70    3.20
  -4   0  12   15.00    4.50
  -4   0  12    7.30    3.10
   3   0 -12   -1.90    2.40
  -3   0  12    2.20    2.70
  -3   0  12    3.20    3.80
   2   0 -12   14.50    3.60
  -2   0  12   15.50    4.60
  -2   0  12   13.90    3.50
   1   0 -12   23.80    4.40
  -1   0  12   19.60    4.10
   0   0 -12   32.60    5.10
   0   0  12   33.60    5.00
  -1   0 -12   78.69    7.30
   1   0  12   72.59    7.20
   5  -1 -12   11.60    3.50
  -5   1  12   16.90    5.50
  -5   1  12    9.80    3.10
   4  -1 -12  185.98    8.80
  -4   1  12  203.98   12.40
  -4   1  12  194.18    8.60
   3  -1 -12   37.10    4.70
  -3   1  12   35.90    6.10
  -3   1  12   42.60    4.90
   2  -1 -12   42.90    5.00
  -2   1  12   37.70    4.70
  -2   1  12   45.40    6.50
   1  -1 -12  104.19    7.40
  -1   1  12  112.39    7.40
   0  -1 -12    4.50    3.20
   0   1  12   -0.70    2.90
   4  -2 -12   43.60    4.90
  -4   2  12   29.20    6.10
  -4   2  12   35.10    4.30
   3  -2 -12   22.50    4.00
  -3   2  12   15.40    4.90
  -3   2  12   18.10    3.40
   2  -2 -12   47.90    5.20
  -2   2  12   40.70    4.80
   2   7 -13   25.90    5.50
  -2  -7  13   26.70    5.30
  -2  -7  13   28.40    5.80
   1   7 -13  205.88   11.40
  -1  -7  13  161.18   10.70
  -1  -7  13  165.28   10.50
   3   6 -13    6.90    4.10
  -3  -6  13    3.60    3.40
  -3  -6  13    3.10    3.40
   2   6 -13   11.50    4.30
  -2  -6  13    2.90    3.50
  -2  -6  13    8.00    3.70
   1   6 -13   50.69    6.50
  -1  -6  13   57.99    7.10
  -1  -6  13   41.40    6.40
   0   6 -13   60.49    7.30
   0  -6  13   50.29    6.80
   0  -6  13   66.89    7.50
   4   5 -13   16.10    4.70
  -4  -5  13   11.80    5.80
  -4  -5  13   11.40    4.20
  -4  -5  13    6.30    3.70
   3   5 -13   18.30    4.70
  -3  -5  13   24.30    5.20
  -3  -5  13   13.80    4.10
   2   5 -13    3.10    3.50
  -2  -5  13    5.10    3.60
  -2  -5  13    4.10    3.10
   1   5 -13   56.89    6.80
  -1  -5  13   46.90    6.50
  -1  -5  13   40.50    6.10
   0   5 -13    4.30    3.90
   0  -5  13    1.30    3.10
   0  -5  13    8.40    3.70
   4   4 -13  123.89    9.00
  -4  -4  13  142.59   11.90
  -4  -4  13  148.59    8.50
  -4  -4  13  136.19    8.90
   3   4 -13   38.70    5.90
  -3  -4  13   42.70    5.40
  -3  -4  13   30.80    6.50
  -3  -4  13   32.50    5.50
   2   4 -13    6.30    3.60
  -2  -4  13    6.30    3.80
  -2  -4  13    5.80    4.50
  -2  -4  13    5.10    3.30
   1   4 -13    8.40    3.80
  -1  -4  13    1.40    4.10
  -1  -4  13    3.20    3.20
  -1  -4  13    7.90    3.60
   0   4 -13    6.70    4.00
   0  -4  13    0.90    3.00
   0  -4  13    1.50    3.30
   4   3 -13    0.40    3.30
  -4  -3  13   -1.30    2.60
  -4  -3  13   -0.20    2.90
  -4  -3  13    0.00    4.10
   3   3 -13   30.90    5.30
  -3  -3  13   22.50    4.60
  -3  -3  13   33.30    6.60
  -3  -3  13   20.80    3.90
   2   3 -13    9.20    3.90
  -2  -3  13   14.40    3.60
  -2  -3  13    9.50    4.40
  -2  -3  13    3.50    3.30
   1   3 -13    5.70    3.70
  -1  -3  13    9.20    4.30
  -1  -3  13   14.50    4.20
  -1  -3  13    9.50    3.50
   0   3 -13   19.10    4.80
   0  -3  13   13.00    4.30
   0  -3  13   17.90    4.30
   4   2 -13    4.20    3.40
  -4  -2  13    5.50    3.40
  -4  -2  13   12.70    5.20
   3   2 -13   53.09    6.30
  -3  -2  13   38.20    5.30
  -3  -2  13   41.10    6.70
   2   2 -13    5.60    3.50
  -2  -2  13    2.70    3.10
  -2  -2  13   -1.30    3.80
  -2  -2  13    0.00    3.30
   1   2 -13   22.70    4.80
  -1  -2  13   27.00    4.10
  -1  -2  13   24.40    4.70
  -1  -2  13   25.40    6.60
   0   2 -13  156.08    9.90
   0  -2  13  161.58    9.80
   0  -2  13  171.48    8.60
   4   1 -13    6.80    3.40
  -4  -1  13    4.00    4.40
  -4  -1  13    9.40    3.60
   3   1 -13   56.69    6.20
  -3  -1  13   67.89    6.60
  -3  -1  13   68.39    8.40
   2   1 -13    7.50    3.70
  -2  -1  13   20.30    4.50
  -2  -1  13   15.40    4.60
   1   1 -13    1.90    3.10
  -1  -1  13    5.20    3.10
   0   0   0    0.00    0.00

_computing_structure_solution     'SHELXT 2014/5 (Sheldrick, 2014)'
;
_shelx_hkl_checksum              47885
_shelx_shelxl_version_number     2014/7
_olex2_date_sample_data_collection 2016-09-23
_olex2_date_sample_submission    2016-09-23
_olex2_submission_original_sample_id ca220916_1_1
_olex2_submission_special_instructions 'No special instructions were received'
loop_
_space_group_symop_operation_xyz
'x, y, z'
'-x, -y, -z'
loop_
_atom_site_label
_atom_site_type_symbol
_atom_site_fract_x
_atom_site_fract_y
_atom_site_fract_z
_atom_site_U_iso_or_equiv
_atom_site_adp_type
_atom_site_occupancy
_atom_site_site_symmetry_order
_atom_site_calc_flag
_atom_site_refinement_flags_posn
O2 O 0.96087(12) 0.79652(9) 0.00273(10) 0.01820(18) Uani 1 1 d D
H2 H 1.014(2) 0.8617(17) -0.0397(18) 0.027 Uiso 1 1 d DR
O1 O 0.86604(12) 1.01519(9) 0.12038(9) 0.01809(18) Uani 1 1 d .
N1 N 0.42158(14) 0.78603(11) 0.47873(11) 0.01670(19) Uani 1 1 d .
C1 C 0.87311(15) 0.87649(12) 0.09791(11) 0.01260(19) Uani 1 1 d .
C3 C 0.70467(15) 0.71358(12) 0.24270(12) 0.0137(2) Uani 1 1 d .
C2 C 0.78256(16) 0.78453(12) 0.17558(12) 0.0148(2) Uani 1 1 d .
C7 C 0.58615(15) 0.73502(12) 0.46906(12) 0.0134(2) Uani 1 1 d .
C8 C 0.71532(17) 0.80842(14) 0.61069(13) 0.0195(2) Uani 1 1 d .
H8 H 0.8422 0.7967 0.6375 0.023 Uiso 1 1 calc R
C4 C 0.60542(15) 0.62146(12) 0.32090(11) 0.01247(19) Uani 1 1 d .
C5 C 0.72159(18) 0.50298(14) 0.35576(14) 0.0196(2) Uani 1 1 d .
H5A H 0.8447 0.5643 0.4304 0.024 Uiso 1 1 calc R
H5B H 0.6515 0.4401 0.4050 0.024 Uiso 1 1 calc R
C13 C 0.40444(17) 0.53271(14) 0.21379(13) 0.0197(2) Uani 1 1 d .
H13A H 0.4160 0.4752 0.1099 0.024 Uiso 1 1 calc R
H13B H 0.3458 0.4532 0.2531 0.024 Uiso 1 1 calc R
C9 C 0.6239(2) 0.90438(14) 0.70871(14) 0.0244(3) Uani 1 1 d .
H9 H 0.6779 0.9684 0.8137 0.029 Uiso 1 1 calc R
C11 C 0.24231(17) 0.72749(16) 0.35886(15) 0.0234(2) Uani 1 1 d .
H11A H 0.1829 0.8174 0.3559 0.028 Uiso 1 1 calc R
H11B H 0.1535 0.6504 0.3825 0.028 Uiso 1 1 calc R
C10 C 0.4438(2) 0.88803(14) 0.62451(15) 0.0230(3) Uani 1 1 d .
H10 H 0.3500 0.9388 0.6610 0.028 Uiso 1 1 calc R
C12 C 0.27664(17) 0.64768(16) 0.20389(14) 0.0233(2) Uani 1 1 d .
H12A H 0.3373 0.7296 0.1682 0.028 Uiso 1 1 calc R
H12B H 0.1532 0.5891 0.1283 0.028 Uiso 1 1 calc R
C6 C 0.7615(2) 0.38827(16) 0.21556(17) 0.0309(3) Uani 1 1 d .
H6A H 0.6407 0.3227 0.1430 0.046 Uiso 1 1 calc GR
H6B H 0.8379 0.3195 0.2478 0.046 Uiso 1 1 calc GR
H6C H 0.8316 0.4490 0.1659 0.046 Uiso 1 1 calc GR
loop_
_atom_site_aniso_label
_atom_site_aniso_U_11
_atom_site_aniso_U_22
_atom_site_aniso_U_33
_atom_site_aniso_U_23
_atom_site_aniso_U_13
_atom_site_aniso_U_12
O2 0.0248(4) 0.0149(4) 0.0226(4) 0.0101(3) 0.0160(3) 0.0067(3)
O1 0.0245(4) 0.0133(3) 0.0221(4) 0.0090(3) 0.0136(3) 0.0052(3)
N1 0.0195(5) 0.0160(4) 0.0195(4) 0.0091(3) 0.0097(4) 0.0064(3)
C1 0.0127(4) 0.0137(4) 0.0123(4) 0.0060(3) 0.0042(3) 0.0016(3)
C3 0.0157(5) 0.0122(4) 0.0135(4) 0.0046(4) 0.0047(4) 0.0028(4)
C2 0.0175(5) 0.0136(4) 0.0153(5) 0.0063(4) 0.0067(4) 0.0032(4)
C7 0.0148(5) 0.0133(4) 0.0142(4) 0.0065(4) 0.0061(4) 0.0026(4)
C8 0.0206(5) 0.0190(5) 0.0167(5) 0.0067(4) 0.0026(4) 0.0008(4)
C4 0.0154(5) 0.0114(4) 0.0125(4) 0.0058(3) 0.0065(4) 0.0016(3)
C5 0.0261(6) 0.0179(5) 0.0247(5) 0.0133(4) 0.0151(5) 0.0099(4)
C13 0.0217(6) 0.0180(5) 0.0155(5) 0.0054(4) 0.0036(4) -0.0041(4)
C9 0.0366(7) 0.0177(5) 0.0164(5) 0.0033(4) 0.0087(5) 0.0024(5)
C11 0.0146(5) 0.0317(6) 0.0293(6) 0.0183(5) 0.0053(5) 0.0056(4)
C10 0.0343(7) 0.0162(5) 0.0255(6) 0.0083(4) 0.0189(5) 0.0098(5)
C12 0.0172(5) 0.0307(6) 0.0213(5) 0.0143(5) 0.0000(4) -0.0010(4)
C6 0.0479(9) 0.0206(6) 0.0379(7) 0.0137(5) 0.0300(7) 0.0161(6)
loop_
_atom_type_symbol
_atom_type_description
_atom_type_scat_dispersion_real
_atom_type_scat_dispersion_imag
_atom_type_scat_source
C C 0.0033 0.0016 'International Tables Vol C Tables 4.2.6.8 and 6.1.1.4'
H H 0.0000 0.0000 'International Tables Vol C Tables 4.2.6.8 and 6.1.1.4'
N N 0.0061 0.0033 'International Tables Vol C Tables 4.2.6.8 and 6.1.1.4'
O O 0.0106 0.0060 'International Tables Vol C Tables 4.2.6.8 and 6.1.1.4'
loop_
_geom_angle_atom_site_label_1
_geom_angle_atom_site_label_2
_geom_angle_atom_site_label_3
_geom_angle
C1 O2 H2 108.0(11)
C7 N1 C11 125.83(10)
C10 N1 C7 109.37(10)
C10 N1 C11 124.43(10)
O2 C1 C2 113.58(9)
O1 C1 O2 124.47(10)
O1 C1 C2 121.95(10)
C2 C3 C4 178.12(11)
C3 C2 C1 177.31(11)
N1 C7 C8 107.57(10)
N1 C7 C4 121.67(9)
C8 C7 C4 130.74(10)
C7 C8 H8 126.3
C7 C8 C9 107.37(11)
C9 C8 H8 126.3
C3 C4 C7 109.08(8)
C3 C4 C5 109.56(9)
C3 C4 C13 107.97(9)
C7 C4 C5 109.76(9)
C7 C4 C13 109.35(9)
C5 C4 C13 111.08(9)
C4 C5 H5A 108.6
C4 C5 H5B 108.6
H5A C5 H5B 107.6
C6 C5 C4 114.71(10)
C6 C5 H5A 108.6
C6 C5 H5B 108.6
C4 C13 H13A 109.4
C4 C13 H13B 109.4
H13A C13 H13B 108.0
C12 C13 C4 111.30(9)
C12 C13 H13A 109.4
C12 C13 H13B 109.4
C8 C9 H9 126.3
C10 C9 C8 107.37(11)
C10 C9 H9 126.3
N1 C11 H11A 109.5
N1 C11 H11B 109.5
N1 C11 C12 110.51(10)
H11A C11 H11B 108.1
C12 C11 H11A 109.5
C12 C11 H11B 109.5
N1 C10 H10 125.8
C9 C10 N1 108.30(11)
C9 C10 H10 125.8
C13 C12 H12A 109.5
C13 C12 H12B 109.5
C11 C12 C13 110.73(10)
C11 C12 H12A 109.5
C11 C12 H12B 109.5
H12A C12 H12B 108.1
C5 C6 H6A 109.5
C5 C6 H6B 109.5
C5 C6 H6C 109.5
H6A C6 H6B 109.5
H6A C6 H6C 109.5
H6B C6 H6C 109.5
loop_
_geom_bond_atom_site_label_1
_geom_bond_atom_site_label_2
_geom_bond_distance
O2 H2 0.895(9)
O2 C1 1.3150(13)
O1 C1 1.2224(13)
N1 C7 1.3716(14)
N1 C11 1.4612(16)
N1 C10 1.3674(15)
C1 C2 1.4444(14)
C3 C2 1.1969(15)
C3 C4 1.4806(14)
C7 C8 1.3788(15)
C7 C4 1.5124(14)
C8 H8 0.9500
C8 C9 1.4153(17)
C4 C5 1.5474(15)
C4 C13 1.5498(15)
C5 H5A 0.9900
C5 H5B 0.9900
C5 C6 1.5274(17)
C13 H13A 0.9900
C13 H13B 0.9900
C13 C12 1.5217(18)
C9 H9 0.9500
C9 C10 1.366(2)
C11 H11A 0.9900
C11 H11B 0.9900
C11 C12 1.5150(18)
C10 H10 0.9500
C12 H12A 0.9900
C12 H12B 0.9900
C6 H6A 0.9800
C6 H6B 0.9800
C6 H6C 0.9800
loop_
_geom_torsion_atom_site_label_1
_geom_torsion_atom_site_label_2
_geom_torsion_atom_site_label_3
_geom_torsion_atom_site_label_4
_geom_torsion
N1 C7 C8 C9 0.93(12)
N1 C7 C4 C3 97.67(11)
N1 C7 C4 C5 -142.28(10)
N1 C7 C4 C13 -20.20(13)
N1 C11 C12 C13 47.24(13)
C3 C4 C5 C6 -56.61(13)
C3 C4 C13 C12 -70.87(11)
C7 N1 C11 C12 -20.26(15)
C7 N1 C10 C9 0.70(13)
C7 C8 C9 C10 -0.51(13)
C7 C4 C5 C6 -176.36(10)
C7 C4 C13 C12 47.69(11)
C8 C7 C4 C3 -80.50(14)
C8 C7 C4 C5 39.55(15)
C8 C7 C4 C13 161.64(11)
C8 C9 C10 N1 -0.11(14)
C4 C7 C8 C9 179.29(10)
C4 C13 C12 C11 -63.87(12)
C5 C4 C13 C12 168.98(9)
C13 C4 C5 C6 62.59(13)
C11 N1 C7 C8 -174.32(10)
C11 N1 C7 C4 7.14(16)
C11 N1 C10 C9 174.11(10)
C10 N1 C7 C8 -1.02(12)
C10 N1 C7 C4 -179.56(9)
C10 N1 C11 C12 167.41(11)
