#------------------------------------------------------------------------------
#$Date: 2017-09-12 05:56:31 +0300 (Tue, 12 Sep 2017) $
#$Revision: 200552 $
#$URL: file:///home/coder/svn-repositories/cod/cif/1/54/70/1547043.cif $
#------------------------------------------------------------------------------
#
# This file is available in the Crystallography Open Database (COD),
# http://www.crystallography.net/
#
# All data on this site have been placed in the public domain by the
# contributors.
#
data_1547043
loop_
_publ_author_name
'Morris, Patrick J.'
'Moaddel, Ruin'
'Zanos, Panos'
'Moore, Curtis E.'
'Gould, Todd'
'Zarate, Jr, Carlos A'
'Thomas, Craig J.'
_publ_section_title
;
 Synthesis and N-Methyl-d-aspartate (NMDA) Receptor Activity of Ketamine
 Metabolites.
;
_journal_issue                   17
_journal_name_full               'Organic letters'
_journal_page_first              4572
_journal_page_last               4575
_journal_paper_doi               10.1021/acs.orglett.7b02177
_journal_volume                  19
_journal_year                    2017
_chemical_absolute_configuration ad
_chemical_formula_moiety         'C12 H15 Cl N O2, Cl'
_chemical_formula_sum            'C12 H15 Cl2 N O2'
_chemical_formula_weight         276.15
_space_group_crystal_system      monoclinic
_space_group_IT_number           4
_space_group_name_Hall           'P 2yb'
_space_group_name_H-M_alt        'P 1 21 1'
_symmetry_space_group_name_Hall  'P 2yb'
_symmetry_space_group_name_H-M   'P 1 21 1'
_atom_sites_solution_hydrogens   mixed
_atom_sites_solution_primary     dual
_atom_sites_solution_secondary   difmap
_audit_creation_date             2016-08-04
_audit_creation_method
;
Olex2 1.2-beta
(compiled 2016.07.26 svn.r3321 for OlexSys, GUI svn.r5206)
;
_cell_angle_alpha                90
_cell_angle_beta                 96.832(3)
_cell_angle_gamma                90
_cell_formula_units_Z            2
_cell_length_a                   7.3612(9)
_cell_length_b                   7.4951(9)
_cell_length_c                   11.3569(13)
_cell_measurement_reflns_used    7055
_cell_measurement_temperature    100
_cell_measurement_theta_max      26.364
_cell_measurement_theta_min      2.787
_cell_volume                     622.14(13)
_computing_cell_refinement       'SAINT v8.34A (Bruker, 2013)'
_computing_data_collection       'APEX2 v2013.6-2 (Bruker, 2013)'
_computing_data_reduction        'SAINT v8.34A (Bruker, 2013)'
_computing_molecular_graphics    'Olex2 (Dolomanov et al., 2009)'
_computing_publication_material  'Olex2 (Dolomanov et al., 2009)'
_computing_structure_refinement  'ShelXL (Sheldrick, 2015)'
_computing_structure_solution    'ShelXT (Sheldrick, 2015)'
_diffrn_ambient_temperature      100
_diffrn_detector                 'Bruker APEX-II CCD'
_diffrn_detector_area_resol_mean 7.9
_diffrn_detector_type            'CCD Area Detector'
_diffrn_measured_fraction_theta_full 1.000
_diffrn_measured_fraction_theta_max 0.996
_diffrn_measurement_device       'Kappa Four-Circle Diffractometer'
_diffrn_measurement_device_type  'Bruker X8 APEX II'
_diffrn_measurement_method       '\w and \f scans'
_diffrn_radiation_monochromator  graphite
_diffrn_radiation_probe          x-ray
_diffrn_radiation_type           MoK\a
_diffrn_radiation_wavelength     0.71073
_diffrn_reflns_av_R_equivalents  0.0267
_diffrn_reflns_av_unetI/netI     0.0229
_diffrn_reflns_Laue_measured_fraction_full 1.000
_diffrn_reflns_Laue_measured_fraction_max 0.996
_diffrn_reflns_limit_h_max       8
_diffrn_reflns_limit_h_min       -9
_diffrn_reflns_limit_k_max       9
_diffrn_reflns_limit_k_min       -9
_diffrn_reflns_limit_l_max       11
_diffrn_reflns_limit_l_min       -14
_diffrn_reflns_number            10243
_diffrn_reflns_point_group_measured_fraction_full 1.000
_diffrn_reflns_point_group_measured_fraction_max 0.987
_diffrn_reflns_theta_full        25.000
_diffrn_reflns_theta_max         26.386
_diffrn_reflns_theta_min         1.806
_diffrn_source                   'sealed tube'
_diffrn_source_type              fine-focus
_diffrn_standards_number         0
_exptl_absorpt_coefficient_mu    0.510
_exptl_absorpt_correction_T_max  0.0932
_exptl_absorpt_correction_T_min  0.0664
_exptl_absorpt_correction_type   multi-scan
_exptl_absorpt_process_details
;
SADABS-2014/5 (Bruker,2014/5) was used for absorption correction.
wR2(int) was 0.0465 before and 0.0404 after correction.
The Ratio of minimum to maximum transmission is 0.7124.
The \l/2 correction factor is 0.00150.
;
_exptl_crystal_colour            Colorless
_exptl_crystal_colour_primary    Colorless
_exptl_crystal_density_diffrn    1.474
_exptl_crystal_description       Rod
_exptl_crystal_F_000             288
_exptl_crystal_size_max          0.467
_exptl_crystal_size_mid          0.323
_exptl_crystal_size_min          0.215
_refine_diff_density_max         0.235
_refine_diff_density_min         -0.152
_refine_diff_density_rms         0.037
_refine_ls_abs_structure_details
;
 Flack x determined using 1096 quotients [(I+)-(I-)]/[(I+)+(I-)]
 (Parsons, Flack and Wagner, Acta Cryst. B69 (2013) 249-259).
;
_refine_ls_abs_structure_Flack   0.008(18)
_refine_ls_extinction_method     none
_refine_ls_goodness_of_fit_ref   1.046
_refine_ls_hydrogen_treatment    mixed
_refine_ls_matrix_type           full
_refine_ls_number_parameters     170
_refine_ls_number_reflns         2513
_refine_ls_number_restraints     5
_refine_ls_restrained_S_all      1.047
_refine_ls_R_factor_all          0.0209
_refine_ls_R_factor_gt           0.0200
_refine_ls_shift/su_max          0.001
_refine_ls_shift/su_mean         0.000
_refine_ls_structure_factor_coef Fsqd
_refine_ls_weighting_details
'w=1/[\s^2^(Fo^2^)+(0.0294P)^2^+0.0851P] where P=(Fo^2^+2Fc^2^)/3'
_refine_ls_weighting_scheme      calc
_refine_ls_wR_factor_gt          0.0509
_refine_ls_wR_factor_ref         0.0515
_reflns_Friedel_coverage         0.836
_reflns_Friedel_fraction_full    1.000
_reflns_Friedel_fraction_max     0.977
_reflns_number_gt                2447
_reflns_number_total             2513
_reflns_threshold_expression     'I > 2\s(I)'
_cod_data_source_file            ol7b02177_si_003.cif
_cod_data_source_block           NIH17
_cod_depositor_comments
;
The following automatic conversions were performed:

'_diffrn_radiation_probe' value 'X-ray' changed to 'x-ray' according
to
/home/data/users/saulius/crontab/automatic-downloads/current/ACS/lib/dictionaries/cif_core.dic
dictionary named 'cif_core.dic' version 2.4.2 from 2011-04-26.

Automatic conversion script
Id: cif_fix_values 4973 2017-02-22 13:04:09Z antanas 
;
_cod_database_code               1547043
_shelx_space_group_comment
;
The symmetry employed for this shelxl refinement is uniquely defined
by the following loop, which should always be used as a source of
symmetry information in preference to the above space-group names.
They are only intended as comments.
;
_shelx_estimated_absorpt_t_max   0.898
_shelx_estimated_absorpt_t_min   0.796
_olex2_refinement_description
;
1. Fixed Uiso
 At 1.2 times of:
  All C(H) groups, All C(H,H) groups
2. Restrained distances
 O2-H2 = N1-H1C = N1-H1A = N1-H1B
 0.95 with sigma of 0.02
3.a Ternary CH refined with riding coordinates:
 C2(H2A)
3.b Secondary CH2 refined with riding coordinates:
 C3(H3A,H3B), C4(H4A,H4B), C5(H5A,H5B)
3.c Aromatic/amide H refined with riding coordinates:
 C9(H9), C10(H10), C11(H11), C12(H12)
;
_shelx_res_file
;
    nih17.res created by SHELXL-2014/7

TITL NIH17 in P2(1)
REM SHELXT solution in P2(1)
REM R1 0.056, Rweak 0.028, Alpha 0.001, Orientation as input
REM Flack x = 0.027 ( 0.016 ) from Parsons' quotients
REM Formula found by SHELXT: C12 N O2 Cl2
CELL 0.71073 7.3612 7.4951 11.3569 90 96.832 90
ZERR 2 0.0009 0.0009 0.0013 0 0.003 0
LATT -1
SYMM -X,0.5+Y,-Z
SFAC C H Cl N O
UNIT 24 30 4 2 4
EQIV $1 1+X,+Y,+Z
EQIV $2 1-X,-0.5+Y,1-Z
EQIV $3 2-X,-0.5+Y,1-Z
DFIX 0.95 O2 H2 N1 H1c N1 H1a N1 H1b

L.S. 10
PLAN  20
SIZE 0.467 0.323 0.215
TEMP -173.15
HTAB N1 O2_$1
HTAB N1 Cl2
HTAB O2 Cl2_$2
HTAB N1 Cl2_$3
BOND $H
ACTA 50
list 4
fmap 2
REM <olex2.extras>
REM <HklSrc "%.\\NIH17.hkl">
REM </olex2.extras>

WGHT    0.029400    0.085100
FVAR       1.09513
CL1   3    0.656469    0.193227    0.136286    11.00000    0.02515    0.01362 =
         0.01941   -0.00261    0.00299   -0.00166
O1    5    0.522353    0.295501    0.385075    11.00000    0.01688    0.01616 =
         0.01843    0.00441    0.00488    0.00015
O2    5    0.192218    0.402575    0.274568    11.00000    0.01058    0.01791 =
         0.02210    0.00196    0.00285   -0.00127
H2    2    0.220534    0.303760    0.316735    11.00000    0.04432
N1    4    0.856513    0.428994    0.368929    11.00000    0.01213    0.01565 =
         0.01285    0.00049    0.00089    0.00039
H1A   2    0.965379    0.459566    0.338362    11.00000    0.02079
H1B   2    0.872862    0.457700    0.450774    11.00000    0.02609
H1C   2    0.849824    0.305492    0.365593    11.00000    0.02895
C1    1    0.522294    0.423713    0.319672    11.00000    0.01525    0.01267 =
         0.01032   -0.00354    0.00360   -0.00016
C2    1    0.348302    0.509235    0.262740    11.00000    0.01255    0.01432 =
         0.01415    0.00029    0.00353   -0.00192
AFIX  13
H2A   2    0.357820    0.528965    0.176606    11.00000   -1.20000
AFIX   0
C3    1    0.330145    0.690082    0.323222    11.00000    0.01525    0.01532 =
         0.01900   -0.00120    0.00189    0.00420
AFIX  23
H3A   2    0.221377    0.753395    0.283963    11.00000   -1.20000
H3B   2    0.311787    0.670672    0.407218    11.00000   -1.20000
AFIX   0
C4    1    0.500087    0.805584    0.317387    11.00000    0.01812    0.01326 =
         0.01898   -0.00230    0.00232    0.00127
AFIX  23
H4A   2    0.488483    0.916747    0.362979    11.00000   -1.20000
H4B   2    0.509048    0.838787    0.233903    11.00000   -1.20000
AFIX   0
C5    1    0.673982    0.706866    0.367785    11.00000    0.01456    0.01383 =
         0.01393   -0.00230    0.00089   -0.00099
AFIX  23
H5A   2    0.669454    0.683509    0.453185    11.00000   -1.20000
H5B   2    0.781395    0.783728    0.360346    11.00000   -1.20000
AFIX   0
C6    1    0.697836    0.527256    0.303260    11.00000    0.01004    0.01296 =
         0.01303   -0.00048    0.00044    0.00028
C7    1    0.732652    0.548036    0.173143    11.00000    0.00946    0.01704 =
         0.01349    0.00109    0.00113    0.00202
C8    1    0.719448    0.405647    0.093452    11.00000    0.01128    0.01597 =
         0.01612    0.00278   -0.00020    0.00125
C9    1    0.758573    0.423565   -0.022476    11.00000    0.01668    0.02521 =
         0.01375   -0.00102    0.00054    0.00652
AFIX  43
H9    2    0.748252    0.323695   -0.074350    11.00000   -1.20000
AFIX   0
C10   1    0.812606    0.587216   -0.062195    11.00000    0.01700    0.03363 =
         0.01443    0.00726    0.00319    0.00433
AFIX  43
H10   2    0.838861    0.600881   -0.141598    11.00000   -1.20000
AFIX   0
C11   1    0.828102    0.730818    0.014633    11.00000    0.01465    0.02502 =
         0.02143    0.00928    0.00293    0.00013
AFIX  43
H11   2    0.864644    0.843761   -0.012354    11.00000   -1.20000
AFIX   0
C12   1    0.790712    0.711473    0.130997    11.00000    0.01349    0.01697 =
         0.01910    0.00118    0.00166   -0.00184
AFIX  43
H12   2    0.804808    0.811084    0.183009    11.00000   -1.20000
AFIX   0

CL2   3    0.962348    0.548264    0.629074    11.00000    0.01846    0.01355 =
         0.01519   -0.00057    0.00070   -0.00066
HKLF 4

REM  NIH17 in P2(1)
REM R1 =  0.0200 for    2447 Fo > 4sig(Fo)  and  0.0209 for all    2513 data
REM    170 parameters refined using      5 restraints

END

WGHT      0.0294      0.0851

REM Highest difference peak  0.235,  deepest hole -0.152,  1-sigma level  0.037
Q1    1   0.7162  0.5485  0.2322  11.00000  0.05    0.23
Q2    1   0.6164  0.4710  0.3082  11.00000  0.05    0.19
Q3    1   0.8397  0.6965  0.0784  11.00000  0.05    0.18
Q4    1   0.7614  0.4743  0.1410  11.00000  0.05    0.18
Q5    1   0.7698  0.6208  0.1574  11.00000  0.05    0.17
Q6    1   0.7770  0.3978  0.0477  11.00000  0.05    0.17
Q7    1   0.6932  0.6156  0.3339  11.00000  0.05    0.17
Q8    1   0.3552  0.6009  0.2933  11.00000  0.05    0.16
Q9    1   0.5906  0.7607  0.3380  11.00000  0.05    0.15
Q10   1   0.2758  0.4573  0.2726  11.00000  0.05    0.14
Q11   1   0.8467  0.4873 -0.0264  11.00000  0.05    0.14
Q12   1   0.8115  1.0074  0.1606  11.00000  0.05    0.13
Q13   1   0.4048  0.7480  0.3210  11.00000  0.05    0.13
Q14   1   0.9873  0.6230  0.5559  11.00000  0.05    0.13
Q15   1   0.7605  0.4762  0.3326  11.00000  0.05    0.13
Q16   1   0.8464  0.6258 -0.0055  11.00000  0.05    0.13
Q17   1   1.0316  0.2649  0.4625  11.00000  0.05    0.12
Q18   1   0.1914  0.7321  0.3229  11.00000  0.05    0.12
Q19   1   0.9493  0.4812  0.7006  11.00000  0.05    0.12
Q20   1   0.4286  0.4586  0.2887  11.00000  0.05    0.12
;
_shelx_res_checksum              9639
_shelx_hkl_file
;
   1   0   0  396.76   12.30
   1   0   0  412.36   12.30
   1   0   0  422.36   11.90
  -1   0   0  414.66   12.20
  -1   0   0  336.07   11.70
  -1   0   0  411.96   12.30
  -2   0   0 1782.82   51.69
   2   0   0 1796.82   52.59
   2   0   0 1821.02   51.79
  -2   0   0 1815.02   52.79
   2   0   0 1761.52   52.69
  -2   0   0 1879.81   52.79
  -2   0   0 1872.31   52.59
   3   0   0   62.29    4.50
   3   0   0   60.99    4.20
  -3   0   0   55.19    4.20
  -3   0   0   58.29    3.50
   3   0   0   61.19    3.60
  -3   0   0   58.39    4.70
  -3   0   0   68.39    4.40
  -3   0   0   66.79    4.50
  -4   0   0  393.26   14.50
   4   0   0  364.86   14.10
  -4   0   0  352.86   14.30
  -4   0   0  387.46   14.60
   4   0   0  391.56   13.00
  -4   0   0  357.26   14.50
  -4   0   0  376.06   13.00
   4   0   0  380.36   14.50
  -5   0   0   53.89    3.70
  -5   0   0   53.29    5.50
  -5   0   0   60.69    5.50
   5   0   0   61.49    4.90
   5   0   0   61.29    4.20
  -5   0   0   57.49    5.50
   6   0   0 1577.74   49.40
  -6   0   0 1534.95   49.90
   6   0   0 1597.94   47.20
  -6   0   0 1542.45   47.10
  -6   0   0 1617.74   50.29
  -6   0   0 1533.55   49.99
  -7   0   0  268.07   13.70
  -7   0   0  288.07   11.50
  -7   0   0  270.17   13.60
   7   0   0  274.37   13.40
  -8   0   0   40.20    5.70
  -8   0   0   40.70    6.20
  -9   0   0    3.30    3.30
   0  -1   0    0.40    0.60
   0  -1   0    0.00    0.30
   0  -1   0   -0.90    0.70
   0  -1   0   -0.70    0.50
   0  -1   0    1.10    0.50
   0   1   0    0.10    0.50
   0   1   0   -0.20    0.50
   0   1   0    0.30    0.80
   0   1   0   -0.60    0.50
   0   1   0   -0.50    0.30
  -1  -1   0 1575.04   45.00
  -1  -1   0 1544.65   45.00
   1  -1   0 1543.35   45.30
   1  -1   0 1555.64   45.00
  -1  -1   0 1537.75   44.90
  -1  -1   0 1577.64   43.90
   1  -1   0 1575.84   45.30
  -1  -1   0 1549.05   44.90
  -1   1   0 1561.54   45.00
  -1   1   0 1634.04   45.30
   1   1   0 1600.24   45.10
  -1   1   0 1577.24   45.30
   1   1   0 1553.54   44.90
   1   1   0 1525.55   44.90
  -1   1   0 1617.14   45.20
  -2  -1   0 3648.83  104.29
  -2  -1   0 3792.62  103.59
  -2  -1   0 3561.94  104.29
   2  -1   0 3641.14  104.79
  -2  -1   0 3815.02  104.49
   2  -1   0 3688.23  103.19
   2  -1   0 3739.43  104.59
   2  -1   0 3725.33  104.79
   2   1   0 3730.43  104.29
   2   1   0 3774.02  104.29
  -2   1   0 3725.03  104.79
  -2   1   0 3652.43  104.79
  -2   1   0 3622.04  104.59
  -2   1   0 3482.35  104.69
   2   1   0 3655.13  104.29
   3  -1   0  208.28    8.80
   3  -1   0  197.68    6.70
  -3  -1   0  193.78    8.00
   3  -1   0  200.28    8.50
   3  -1   0  189.98    8.50
  -3  -1   0  195.18    8.40
  -3  -1   0  186.18    8.30
  -3  -1   0  200.38    7.70
   3   1   0  186.38    8.20
  -3   1   0  177.98    8.40
  -3   1   0  195.68    8.70
   3   1   0  179.88    7.90
  -3   1   0  191.08    8.60
   3   1   0  181.68    8.00
  -3   1   0  197.38    8.60
  -4  -1   0  519.05   17.30
   4  -1   0  490.75   15.60
   4  -1   0  492.55   18.00
  -4  -1   0  502.65   18.00
  -4  -1   0  508.45   17.20
   4  -1   0  483.15   18.20
  -4  -1   0  510.45   18.10
  -4   1   0  479.45   18.10
   4   1   0  502.95   17.20
   4   1   0  510.55   17.90
  -4   1   0  496.45   18.30
  -4   1   0  447.46   18.00
   4   1   0  485.45   17.60
  -4   1   0  527.75   18.50
  -5  -1   0 1213.68   37.40
   5  -1   0 1157.88   34.10
  -5  -1   0 1145.49   35.70
  -5  -1   0 1249.18   36.40
  -5  -1   0 1102.79   36.90
   5  -1   0 1148.99   37.10
   5   1   0 1048.00   36.20
   5   1   0 1148.49   35.70
  -5   1   0 1173.28   37.70
  -5   1   0 1109.59   37.20
  -5   1   0 1090.39   37.30
  -6  -1   0  187.68    9.10
   6  -1   0  199.48    8.20
  -6  -1   0  192.58   10.70
  -6  -1   0  185.18   10.30
   6  -1   0  182.88   10.30
  -6  -1   0  203.48   11.20
  -6   1   0  199.18   10.80
  -6   1   0  219.88   11.50
   6   1   0  218.18   10.50
  -6   1   0  220.18   11.60
  -7  -1   0   58.49    6.90
  -7  -1   0   63.99    5.30
   7  -1   0   57.59    6.50
  -7  -1   0   58.29    6.30
  -7   1   0   71.29    7.20
  -7   1   0   61.09    7.00
   7   1   0   61.89    6.30
  -8  -1   0  529.25   22.30
  -8  -1   0  545.45   20.00
  -8  -1   0  536.65   22.70
  -8   1   0  534.55   22.60
  -8   1   0  532.95   22.60
   0  -2   0   56.79    2.80
   0  -2   0   46.00    3.40
   0  -2   0   48.70    3.20
   0  -2   0   52.79    3.40
   0  -2   0   56.29    3.50
   0   2   0   52.59    3.40
   0   2   0   49.99    2.70
   0   2   0   43.90    3.20
   0   2   0   44.00    3.20
   0   2   0   48.80    3.80
   0   2   0   51.69    2.70
   1  -2   0 2444.56   72.19
   1  -2   0 2560.34   73.29
  -1  -2   0 2563.24   72.69
  -1  -2   0 2489.95   73.29
   1  -2   0 2559.64   73.79
  -1  -2   0 2682.43   73.49
  -1  -2   0 2512.45   73.29
   1  -2   0 2573.14   73.79
  -1   2   0 2524.05   73.29
   1   2   0 2554.44   73.29
   1   2   0 2544.25   73.29
  -1   2   0 2642.94   73.79
  -1   2   0 2541.55   73.69
  -1   2   0 2556.94   72.39
   1   2   0 2636.44   73.39
  -1   2   0 2576.64   73.19
   1   2   0 2487.15   72.69
  -2  -2   0  191.68    7.70
  -2  -2   0  171.08    7.80
   2  -2   0  194.48    8.50
  -2  -2   0  189.18    5.80
   2  -2   0  202.28    8.10
  -2  -2   0  196.98    7.90
  -2  -2   0  176.58    7.70
   2  -2   0  191.68    8.50
  -2   2   0  174.88    8.20
   2   2   0  168.48    7.40
  -2   2   0  151.18    8.00
   2   2   0  166.28    7.30
  -2   2   0  174.68    8.00
   2   2   0  184.98    8.10
  -2   2   0  166.78    7.60
  -3  -2   0 3480.45   98.69
   3  -2   0 3326.37   99.19
   3  -2   0 3518.75   99.49
  -3  -2   0 3523.55   98.99
  -3  -2   0 3400.76   96.69
   3  -2   0 3523.95   98.99
  -3  -2   0 3347.17   98.59
   3  -2   0 3375.06   95.99
  -3  -2   0 3340.47   98.49
  -3   2   0 3473.25   99.39
   3   2   0 3578.94   98.59
   3   2   0 3466.85   98.79
  -3   2   0 3300.67   99.39
  -3   2   0 3343.57   98.79
  -3   2   0 3485.95   99.39
   3   2   0 3330.47   98.29
  -4  -2   0  508.25   18.10
  -4  -2   0  534.35   16.80
  -4  -2   0  512.45   18.40
   4  -2   0  535.95   19.00
   4  -2   0  475.95   18.70
   4  -2   0  513.15   15.40
  -4  -2   0  502.35   18.30
  -4   2   0  486.35   18.50
   4   2   0  497.55   17.90
  -4   2   0  513.95   19.20
   4   2   0  530.75   18.30
   4   2   0  482.25   17.90
  -4   2   0  470.55   18.80
   5  -2   0   64.49    3.30
  -5  -2   0   63.59    5.30
  -5  -2   0   64.09    5.50
  -5  -2   0   58.99    5.40
   5  -2   0   72.19    5.80
  -5  -2   0   65.19    4.60
   5   2   0   58.29    5.30
  -5   2   0   85.09    6.30
  -5   2   0   61.09    6.10
  -5   2   0   71.19    6.00
  -6  -2   0  286.77   13.70
   6  -2   0  310.77   14.40
  -6  -2   0  311.67   13.30
  -6  -2   0  315.77   12.70
  -6  -2   0  301.37   13.70
  -6   2   0  272.07   13.90
  -6   2   0  277.47   13.70
   6   2   0  289.47   13.20
   7  -2   0  253.97   12.80
  -7  -2   0  226.58   12.40
  -7  -2   0  215.78   11.20
  -7   2   0  206.38   12.40
  -7   2   0  231.18   13.20
  -8  -2   0   95.69    7.30
  -8  -2   0  106.79    9.40
  -8  -2   0   90.19    8.20
  -8   2   0   97.79    9.20
  -8   2   0  112.19    8.80
   0  -3   0   -2.20    1.60
   0  -3   0    0.80    2.00
   0  -3   0   -1.60    1.90
   0  -3   0   -2.60    1.70
   0  -3   0   -0.80    1.10
   0   3   0   -3.10    1.80
   0   3   0   -1.10    1.30
   0   3   0   -1.60    1.10
   0   3   0   -1.70    0.70
   0   3   0   -3.70    1.10
   0   3   0   -2.50    1.00
   1  -3   0  610.94   20.80
   1  -3   0  616.84   20.80
  -1  -3   0  607.74   20.30
  -1  -3   0  601.64   20.30
   1  -3   0  650.53   20.40
   1  -3   0  616.54   19.20
  -1  -3   0  612.84   19.20
  -1  -3   0  638.24   20.40
  -1  -3   0  610.14   20.40
  -1   3   0  587.04   20.10
  -1   3   0  602.64   20.70
   1   3   0  615.24   20.30
   1   3   0  599.24   17.50
  -1   3   0  609.24   19.70
   1   3   0  611.64   20.20
   1   3   0  582.04   19.10
   1   3   0  595.94   20.30
  -1   3   0  623.74   20.70
  -1   3   0  596.54   18.80
   2  -3   0   64.49    3.50
   2  -3   0   63.19    4.80
  -2  -3   0   68.39    4.60
  -2  -3   0   63.69    4.80
   2  -3   0   71.19    5.20
  -2  -3   0   61.59    4.60
   2  -3   0   71.59    5.10
  -2  -3   0   63.49    4.20
  -2   3   0   59.09    3.70
  -2   3   0   59.59    4.80
  -2   3   0   63.69    4.90
  -2   3   0   65.09    5.00
   2   3   0   62.39    4.40
  -2   3   0   63.89    5.00
   2   3   0   67.09    4.70
   2   3   0   63.19    4.60
   3  -3   0  124.49    4.90
  -3  -3   0  121.19    4.20
   3  -3   0  110.49    7.10
  -3  -3   0  121.19    6.70
   3  -3   0  127.39    7.20
  -3  -3   0  121.89    7.20
   3  -3   0  127.39    7.80
  -3  -3   0  127.49    6.80
  -3  -3   0  128.99    7.10
  -3   3   0  125.69    7.80
  -3   3   0  113.59    6.70
  -3   3   0  129.39    7.80
   3   3   0  129.99    7.00
  -3   3   0  137.09    7.80
   3   3   0  134.49    7.50
   3   3   0  128.29    6.70
   4  -3   0  770.82   27.20
  -4  -3   0  783.22   23.50
  -4  -3   0  803.02   26.70
   4  -3   0  806.42   23.00
  -4  -3   0  760.12   26.50
  -4  -3   0  777.92   26.60
  -4   3   0  770.92   26.70
  -4   3   0  776.32   27.60
   4   3   0  753.52   26.10
  -4   3   0  794.42   27.50
   5  -3   0   33.20    1.90
  -5  -3   0   38.50    4.90
   5  -3   0   32.70    4.60
  -5  -3   0   30.30    4.00
  -5  -3   0   39.70    4.80
  -5  -3   0   33.20    2.90
  -5   3   0   27.50    4.30
   5   3   0   32.60    4.20
  -5   3   0   29.40    4.20
  -6  -3   0  306.57   14.30
   6  -3   0  324.77   15.40
  -6  -3   0  327.67   15.00
  -6   3   0  356.26   15.60
  -6   3   0  350.86   16.30
   6   3   0  324.87   14.30
  -7  -3   0  283.07   14.30
   7  -3   0  280.07   14.80
  -7  -3   0  280.97   13.50
  -7   3   0  291.87   14.60
  -7   3   0  280.17   15.20
  -8  -3   0   20.80    4.80
  -8  -3   0   25.60    4.70
  -8   3   0   24.20    5.20
  -8   3   0   16.40    4.20
   0  -4   0  700.83   23.10
   0  -4   0  680.13   22.50
   0  -4   0  632.04   22.60
   0  -4   0  647.34   21.70
   0  -4   0  653.73   20.60
   0   4   0  641.34   21.60
   0   4   0  629.24   20.50
   0   4   0  628.64   22.80
   0   4   0  681.23   22.90
   0   4   0  647.04   20.50
   1  -4   0  343.67   13.50
   1  -4   0  326.07   12.40
   1  -4   0  352.86   14.20
  -1  -4   0  343.77   13.70
   1  -4   0  348.47   14.30
  -1  -4   0  354.16   13.90
  -1  -4   0  328.37   13.40
  -1  -4   0  317.77   13.50
  -1  -4   0  330.67   12.10
   1   4   0  325.17   13.50
  -1   4   0  332.07   13.40
   1   4   0  391.86   13.90
  -1   4   0  364.26   12.80
   1   4   0  350.76   12.30
   1   4   0  334.57   10.50
  -1   4   0  362.16   14.20
   1   4   0  339.27   13.60
  -1   4   0  338.37   11.80
  -2  -4   0 1763.32   52.59
  -2  -4   0 1653.93   52.19
   2  -4   0 1663.83   52.89
   2  -4   0 1756.12   53.19
   2  -4   0 1694.13   50.19
  -2  -4   0 1672.03   52.19
   2  -4   0 1701.03   52.39
  -2  -4   0 1792.72   51.29
  -2   4   0 1745.73   53.29
   2   4   0 1684.33   52.09
  -2   4   0 1806.12   52.19
  -2   4   0 1734.53   53.19
  -2   4   0 1679.03   52.19
  -2   4   0 1648.94   50.39
  -3  -4   0  309.87   13.60
   3  -4   0  301.87   10.80
  -3  -4   0  301.57   13.20
   3  -4   0  322.97   14.40
  -3  -4   0  329.77   13.10
  -3  -4   0  330.27   13.70
  -3   4   0  325.37   14.20
  -3   4   0  315.27   13.30
   3   4   0  317.07   13.10
  -3   4   0  306.37   12.20
  -4  -4   0  739.43   26.60
   4  -4   0  762.02   27.80
  -4  -4   0  736.63   26.90
  -4  -4   0  819.42   27.20
   4  -4   0  769.92   23.10
  -4   4   0  762.32   27.00
   4   4   0  802.52   26.60
  -4   4   0  767.42   28.20
   5  -4   0    7.00    1.00
  -5  -4   0    5.50    2.50
  -5  -4   0    6.80    2.90
  -5  -4   0    2.20    2.70
  -5  -4   0    5.80    1.00
   5  -4   0    5.30    2.60
  -5   4   0   11.10    2.90
  -5   4   0    5.50    2.70
   5   4   0    6.70    2.30
  -6  -4   0  172.78   10.10
   6  -4   0  169.98   11.30
  -6  -4   0  170.98   10.20
  -6   4   0  180.68   11.10
  -6   4   0  167.58   11.00
   7  -4   0   56.69    7.50
  -7  -4   0   54.49    6.60
  -7  -4   0   42.70    6.00
  -7   4   0   42.00    5.90
  -7   4   0   44.10    6.50
  -8  -4   0    2.70    3.00
  -8  -4   0    2.70    2.40
  -8   4   0    2.00    3.50
   0  -5   0   -0.80    1.10
   0  -5   0   -3.50    2.00
   0  -5   0    2.00    2.20
   0  -5   0   -3.00    1.10
   0   5   0   -1.20    1.10
   0   5   0   -2.30    0.80
   0   5   0    0.40    1.60
   0   5   0   -2.30    1.60
   1  -5   0  413.16   15.00
  -1  -5   0  409.16   16.00
   1  -5   0  382.36   16.50
  -1  -5   0  455.95   17.20
  -1  -5   0  404.46   14.40
  -1  -5   0  391.56   16.50
   1   5   0  406.16   14.30
  -1   5   0  399.36   13.90
  -1   5   0  383.46   15.90
   1   5   0  394.86   16.20
  -1   5   0  416.46   15.00
  -1   5   0  391.56   16.60
   1   5   0  394.06   12.60
  -2  -5   0  351.06   15.50
   2  -5   0  380.46   14.00
   2  -5   0  397.66   16.90
  -2  -5   0  399.76   14.60
  -2  -5   0  425.86   16.40
  -2  -5   0  398.06   16.20
  -2   5   0  393.66   16.90
  -2   5   0  377.96   13.70
   2   5   0  375.06   15.60
  -2   5   0  380.96   15.80
  -3  -5   0   16.60    3.40
   3  -5   0   13.40    2.10
   3  -5   0   15.90    3.70
  -3  -5   0   18.70    3.90
  -3  -5   0   10.20    3.20
   3   5   0   14.00    3.40
  -3   5   0   23.70    4.60
  -3   5   0   18.20    3.70
  -3   5   0   20.70    2.80
  -4  -5   0  563.44   21.30
  -4  -5   0  531.35   20.90
   4  -5   0  522.25   17.20
  -4  -5   0  540.55   21.40
   4  -5   0  531.95   21.90
  -4   5   0  553.44   19.70
  -4   5   0  527.45   22.10
  -4   5   0  540.05   21.20
   4   5   0  552.24   20.70
  -5  -5   0  282.57   13.80
   5  -5   0  268.07   14.30
  -5  -5   0  269.77   13.40
   5   5   0  268.17   12.80
  -5   5   0  265.47   12.50
  -5   5   0  270.07   13.60
  -5   5   0  267.97   14.70
  -6  -5   0  149.88    9.90
   6  -5   0  155.78   11.50
  -6  -5   0  153.08    9.70
  -6   5   0  165.18   11.70
  -6   5   0  139.39   10.20
  -6   5   0  146.29    9.50
   7  -5   0  165.18   11.80
  -7  -5   0  179.68   11.50
  -7  -5   0  182.98   11.90
  -7   5   0  178.28   12.00
  -7   5   0  181.18   12.40
   0  -6   0 1439.86   46.90
   0  -6   0 1446.76   43.20
   0  -6   0 1352.76   45.00
   0   6   0 1462.65   43.20
   0   6   0 1397.76   46.80
   0   6   0 1493.15   43.10
  -1  -6   0  390.96   16.50
  -1  -6   0  399.16   14.60
   1  -6   0  374.96   17.10
  -1  -6   0  377.86   16.90
   1  -6   0  382.06   15.30
  -1   6   0  412.86   15.20
  -1   6   0  407.36   14.20
   1   6   0  380.16   17.10
  -1   6   0  413.56   17.60
   1   6   0  408.06   14.70
  -1   6   0  406.66   17.10
  -2  -6   0  212.58   11.20
   2  -6   0  204.68   11.90
  -2  -6   0  248.48   11.60
   2  -6   0  214.28    9.90
  -2  -6   0  215.48   11.90
  -2   6   0  236.38   11.70
   2   6   0  220.28   11.80
  -2   6   0  188.68   12.10
  -2   6   0  235.98    9.50
   3  -6   0 1693.53   51.19
  -3  -6   0 1706.63   54.69
   3  -6   0 1723.53   55.79
  -3  -6   0 1691.23   54.59
  -3   6   0 1726.03   55.99
  -3   6   0 1684.03   54.49
  -3   6   0 1723.53   51.59
   3   6   0 1744.73   54.29
   4  -6   0  133.09    9.90
  -4  -6   0  131.89    9.40
  -4  -6   0  140.99    9.40
  -4   6   0  134.09    9.10
   4   6   0  151.28    9.40
  -4   6   0  150.58   10.80
  -4   6   0  134.29    7.50
  -5  -6   0  105.49    8.30
  -5  -6   0   94.39    8.20
   5  -6   0  111.29    9.10
  -5   6   0   88.49    8.40
  -5   6   0   94.09    7.00
  -5   6   0   85.89    8.40
  -6  -6   0  113.29    8.80
   6  -6   0  125.89   10.10
  -6  -6   0  139.19    9.80
  -6   6   0  120.39    9.90
  -6   6   0  121.39    8.70
  -6   6   0  140.09   10.80
   7  -6   0   67.19    8.30
   0  -7   0    1.00    1.90
   0  -7   0    3.40    2.60
   0   7   0    1.70    1.60
   0   7   0    1.60    2.40
   1  -7   0  170.58    9.40
  -1  -7   0  188.98   11.00
   1  -7   0  165.28   10.80
  -1  -7   0  158.68    9.60
  -1   7   0  174.98   11.00
  -1   7   0  147.69    7.50
   1   7   0  149.79   10.10
   1   7   0  162.58    7.90
   2  -7   0  197.98    9.60
  -2  -7   0  192.38   11.50
  -2  -7   0  191.78   11.60
   2  -7   0  190.88   12.50
  -2   7   0  197.18   12.10
  -2   7   0  194.28    8.90
  -2   7   0  204.48   11.50
   2   7   0  204.38   11.50
  -3  -7   0    1.80    3.10
   3  -7   0   -0.10    2.40
   3  -7   0    1.00    1.70
  -3  -7   0    4.80    2.70
  -3   7   0    4.60    2.60
   3   7   0    1.00    2.20
  -3   7   0    3.30    1.90
  -3   7   0    6.90    3.20
   4  -7   0  108.79   10.10
  -4  -7   0  102.99    8.40
  -4  -7   0  112.59   10.00
  -4   7   0  126.49    9.90
  -4   7   0  113.19    9.30
   5  -7   0  639.14   27.30
  -5  -7   0  657.03   26.40
  -5  -7   0  630.74   25.60
  -5   7   0  625.64   27.30
  -5   7   0  599.14   25.30
   6  -7   0    6.10    3.60
   0  -8   0 1273.77   44.10
   0  -8   0 1388.56   47.10
   0   8   0 1376.86   46.80
  -1  -8   0   27.70    5.10
  -1  -8   0   14.00    4.10
   1  -8   0   26.00    4.40
   1  -8   0   27.20    5.40
   1   8   0   22.40    5.30
  -1   8   0   15.80    4.20
   2  -8   0   73.89    6.30
  -2  -8   0   76.29    8.30
  -2  -8   0   91.59    9.30
   2  -8   0   91.49    9.70
   2   8   0   71.79    8.00
  -2   8   0   79.19    8.40
  -2   8   0   86.09    9.10
   3  -8   0  101.89   10.60
  -3  -8   0   94.19    8.90
  -3  -8   0  100.39    9.70
  -3   8   0   87.39    9.40
  -3   8   0   95.99    9.20
  -4  -8   0  197.18   13.10
   4  -8   0  189.58   13.20
  -4   8   0  197.58   12.40
  -4   8   0  203.98   13.60
   0  -9   0   -3.10    2.80
   0  -9   0    0.60    3.00
   0   9   0   -0.30    2.80
   1  -9   0  186.98   11.10
  -1  -9   0  183.18   11.50
   1  -9   0  214.68   16.70
  -1   9   0  166.98   12.40
  -2  -9   0  134.49   10.30
  -2   9   0  136.39   12.10
  -9   0   1    0.30    2.30
  -8   0   1   80.39    8.20
  -8   0   1   63.99    7.70
  -7   0   1    4.30    2.30
  -7   0   1    4.20    2.00
  -7   0   1   10.80    3.50
   7   0  -1    4.00    3.00
  -6   0   1  402.46   17.70
  -6   0   1  418.16   15.30
   6   0  -1  419.96   15.30
  -6   0   1  412.76   17.50
  -6   0   1  420.46   17.20
   6   0  -1  403.76   17.00
  -5   0   1  443.06   16.90
  -5   0   1  419.66   15.10
  -5   0   1  415.96   17.10
   5   0  -1  436.16   15.30
  -5   0   1  447.16   17.30
   5   0  -1  402.36   16.60
  -4   0   1  183.38    8.60
  -4   0   1  171.48    8.90
   4   0  -1  160.18    8.40
  -4   0   1  161.18    8.20
   4   0  -1  173.68    7.60
  -4   0   1  176.48    7.50
  -4   0   1  174.08    8.80
   4   0  -1  180.28    9.00
  -3   0   1   74.79    4.30
   3   0  -1   71.29    5.20
   3   0  -1   87.09    5.30
   3   0  -1   77.29    4.40
  -3   0   1   74.09    5.00
   3   0  -1   72.59    4.60
  -3   0   1   83.19    5.20
  -3   0   1   93.59    5.00
  -3   0   1   75.09    4.70
  -2   0   1 1575.04   46.10
   2   0  -1 1533.95   46.00
  -2   0   1 1529.65   46.10
   2   0  -1 1582.54   45.50
  -2   0   1 1564.64   45.50
  -2   0   1 1540.15   45.10
   2   0  -1 1574.94   45.10
   2   0  -1 1592.04   46.20
  -1   0   1  924.41   27.00
  -1   0   1  913.71   27.00
   1   0  -1  935.01   26.90
  -1   0   1  925.21   27.40
   1   0  -1  984.60   27.50
   1   0  -1  921.41   27.00
  -1   0   1  944.51   27.00
   1   0  -1  902.31   27.30
  -1   0   1  927.91   27.40
   0   0  -1   -2.40    0.20
   0   0  -1   -2.20    0.20
   0   0  -1   -1.80    0.30
   0   0   1   -2.00    0.20
   0   0  -1   -2.10    0.20
   0   0   1   -2.10    0.30
   0   0  -1   -2.10    0.10
   0   0   1   -1.30    0.50
   0   0   1   -1.60    0.30
  -1   0  -1  673.83   20.10
  -1   0  -1  663.03   19.30
  -1   0  -1  682.43   19.30
  -1   0  -1  661.43   19.30
   1   0   1  668.13   19.40
   2   0   1 9625.54  274.47
  -2   0  -1 9999.00  275.37
  -2   0  -1 9805.82  274.27
   2   0   1 9805.52  275.87
   2   0   1 9927.71  276.67
  -2   0  -1 9875.81  276.87
  -2   0  -1 9587.24  276.67
  -3   0  -1  135.39    6.80
  -3   0  -1  156.78    6.00
  -3   0  -1  169.98    7.20
   3   0   1  154.08    6.00
  -3   0  -1  158.78    7.90
   3   0   1  160.88    7.00
   3   0   1  140.69    6.60
  -4   0  -1   39.20    4.30
  -4   0  -1   42.30    4.20
   4   0   1   41.20    3.60
   4   0   1   40.20    3.00
  -4   0  -1   38.80    4.10
   4   0   1   36.90    3.40
  -4   0  -1   44.60    2.90
  -4   0  -1   40.30    4.20
  -5   0  -1    3.90    2.20
   5   0   1    7.00    1.60
  -5   0  -1    3.70    1.70
  -5   0  -1    4.30    1.30
  -5   0  -1    2.70    2.00
   5   0   1    4.60    2.10
   6   0   1  944.41   30.30
  -6   0  -1  966.70   33.00
  -6   0  -1 1024.70   33.40
   6   0   1 1007.00   32.50
  -6   0  -1  973.00   33.90
  -6   0  -1  939.81   30.30
  -7   0  -1   57.79    6.30
  -7   0  -1   48.20    4.00
  -7   0  -1   52.89    6.20
  -8   0  -1   55.09    6.40
  -8   0  -1   64.09    7.70
  -9  -1   1   56.89    7.30
  -9   1   1   67.39    8.00
  -8  -1   1   14.20    3.70
  -8  -1   1   16.60    3.40
  -8  -1   1   14.90    4.40
  -8   1   1   11.60    3.40
  -8   1   1   11.90    4.10
  -7  -1   1   81.59    7.80
  -7  -1   1   76.19    7.70
  -7  -1   1   78.69    6.00
   7  -1  -1   78.29    6.90
   7   1  -1   73.59    7.30
  -7   1   1   89.39    7.50
  -7   1   1   78.29    6.80
  -6  -1   1  132.39    8.80
  -6  -1   1  142.29    8.80
  -6  -1   1  157.28    9.30
   6  -1  -1  149.09    9.50
   6  -1  -1  152.78    7.10
  -6  -1   1  144.39    8.00
   6   1  -1  152.48    9.30
  -6   1   1  154.18    9.20
  -6   1   1  150.98    9.50
  -5  -1   1   87.09    6.50
   5  -1  -1  104.69    7.40
  -5  -1   1  104.39    6.40
  -5  -1   1   92.69    7.00
   5  -1  -1  100.29    5.30
  -5  -1   1  108.99    6.40
  -5   1   1  110.29    7.70
  -5   1   1   91.69    6.90
  -5   1   1  114.19    6.90
   5   1  -1  103.19    7.00
   5   1  -1  104.69    6.10
  -4  -1   1  879.51   29.50
   4  -1  -1  906.51   29.90
  -4  -1   1  908.21   28.30
  -4  -1   1  908.41   29.60
  -4  -1   1  872.61   28.30
   4  -1  -1  886.91   27.20
   4  -1  -1  816.82   29.20
  -4   1   1  964.90   29.60
  -4   1   1  871.91   28.80
  -4   1   1  943.51   30.00
   4   1  -1  894.41   29.40
  -4   1   1  838.62   29.50
   4   1  -1  870.01   29.10
   4   1  -1  945.61   28.60
  -3  -1   1 2103.39   59.59
   3  -1  -1 2135.89   58.99
  -3  -1   1 2165.68   60.99
  -3  -1   1 2059.49   60.09
  -3  -1   1 2003.70   60.79
   3  -1  -1 2042.70   60.89
  -3  -1   1 2122.39   60.79
   3  -1  -1 2119.09   61.29
   3  -1  -1 2117.19   60.39
   3  -1  -1 2008.80   60.59
   3   1  -1 2099.39   60.19
  -3   1   1 2068.59   61.09
  -3   1   1 2054.49   60.79
   3   1  -1 1950.20   60.59
  -3   1   1 1976.40   61.09
   3   1  -1 2066.79   60.79
  -3   1   1 1990.40   60.19
   3   1  -1 1954.10   59.39
  -2  -1   1 2338.47   66.39
   2  -1  -1 2239.68   67.39
  -2  -1   1 2379.66   67.39
   2  -1  -1 2261.77   67.69
   2  -1  -1 2407.66   67.99
   2  -1  -1 2322.97   66.89
  -2  -1   1 2217.38   67.49
  -2  -1   1 2363.36   67.59
  -2  -1   1 2364.66   67.19
   2   1  -1 2406.76   67.19
   2   1  -1 2344.87   67.49
   2   1  -1 2348.57   67.59
  -2   1   1 2417.56   67.89
   2   1  -1 2295.87   66.29
  -2   1   1 2334.17   67.49
  -2   1   1 2350.96   66.89
  -2   1   1 2340.67   67.89
  -1  -1   1  406.06   12.70
   1  -1  -1  394.86   12.30
  -1  -1   1  388.86   12.80
  -1  -1   1  401.06   11.90
  -1  -1   1  391.46   12.90
   1  -1  -1  391.76   13.00
  -1  -1   1  391.06   12.90
   1  -1  -1  370.26   12.70
   1  -1  -1  401.76   13.00
  -1   1   1  397.36   13.00
  -1   1   1  409.16   13.00
  -1   1   1  384.86   12.70
   1   1  -1  426.46   13.10
   1   1  -1  407.96   11.90
   1   1  -1  393.16   12.90
   1   1  -1  399.06   12.70
  -1   1   1  386.56   12.20
   1   1  -1  391.96   12.70
   0  -1   1 1633.74   50.19
   0  -1  -1 1771.22   50.09
   0  -1  -1 1811.32   50.39
   0  -1   1 1743.43   50.69
   0  -1  -1 1751.62   50.29
   0  -1   1 1755.12   50.49
   0  -1   1 1756.12   50.49
   0  -1   1 1735.13   50.69
   0   1   1 1879.31   50.39
   0   1  -1 1826.02   50.79
   0   1   1 1841.52   50.09
   0   1  -1 1792.42   50.49
   0   1  -1 1761.72   50.79
   0   1   1 1879.01   50.39
   0   1  -1 1663.93   50.19
   0   1  -1 1830.42   50.49
   1  -1   1 1582.04   45.90
  -1  -1  -1 1574.64   45.70
   1  -1   1 1550.14   45.80
  -1  -1  -1 1575.74   45.10
   1  -1   1 1570.04   45.80
  -1  -1  -1 1603.94   45.10
   1   1   1 1578.04   45.70
  -1   1  -1 1536.95   44.50
   1   1   1 1630.14   45.00
  -1   1  -1 1629.74   45.90
  -1   1  -1 1646.74   45.90
  -1   1  -1 1607.54   46.00
   2  -1   1 3285.27   92.69
  -2  -1  -1 3190.98   91.99
  -2  -1  -1 3215.98   91.59
   2  -1   1 3189.68   92.29
  -2  -1  -1 3250.77   91.59
   2  -1   1 3372.36   92.49
   2   1   1 3194.58   91.49
  -2   1  -1 3319.77   92.39
   2   1   1 3325.37   92.09
  -2   1  -1 3161.58   92.59
   2   1   1 3246.48   91.49
  -2   1  -1 3148.98   92.39
   3  -1   1  428.06   15.10
   3  -1   1  443.36   15.30
   3  -1   1  445.76   15.70
   3  -1   1  406.56   12.80
  -3  -1  -1  434.06   14.70
  -3  -1  -1  436.16   14.80
  -3  -1  -1  411.76   14.60
  -3   1  -1  425.46   15.30
  -3   1  -1  451.55   15.40
   3   1   1  442.26   14.60
  -3   1  -1  440.86   12.90
   3   1   1  448.06   14.60
   3   1   1  436.36   14.60
  -3   1  -1  411.46   15.70
  -4  -1  -1 1363.76   41.70
  -4  -1  -1 1455.65   42.10
  -4  -1  -1 1391.06   42.30
   4  -1   1 1366.46   42.50
   4  -1   1 1344.67   39.70
   4  -1   1 1420.66   42.90
  -4  -1  -1 1345.97   42.30
  -4   1  -1 1314.67   42.70
   4   1   1 1418.46   42.10
  -4   1  -1 1375.86   39.80
  -4   1  -1 1455.15   43.40
   4   1   1 1395.06   41.70
  -4   1  -1 1425.96   43.00
   4   1   1 1361.06   41.80
  -4   1  -1 1324.27   43.20
   5  -1   1  157.08    6.00
  -5  -1  -1  158.88    8.10
  -5  -1  -1  156.38    8.10
   5  -1   1  154.48    8.40
  -5  -1  -1  131.89    7.70
  -5  -1  -1  141.29    7.40
  -5   1  -1  139.49    8.50
   5   1   1  146.89    7.40
  -5   1  -1  143.49    8.20
  -5   1  -1  140.09    5.80
  -5   1  -1  147.79    8.40
   5   1   1  149.09    7.80
   6  -1   1   60.69    5.30
  -6  -1  -1   54.29    5.10
  -6  -1  -1   75.79    6.50
   6  -1   1   60.59    3.60
  -6  -1  -1   62.39    5.40
  -6  -1  -1   55.79    4.50
  -6   1  -1   63.19    6.40
  -6   1  -1   63.89    6.60
  -6   1  -1   61.09    6.60
   6   1   1   61.59    5.80
   6   1   1   56.89    4.90
  -7  -1  -1  302.47   14.10
   7  -1   1  283.27   15.10
  -7  -1  -1  310.17   12.60
  -7  -1  -1  299.97   14.80
  -7   1  -1  275.37   14.20
  -7   1  -1  273.97   14.40
  -8  -1  -1   16.10    4.10
  -8  -1  -1   13.90    3.40
  -8   1  -1   10.70    3.50
  -8   1  -1   14.00    4.10
  -8  -2   1   68.09    7.40
  -8  -2   1   85.49    7.00
  -8  -2   1   70.19    7.70
  -8   2   1   66.49    7.70
  -8   2   1   82.69    8.60
   7  -2  -1  259.87   13.50
  -7  -2   1  245.88   13.30
  -7  -2   1  254.87   12.30
  -7   2   1  259.37   13.10
   7   2  -1  241.48   12.70
  -7   2   1  244.28   13.60
   6  -2  -1  229.08   12.30
  -6  -2   1  245.88   12.50
  -6  -2   1  228.48   12.00
   6  -2  -1  237.98    9.10
  -6  -2   1  228.58   11.00
  -6  -2   1  254.77   11.90
   6   2  -1  229.48   11.60
  -6   2   1  218.48   12.50
  -6   2   1  227.18   12.00
  -5  -2   1  391.86   15.80
   5  -2  -1  353.26   15.90
   5  -2  -1  376.56   12.70
  -5  -2   1  359.06   14.80
  -5  -2   1  373.86   13.80
  -5  -2   1  364.46   15.60
  -5   2   1  342.17   15.90
   5   2  -1  369.46   15.20
  -5   2   1  403.86   16.60
  -5   2   1  366.76   15.10
  -4  -2   1  353.06   14.00
   4  -2  -1  352.66   11.90
  -4  -2   1  348.07   14.20
   4  -2  -1  348.97   13.90
   4  -2  -1  335.17   14.60
  -4  -2   1  364.26   14.50
  -4  -2   1  358.66   12.50
   4   2  -1  371.86   14.30
  -4   2   1  371.16   15.10
  -4   2   1  332.57   13.80
  -4   2   1  329.57   14.50
   4   2  -1  369.36   14.20
  -3  -2   1   88.59    5.50
   3  -2  -1   97.19    5.70
   3  -2  -1   99.49    6.20
  -3  -2   1   92.99    4.30
  -3  -2   1  100.29    5.90
  -3  -2   1   98.59    5.90
   3  -2  -1  108.49    6.40
  -3  -2   1   91.59    6.00
  -3   2   1  100.49    6.20
   3   2  -1  114.39    6.10
  -3   2   1   94.59    6.10
  -3   2   1  111.29    6.20
  -3   2   1  102.69    5.60
   3   2  -1   94.59    4.50
   3   2  -1   96.39    6.00
   3   2  -1   94.59    6.10
   2  -2  -1  356.06   12.30
  -2  -2   1  350.96   12.70
  -2  -2   1  337.47   12.60
  -2  -2   1  324.97   12.30
   2  -2  -1  344.07   12.60
   2  -2  -1  360.96   13.20
  -2  -2   1  352.06   10.60
  -2  -2   1  355.06   12.40
   2  -2  -1  321.67   12.90
  -2   2   1  340.87   12.50
  -2   2   1  317.67   11.90
  -2   2   1  351.96   13.10
   2   2  -1  344.97   12.50
   2   2  -1  336.77   12.50
   2   2  -1  352.26   12.50
  -2   2   1  331.47   12.90
   2   2  -1  339.67   10.60
   2   2  -1  343.37   12.60
   1  -2  -1 1001.90   28.80
   1  -2  -1  972.30   28.80
  -1  -2   1  932.61   29.00
  -1  -2   1  968.20   29.40
   1  -2  -1 1009.80   29.60
   1  -2  -1  914.81   29.20
  -1  -2   1  988.90   28.80
  -1  -2   1  968.90   29.30
  -1   2   1  956.20   27.50
   1   2  -1  962.30   29.40
   1   2  -1  916.01   28.70
  -1   2   1  912.31   29.30
  -1   2   1  997.60   29.50
   1   2  -1  947.71   27.40
   1   2  -1  932.01   29.30
  -1   2   1  946.61   28.80
  -1   2   1  914.71   28.60
   1   2  -1  960.60   29.00
   0  -2   1  595.34   19.50
   0  -2   1  601.24   18.70
   0  -2  -1  593.04   19.00
   0  -2   1  631.04   18.70
   0  -2  -1  622.94   19.00
   0  -2   1  603.34   19.10
   0  -2  -1  608.74   17.50
   0  -2  -1  611.54   19.10
   0  -2  -1  627.74   18.20
   0  -2  -1  618.24   19.00
   0  -2   1  639.34   19.60
   0   2  -1  623.04   18.70
   0   2   1  601.74   19.10
   0   2   1  603.84   19.10
   0   2  -1  567.34   19.00
   0   2  -1  609.24   19.60
   0   2  -1  594.64   18.70
   0   2   1  589.64   18.10
   0   2   1  590.04   17.50
   0   2  -1  614.04   19.50
  -1  -2  -1 2170.48   62.79
  -1  -2  -1 2160.28   63.19
   1  -2   1 2215.18   63.69
  -1  -2  -1 2195.18   61.39
   1  -2   1 2108.19   61.79
   1  -2   1 2239.58   63.39
  -1  -2  -1 2211.98   62.29
  -1  -2  -1 2210.18   62.79
   1  -2   1 2249.38   63.59
  -1   2  -1 2159.68   63.29
  -1   2  -1 2175.78   63.69
   1   2   1 2235.78   63.29
   1   2   1 2188.38   62.69
   1   2   1 2126.39   62.59
  -1   2  -1 2179.68   61.79
  -1   2  -1 2200.08   63.59
  -1   2  -1 2167.68   62.79
  -2  -2  -1   98.29    4.80
   2  -2   1   91.49    5.20
  -2  -2  -1   93.89    4.70
   2  -2   1   96.19    3.30
   2  -2   1  100.99    5.90
   2  -2   1  102.79    5.60
  -2  -2  -1  101.19    5.30
  -2   2  -1  105.19    5.80
   2   2   1   92.19    4.50
   2   2   1  101.69    4.70
   2   2   1   97.99    5.60
  -2   2  -1   98.39    5.60
  -2   2  -1  102.39    5.80
   3  -2   1 2481.45   73.29
  -3  -2  -1 2489.85   71.09
   3  -2   1 2498.35   73.39
  -3  -2  -1 2440.36   72.79
  -3  -2  -1 2515.95   72.39
   3  -2   1 2502.05   73.49
  -3  -2  -1 2374.36   72.19
  -3   2  -1 2507.55   73.59
   3   2   1 2486.45   72.79
  -3   2  -1 2501.05   73.49
   3   2   1 2551.24   72.09
   3   2   1 2478.55   72.09
  -3   2  -1 2623.04   73.79
  -4  -2  -1  192.48    8.00
  -4  -2  -1  186.28    8.80
   4  -2   1  192.18    9.40
  -4  -2  -1  194.08    9.00
  -4  -2  -1  203.08    9.20
   4   2   1  195.98    8.60
  -4   2  -1  185.08    9.70
   4   2   1  208.58    9.20
   4   2   1  194.48    8.60
  -4   2  -1  195.18    9.70
  -4   2  -1  210.78    9.80
  -5  -2  -1  124.09    7.40
  -5  -2  -1  129.99    7.20
  -5  -2  -1  132.49    6.80
  -5  -2  -1  147.89    7.70
   5  -2   1  128.39    4.20
   5  -2   1  131.49    7.90
  -5   2  -1  123.59    8.30
  -5   2  -1  127.29    8.20
  -5   2  -1  121.19    8.20
   5   2   1  118.19    6.80
  -6  -2  -1 1154.28   37.20
  -6  -2  -1 1136.19   37.70
  -6  -2  -1 1197.48   38.00
   6  -2   1 1141.79   38.10
   6   2   1 1128.69   36.70
  -6   2  -1 1119.79   38.80
  -6   2  -1 1197.68   39.10
  -6   2  -1 1099.39   38.60
   7  -2   1  223.98   12.50
  -7  -2  -1  239.58   11.40
  -7  -2  -1  238.18   12.10
  -7  -2  -1  228.38   13.20
  -7   2  -1  245.28   13.30
  -7   2  -1  240.98   13.50
  -8  -2  -1  170.38   10.70
  -8  -2  -1  164.98    9.70
  -8  -2  -1  178.18   11.70
  -8   2  -1  171.68   11.40
  -8   2  -1  169.78   11.20
  -8  -3   1   28.60    4.80
  -8  -3   1   21.30    4.40
  -8   3   1   15.50    4.70
  -8   3   1   20.10    5.50
  -7  -3   1   28.10    4.90
   7  -3  -1   29.70    5.20
  -7  -3   1   26.10    4.30
  -7   3   1   27.10    5.10
  -7   3   1   33.00    5.00
  -6  -3   1  182.98   10.60
   6  -3  -1  192.68   11.30
  -6  -3   1  198.98   10.80
  -6  -3   1  195.58   11.00
  -6   3   1  186.78   11.40
  -6   3   1  177.68   10.50
   6   3  -1  194.28   10.40
   5  -3  -1 1251.77   36.90
  -5  -3   1 1253.47   40.70
  -5  -3   1 1344.17   41.50
   5  -3  -1 1222.38   41.50
  -5  -3   1 1301.97   37.80
  -5  -3   1 1192.08   40.70
  -5   3   1 1242.88   42.00
   5   3  -1 1248.08   40.60
  -5   3   1 1226.18   40.50
  -4  -3   1  204.98   10.00
  -4  -3   1  211.98    7.70
  -4  -3   1  197.08   10.10
  -4  -3   1  215.48   10.40
   4  -3  -1  192.88   10.80
   4   3  -1  209.68   10.20
  -4   3   1  211.68   10.90
  -4   3   1  223.98   12.60
  -4   3   1  209.08    9.90
  -3  -3   1  491.15   18.90
  -3  -3   1  538.45   15.90
  -3  -3   1  545.15   19.40
  -3  -3   1  498.05   18.90
   3  -3  -1  554.14   18.90
   3  -3  -1  523.75   19.90
  -3  -3   1  567.94   19.20
   3  -3  -1  531.45   19.70
   3   3  -1  554.64   19.30
   3   3  -1  529.05   19.00
  -3   3   1  551.14   19.90
  -3   3   1  548.95   19.40
   3   3  -1  514.35   19.00
  -3   3   1  498.45   19.50
  -3   3   1  510.85   18.50
   2  -3  -1 1356.86   40.20
  -2  -3   1 1280.27   40.60
  -2  -3   1 1348.27   40.80
  -2  -3   1 1328.37   40.50
  -2  -3   1 1375.76   40.10
   2  -3  -1 1390.26   41.30
   2  -3  -1 1302.77   41.00
  -2   3   1 1298.17   40.30
   2   3  -1 1241.78   39.80
  -2   3   1 1285.77   41.00
  -2   3   1 1371.96   41.30
   2   3  -1 1289.27   37.10
   2   3  -1 1267.47   40.40
  -2   3   1 1271.47   40.00
   2   3  -1 1323.77   40.70
   2   3  -1 1331.17   40.60
  -1  -3   1 1414.66   41.20
  -1  -3   1 1307.37   41.30
   1  -3  -1 1303.47   40.10
  -1  -3   1 1370.06   41.60
   1  -3  -1 1333.77   41.50
   1  -3  -1 1379.16   40.80
  -1  -3   1 1393.76   40.40
  -1  -3   1 1361.96   40.90
   1  -3  -1 1351.96   40.40
   1  -3  -1 1301.57   41.30
  -1   3   1 1369.36   40.40
  -1   3   1 1358.56   38.90
  -1   3   1 1313.87   41.40
   1   3  -1 1348.97   41.40
   1   3  -1 1341.37   40.30
   1   3  -1 1379.26   41.50
   1   3  -1 1371.66   41.00
  -1   3   1 1381.46   41.50
  -1   3   1 1345.67   40.80
   0  -3   1 1528.15   45.00
   0  -3  -1 1465.15   45.00
   0  -3   1 1508.95   45.50
   0  -3  -1 1472.75   43.40
   0  -3  -1 1468.15   45.10
   0  -3  -1 1486.75   42.90
   0  -3   1 1505.25   44.00
   0  -3  -1 1558.54   45.00
   0  -3   1 1536.95   44.40
   0  -3   1 1524.85   45.50
   0  -3  -1 1476.25   44.60
   0   3   1 1462.75   45.00
   0   3  -1 1542.55   45.70
   0   3  -1 1513.35   44.10
   0   3   1 1511.55   43.40
   0   3   1 1487.75   45.00
   0   3  -1 1552.54   44.40
   0   3  -1 1518.95   45.50
   0   3  -1 1464.45   44.90
   0   3   1 1461.35   42.80
  -1  -3  -1 1070.19   33.20
   1  -3   1 1029.40   33.80
   1  -3   1 1078.59   32.00
   1  -3   1 1096.09   32.50
   1  -3   1 1127.59   34.10
  -1  -3  -1 1089.89   31.90
  -1  -3  -1 1044.80   33.10
  -1  -3  -1 1043.30   33.30
   1  -3   1 1084.99   33.50
  -1   3  -1 1033.10   32.40
   1   3   1 1051.99   30.50
   1   3   1 1069.49   33.00
  -1   3  -1 1110.49   32.00
   1   3   1 1058.89   33.00
   1   3   1 1137.99   33.60
  -1   3  -1 1104.59   33.60
  -1   3  -1 1115.89   34.10
  -2  -3  -1   87.99    5.60
   2  -3   1  105.39    5.90
   2  -3   1   86.79    4.00
  -2  -3  -1  101.89    5.10
   2  -3   1  104.79    6.50
   2  -3   1   98.99    6.50
  -2  -3  -1   92.59    5.30
  -2  -3  -1   85.39    5.30
   2   3   1   98.49    5.40
  -2   3  -1   95.99    6.10
   2   3   1  101.29    5.90
  -2   3  -1   90.29    5.10
  -2   3  -1   96.29    6.00
   2   3   1   90.09    5.10
  -2   3  -1   90.89    5.70
  -3  -3  -1  225.58    9.60
   3  -3   1  235.38   12.10
   3  -3   1  212.38    6.90
  -3  -3  -1  203.88    9.40
  -3  -3  -1  229.98    9.80
   3  -3   1  235.38   10.70
   3  -3   1  233.98   10.70
  -3  -3  -1  230.78   10.10
  -3  -3  -1  222.78    7.20
   3   3   1  225.28    9.30
  -3   3  -1  214.68   10.50
  -3   3  -1  217.78   10.20
   3   3   1  228.38   10.40
   3   3   1  213.98    9.30
  -3   3  -1  237.68   10.70
  -3   3  -1  220.28   10.40
  -4  -3  -1  192.58    9.00
  -4  -3  -1  180.28    8.90
  -4  -3  -1  197.38    7.10
  -4  -3  -1  172.18    9.30
   4  -3   1  174.98    9.60
  -4   3  -1  186.08    9.70
  -4   3  -1  175.08   10.00
  -4   3  -1  201.18   10.30
   4   3   1  192.78    8.80
  -5  -3  -1   77.09    6.00
   5  -3   1   75.29    6.30
  -5  -3  -1   61.49    5.20
  -5  -3  -1   73.49    4.40
  -5  -3  -1   67.39    6.20
  -5   3  -1   71.99    6.90
   5   3   1   84.39    5.70
  -5   3  -1   75.89    6.40
  -5   3  -1   91.39    7.00
   6  -3   1  105.99    8.40
  -6  -3  -1  122.89    8.10
  -6  -3  -1  112.19    7.40
  -6   3  -1  101.69    8.40
  -6   3  -1  100.99    8.40
   7  -3   1   22.40    4.90
  -7  -3  -1   22.50    4.40
  -7  -3  -1   30.60    4.60
  -7   3  -1   25.40    4.70
  -7   3  -1   32.10    5.70
  -8  -3  -1  436.66   18.80
  -8  -3  -1  411.16   17.70
  -8   3  -1  394.46   19.60
  -8   3  -1  417.56   19.90
  -8  -4   1    5.80    3.80
  -8  -4   1    7.20    3.00
  -8   4   1    8.70    3.30
  -7  -4   1  358.06   17.40
  -7  -4   1  391.36   17.50
   7  -4  -1  365.86   18.30
  -7   4   1  381.36   17.60
  -7   4   1  361.86   18.70
  -6  -4   1   69.29    7.00
  -6  -4   1   87.89    7.70
   6  -4  -1   90.09    8.90
  -6   4   1   88.39    7.10
  -6   4   1   96.09    8.70
   6   4  -1   81.79    6.70
  -5  -4   1   95.49    7.50
   5  -4  -1   74.09    7.60
  -5  -4   1   86.29    6.80
  -5  -4   1   80.29    3.80
  -5  -4   1   79.59    6.60
   5   4  -1   75.99    6.30
  -5   4   1   87.79    7.90
  -5   4   1   77.49    6.80
  -4  -4   1   10.70    3.20
  -4  -4   1   10.90    2.80
  -4  -4   1    7.80    2.50
   4  -4  -1    7.40    3.40
   4  -4  -1    6.70    1.70
  -4   4   1    7.90    2.80
   4   4  -1    8.70    2.80
  -4   4   1    8.00    2.40
   3  -4  -1   16.00    3.40
  -3  -4   1   10.40    2.80
   3  -4  -1   12.90    2.00
  -3  -4   1   12.20    2.70
  -3  -4   1    7.40    2.90
  -3   4   1   11.60    2.00
   3   4  -1   10.10    2.80
  -3   4   1   19.70    3.40
  -3   4   1   13.20    3.10
   2  -4  -1  187.58    8.80
  -2  -4   1  165.28    8.90
  -2  -4   1  182.98    9.50
  -2  -4   1  192.98    8.60
  -2  -4   1  189.58    9.60
   2  -4  -1  180.58    9.50
   2  -4  -1  170.88    9.30
   2  -4  -1  184.68    7.80
  -2   4   1  177.08   11.00
   2   4  -1  168.88    8.90
  -2   4   1  158.18    9.30
  -2   4   1  168.78    8.80
  -2   4   1  183.78    8.60
  -2   4   1  169.58    7.00
   2   4  -1  166.08    8.10
   1  -4  -1  336.97   13.70
   1  -4  -1  306.07   12.20
  -1  -4   1  336.67   12.20
  -1  -4   1  333.07   13.50
   1  -4  -1  326.37   13.50
  -1  -4   1  345.97   13.40
  -1  -4   1  334.37   12.90
  -1  -4   1  319.87   13.60
   1  -4  -1  323.37   12.80
   1   4  -1  313.67   12.20
   1   4  -1  335.67   13.10
  -1   4   1  310.87   13.30
  -1   4   1  318.57   10.70
  -1   4   1  329.57   12.20
  -1   4   1  315.17   12.90
   1   4  -1  339.97   13.70
   1   4  -1  326.07   13.50
  -1   4   1  334.27   13.50
   0  -4  -1  747.93   25.80
   0  -4   1  833.52   27.20
   0  -4   1  847.02   27.30
   0  -4   1  824.32   26.50
   0  -4   1  785.22   25.00
   0  -4  -1  841.32   26.50
   0  -4  -1  808.62   23.90
   0  -4  -1  854.31   27.00
   0  -4  -1  734.83   26.30
   0  -4   1  787.82   25.70
   0   4  -1  756.62   26.20
   0   4   1  777.52   26.40
   0   4  -1  822.32   25.70
   0   4  -1  757.22   25.00
   0   4  -1  839.12   27.10
   0   4  -1  806.02   27.20
   0   4   1  808.22   24.40
   0   4   1  761.22   23.80
   0   4   1  798.82   26.60
   1  -4   1  227.58   11.20
   1  -4   1  232.18    9.50
   1  -4   1  237.28    9.50
  -1  -4  -1  240.28    9.00
  -1  -4  -1  221.48   10.30
   1  -4   1  249.38   10.80
  -1  -4  -1  217.38   10.30
   1  -4   1  237.38   11.10
  -1  -4  -1  249.78   10.80
  -1  -4  -1  248.78   10.80
  -1   4  -1  248.58    9.50
   1   4   1  240.58   10.30
  -1   4  -1  254.87   11.00
  -1   4  -1  256.37   11.70
   1   4   1  236.38   10.50
  -1   4  -1  248.08    9.70
   1   4   1  249.08    7.70
   1   4   1  272.87   11.00
  -1   4  -1  244.78   11.10
  -2  -4  -1   55.99    3.80
  -2  -4  -1   48.40    4.60
   2  -4   1   51.89    5.40
  -2  -4  -1   49.30    4.70
   2  -4   1   51.29    3.30
  -2  -4  -1   50.29    4.70
   2   4   1   56.59    4.40
  -2   4  -1   64.59    4.20
  -2   4  -1   46.20    4.70
  -2   4  -1   48.10    5.20
  -2   4  -1   56.29    5.70
  -2   4  -1   50.19    5.00
   2   4   1   50.09    4.20
  -3  -4  -1 1176.38   35.60
  -3  -4  -1 1100.09   36.30
   3  -4   1 1087.69   32.70
  -3  -4  -1 1099.19   35.70
   3  -4   1 1118.79   37.10
  -3  -4  -1 1175.68   36.10
  -3   4  -1 1096.19   35.30
  -3   4  -1 1141.19   37.40
   3   4   1 1079.29   35.30
  -3   4  -1 1176.88   37.80
  -3   4  -1 1096.29   36.50
  -4  -4  -1  716.53   26.50
   4  -4   1  816.22   28.50
   4  -4   1  802.52   22.40
   4  -4   1  813.12   22.40
  -4  -4  -1  854.41   27.40
  -4  -4  -1  779.02   27.50
   4   4   1  763.22   26.30
  -4   4  -1  799.62   27.90
  -4   4  -1  777.92   26.80
  -4   4  -1  732.63   28.20
  -5  -4  -1    8.60    2.80
  -5  -4  -1   19.50    3.70
  -5  -4  -1   14.70    3.20
   5  -4   1   13.80    3.50
  -5   4  -1   10.90    3.00
  -5   4  -1    7.40    2.90
   5   4   1   13.70    2.90
   6  -4   1  215.18   12.70
  -6  -4  -1  205.28   11.70
  -6  -4  -1  222.38   11.40
  -6   4  -1  233.08   13.00
  -6   4  -1  222.28   12.40
  -7  -4  -1    6.60    3.10
  -7  -4  -1    6.70    3.50
  -7   4  -1    0.20    2.90
  -7   4  -1    5.40    3.90
  -8  -4  -1    4.30    2.90
  -8  -4  -1    1.20    2.90
   7  -5  -1    8.30    4.40
  -7  -5   1   10.90    4.30
  -7  -5   1    8.30    3.20
  -7   5   1   10.80    3.90
  -7   5   1    2.00    3.20
  -6  -5   1  141.29   10.30
   6  -5  -1  127.79   10.70
  -6  -5   1  142.39    9.70
  -6   5   1  162.58   10.50
  -6   5   1  153.48   11.00
  -5  -5   1  240.98   12.80
  -5  -5   1  258.67   13.30
   5  -5  -1  259.07   14.00
  -5   5   1  256.07   11.70
   5   5  -1  255.37   13.00
  -5   5   1  250.87   14.00
  -5   5   1  246.68   12.60
   4  -5  -1  356.56   13.00
  -4  -5   1  381.06   16.30
  -4  -5   1  361.06   16.30
   4  -5  -1  367.46   17.00
  -4  -5   1  384.26   16.90
  -4   5   1  352.96   14.10
  -4   5   1  362.26   15.90
   4   5  -1  377.26   16.00
  -4   5   1  361.06   17.10
  -3  -5   1   54.49    6.10
   3  -5  -1   42.40    5.40
  -3  -5   1   35.50    4.90
   3  -5  -1   40.90    3.80
  -3  -5   1   35.60    4.90
  -3   5   1   47.40    3.70
   3   5  -1   48.80    5.40
  -3   5   1   55.39    5.70
  -3   5   1   48.40    5.70
   2  -5  -1  672.63   22.20
  -2  -5   1  617.94   24.00
   2  -5  -1  678.13   24.70
  -2  -5   1  715.73   24.80
  -2  -5   1  677.73   22.80
  -2  -5   1  623.94   23.70
  -2   5   1  645.94   20.90
  -2   5   1  749.73   25.50
   2   5  -1  673.83   24.20
  -2   5   1  632.34   23.40
  -2   5   1  649.64   24.50
   2   5  -1  654.33   22.60
  -1  -5   1  345.87   14.80
  -1  -5   1  351.76   13.10
   1  -5  -1  344.57   14.80
  -1  -5   1  333.57   13.80
   1  -5  -1  367.66   13.70
   1  -5  -1  366.36   15.30
  -1   5   1  336.17   11.50
  -1   5   1  320.37   14.50
   1   5  -1  333.07   14.60
  -1   5   1  323.37   13.90
   1   5  -1  336.17   11.30
   1   5  -1  326.37   12.90
  -1   5   1  323.97   12.90
   0  -5   1  149.79    7.80
   0  -5   1  142.39    9.10
   0  -5   1  153.08    7.10
   0  -5  -1  155.78    6.30
   0  -5  -1  157.18    9.00
   0  -5  -1  137.69    8.30
   0  -5  -1  140.59    8.10
   0   5   1  148.29    8.90
   0   5  -1  153.08    6.90
   0   5   1  157.68    6.60
   0   5   1  146.99    6.20
   0   5  -1  150.78    7.20
   0   5  -1  151.08    9.30
   0   5  -1  158.58    7.90
   1  -5   1  507.65   17.10
  -1  -5  -1  480.55   18.40
  -1  -5  -1  513.35   19.20
   1  -5   1  488.75   19.40
  -1  -5  -1  468.95   18.70
   1  -5   1  479.95   17.20
  -1  -5  -1  500.05   16.40
  -1   5  -1  507.75   17.30
  -1   5  -1  501.85   17.70
   1   5   1  489.55   14.90
  -1   5  -1  491.85   17.10
  -1   5  -1  476.95   19.50
   1   5   1  498.45   18.70
  -1   5  -1  476.95   18.80
  -2  -5  -1  678.63   24.50
   2  -5   1  672.93   22.10
  -2  -5  -1  706.63   22.60
   2  -5   1  673.63   25.20
  -2  -5  -1  657.53   24.20
  -2   5  -1  713.23   23.00
   2   5   1  689.33   24.10
  -2   5  -1  683.43   24.60
  -3  -5  -1   71.29    6.00
   3  -5   1   66.69    4.00
  -3  -5  -1   72.59    6.70
   3  -5   1   75.69    6.60
  -3  -5  -1   60.09    5.40
   3   5   1   71.79    5.90
  -3   5  -1   60.39    6.10
  -3   5  -1   55.09    6.20
  -3   5  -1   62.89    5.20
  -4  -5  -1  144.89    9.20
  -4  -5  -1  154.78    8.80
   4  -5   1  159.68   10.60
   4  -5   1  151.38    5.70
  -4  -5  -1  150.08    9.20
   4   5   1  149.09    8.60
  -4   5  -1  149.29    9.90
  -4   5  -1  166.38   10.10
  -4   5  -1  168.18    9.00
   5  -5   1   79.09    7.30
  -5  -5  -1   73.89    7.40
  -5  -5  -1   78.19    6.80
  -5   5  -1   77.39    6.80
  -5   5  -1   73.99    7.70
  -5   5  -1   79.59    7.40
  -6  -5  -1   34.80    5.10
   6  -5   1   39.80    6.40
  -6  -5  -1   36.60    5.40
  -6   5  -1   31.20    5.40
  -6   5  -1   38.20    5.60
  -6   5  -1   39.10    5.20
  -7  -5  -1   61.09    6.90
  -7  -5  -1   53.49    6.50
  -7   5  -1   68.29    7.60
  -7   5  -1   72.29    8.60
  -7   5  -1   66.19    7.70
   7  -6  -1   41.90    7.40
  -7   6   1   40.20    6.10
   6  -6  -1  125.49   11.10
  -6  -6   1  131.59    9.70
  -6  -6   1  128.69    9.80
  -6   6   1  122.89    9.30
  -6   6   1  142.89   11.50
  -5  -6   1   42.80    6.20
  -5  -6   1   44.30    5.90
   5  -6  -1   38.10    6.10
  -5   6   1   41.50    5.60
  -5   6   1   41.00    4.50
  -5   6   1   52.29    7.40
   4  -6  -1  123.99    9.40
   4  -6  -1  117.79    6.20
  -4  -6   1  114.09    8.50
  -4  -6   1  116.69    8.60
  -4   6   1  113.29    6.60
   4   6  -1  119.09    8.80
  -4   6   1  120.99    9.30
  -4   6   1  118.79    8.30
   3  -6  -1   38.70    4.00
  -3  -6   1   38.30    5.60
  -3  -6   1   43.10    5.70
   3  -6  -1   36.70    5.40
  -3   6   1   38.30    3.60
  -3   6   1   33.90    4.70
  -3   6   1   37.10    5.30
   3   6  -1   37.40    5.50
  -2  -6   1  103.99    7.50
   2  -6  -1   94.59    6.40
   2  -6  -1  103.49    8.00
  -2  -6   1   94.49    7.50
   2   6  -1  100.89    7.60
  -2   6   1   92.59    7.50
  -2   6   1  100.89    5.30
   2   6  -1   97.09    6.60
  -1  -6   1  623.64   23.00
  -1  -6   1  639.64   24.50
   1  -6  -1  603.94   24.00
   1  -6  -1  624.54   22.50
  -1  -6   1  641.34   21.80
  -1   6   1  645.04   24.20
  -1   6   1  635.34   20.00
  -1   6   1  652.13   21.70
   1   6  -1  613.54   24.00
   1   6  -1  635.64   19.60
   1   6  -1  618.34   21.60
   0  -6   1   50.09    4.60
   0  -6  -1   40.30    5.20
   0  -6  -1   39.70    4.70
   0  -6   1   47.80    4.80
   0  -6   1   39.80    5.70
   0  -6  -1   40.80    3.20
   0   6  -1   44.60    3.90
   0   6   1   55.79    6.20
   0   6  -1   50.79    4.10
   0   6   1   43.30    3.30
   0   6   1   54.19    3.70
   0   6  -1   47.70    6.10
  -1  -6  -1   64.49    4.40
  -1  -6  -1   58.09    6.10
   1  -6   1   66.49    6.80
  -1  -6  -1   62.09    6.70
  -1  -6  -1   61.39    6.40
   1  -6   1   62.89    5.20
   1   6   1   63.29    3.10
  -1   6  -1   65.29    5.00
  -1   6  -1   53.39    5.70
   1   6   1   68.69    6.60
  -1   6  -1   62.79    4.60
  -1   6  -1   67.99    7.20
  -2  -6  -1  637.04   24.40
   2  -6   1  653.63   22.00
  -2  -6  -1  663.13   24.50
  -2  -6  -1  623.94   24.20
   2  -6   1  648.34   25.30
  -2  -6  -1  658.83   21.90
  -2   6  -1  628.64   24.30
  -2   6  -1  644.24   22.20
  -2   6  -1  680.73   25.60
   2   6   1  662.03   24.10
  -3  -6  -1  566.14   21.60
   3  -6   1  534.35   22.40
   3  -6   1  524.85   17.70
  -3  -6  -1  532.55   20.80
  -3  -6  -1  549.35   21.70
   3   6   1  505.95   20.30
  -3   6  -1  500.75   21.00
  -3   6  -1  511.15   19.10
   4  -6   1   38.30    5.80
  -4  -6  -1   38.90    5.10
  -4  -6  -1   39.70    5.70
  -4   6  -1   26.00    4.90
  -4   6  -1   36.40    5.30
  -4   6  -1   37.30    4.60
   5  -6   1  205.58   13.40
  -5  -6  -1  213.78   12.40
  -5  -6  -1  226.88   12.20
  -5   6  -1  220.38   13.40
  -5   6  -1  217.78   12.60
  -5   6  -1  211.58   11.30
   6  -6   1  140.29   10.50
  -6  -6  -1  121.69    9.20
  -6  -6  -1  134.09    9.80
  -6   6  -1  121.49    9.00
  -6   6  -1  132.29   10.50
  -6   6  -1  119.29   10.00
   6  -7  -1   72.99    9.00
  -6   7   1   85.59    9.00
  -5  -7   1    5.40    3.70
   5  -7  -1    7.30    3.90
  -5  -7   1    6.60    3.30
  -5   7   1    8.90    3.10
  -5   7   1   10.10    4.70
  -4  -7   1   19.00    4.90
  -4  -7   1   23.50    5.10
   4  -7  -1   28.50    5.50
  -4   7   1   30.50    5.20
  -4   7   1   19.40    4.70
   3  -7  -1 1011.30   33.30
   3  -7  -1 1018.90   37.70
  -3  -7   1 1034.20   36.40
  -3  -7   1 1034.90   36.90
   3   7  -1 1060.09   36.60
  -3   7   1 1038.30   36.10
   2  -7  -1  177.88   11.20
  -2  -7   1  171.78   10.70
  -2  -7   1  142.99    9.60
   2  -7  -1  152.48    8.80
   2   7  -1  153.48    8.50
   2   7  -1  181.08   11.30
  -2   7   1  169.68   10.90
  -2   7   1  154.68    9.90
  -1  -7   1  172.78   10.00
  -1  -7   1  177.98   11.20
   1  -7  -1  200.28   12.00
   1  -7  -1  190.98    9.80
   1   7  -1  158.08   10.70
   1   7  -1  173.08    9.00
  -1   7   1  169.68   10.90
  -1   7   1  169.48    7.50
   0  -7  -1    0.80    2.10
   0  -7   1    2.70    2.00
   0  -7   1    4.00    3.50
   0  -7  -1    3.30    2.10
   0   7   1    0.50    1.20
   0   7  -1    0.60    1.80
   0   7  -1   -0.70    2.20
   0   7   1   -0.40    2.30
  -1  -7  -1   12.00    3.80
   1  -7   1   19.10    3.50
  -1  -7  -1   16.70    4.00
   1  -7   1    9.20    4.10
  -1   7  -1   15.10    4.00
  -1   7  -1   10.20    2.60
  -1   7  -1   12.20    3.70
   1   7   1   13.30    4.20
  -2  -7  -1  244.98   12.90
   2  -7   1  229.68   10.80
  -2  -7  -1  246.88   13.00
   2  -7   1  247.48   13.90
   2   7   1  261.77   13.20
  -2   7  -1  251.87   11.00
  -2   7  -1  228.38   13.60
  -2   7  -1  253.57   13.20
  -3  -7  -1   10.90    4.20
  -3  -7  -1   18.20    4.40
   3  -7   1   19.30    4.60
  -3   7  -1   10.30    4.40
  -3   7  -1   16.80    3.20
  -3   7  -1   12.90    3.60
   4  -7   1  255.97   14.80
  -4  -7  -1  267.87   14.00
  -4  -7  -1  259.17   14.70
  -4   7  -1  258.77   12.20
  -4   7  -1  270.67   14.80
  -5  -7  -1  101.09    8.10
   5  -7   1   95.89    9.20
  -5  -7  -1  123.79   10.10
  -5   7  -1   90.39    9.80
  -5   7  -1   92.79    9.50
  -4  -8   1    7.90    4.10
  -4  -8   1   12.40    5.40
   4  -8  -1   10.40    5.00
  -4   8   1   12.80    3.80
  -3  -8   1  108.19    8.80
   3  -8  -1  100.19    9.40
  -3  -8   1   90.09    8.50
  -3   8   1   97.89    9.10
  -3   8   1  103.59    9.10
  -2  -8   1   14.00    3.60
   2  -8  -1   24.40    5.20
   2  -8  -1   19.50    3.60
  -2  -8   1   24.10    5.60
  -2   8   1   13.40    4.70
   2   8  -1   24.00    4.80
   1  -8  -1  273.97   15.80
  -1  -8   1  290.57   15.60
   1  -8  -1  263.67   13.50
  -1  -8   1  281.87   14.10
   1   8  -1  296.37   15.70
   1   8  -1  302.67   13.10
  -1   8   1  290.17   16.00
   0  -8   1  151.58   11.00
   0  -8  -1  170.28   10.10
   0  -8   1  156.48   10.00
   0  -8  -1  135.69   11.00
   0   8  -1  169.18   12.10
   0   8   1  153.88   10.80
   1  -8   1   71.39    8.20
  -1  -8  -1   69.99    7.30
  -1  -8  -1   79.79    7.50
   1  -8   1   62.79    6.30
   1   8   1   68.59    7.60
  -1   8  -1   59.09    7.60
  -2  -8  -1  560.74   24.00
   2  -8   1  563.84   21.20
  -2  -8  -1  581.64   24.00
   2  -8   1  563.54   24.80
  -2   8  -1  608.34   25.50
  -2   8  -1  584.64   24.40
  -3  -8  -1   16.80    4.20
   3  -8   1   11.30    4.20
  -3  -8  -1   21.80    4.50
  -3   8  -1    9.90    3.90
  -3   8  -1    9.30    4.30
  -4  -8  -1   47.20    6.30
   4  -8   1   46.80    7.70
  -4   8  -1   48.60    8.30
  -4   8  -1   49.50    7.50
  -2  -9   1  335.47   16.90
  -2   9   1  348.67   19.00
  -1  -9   1   78.09    8.20
   1  -9  -1   86.89    8.30
   1   9  -1   92.39    9.60
  -1   9   1   90.19   10.00
   0  -9   1  233.78   17.40
   0  -9  -1  221.88   12.60
   0  -9   1  209.68   12.10
   0   9  -1  234.28   14.50
   1  -9   1  153.78   12.30
  -1  -9  -1  153.78   10.60
   1  -9   1  159.18    9.60
  -1   9  -1  160.48   12.10
  -2   9  -1   16.10    5.70
  -9   0   2   55.29    7.00
  -8   0   2    4.60    3.10
  -8   0   2    3.00    3.30
   8   0  -2    6.90    4.20
  -7   0   2    2.60    2.10
  -7   0   2    4.60    3.30
   7   0  -2    7.00    3.50
  -6   0   2 1581.34   52.09
  -6   0   2 1620.84   50.79
   6   0  -2 1643.34   51.79
   5   0  -2    7.70    1.90
  -5   0   2    5.40    2.80
   5   0  -2    8.00    2.60
  -5   0   2    7.70    2.10
  -5   0   2    6.90    2.40
  -5   0   2    8.30    2.60
   5   0  -2    9.20    2.50
   4   0  -2 1394.46   44.20
  -4   0   2 1414.06   44.10
   4   0  -2 1393.16   45.10
  -4   0   2 1398.66   45.40
   4   0  -2 1482.05   43.70
  -4   0   2 1420.66   43.50
   4   0  -2 1568.04   46.00
  -4   0   2 1484.15   44.50
  -4   0   2 1499.65   45.70
  -3   0   2   94.39    5.60
   3   0  -2   97.49    5.30
  -3   0   2  100.69    5.30
   3   0  -2  101.49    6.30
  -3   0   2  101.49    6.40
   3   0  -2   92.19    5.80
  -3   0   2   98.59    5.90
  -3   0   2   86.79    4.80
   3   0  -2   95.89    5.70
  -3   0   2   97.39    5.40
   2   0  -2  215.88    8.60
   2   0  -2  196.78    8.00
  -2   0   2  204.68    8.00
   2   0  -2  180.18    8.30
  -2   0   2  194.88    8.40
   2   0  -2  208.18    7.70
  -2   0   2  202.88    7.80
  -2   0   2  200.48    8.30
  -1   0   2   31.00    2.30
   1   0  -2   31.60    2.80
  -1   0   2   33.10    2.50
   1   0  -2   30.50    2.50
   1   0  -2   31.40    2.50
   1   0  -2   33.90    2.60
  -1   0   2   29.50    2.50
  -1   0   2   34.40    2.80
   0   0   2 1431.46   41.20
   0   0   2 1436.16   40.80
   0   0  -2 1444.06   40.90
   0   0  -2 1388.66   40.60
   0   0  -2 1437.36   40.90
   0   0  -2 1470.45   41.50
   0   0   2 1373.06   40.60
   0   0  -2 1486.45   41.20
  -1   0  -2 3971.90  107.39
  -1   0  -2 3769.72  107.19
   1   0   2 3739.23  106.99
  -1   0  -2 3747.83  107.29
   1   0   2 3785.72  106.79
  -2   0  -2  431.66   13.40
   2   0   2  435.26   13.50
  -2   0  -2  447.06   15.10
  -2   0  -2  426.36   13.50
  -2   0  -2  431.06   13.50
  -3   0  -2  216.98    7.80
  -3   0  -2  217.28    8.50
   3   0   2  226.68    8.30
   3   0   2  224.18    8.40
  -3   0  -2  200.38    9.70
  -3   0  -2  205.58    8.30
   4   0   2 1089.99   34.50
  -4   0  -2 1181.38   33.90
  -4   0  -2 1099.39   35.10
  -4   0  -2 1132.09   36.70
  -4   0  -2 1155.38   35.20
   4   0   2 1120.49   33.70
   4   0   2 1163.08   34.90
  -5   0  -2  169.68    9.80
   5   0   2  187.68    7.60
   5   0   2  175.28    8.60
  -5   0  -2  177.98    7.60
  -5   0  -2  211.58    9.60
  -5   0  -2  180.98    9.10
   6   0   2  270.27   10.40
   6   0   2  266.87   11.80
  -6   0  -2  277.07   10.50
  -6   0  -2  250.27   12.00
  -6   0  -2  261.37   13.30
  -6   0  -2  279.67   12.50
  -7   0  -2  282.37   13.40
  -7   0  -2  267.07   14.40
  -8   0  -2   30.00    4.70
  -8   0  -2   36.40    5.80
  -9  -1   2  150.98   10.90
  -9   1   2  152.98   10.50
   8  -1  -2   45.00    6.20
  -8  -1   2   26.90    5.10
  -8  -1   2   37.90    4.90
  -8  -1   2   42.40    6.10
  -8   1   2   32.70    5.50
  -8   1   2   29.50    5.20
   7  -1  -2  168.38   10.50
  -7  -1   2  156.08    9.00
  -7  -1   2  176.28   10.50
  -7  -1   2  148.49   10.40
   7   1  -2  157.18   10.30
  -7   1   2  154.58    9.90
  -7   1   2  174.28   11.30
  -6  -1   2  200.98    9.90
   6  -1  -2  194.98    8.90
  -6  -1   2  196.28   10.30
   6  -1  -2  187.48   11.10
  -6  -1   2  190.18   10.90
  -6   1   2  206.28   10.60
   6   1  -2  205.48   10.90
  -6   1   2  200.88   11.60
   5  -1  -2    3.90    2.20
   5  -1  -2    2.20    2.70
  -5  -1   2    4.90    2.10
   5  -1  -2    6.30    1.90
  -5  -1   2    2.00    1.90
  -5  -1   2    4.30    2.10
  -5  -1   2    3.00    1.90
   5   1  -2    4.70    2.30
  -5   1   2    6.00    2.40
  -5   1   2    2.70    2.60
   5   1  -2    4.60    2.70
   5   1  -2    3.20    1.70
  -5   1   2    3.00    2.10
  -4  -1   2  816.42   27.90
   4  -1  -2  771.92   27.20
  -4  -1   2  834.92   26.50
   4  -1  -2  851.41   28.50
  -4  -1   2  842.12   27.60
  -4  -1   2  802.32   27.80
   4  -1  -2  839.02   25.80
   4  -1  -2  802.12   27.80
  -4  -1   2  822.62   26.70
   4   1  -2  826.32   27.90
  -4   1   2  799.42   28.10
  -4   1   2  858.81   27.70
  -4   1   2  849.41   28.30
   4   1  -2  820.22   26.40
  -4   1   2  812.62   26.70
   4   1  -2  845.42   26.90
   4   1  -2  801.12   27.60
   3  -1  -2 1653.83   49.80
  -3  -1   2 1632.94   47.90
  -3  -1   2 1633.14   48.50
   3  -1  -2 1526.35   48.70
  -3  -1   2 1586.34   49.30
   3  -1  -2 1676.93   48.10
   3  -1  -2 1649.33   47.60
  -3  -1   2 1631.84   48.90
   3  -1  -2 1586.94   49.40
  -3  -1   2 1634.44   49.40
  -3   1   2 1685.33   49.70
  -3   1   2 1623.84   49.70
  -3   1   2 1574.24   47.90
  -3   1   2 1651.73   49.00
   3   1  -2 1676.13   48.60
   3   1  -2 1624.84   47.90
   3   1  -2 1706.43   49.60
   3   1  -2 1539.75   49.00
   2  -1  -2 1598.04   46.20
   2  -1  -2 1494.75   44.40
  -2  -1   2 1518.05   45.90
  -2  -1   2 1546.95   45.50
   2  -1  -2 1491.75   45.50
  -2  -1   2 1567.24   45.90
  -2  -1   2 1500.25   45.30
   2  -1  -2 1519.65   45.90
  -2  -1   2 1523.35   44.60
  -2   1   2 1492.85   45.90
   2   1  -2 1597.64   46.00
   2   1  -2 1580.84   45.50
   2   1  -2 1562.74   44.70
  -2   1   2 1606.94   45.60
   2   1  -2 1493.25   45.40
  -2   1   2 1589.04   46.10
   2   1  -2 1478.65   45.70
  -2   1   2 1510.95   44.30
  -1  -1   2 4701.23  131.19
  -1  -1   2 4596.54  131.39
  -1  -1   2 4760.42  131.49
   1  -1  -2 4713.13  131.39
   1  -1  -2 4812.02  131.49
  -1  -1   2 4604.94  131.09
   1  -1  -2 4637.54  131.09
   1  -1  -2 4532.05  129.99
  -1  -1   2 4677.93  130.59
   1   1  -2 4606.64  130.59
  -1   1   2 4753.32  131.39
   1   1  -2 4649.04  131.19
   1   1  -2 4574.14  131.49
   1   1  -2 4630.14  131.49
  -1   1   2 4685.33  131.29
  -1   1   2 4607.34  130.69
  -1   1   2 4539.45  131.09
  -1   1   2 4627.84  130.39
   1   1  -2 4825.32  131.19
   0  -1  -2  333.57   10.50
   0  -1  -2  333.77    9.70
   0  -1  -2  317.27   10.10
   0  -1   2  337.57   10.90
   0  -1   2  328.17   10.80
   0  -1   2  325.07   10.70
   0  -1   2  321.77   10.30
   0  -1   2  330.37   10.40
   0  -1  -2  327.17   10.20
   0   1  -2  316.57   10.40
   0   1  -2  318.57   10.40
   0   1  -2  320.77   10.70
   0   1   2  303.87   10.00
   0   1   2  308.27   10.30
   0   1  -2  303.07   10.70
   0   1   2  301.57   10.00
   0   1  -2  310.97   10.70
   1  -1   2  850.41   25.20
  -1  -1  -2  812.12   23.60
  -1  -1  -2  800.22   24.90
   1  -1   2  793.12   24.80
   1  -1   2  809.52   24.70
  -1  -1  -2  807.22   23.60
  -1   1  -2  815.72   25.30
  -1   1  -2  850.91   24.90
  -1   1  -2  846.22   25.20
  -1   1  -2  855.61   23.80
   1   1   2  849.12   23.40
   1   1   2  817.52   23.30
  -1   1  -2  841.32   24.90
   2  -1   2 1175.08   34.80
   2  -1   2 1177.98   34.80
  -2  -1  -2 1171.58   34.80
   2  -1   2 1153.28   35.60
  -2  -1  -2 1125.49   33.80
  -2  -1  -2 1194.48   33.80
  -2   1  -2 1199.48   34.90
  -2   1  -2 1166.68   35.70
  -2   1  -2 1195.98   33.00
  -2   1  -2 1122.89   34.80
   2   1   2 1179.08   33.50
   2   1   2 1199.58   33.60
   3  -1   2 3491.65  100.59
   3  -1   2 3382.66   99.39
  -3  -1  -2 3409.86   98.99
  -3  -1  -2 3608.84   98.79
  -3  -1  -2 3436.06   98.69
   3  -1   2 3516.75   99.39
  -3   1  -2 3365.06   99.39
   3   1   2 3491.25   99.09
   3   1   2 3535.65   98.29
  -3   1  -2 3483.45   99.59
  -3   1  -2 3472.55   97.29
  -3   1  -2 3495.15  100.69
  -4  -1  -2 1531.05   45.10
  -4  -1  -2 1519.75   45.10
   4  -1   2 1545.55   45.70
  -4  -1  -2 1486.85   44.80
   4  -1   2 1419.66   45.20
   4   1   2 1487.15   44.40
  -4   1  -2 1540.45   45.90
   4   1   2 1541.65   44.90
  -4   1  -2 1493.35   42.70
  -4   1  -2 1463.25   46.70
   4   1   2 1521.75   44.50
  -4   1  -2 1434.66   45.70
  -5  -1  -2  671.73   22.80
  -5  -1  -2  693.43   23.20
  -5  -1  -2  630.54   22.60
  -5  -1  -2  664.83   22.10
   5  -1   2  662.63   22.90
  -5  -1  -2  634.34   24.30
   5   1   2  683.93   22.20
   5   1   2  654.83   22.00
  -5   1  -2  669.53   24.50
  -5   1  -2  687.63   20.10
  -5   1  -2  649.64   23.30
  -5   1  -2  668.43   23.40
  -6  -1  -2  784.32   26.00
  -6  -1  -2  718.63   25.60
   6  -1   2  761.72   25.90
  -6  -1  -2  716.83   27.40
  -6  -1  -2  773.42   24.90
  -6   1  -2  675.43   25.90
   6   1   2  741.83   24.80
  -6   1  -2  711.73   27.40
   6   1   2  726.63   24.80
  -6   1  -2  779.62   26.80
  -7  -1  -2    3.60    2.00
  -7  -1  -2    5.40    3.50
  -7  -1  -2    3.10    2.40
  -7   1  -2    2.40    2.70
  -7   1  -2    0.20    3.00
  -8  -1  -2   58.89    7.60
  -8  -1  -2   44.10    5.40
  -8   1  -2   39.60    6.60
  -8   1  -2   46.40    6.20
   8  -2  -2  105.99    9.10
  -8  -2   2  118.59    8.80
  -8  -2   2  110.39    7.80
  -8  -2   2  105.39    9.40
  -8   2   2  118.29    9.10
  -8   2   2  123.09   10.20
   7  -2  -2  269.37   14.10
  -7  -2   2  274.17   12.90
  -7  -2   2  257.67   14.20
  -7   2   2  257.47   13.30
   7   2  -2  254.47   13.30
  -7   2   2  281.67   14.80
   6  -2  -2   58.49    6.50
  -6  -2   2   50.69    6.20
   6  -2  -2   64.69    4.40
  -6  -2   2   57.19    5.80
  -6   2   2   47.70    5.60
  -6   2   2   53.99    6.30
   6   2  -2   52.29    6.20
  -5  -2   2  887.01   31.90
  -5  -2   2  994.60   32.70
   5  -2  -2  926.21   32.40
  -5  -2   2  923.61   31.00
   5  -2  -2  979.60   29.20
  -5  -2   2  988.40   30.00
  -5   2   2  940.21   32.70
   5   2  -2  924.51   31.90
  -5   2   2  905.11   30.80
   5   2  -2  906.71   29.80
  -4  -2   2  157.38    8.60
   4  -2  -2  133.09    8.10
  -4  -2   2  140.79    7.50
   4  -2  -2  148.79    6.50
   4  -2  -2  149.29    7.40
   4  -2  -2  126.59    7.70
  -4  -2   2  146.79    6.50
  -4  -2   2  119.49    7.60
  -4   2   2  150.58    8.40
  -4   2   2  127.79    8.00
   4   2  -2  154.48    8.20
   4   2  -2  139.49    8.10
   4   2  -2  127.19    6.40
  -4   2   2  134.89    7.30
   3  -2  -2 2239.68   64.69
   3  -2  -2 2089.69   64.19
  -3  -2   2 2158.38   64.19
  -3  -2   2 2151.68   61.69
   3  -2  -2 2135.69   62.69
  -3  -2   2 2235.28   63.79
  -3  -2   2 2038.20   63.89
   3  -2  -2 2013.50   63.59
  -3  -2   2 2121.59   63.49
   3   2  -2 2111.29   63.79
  -3   2   2 2079.79   64.29
  -3   2   2 2156.48   63.89
   3   2  -2 2076.89   61.69
  -3   2   2 2110.09   62.59
  -3   2   2 2243.98   64.49
   3   2  -2 2251.57   64.19
   3   2  -2 2243.38   63.69
   2  -2  -2  254.77   10.50
  -2  -2   2  272.37   10.60
  -2  -2   2  242.98   10.40
   2  -2  -2  276.07    9.70
  -2  -2   2  280.77   10.40
   2  -2  -2  267.87   10.80
  -2  -2   2  277.67   10.90
   2  -2  -2  284.27   11.00
  -2  -2   2  254.77    8.80
   2   2  -2  237.58   10.40
  -2   2   2  256.87   10.60
  -2   2   2  251.77   10.20
   2   2  -2  244.08    8.90
   2   2  -2  253.67   10.40
  -2   2   2  244.28   10.70
  -2   2   2  252.67    9.50
   2   2  -2  249.78   10.20
   2   2  -2  247.68   10.50
   1  -2  -2  718.63   22.80
  -1  -2   2  711.93   23.40
  -1  -2   2  738.33   23.00
  -1  -2   2  734.73   22.70
   1  -2  -2  734.73   23.40
  -1  -2   2  740.63   23.60
  -1  -2   2  749.23   23.10
   1  -2  -2  677.93   23.10
   1  -2  -2  758.32   22.40
  -1   2   2  737.93   22.80
   1   2  -2  758.62   23.20
   1   2  -2  696.93   23.50
  -1   2   2  757.82   23.40
  -1   2   2  754.72   23.30
   1   2  -2  733.03   23.00
   1   2  -2  734.03   22.00
   1   2  -2  736.33   23.50
  -1   2   2  721.53   22.30
   0  -2   2  297.57   10.50
   0  -2  -2  290.17   10.10
   0  -2   2  300.57   10.50
   0  -2  -2  277.87   10.20
   0  -2   2  289.27   10.10
   0  -2  -2  308.47   10.40
   0  -2   2  271.67   10.70
   0  -2  -2  291.27    9.80
   0  -2   2  312.17   11.00
   0  -2  -2  288.47    8.50
   0   2   2  293.37   10.10
   0   2  -2  288.37   10.90
   0   2   2  286.57   10.10
   0   2  -2  282.97   10.80
   0   2   2  291.97    9.80
   0   2  -2  279.57   10.50
   0   2  -2  315.07   10.20
   0   2  -2  284.77   10.50
   1  -2   2  901.71   28.80
   1  -2   2  951.60   28.80
   1  -2   2  934.81   27.10
  -1  -2  -2  892.21   27.60
  -1  -2  -2  914.11   28.60
  -1  -2  -2  937.71   27.20
   1  -2   2  892.41   28.50
   1  -2   2  923.11   28.80
  -1   2  -2  955.30   28.70
  -1   2  -2  943.21   28.90
  -1   2  -2  961.40   27.20
   1   2   2  943.31   27.50
  -1   2  -2  932.11   28.70
   1   2   2  941.71   27.60
   2  -2   2  292.87   11.20
   2  -2   2  289.47   11.10
   2  -2   2  288.97   11.40
  -2  -2  -2  264.37   10.80
  -2  -2  -2  278.17    9.80
  -2  -2  -2  283.97    9.90
  -2   2  -2  278.67   11.10
   2   2   2  303.67   11.10
   2   2   2  278.87    9.60
  -2   2  -2  290.77   11.40
  -2   2  -2  292.07   11.10
  -2   2  -2  288.07   11.30
   3  -2   2   97.49    6.00
   3  -2   2   92.89    6.00
  -3  -2  -2   93.79    5.40
   3  -2   2  103.79    6.10
  -3  -2  -2   95.99    4.90
  -3  -2  -2   96.89    4.90
   3   2   2   86.79    4.40
   3   2   2   86.89    4.40
  -3   2  -2   94.79    5.70
  -3   2  -2   85.09    5.80
   3   2   2   86.59    5.60
  -3   2  -2   91.79    5.90
  -4  -2  -2  278.57   10.90
  -4  -2  -2  275.47   11.50
   4  -2   2  268.57   11.60
  -4  -2  -2  299.07   11.10
   4   2   2  267.47   10.30
  -4   2  -2  262.17   11.90
  -4   2  -2  278.17   11.90
   4   2   2  274.87   11.50
   4   2   2  269.87   10.40
  -4   2  -2  260.37   12.20
  -5  -2  -2  892.51   28.80
  -5  -2  -2  831.42   28.50
  -5  -2  -2  933.01   28.40
  -5  -2  -2  870.21   28.80
   5  -2   2  854.11   29.40
  -5   2  -2  861.61   30.60
  -5   2  -2  844.02   29.80
   5   2   2  865.21   27.80
  -5   2  -2  902.11   30.10
   6  -2   2  178.58   10.00
  -6  -2  -2  176.78    9.20
  -6  -2  -2  176.98    9.50
  -6   2  -2  180.98   10.50
  -6   2  -2  184.88   10.80
  -6   2  -2  203.28   10.60
  -7  -2  -2   23.40    3.80
  -7  -2  -2   26.90    4.90
  -7  -2  -2   31.80    4.30
  -7   2  -2   34.70    5.50
  -7   2  -2   23.90    5.00
  -8  -2  -2  336.47   17.30
  -8  -2  -2  322.17   14.50
  -8  -2  -2  312.87   14.90
  -8   2  -2  316.17   15.80
  -8   2  -2  304.77   16.40
   8  -3  -2   37.70    6.60
  -8  -3   2   30.00    5.80
  -8  -3   2   39.20    5.70
  -8   3   2   45.90    6.80
  -8   3   2   34.90    5.30
   7  -3  -2  159.18   11.40
  -7  -3   2  168.68   10.30
  -7  -3   2  144.79   10.10
  -7   3   2  163.28   11.70
  -7   3   2  173.28   10.00
   7   3  -2  147.29    9.80
  -6  -3   2  314.67   14.40
   6  -3  -2  320.47   15.60
  -6  -3   2  321.07   15.40
  -6  -3   2  324.87   13.70
  -6   3   2  314.77   16.10
  -6   3   2  324.47   14.50
   6   3  -2  298.57   14.60
  -5  -3   2   25.80    4.40
   5  -3  -2   20.70    4.60
  -5  -3   2   22.30    2.80
   5  -3  -2   25.50    2.80
  -5  -3   2   27.60    4.40
  -5  -3   2   29.00    4.10
   5   3  -2   23.10    4.30
  -5   3   2   32.80    4.20
  -5   3   2   26.00    4.90
  -4  -3   2   41.80    4.80
   4  -3  -2   44.80    4.40
  -4  -3   2   36.00    4.50
  -4  -3   2   34.60    4.50
   4  -3  -2   39.10    4.90
  -4  -3   2   38.40    2.90
   4   3  -2   38.10    4.50
  -4   3   2   31.40    3.70
   4   3  -2   44.70    3.20
  -4   3   2   40.10    5.40
   3  -3  -2 2518.85   79.49
  -3  -3   2 2797.02   80.39
  -3  -3   2 2696.83   76.69
  -3  -3   2 2787.12   79.69
   3  -3  -2 2638.74   80.39
   3  -3  -2 2778.32   78.99
   3  -3  -2 2792.62   80.79
  -3  -3   2 2631.14   79.69
  -3  -3   2 2608.74   79.99
   3   3  -2 2565.74   79.29
   3   3  -2 2890.61   81.99
  -3   3   2 2831.72   80.79
  -3   3   2 2785.92   80.09
   3   3  -2 2591.84   79.79
   3   3  -2 2721.03   76.69
  -3   3   2 2608.44   78.69
  -3   3   2 2610.24   80.39
   3   3  -2 2805.42   82.19
  -2  -3   2   75.19    5.30
   2  -3  -2   79.69    5.50
  -2  -3   2   74.49    5.40
   2  -3  -2   73.69    4.70
  -2  -3   2   72.39    4.80
   2  -3  -2   68.29    5.60
   2  -3  -2   58.89    5.00
  -2  -3   2   70.29    5.20
  -2   3   2   75.69    4.90
  -2   3   2   79.39    5.40
  -2   3   2   71.89    5.60
   2   3  -2   69.29    5.00
   2   3  -2   71.39    3.40
   2   3  -2   80.29    5.40
  -2   3   2   75.89    4.90
   2   3  -2   71.99    5.20
   2   3  -2   68.99    5.60
  -1  -3   2  557.64   18.70
   1  -3  -2  560.64   19.40
   1  -3  -2  576.14   19.40
  -1  -3   2  569.14   19.80
   1  -3  -2  563.54   18.50
   1  -3  -2  566.14   18.50
  -1  -3   2  548.85   19.50
  -1  -3   2  530.25   18.80
  -1  -3   2  573.24   19.00
  -1   3   2  555.34   18.40
   1   3  -2  548.95   19.50
  -1   3   2  552.64   16.00
  -1   3   2  555.34   19.20
   1   3  -2  555.94   19.50
  -1   3   2  591.64   19.40
   1   3  -2  530.35   18.50
   1   3  -2  608.94   19.20
  -1   3   2  521.95   18.30
   0  -3  -2 3178.58   91.69
   0  -3   2 3249.57   92.69
   0  -3   2 3300.67   93.29
   0  -3  -2 3227.58   93.09
   0  -3   2 3181.68   92.39
   0  -3  -2 3216.18   93.09
   0  -3  -2 3072.89   92.89
   0  -3  -2 3359.76   92.89
   0  -3   2 3243.28   93.89
   0  -3  -2 3191.88   90.29
   0   3   2 3297.97   92.99
   0   3   2 3281.97   91.69
   0   3  -2 3207.18   93.79
   0   3  -2 3417.66   94.09
   0   3  -2 3159.08   93.09
   0   3  -2 3324.27   92.49
   0   3  -2 3092.49   92.59
  -1  -3  -2 1488.45   43.00
   1  -3   2 1421.16   44.00
   1  -3   2 1478.75   43.70
   1  -3   2 1416.16   41.90
   1  -3   2 1431.96   44.00
  -1  -3  -2 1395.46   43.50
  -1  -3  -2 1371.36   42.70
   1  -3   2 1440.86   43.00
  -1  -3  -2 1463.05   41.70
  -1  -3  -2 1464.65   41.20
   1   3   2 1432.36   41.10
  -1   3  -2 1403.86   44.00
  -1   3  -2 1506.25   42.00
  -1   3  -2 1402.46   43.50
  -1   3  -2 1426.66   43.10
   1   3   2 1477.15   42.80
   1   3   2 1375.96   42.60
  -1   3  -2 1457.15   44.10
  -2  -3  -2  306.47   11.60
   2  -3   2  327.17   13.20
  -2  -3  -2  312.57   12.80
   2  -3   2  325.97   13.20
   2  -3   2  323.37   10.20
   2  -3   2  330.97   13.00
  -2  -3  -2  312.27   10.00
  -2  -3  -2  326.97   12.00
  -2   3  -2  313.67   13.00
   2   3   2  324.67   11.60
  -2   3  -2  329.67   12.50
  -2   3  -2  323.77   12.90
  -2   3  -2  324.37   10.20
  -2   3  -2  345.27   13.40
   2   3   2  317.27   11.60
   2   3   2  343.17   13.10
   3  -3   2  644.74   22.60
  -3  -3  -2  662.43   21.20
  -3  -3  -2  632.74   22.20
  -3  -3  -2  616.84   21.00
  -3   3  -2  644.64   22.70
   3   3   2  649.83   20.70
  -3   3  -2  617.34   22.50
   3   3   2  690.43   24.00
   3   3   2  631.84   20.60
  -3   3  -2  606.74   22.40
  -3   3  -2  647.14   22.10
  -4  -3  -2   31.30    3.60
  -4  -3  -2   29.10    2.40
  -4  -3  -2   28.90    3.80
   4  -3   2   31.20    4.40
  -4  -3  -2   29.90    3.50
  -4   3  -2   26.40    4.10
  -4   3  -2   32.60    4.30
   4   3   2   31.90    3.30
  -4   3  -2   31.30    4.50
   5  -3   2    3.10    2.10
  -5  -3  -2    4.00    2.00
  -5  -3  -2    3.70    2.10
  -5  -3  -2   -1.10    1.40
  -5  -3  -2    7.00    1.60
   5   3   2    2.30    1.60
  -5   3  -2    6.60    2.60
  -5   3  -2    6.90    3.00
  -5   3  -2    3.80    2.80
   6  -3   2  206.48   11.60
  -6  -3  -2  224.48   11.40
  -6  -3  -2  209.78   10.70
  -6   3  -2  223.08   12.30
  -6   3  -2  211.38   12.30
  -7  -3  -2   22.30    4.20
  -7  -3  -2   19.90    3.90
  -7   3  -2   20.50    4.90
  -7   3  -2   29.10    4.90
  -8  -3  -2   35.00    5.30
  -8  -3  -2   28.20    4.80
  -8  -3  -2   31.90    6.60
  -8   3  -2   31.30    5.80
  -8   3  -2   39.40    6.60
   8  -4  -2  553.74   25.10
  -8  -4   2  591.54   24.00
  -8   4   2  581.24   23.80
  -7  -4   2   24.40    4.80
   7  -4  -2   12.50    3.90
  -7  -4   2   31.10    5.20
  -7   4   2   13.40    3.90
  -7   4   2   23.70    5.60
  -6  -4   2   75.99    7.50
   6  -4  -2   70.19    8.10
  -6  -4   2   70.89    7.60
  -6   4   2   68.09    6.70
  -6   4   2   86.09    9.00
   6   4  -2   61.09    6.60
  -5  -4   2  288.17   14.00
   5  -4  -2  285.77   14.80
  -5  -4   2  263.57   13.70
   5  -4  -2  308.57   11.30
  -5  -4   2  297.07   10.20
   5   4  -2  290.57   14.00
  -5   4   2  307.17   15.10
  -5   4   2  272.27   13.00
  -4  -4   2  160.28    9.50
  -4  -4   2  148.19    9.00
   4  -4  -2  159.08   10.20
  -4  -4   2  161.58    9.80
  -4   4   2  166.38    9.00
  -4   4   2  164.38    9.80
   4   4  -2  163.08    9.70
  -3  -4   2  650.73   23.30
   3  -4  -2  670.63   24.20
  -3  -4   2  675.93   24.00
  -3  -4   2  653.43   23.90
  -3   4   2  631.94   24.10
  -3   4   2  652.53   22.70
   3   4  -2  629.44   22.80
   3   4  -2  658.13   23.70
   3   4  -2  668.23   19.50
   2  -4  -2  630.34   22.30
   2  -4  -2  619.94   20.80
  -2  -4   2  567.54   21.60
   2  -4  -2  621.84   22.20
  -2  -4   2  571.24   21.00
  -2  -4   2  603.54   20.90
   2  -4  -2  606.74   20.90
  -2  -4   2  616.94   22.20
   2  -4  -2  578.74   19.90
   2   4  -2  580.74   18.00
  -2   4   2  585.34   21.80
  -2   4   2  620.44   20.90
   2   4  -2  600.24   21.80
  -2   4   2  593.54   18.30
  -2   4   2  597.34   20.80
   2   4  -2  588.84   20.80
  -1  -4   2  322.67   11.80
   1  -4  -2  274.37   11.10
   1  -4  -2  279.07   12.20
   1  -4  -2  305.77   12.00
   1  -4  -2  305.97   12.70
  -1  -4   2  284.57   11.90
  -1  -4   2  276.27   11.90
   1  -4  -2  284.87   11.40
  -1  -4   2  307.57   13.00
  -1  -4   2  287.37   12.50
  -1   4   2  279.37   11.10
  -1   4   2  284.77   12.40
   1   4  -2  273.67   11.30
  -1   4   2  271.67   12.20
  -1   4   2  272.87   11.50
  -1   4   2  283.17    8.90
   1   4  -2  312.87   12.80
   1   4  -2  296.67   13.00
   1   4  -2  292.37   12.10
   0  -4  -2   40.40    2.20
   0  -4  -2   41.20    3.20
   0  -4   2   44.50    4.10
   0  -4  -2   54.19    4.60
   0  -4  -2   46.90    4.60
   0  -4  -2   45.50    4.10
   0  -4   2   42.80    4.40
   0  -4   2   37.90    3.70
   0  -4   2   51.29    4.70
   0  -4   2   28.90    4.00
   0  -4  -2   44.40    4.60
   0   4   2   41.80    4.10
   0   4  -2   44.70    4.00
   0   4  -2   47.10    3.80
   0   4   2   44.40    3.20
   0   4  -2   43.00    4.70
   0   4  -2   41.60    4.50
   0   4  -2   43.40    4.70
   0   4   2   49.20    4.20
   1  -4   2  365.66   14.30
   1  -4   2  328.17   12.50
  -1  -4  -2  347.07   11.90
  -1  -4  -2  333.37   13.60
  -1  -4  -2  361.46   13.90
  -1  -4  -2  359.16   11.40
   1  -4   2  358.16   14.90
  -1  -4  -2  338.27   14.10
   1  -4   2  363.76   14.90
   1  -4   2  359.26   13.40
  -1  -4  -2  367.76   14.00
  -1   4  -2  364.86   15.00
  -1   4  -2  359.86   12.60
   1   4   2  356.26   11.30
   1   4   2  362.46   13.60
   1   4   2  366.56   13.80
  -1   4  -2  350.46   14.10
  -1   4  -2  369.16   14.80
  -1   4  -2  354.96   13.40
   2  -4   2 1114.79   36.30
  -2  -4  -2 1142.59   33.80
  -2  -4  -2 1113.79   34.80
  -2  -4  -2 1081.59   35.60
  -2  -4  -2 1097.49   34.70
   2  -4   2 1096.09   32.80
  -2   4  -2 1084.89   34.70
  -2   4  -2 1135.69   36.40
  -2   4  -2 1053.99   35.60
   2   4   2 1137.29   34.50
   2   4   2 1092.09   34.40
  -3  -4  -2  142.69    7.60
   3  -4   2  151.38    5.40
  -3  -4  -2  170.78    8.30
  -3  -4  -2  165.08    8.10
   3  -4   2  148.29    9.20
  -3  -4  -2  148.79    8.60
  -3   4  -2  167.18    9.20
   3   4   2  161.68    7.70
  -3   4  -2  166.98    8.70
  -3   4  -2  158.08    9.20
  -3   4  -2  160.78    8.90
  -4  -4  -2    7.40    0.90
  -4  -4  -2    7.40    0.90
  -4  -4  -2    8.90    2.40
  -4  -4  -2   12.90    3.50
  -4  -4  -2    5.60    2.10
   4  -4   2    7.20    2.70
   4   4   2    5.30    1.90
  -4   4  -2    4.80    2.30
  -4   4  -2    4.70    2.90
  -4   4  -2    2.80    2.60
  -5  -4  -2  653.93   24.80
  -5  -4  -2  671.43   23.80
   5  -4   2  684.43   25.30
  -5   4  -2  671.03   25.50
  -5   4  -2  670.03   24.80
  -5   4  -2  668.13   25.60
   6  -4   2  206.98   11.60
  -6  -4  -2  205.78   11.50
  -6  -4  -2  194.08   10.30
  -6   4  -2  208.68   12.10
  -6   4  -2  180.68   11.50
  -7  -4  -2   19.40    4.30
  -7  -4  -2   16.60    3.80
  -7   4  -2   20.20    4.60
  -7   4  -2   23.60    5.30
  -8  -4  -2  182.68   11.30
  -8  -4  -2  163.18   10.10
  -7  -5   2   37.80    5.90
   7  -5  -2   34.30    6.10
  -7  -5   2   34.50    5.90
  -7   5   2   48.40    6.50
  -7   5   2   32.90    6.70
  -6  -5   2  183.48   11.60
  -6  -5   2  174.28   11.10
   6  -5  -2  165.98   11.60
   6   5  -2  183.68   13.20
  -6   5   2  169.68   11.80
  -6   5   2  175.68   10.80
   5  -5  -2   48.40    3.80
  -5  -5   2   58.39    6.50
  -5  -5   2   55.69    6.60
   5  -5  -2   62.59    7.20
  -5   5   2   60.39    7.10
   5   5  -2   56.59    6.30
  -5   5   2   54.49    6.30
   4  -5  -2  237.58    9.80
  -4  -5   2  238.38   12.20
  -4  -5   2  228.18   12.50
   4  -5  -2  228.78   12.80
  -4   5   2  218.88   12.90
   4   5  -2  238.88   12.10
  -4   5   2  216.78   11.10
  -4   5   2  234.88    9.80
   3  -5  -2  563.54   22.90
  -3  -5   2  596.84   22.60
   3  -5  -2  580.44   20.30
  -3  -5   2  591.84   22.90
  -3   5   2  592.24   19.10
   3   5  -2  596.94   21.70
   3   5  -2  615.24   22.90
  -3   5   2  613.84   22.10
  -3   5   2  621.34   23.60
   2  -5  -2  266.07   11.50
   2  -5  -2  263.77   12.90
  -2  -5   2  295.57   12.70
  -2  -5   2  266.17   13.00
  -2   5   2  260.07   11.90
  -2   5   2  274.07    9.40
   2   5  -2  276.57    9.00
   2   5  -2  290.17   12.00
   2   5  -2  271.97   13.20
  -2   5   2  277.97   13.30
   1  -5  -2  381.66   16.30
   1  -5  -2  400.96   15.20
   1  -5  -2  420.66   16.80
  -1  -5   2  386.96   16.40
  -1  -5   2  411.56   15.00
  -1  -5   2  369.66   15.20
   1   5  -2  389.76   15.00
  -1   5   2  376.26   12.10
   1   5  -2  383.36   16.40
  -1   5   2  394.06   14.40
   0  -5   2 1393.36   43.80
   0  -5  -2 1308.67   42.60
   0  -5  -2 1342.47   42.20
   0  -5  -2 1354.76   42.80
   0  -5   2 1316.07   41.50
   0  -5   2 1399.46   41.40
   0  -5  -2 1337.77   38.60
   0   5   2 1334.17   39.80
   0   5  -2 1296.47   42.50
   0   5  -2 1273.77   43.20
   0   5  -2 1292.67   41.20
   0   5  -2 1364.86   41.60
   0   5   2 1375.26   42.70
  -1  -5  -2 1008.70   32.60
   1  -5   2  959.50   30.70
   1  -5   2  958.00   33.40
   1  -5   2 1022.40   31.40
  -1  -5  -2  956.20   32.20
  -1  -5  -2  930.41   32.20
  -1  -5  -2 1014.00   29.50
  -1   5  -2  981.30   31.40
  -1   5  -2  987.50   33.60
   1   5   2  975.10   32.10
   1   5   2  968.80   28.60
  -1   5  -2  983.50   30.70
  -1   5  -2  938.11   32.60
   2  -5   2  354.56   13.00
   2  -5   2  373.06   16.30
  -2  -5  -2  406.66   15.60
  -2  -5  -2  362.66   15.70
  -2  -5  -2  388.46   13.50
  -2  -5  -2  363.06   15.10
   2   5   2  366.46   14.70
  -2   5  -2  372.36   16.60
  -2   5  -2  350.56   14.40
  -2   5  -2  373.46   15.70
  -3  -5  -2 1534.55   49.40
  -3  -5  -2 1574.44   47.50
   3  -5   2 1496.05   49.99
  -3  -5  -2 1576.94   48.40
  -3  -5  -2 1513.65   48.20
   3   5   2 1588.64   47.90
  -3   5  -2 1475.35   50.09
  -3   5  -2 1551.74   48.10
  -3   5  -2 1628.84   49.99
  -4  -5  -2  217.48   10.90
  -4  -5  -2  214.68   11.70
   4  -5   2  229.98   12.70
  -4   5  -2  215.28   11.80
   4   5   2  228.78   10.40
  -4   5  -2  222.28   11.20
  -4   5  -2  210.28   12.10
   5  -5   2  418.26   19.10
  -5  -5  -2  445.86   18.90
  -5  -5  -2  425.16   17.20
  -5   5  -2  424.26   18.80
  -5   5  -2  422.16   17.80
  -5   5  -2  405.76   19.00
  -6  -5  -2   71.09    6.50
  -6  -5  -2   77.09    8.00
   6  -5   2   84.89    8.60
  -6   5  -2   72.19    8.10
  -6   5  -2   81.79    8.50
  -6   5  -2   84.59    8.30
  -7  -5  -2   24.10    4.50
  -7  -5  -2   18.70    4.20
  -7   5  -2   19.00    4.70
  -7   5  -2   18.80    5.00
  -7   5  -2   21.40    6.10
   7  -6  -2  142.99   11.50
  -7   6   2  128.89    9.70
  -6  -6   2  177.18   11.50
   6  -6  -2  177.68   12.40
  -6  -6   2  176.78   11.40
  -6   6   2  140.09    9.90
  -6   6   2  178.38   12.90
  -5  -6   2  231.78   13.20
  -5  -6   2  227.88   13.30
   5  -6  -2  249.28   14.80
  -5   6   2  259.67   13.00
  -5   6   2  248.18   14.70
   5   6  -2  241.48   13.20
   4  -6  -2   82.49    5.60
  -4  -6   2   77.39    7.80
   4  -6  -2   78.79    8.60
  -4  -6   2   75.49    7.30
  -4   6   2   84.49    5.10
  -4   6   2   79.59    8.40
  -4   6   2   84.49    7.30
   4   6  -2   92.49    8.10
  -3  -6   2  389.26   17.90
   3  -6  -2  400.86   15.30
   3  -6  -2  403.66   18.00
  -3  -6   2  372.66   17.10
  -3   6   2  382.56   13.30
   3   6  -2  411.56   17.70
   3   6  -2  378.96   16.20
  -3   6   2  390.76   16.80
  -3   6   2  380.56   17.80
   2  -6  -2  215.48   10.30
   2  -6  -2  185.88   11.80
  -2  -6   2  221.98   12.00
  -2  -6   2  195.68   10.80
  -2   6   2  215.18   11.80
   2   6  -2  204.58   11.60
   2   6  -2  219.58    7.10
   2   6  -2  217.68   10.40
  -2   6   2  210.48   11.20
  -1  -6   2  439.66   19.00
   1  -6  -2  445.06   19.10
   1  -6  -2  443.06   17.50
  -1  -6   2  423.86   17.80
   1   6  -2  456.45   17.30
  -1   6   2  461.35   18.90
  -1   6   2  454.05   14.10
  -1   6   2  474.55   16.60
   1   6  -2  473.35   19.70
   0  -6  -2  143.29    9.40
   0  -6  -2  141.19    8.40
   0  -6  -2  150.48   10.50
   0  -6   2  137.69    8.00
   0  -6   2  123.09    9.60
   0  -6  -2  155.98    5.90
   0   6  -2  133.89    9.30
   0   6  -2  156.88    8.20
   0   6   2  133.49    6.50
   0   6  -2  151.48    7.40
   0   6   2  152.78    9.60
  -1  -6  -2  540.95   21.40
  -1  -6  -2  580.44   21.70
   1  -6   2  551.04   22.50
  -1  -6  -2  601.14   22.00
   1  -6   2  544.95   19.70
  -1  -6  -2  563.44   18.20
   1   6   2  556.34   17.20
  -1   6  -2  540.45   22.50
  -1   6  -2  557.54   21.70
   1   6   2  555.44   21.20
  -1   6  -2  579.54   20.20
  -2  -6  -2   57.49    6.00
   2  -6   2   54.59    6.40
  -2  -6  -2   56.09    6.00
  -2  -6  -2   60.89    6.10
   2  -6   2   62.19    4.50
  -2  -6  -2   65.09    4.50
  -2   6  -2   59.99    5.50
  -2   6  -2   48.30    5.70
  -2   6  -2   56.39    6.90
   2   6   2   58.59    5.30
  -3  -6  -2   11.60    3.00
  -3  -6  -2   13.90    3.60
   3  -6   2   10.80    1.90
   3  -6   2    3.20    2.60
  -3   6  -2   17.40    4.70
  -3   6  -2   13.90    3.20
  -3   6  -2   15.20    3.60
   3   6   2   17.40    3.40
   4  -6   2   93.49    8.20
  -4  -6  -2   89.79    6.90
  -4  -6  -2   99.29    8.60
  -4   6  -2   92.69    8.70
  -4   6  -2  103.89    9.10
  -4   6  -2   98.99    7.00
  -5  -6  -2  142.29    9.90
  -5  -6  -2  151.78    9.50
   5  -6   2  134.79   10.90
  -5   6  -2  135.59   10.30
  -5   6  -2  143.79   10.60
  -5   6  -2  136.89    9.30
  -6  -6  -2  131.69    8.80
  -6  -6  -2  129.39   10.50
   6  -6   2  121.19   10.00
  -6   6  -2  135.99   10.30
  -6   6  -2  142.09    9.80
  -6   6  -2  134.39   11.10
   6  -7  -2  111.39   10.30
  -6   7   2  141.69   10.50
  -5  -7   2   53.49    7.10
  -5  -7   2   48.70    6.70
   5  -7  -2   58.99    8.40
  -5   7   2   45.10    7.40
  -5   7   2   46.90    6.40
  -4  -7   2  294.57   15.40
  -4  -7   2  273.67   14.70
   4  -7  -2  287.47   16.30
   4   7  -2  269.97   15.10
  -4   7   2  268.57   14.30
  -4   7   2  300.77   16.00
  -3  -7   2   22.20    4.60
   3  -7  -2   19.90    3.50
  -3  -7   2   13.80    4.40
   3  -7  -2   18.50    4.40
  -3   7   2   20.80    4.50
   3   7  -2   17.60    4.70
  -3   7   2   17.10    4.20
  -2  -7   2  150.68   10.00
   2  -7  -2  133.79   10.70
   2  -7  -2  151.68    8.70
  -2  -7   2  148.49   10.40
  -2   7   2  165.18   10.70
   2   7  -2  155.08    9.10
   2   7  -2  157.68   10.40
  -2   7   2  162.78   10.10
   1  -7  -2  851.11   30.50
  -1  -7   2  755.82   28.30
  -1  -7   2  809.62   30.60
   1  -7  -2  798.32   28.40
   1   7  -2  800.42   30.50
   1   7  -2  783.52   27.50
  -1   7   2  842.72   30.50
   0  -7  -2   70.69    7.60
   0  -7  -2   64.89    6.60
   0  -7   2   87.49    7.80
   0  -7   2   70.19    6.50
   0   7   2   60.09    6.90
   0   7  -2   67.29    7.40
   0   7  -2   70.79    5.80
  -1  -7  -2  355.66   15.80
  -1  -7  -2  346.67   16.40
   1  -7   2  336.17   14.20
   1  -7   2  343.47   16.90
  -1   7  -2  326.07   16.10
   1   7   2  324.97   15.40
  -1   7  -2  315.67   16.90
  -1   7  -2  357.26   14.40
  -2  -7  -2  202.78   12.20
  -2  -7  -2  208.38   11.60
   2  -7   2  220.88   12.90
  -2   7  -2  198.08   11.70
   2   7   2  222.28   11.90
  -2   7  -2  202.98   10.30
  -2   7  -2  205.98   13.20
   3  -7   2   55.29    7.40
  -3  -7  -2   57.49    6.30
  -3  -7  -2   50.79    7.10
  -3   7  -2   52.29    5.60
  -3   7  -2   60.39    7.50
  -3   7  -2   55.09    6.60
  -4  -7  -2  402.56   18.70
  -4  -7  -2  354.76   16.50
   4  -7   2  363.56   18.40
  -4   7  -2  368.86   18.70
  -4   7  -2  373.56   16.10
  -4   7  -2  379.96   18.00
  -5  -7  -2  140.59    9.70
  -5  -7  -2  137.09   10.90
   5  -7   2  118.89   10.20
  -5   7  -2  131.79   10.00
  -5   7  -2  138.09    9.30
   4  -8  -2  387.66   20.20
  -4  -8   2  375.96   21.50
  -4   8   2  384.16   18.30
  -3  -8   2   15.30    4.20
   3  -8  -2   14.60    3.60
   3  -8  -2   17.60    4.70
  -3  -8   2    6.50    3.30
  -3   8   2   17.40    4.50
  -3   8   2   22.20    4.50
   3   8  -2   20.20    5.20
   2  -8  -2   28.50    5.40
   2  -8  -2   32.50    4.60
  -2  -8   2   27.10    6.10
  -2  -8   2   26.90    5.20
   2   8  -2   34.80    4.50
  -2   8   2   38.70    6.60
   2   8  -2   30.50    6.10
   1  -8  -2   65.89    8.00
   1  -8  -2   69.59    6.90
  -1  -8   2   53.59    6.40
  -1  -8   2   49.80    7.20
  -1   8   2   67.39    8.00
   1   8  -2   68.29    8.30
   1   8  -2   57.09    5.80
   0  -8  -2   83.29    8.80
   0  -8   2   83.89    7.70
   0  -8  -2   89.29    8.30
   0  -8   2   95.09    9.70
   0   8  -2   87.49    9.10
   0   8   2   87.59    8.00
   0   8  -2   84.99    6.20
   1  -8   2  146.29   11.60
   1  -8   2  140.79    8.80
  -1  -8  -2  148.49   10.00
  -1  -8  -2  157.28   10.50
  -1   8  -2  123.89   10.30
  -1   8  -2  140.79    8.40
  -2  -8  -2  156.88   11.20
   2  -8   2  151.68   12.00
  -2  -8  -2  166.58   10.70
  -2   8  -2  150.28   11.20
  -2   8  -2  173.88   12.80
  -3  -8  -2   41.00    6.30
  -3  -8  -2   51.29    6.70
   3  -8   2   46.20    7.40
  -3   8  -2   39.70    6.70
  -3   8  -2   43.60    6.30
   4  -8   2  241.18   15.30
  -4  -8  -2  279.47   14.40
  -4   8  -2  286.67   19.10
  -2  -9   2   75.09    8.30
   2  -9  -2   71.59    7.20
   2   9  -2   77.99   10.00
  -2   9   2   70.29    8.50
   1  -9  -2    1.30    2.30
  -1  -9   2    6.40    2.90
   1   9  -2    5.30    4.30
   0  -9  -2  218.98   12.70
   0  -9   2  222.28   12.60
   0  -9   2  241.38   18.10
   0   9  -2  233.78   15.40
  -1  -9  -2  135.69   10.10
   1  -9   2  130.39   11.40
  -1   9  -2  144.39   11.50
   2  -9   2  161.38   14.50
  -2   9  -2  162.98   13.30
  -9   0   3   78.39    8.40
   8   0  -3  106.69    8.70
  -8   0   3  101.59    7.80
  -8   0   3   98.19    9.20
  -7   0   3    5.10    3.20
   7   0  -3   -0.20    2.10
  -7   0   3    2.50    1.90
  -6   0   3  419.56   16.70
   6   0  -3  414.16   17.10
  -6   0   3  411.46   18.10
   6   0  -3  396.26   17.80
  -5   0   3  458.35   18.80
  -5   0   3  460.55   17.00
   5   0  -3  479.55   17.20
   5   0  -3  468.65   17.70
   5   0  -3  435.86   18.40
  -4   0   3  871.81   29.20
   4   0  -3  883.21   29.40
   4   0  -3  822.42   28.80
  -4   0   3  889.21   28.20
   4   0  -3  878.51   27.60
   4   0  -3  811.82   27.80
  -4   0   3  817.92   27.00
  -4   0   3  821.02   28.90
  -4   0   3  867.11   28.10
  -3   0   3  411.96   14.90
   3   0  -3  384.96   15.50
  -3   0   3  436.46   15.10
   3   0  -3  451.05   16.40
   3   0  -3  396.66   14.90
   3   0  -3  423.46   14.80
  -3   0   3  448.56   16.30
  -3   0   3  405.86   15.90
  -3   0   3  409.46   14.00
   2   0  -3 2689.23   80.29
  -2   0   3 2765.82   80.29
   2   0  -3 2885.61   81.59
   2   0  -3 2708.13   80.59
  -2   0   3 2879.41   80.69
  -2   0   3 2843.72   81.29
   2   0  -3 2979.20   80.79
   2   0  -3 2680.23   81.19
  -2   0   3 2824.82   81.59
  -1   0   3  785.72   24.00
   1   0  -3  796.42   24.50
  -1   0   3  803.12   22.30
   1   0  -3  785.32   24.00
   1   0  -3  822.02   24.70
  -1   0   3  772.62   24.40
   1   0  -3  795.82   24.50
  -1   0   3  815.02   24.60
  -1   0   3  780.52   24.30
   0   0   3 4581.44  146.49
   0   0   3 5435.66  146.49
   0   0  -3 5358.26  146.79
   0   0   3 5331.97  145.99
   0   0  -3 4722.83  145.79
   0   0  -3 5417.86  146.49
   0   0  -3 5520.35  146.99
   0   0  -3 5384.16  146.79
  -1   0  -3 2810.22   78.39
  -1   0  -3 2798.72   78.39
  -1   0  -3 2760.12   79.99
   1   0   3 2721.83   78.09
   1   0   3 2802.12   78.19
  -1   0  -3 2907.71   79.89
   2   0   3   44.20    2.20
   2   0   3   47.30    2.30
  -2   0  -3   51.19    2.60
  -2   0  -3   45.60    2.50
  -2   0  -3   61.19    4.40
  -3   0  -3  792.12   24.70
  -3   0  -3  839.12   24.80
  -3   0  -3  812.42   24.60
   3   0   3  810.22   24.40
  -3   0  -3  798.22   26.80
   4   0   3  183.88    7.50
  -4   0  -3  189.58    8.00
   4   0   3  184.88    7.40
  -4   0  -3  164.48    9.40
  -4   0  -3  171.58    7.80
  -4   0  -3  171.08    7.10
  -5   0  -3  658.53   23.10
  -5   0  -3  693.33   25.50
  -5   0  -3  705.83   23.50
   5   0   3  676.33   22.40
  -5   0  -3  703.33   21.80
  -6   0  -3   37.70    4.30
  -6   0  -3   39.80    3.30
  -6   0  -3   40.10    5.80
  -7   0  -3    7.40    2.90
  -7   0  -3   15.90    3.90
  -8   0  -3  356.86   18.00
  -8   0  -3  337.17   15.70
  -9  -1   3   55.69    6.80
  -9   1   3   62.49    7.20
  -8  -1   3  111.79    8.80
  -8  -1   3   98.09    8.90
   8  -1  -3  133.09   10.30
   8   1  -3  113.39    9.00
  -8   1   3  110.09    9.30
  -8   1   3  130.19    8.70
   7  -1  -3  677.53   26.90
  -7  -1   3  722.43   25.90
  -7  -1   3  698.43   24.80
  -7  -1   3  693.13   27.10
  -7   1   3  645.54   24.90
   7   1  -3  690.73   26.50
  -7   1   3  679.63   27.20
   6  -1  -3    6.90    2.90
   6  -1  -3    4.40    2.40
  -6  -1   3    6.10    2.30
  -6  -1   3    6.80    2.10
  -6  -1   3    7.40    2.70
  -6   1   3    4.80    2.40
  -6   1   3    3.90    3.20
   6   1  -3   18.70    4.20
   6   1  -3   14.60    3.30
   5  -1  -3   72.39    5.90
   5  -1  -3   73.69    5.30
  -5  -1   3   74.39    5.80
  -5  -1   3   72.69    6.70
  -5  -1   3   78.29    6.50
   5  -1  -3   76.09    6.80
  -5  -1   3   86.09    5.90
  -5   1   3   69.99    5.10
   5   1  -3   64.49    6.50
   5   1  -3   73.09    5.70
  -5   1   3   75.99    7.00
   4  -1  -3  254.57   12.20
  -4  -1   3  277.67   12.60
  -4  -1   3  240.08   10.90
   4  -1  -3  281.37   12.70
  -4  -1   3  303.27   13.30
   4  -1  -3  279.77   12.10
   4  -1  -3  284.37   10.90
  -4  -1   3  242.78   12.10
  -4  -1   3  278.97   11.10
   4   1  -3  247.08   11.90
   4   1  -3  293.17   11.80
  -4   1   3  243.08   12.30
  -4   1   3  265.07   11.80
  -4   1   3  274.17   12.50
  -4   1   3  273.27   11.30
  -4   1   3  257.17   10.50
   4   1  -3  271.87   11.10
  -3  -1   3    9.00    2.40
  -3  -1   3    7.20    1.80
   3  -1  -3    7.50    2.20
  -3  -1   3   14.20    2.20
  -3  -1   3    9.90    2.30
  -3  -1   3    6.70    2.10
   3  -1  -3    4.40    1.80
   3  -1  -3    5.80    2.10
   3  -1  -3   11.60    2.70
   3   1  -3    9.90    2.50
  -3   1   3    7.80    1.50
  -3   1   3   10.30    2.30
  -3   1   3   12.30    2.60
  -3   1   3    8.30    2.10
   3   1  -3    8.60    2.40
  -3   1   3   11.10    2.60
   3   1  -3    8.60    2.40
   3   1  -3   14.90    2.80
   2  -1  -3  748.73   24.70
  -2  -1   3  786.12   25.30
  -2  -1   3  747.53   24.60
  -2  -1   3  761.22   24.70
  -2  -1   3  769.42   25.20
   2  -1  -3  810.42   23.10
   2  -1  -3  813.42   25.50
   2  -1  -3  761.12   25.10
  -2  -1   3  789.62   24.20
  -2   1   3  768.22   23.00
   2   1  -3  754.62   24.60
   2   1  -3  814.52   25.40
  -2   1   3  781.62   24.80
   2   1  -3  754.02   24.10
   2   1  -3  776.12   24.70
  -2   1   3  789.02   25.20
  -2   1   3  802.32   23.70
   2   1  -3  765.22   25.20
  -2   1   3  773.72   25.30
  -1  -1   3  901.61   26.00
  -1  -1   3  883.11   27.30
   1  -1  -3  895.41   27.30
   1  -1  -3  888.01   27.10
   1  -1  -3  927.81   26.00
  -1  -1   3  911.01   27.20
   1  -1  -3  906.01   25.30
  -1  -1   3  857.71   27.00
  -1  -1   3  874.61   26.80
   1  -1  -3  859.81   27.10
  -1  -1   3  864.01   27.30
  -1   1   3  860.91   27.10
  -1   1   3  864.51   25.80
   1   1  -3  877.61   27.10
   1   1  -3  891.11   27.40
  -1   1   3  901.81   27.20
   1   1  -3  865.91   27.30
   1   1  -3  906.71   27.20
  -1   1   3  884.91   27.10
   1   1  -3  873.61   26.80
   0  -1   3 2157.98   63.09
   0  -1  -3 2096.69   62.29
   0  -1   3 2287.67   63.19
   0  -1   3 2160.98   62.49
   0  -1  -3 2230.68   63.09
   0  -1  -3 2146.19   62.39
   0  -1   3 2239.08   63.39
   0  -1  -3 2229.38   62.19
   0   1  -3 2217.18   62.59
   0   1   3 2175.38   62.29
   0   1  -3 2163.98   62.79
   0   1  -3 2239.88   63.19
   0   1  -3 2214.38   63.39
   0   1   3 2163.88   62.19
   0   1  -3 2171.58   63.09
   0   1   3 2263.77   63.09
  -1  -1  -3  945.21   25.40
   1  -1   3  900.91   26.80
   1  -1   3  926.21   27.40
  -1  -1  -3  917.21   27.20
  -1  -1  -3  878.61   25.30
   1  -1   3  865.11   26.80
  -1   1  -3  873.11   27.70
  -1   1  -3  907.71   27.00
  -1   1  -3  877.81   26.90
  -1   1  -3  866.81   27.20
  -2  -1  -3   54.49    2.30
   2  -1   3   55.49    3.30
   2  -1   3   55.69    3.50
  -2  -1  -3   58.69    2.40
  -2  -1  -3   56.69    3.60
   2  -1   3   56.39    4.10
  -2   1  -3   64.69    4.40
  -2   1  -3   63.89    3.60
  -2   1  -3   63.09    3.50
  -3  -1  -3 1053.89   31.30
   3  -1   3 1078.99   32.20
  -3  -1  -3 1089.09   31.40
  -3  -1  -3 1062.29   32.50
   3  -1   3 1125.69   34.20
   3  -1   3 1071.39   32.40
  -3   1  -3 1041.80   30.50
  -3   1  -3 1027.20   32.50
  -3   1  -3 1079.69   32.60
   3   1   3 1064.19   30.60
  -3   1  -3 1032.60   33.90
   3   1   3 1024.50   30.60
  -4  -1  -3  379.26   13.80
   4  -1   3  385.26   14.20
  -4  -1  -3  381.36   13.50
   4  -1   3  375.36   13.90
  -4  -1  -3  351.66   13.20
  -4   1  -3  396.86   16.00
   4   1   3  384.36   12.80
  -4   1  -3  377.16   14.30
  -4   1  -3  403.86   11.90
  -4   1  -3  413.86   14.60
   5  -1   3  888.91   28.70
  -5  -1  -3  828.32   30.70
  -5  -1  -3  884.71   28.30
  -5  -1  -3  870.51   28.40
  -5  -1  -3  934.01   28.70
  -5   1  -3  871.91   31.00
  -5   1  -3  843.42   29.20
  -5   1  -3  938.21   29.60
  -5   1  -3  887.71   26.00
   6  -1   3  419.86   16.40
  -6  -1  -3  426.96   18.90
  -6  -1  -3  421.56   16.40
  -6  -1  -3  443.76   16.00
  -6   1  -3  448.76   19.00
  -6   1  -3  413.26   17.00
  -6   1  -3  429.76   13.50
  -7  -1  -3   63.79    7.60
  -7  -1  -3   70.69    5.30
  -7  -1  -3   60.79    5.60
  -7   1  -3   65.59    7.40
  -7   1  -3   72.49    6.70
  -8  -1  -3   29.50    4.50
  -8  -1  -3   25.50    5.10
  -8   1  -3   28.50    5.90
  -8   1  -3   23.30    4.20
  -8  -2   3   14.50    3.80
  -8  -2   3   15.10    4.00
   8  -2  -3   17.00    5.10
  -8  -2   3   13.80    3.40
  -8   2   3   13.40    3.80
  -8   2   3   22.00    5.50
  -7  -2   3  247.48   13.80
  -7  -2   3  264.27   12.60
   7  -2  -3  268.07   14.60
  -7   2   3  252.27   12.40
   7   2  -3  237.38   13.20
  -7   2   3  254.37   14.20
  -6  -2   3  101.59    7.60
   6  -2  -3  117.39    8.70
   6  -2  -3  110.79    6.50
  -6  -2   3  118.99    8.50
  -6   2   3   98.69    8.20
   6   2  -3  108.99    8.40
   6   2  -3  112.59    7.10
  -6   2   3  105.39    7.30
  -5  -2   3  512.95   17.60
   5  -2  -3  487.05   19.50
   5  -2  -3  509.35   17.30
  -5  -2   3  480.05   18.50
   5  -2  -3  498.85   20.20
  -5  -2   3  460.75   19.50
   5   2  -3  494.15   19.60
  -5   2   3  469.85   17.80
   5   2  -3  488.35   17.60
  -5   2   3  486.05   20.20
  -4  -2   3  141.39    8.10
  -4  -2   3  150.88    8.50
   4  -2  -3  141.29    7.10
   4  -2  -3  150.78    7.10
   4  -2  -3  143.59    8.50
  -4  -2   3  145.49    6.70
   4  -2  -3  146.09    8.50
  -4  -2   3  156.98    8.60
  -4   2   3  135.29    8.70
   4   2  -3  124.79    6.80
  -4   2   3  127.39    6.80
   4   2  -3  121.09    8.10
  -3  -2   3  888.41   30.60
   3  -2  -3  896.61   30.90
   3  -2  -3  879.21   31.30
  -3  -2   3  995.20   31.80
   3  -2  -3  946.31   31.80
  -3  -2   3  953.50   29.40
   3  -2  -3  944.41   29.50
  -3  -2   3  986.00   31.10
  -3  -2   3  939.51   31.60
  -3   2   3 1003.20   32.00
  -3   2   3 1013.90   29.60
   3   2  -3 1016.70   31.10
   3   2  -3  988.90   31.70
  -3   2   3 1008.30   31.30
   3   2  -3  937.31   31.30
   3   2  -3  957.20   31.00
   3   2  -3  956.20   29.50
  -3   2   3  932.81   29.40
  -3   2   3 1040.60   32.00
  -2  -2   3 1061.09   31.60
   2  -2  -3 1074.29   31.40
  -2  -2   3 1090.99   33.50
   2  -2  -3 1054.09   33.30
  -2  -2   3 1078.99   32.90
  -2  -2   3  930.21   33.00
   2  -2  -3 1062.79   33.30
   2  -2  -3 1016.30   32.80
  -2  -2   3 1044.50   32.90
  -2   2   3 1039.60   31.30
   2   2  -3 1024.40   33.30
   2   2  -3 1065.89   32.90
  -2   2   3 1081.99   32.90
   2   2  -3 1063.79   31.60
  -2   2   3 1075.29   33.30
  -2   2   3 1056.79   33.30
   2   2  -3 1023.30   32.70
   2   2  -3 1082.29   33.50
  -2   2   3 1055.49   30.80
  -1  -2   3 2644.34   79.89
   1  -2  -3 2686.13   79.29
  -1  -2   3 2746.93   79.59
   1  -2  -3 2846.62   78.29
   1  -2  -3 2791.72   79.59
  -1  -2   3 2813.82   78.89
   1  -2  -3 2823.52   79.69
  -1  -2   3 2822.82   80.19
  -1  -2   3 2671.93   79.29
   1   2  -3 2656.73   79.99
  -1   2   3 2833.72   76.99
  -1   2   3 2609.14   79.29
   1   2  -3 2720.03   78.69
  -1   2   3 2837.02   79.59
   1   2  -3 2827.62   80.09
  -1   2   3 2717.73   79.19
  -1   2   3 2708.13   78.09
   1   2  -3 2688.63   79.49
   1   2  -3 2895.51   79.59
   0  -2  -3 1425.06   42.40
   0  -2   3 1469.85   43.30
   0  -2   3 1521.35   43.60
   0  -2  -3 1496.55   42.60
   0  -2   3 1429.06   42.40
   0  -2  -3 1480.45   42.40
   0  -2   3 1429.76   43.40
   0  -2  -3 1419.76   40.90
   0  -2   3 1545.65   42.90
   0   2  -3 1391.86   43.40
   0   2   3 1445.36   42.40
   0   2  -3 1398.06   43.10
   0   2   3 1413.06   42.20
   0   2  -3 1391.26   42.70
   0   2  -3 1508.75   43.60
   0   2   3 1423.86   42.20
   0   2  -3 1429.26   42.50
   1  -2   3   58.99    3.20
  -1  -2  -3   56.79    4.40
   1  -2   3   64.79    4.10
  -1  -2  -3   59.79    3.10
  -1  -2  -3   61.39    3.10
  -1  -2  -3   64.29    3.50
   1  -2   3   60.59    4.10
   1  -2   3   57.99    4.00
   1  -2   3   71.59    4.80
  -1   2  -3   66.89    3.30
  -1   2  -3   54.29    4.00
   1   2   3   57.99    2.90
  -1   2  -3   49.10    4.30
  -1   2  -3   55.09    4.20
  -1   2  -3   62.09    4.10
   2  -2   3  293.17   11.20
   2  -2   3  274.47   10.60
  -2  -2  -3  262.97    9.00
  -2  -2  -3  264.87   10.80
  -2  -2  -3  255.47    8.90
   2  -2   3  290.47   10.80
  -2   2  -3  258.37    8.30
   2   2   3  276.87    8.50
  -2   2  -3  273.27   10.80
  -2   2  -3  266.37   11.00
  -2   2  -3  251.77   10.60
   2   2   3  263.27    8.40
  -2   2  -3  255.77   10.80
   3  -2   3  599.24   21.20
  -3  -2  -3  642.04   19.80
  -3  -2  -3  616.94   19.70
   3  -2   3  638.94   21.40
  -3  -2  -3  615.04   21.30
   3  -2   3  629.14   22.20
   3   2   3  658.03   19.10
  -3   2  -3  664.03   21.70
  -3   2  -3  609.74   21.50
   3   2   3  653.53   19.10
  -3   2  -3  647.24   22.30
  -4  -2  -3  129.29    6.10
  -4  -2  -3  122.09    7.00
   4  -2   3  122.69    7.10
  -4  -2  -3  122.19    6.00
   4   2   3  136.19    5.40
  -4   2  -3  120.99    7.70
  -4   2  -3  131.09    7.20
   4   2   3  125.99    5.40
  -4   2  -3  116.59    7.00
   5  -2   3   19.80    3.40
  -5  -2  -3   17.30    2.80
  -5  -2  -3   17.90    2.60
  -5  -2  -3   17.50    2.90
  -5   2  -3   15.00    3.10
  -5   2  -3   24.40    4.00
  -5   2  -3    9.20    3.40
   6  -2   3   30.00    4.10
  -6  -2  -3   37.80    4.30
  -6  -2  -3   38.50    4.50
  -6   2  -3   31.80    5.30
  -6   2  -3   32.90    4.70
  -7  -2  -3  283.77   13.00
  -7  -2  -3  300.07   13.20
  -7  -2  -3  300.37   15.40
  -7   2  -3  304.37   14.40
  -7   2  -3  271.87   15.40
  -8  -2  -3  361.16   18.30
  -8  -2  -3  383.06   16.20
  -8   2  -3  348.07   18.20
  -8   2  -3  377.56   17.60
  -8  -3   3  163.48   11.50
   8  -3  -3  183.78   12.10
  -8  -3   3  149.79   10.40
  -8   3   3  170.98   10.80
  -8   3   3  162.58   12.00
  -7  -3   3    3.70    3.10
   7  -3  -3   12.00    3.80
  -7  -3   3    8.60    3.20
  -7   3   3    6.70    2.50
  -7   3   3    8.20    4.10
   7   3  -3   12.00    4.00
  -6  -3   3  163.38   10.90
  -6  -3   3  195.08    9.90
   6  -3  -3  160.58   10.70
  -6  -3   3  156.68    9.90
  -6   3   3  159.68    9.40
   6   3  -3  186.38   10.80
  -6   3   3  157.18   11.20
   5  -3  -3  417.16   18.50
   5  -3  -3  450.05   15.50
   5  -3  -3  423.16   17.90
  -5  -3   3  430.96   18.30
  -5  -3   3  427.46   15.30
  -5  -3   3  426.26   17.40
   5   3  -3  435.46   18.10
   5   3  -3  422.36   15.20
  -5   3   3  412.26   18.70
  -5   3   3  433.76   16.70
   4  -3  -3  155.98    9.50
  -4  -3   3  163.88    9.80
  -4  -3   3  163.68    7.00
  -4  -3   3  183.88    9.80
   4  -3  -3  151.08    9.40
   4  -3  -3  177.18    8.20
  -4  -3   3  166.08    9.20
  -4   3   3  154.58    9.50
  -4   3   3  151.28    7.80
   4   3  -3  150.28    7.00
   4   3  -3  168.68    9.70
   3  -3  -3   25.30    3.70
  -3  -3   3   26.50    3.70
  -3  -3   3   28.80    2.70
   3  -3  -3   32.70    4.30
  -3  -3   3   33.40    4.50
  -3  -3   3   24.90    3.80
   3  -3  -3   31.10    3.40
   3  -3  -3   25.20    3.80
   3   3  -3   28.20    2.70
  -3   3   3   30.50    4.10
   3   3  -3   33.40    4.30
   3   3  -3   27.00    4.10
  -3   3   3   25.10    3.00
   2  -3  -3  225.38    8.80
  -2  -3   3  210.28    9.50
  -2  -3   3  217.58    9.30
  -2  -3   3  194.88    9.80
  -2  -3   3  214.58   10.10
   2  -3  -3  202.18    9.80
  -2  -3   3  205.88    9.50
   2  -3  -3  202.08    9.60
   2  -3  -3  205.88    9.90
  -2   3   3  216.58    7.10
  -2   3   3  208.68    9.80
   2   3  -3  197.38   10.10
  -2   3   3  199.98    8.50
   2   3  -3  214.68    9.70
  -2   3   3  219.58    9.60
   2   3  -3  210.68    8.00
   2   3  -3  222.98   10.20
   2   3  -3  210.98    9.80
  -2   3   3  213.68    9.90
   1  -3  -3 1239.18   39.00
   1  -3  -3 1198.68   38.30
  -1  -3   3 1164.18   39.30
   1  -3  -3 1240.88   37.90
  -1  -3   3 1243.68   38.70
  -1  -3   3 1274.27   39.80
  -1  -3   3 1283.77   38.90
  -1  -3   3 1284.87   38.60
   1  -3  -3 1227.28   38.90
  -1   3   3 1216.88   38.90
   1   3  -3 1264.77   37.60
   1   3  -3 1259.17   38.90
  -1   3   3 1336.07   38.50
   1   3  -3 1357.16   40.00
   1   3  -3 1305.37   38.80
  -1   3   3 1368.16   39.30
   1   3  -3 1246.48   39.60
   0  -3   3  643.34   20.90
   0  -3   3  664.93   21.70
   0  -3  -3  634.94   18.40
   0  -3  -3  638.14   18.40
   0  -3   3  674.63   22.50
   0  -3  -3  645.34   21.00
   0  -3   3  631.74   22.20
   0  -3  -3  636.94   20.60
   0  -3  -3  640.84   21.30
   0  -3   3  678.73   21.80
   0  -3  -3  673.13   21.50
   0   3   3  627.54   20.50
   0   3   3  688.83   21.40
   0   3  -3  644.84   22.30
   0   3  -3  653.73   21.70
   0   3  -3  693.83   22.50
   0   3  -3  659.93   21.00
   0   3  -3  646.54   21.60
   0   3   3  636.14   21.10
   1  -3   3  159.68    7.80
  -1  -3  -3  152.58    6.90
  -1  -3  -3  161.38    6.30
   1  -3   3  154.48    7.80
  -1  -3  -3  159.08    8.10
   1  -3   3  160.58    6.60
   1  -3   3  157.48    8.20
   1  -3   3  164.18    8.20
  -1  -3  -3  168.18    7.10
   1   3   3  171.88    6.90
   1   3   3  163.08    6.70
  -1   3  -3  157.28    8.20
  -1   3  -3  166.38    7.80
  -1   3  -3  166.58    8.20
  -1   3  -3  155.98    7.80
  -1   3  -3  165.38    6.50
   1   3   3  166.78    6.40
   2  -3   3  820.72   23.90
  -2  -3  -3  816.72   25.30
  -2  -3  -3  821.32   25.20
  -2  -3  -3  809.42   26.80
  -2  -3  -3  836.22   24.50
   2  -3   3  810.72   27.00
   2  -3   3  851.21   27.30
   2  -3   3  784.92   26.90
  -2   3  -3  801.12   27.10
  -2   3  -3  785.62   26.70
  -2   3  -3  801.12   23.90
   2   3   3  818.52   24.80
  -2   3  -3  806.52   27.10
   3  -3   3  254.07   11.10
  -3  -3  -3  229.08   10.60
  -3  -3  -3  235.08    9.20
  -3  -3  -3  232.78    8.50
  -3  -3  -3  218.58    9.00
  -3   3  -3  212.48   10.60
  -3   3  -3  218.48   10.80
   3   3   3  243.08    8.60
  -3   3  -3  256.17   11.30
  -3   3  -3  230.08   10.70
  -4  -3  -3  192.98    8.30
  -4  -3  -3  186.78    8.20
  -4  -3  -3  209.38   10.10
   4  -3   3  183.88    9.50
  -4   3  -3  190.28   10.40
  -4   3  -3  178.38    9.80
   4   3   3  186.18    7.50
  -4   3  -3  181.88    9.70
  -4   3  -3  174.38    9.60
   5  -3   3  233.28   11.90
  -5  -3  -3  236.78   10.50
  -5  -3  -3  248.68   12.00
  -5  -3  -3  253.07   10.80
  -5  -3  -3  265.07   10.30
  -5   3  -3  245.78   12.70
  -5   3  -3  271.77   12.60
  -5   3  -3  254.57   12.50
   6  -3   3  138.49    9.00
  -6  -3  -3  126.89    8.20
  -6  -3  -3  141.89    7.90
  -6   3  -3  126.29    8.80
  -6   3  -3  142.99   10.10
  -7  -3  -3  223.18   11.10
  -7  -3  -3  213.88   11.80
  -7   3  -3  250.87   13.50
  -7   3  -3  250.57   14.20
  -8  -3  -3   59.19    6.70
  -8  -3  -3   67.49    6.20
  -8   3  -3   68.79    9.10
   8  -4  -3   34.20    6.20
  -8  -4   3   32.50    5.80
  -8   4   3   36.00    5.40
  -7  -4   3   13.00    3.80
   7  -4  -3   12.90    4.60
  -7  -4   3    5.70    3.30
  -7   4   3    9.00    3.40
  -7   4   3    9.70    4.00
   6  -4  -3  376.66   18.30
  -6  -4   3  400.56   17.40
  -6  -4   3  370.56   18.00
  -6   4   3  386.16   16.50
  -6   4   3  395.96   19.00
   6   4  -3  378.96   17.40
  -5  -4   3   36.00    4.80
   5  -4  -3   31.10    5.10
  -5  -4   3   33.30    2.90
  -5  -4   3   32.20    5.30
  -5   4   3   34.50    5.40
   5   4  -3   25.90    4.40
  -5   4   3   27.00    4.10
   5   4  -3   27.60    2.80
   4  -4  -3  215.28   12.20
  -4  -4   3  197.28   10.80
   4  -4  -3  217.68   11.30
  -4  -4   3  208.08   11.70
   4   4  -3  215.28    8.20
   4   4  -3  223.68   11.80
  -4   4   3  232.28   12.10
  -4   4   3  213.28   10.30
   3  -4  -3  330.07   14.10
  -3  -4   3  330.57   14.70
   3  -4  -3  327.57   14.70
   3  -4  -3  337.97   13.20
  -3  -4   3  333.47   14.40
   3   4  -3  328.17   14.10
   3   4  -3  340.07   11.30
   3   4  -3  332.07   14.90
  -3   4   3  312.97   13.10
  -3   4   3  339.37   14.90
   2  -4  -3  648.64   23.40
   2  -4  -3  677.03   24.30
   2  -4  -3  720.03   24.80
  -2  -4   3  645.64   24.40
  -2  -4   3  677.83   23.80
   2  -4  -3  727.93   23.20
  -2  -4   3  757.72   25.40
   2   4  -3  673.73   21.30
  -2   4   3  670.83   22.90
   2   4  -3  684.73   24.60
  -2   4   3  705.93   23.50
   2   4  -3  686.33   23.70
  -2   4   3  664.13   24.30
  -2   4   3  680.63   20.00
  -1  -4   3  997.60   32.30
   1  -4  -3  900.41   29.90
  -1  -4   3  935.31   31.80
   1  -4  -3  953.40   30.70
  -1  -4   3  971.50   30.80
  -1  -4   3  950.20   30.80
   1  -4  -3  930.31   30.20
   1  -4  -3  915.91   31.10
   1  -4  -3  993.10   31.70
  -1  -4   3  901.01   30.70
   1   4  -3  980.90   32.10
  -1   4   3  932.21   31.10
  -1   4   3  951.80   29.90
   1   4  -3 1026.90   31.10
   1   4  -3  961.40   32.00
   1   4  -3  962.40   30.90
   0  -4   3  245.88   10.20
   0  -4   3  257.77   10.90
   0  -4  -3  249.08    9.60
   0  -4   3  258.77   11.20
   0  -4  -3  257.47    7.30
   0  -4  -3  255.37   10.80
   0  -4  -3  243.48   10.70
   0  -4   3  240.28   11.40
   0  -4  -3  270.77   10.90
   0  -4  -3  239.88   10.80
   0   4  -3  257.27   12.00
   0   4  -3  251.57   10.40
   0   4   3  254.07   10.80
   0   4   3  242.68   10.70
   0   4  -3  252.37   11.80
   0   4  -3  238.78   10.70
   0   4  -3  236.58   10.80
   0   4   3  243.48    9.40
  -1  -4  -3  837.02   28.60
  -1  -4  -3  877.61   26.00
   1  -4   3  867.61   29.40
  -1  -4  -3  838.72   27.70
  -1  -4  -3  875.51   25.70
   1  -4   3  852.61   26.80
  -1  -4  -3  888.01   27.90
   1  -4   3  893.11   28.30
   1   4   3  856.31   25.80
  -1   4  -3  864.41   29.40
   1   4   3  831.22   27.40
  -1   4  -3  820.12   28.00
  -1   4  -3  906.21   29.50
  -1   4  -3  838.62   28.60
   1   4   3  844.92   27.50
  -1   4  -3  885.41   26.90
  -2  -4  -3  178.18    8.30
  -2  -4  -3  174.88    9.20
  -2  -4  -3  179.68    8.20
  -2  -4  -3  179.48    6.30
  -2  -4  -3  172.18    7.50
   2  -4   3  179.38    6.80
   2  -4   3  178.98    9.80
   2   4   3  165.28    7.70
  -2   4  -3  181.48    9.20
  -2   4  -3  171.88    9.50
  -2   4  -3  167.98    6.80
   2   4   3  178.38    7.80
  -2   4  -3  196.08    9.80
  -2   4  -3  174.08    9.80
  -3  -4  -3  374.46   13.80
  -3  -4  -3  365.86   11.50
  -3  -4  -3  371.76   15.60
  -3  -4  -3  376.46   13.90
   3  -4   3  387.56   16.00
  -3  -4  -3  384.06   14.30
  -3   4  -3  331.67   15.30
  -3   4  -3  354.46   15.40
   3   4   3  352.96   13.10
  -3   4  -3  343.37   14.70
  -3   4  -3  396.86   16.20
  -4  -4  -3  106.59    4.50
  -4  -4  -3  110.69    6.40
  -4  -4  -3  107.59    4.50
  -4  -4  -3   91.89    7.00
  -4  -4  -3  106.69    6.30
   4  -4   3   99.69    7.30
  -4   4  -3   88.99    6.90
  -4   4  -3   97.49    7.50
  -4   4  -3  103.09    7.50
   4   4   3  106.49    5.70
  -4   4  -3  100.39    7.90
  -5  -4  -3  127.89    8.60
  -5  -4  -3  137.59    7.70
  -5  -4  -3  147.19    6.10
   5  -4   3  138.19    9.40
  -5   4  -3  133.69    9.10
  -5   4  -3  141.89    9.50
  -5   4  -3  141.29    9.90
  -6  -4  -3   27.40    4.90
  -6  -4  -3   26.20    3.90
  -6   4  -3   26.10    5.20
  -6   4  -3   20.80    4.20
  -6   4  -3   28.70    5.50
  -7  -4  -3  464.85   19.80
  -7  -4  -3  473.15   19.00
  -7   4  -3  470.35   21.30
  -7   4  -3  501.45   21.70
  -7   4  -3  478.65   21.70
  -7  -5   3   66.29    7.90
  -7  -5   3   73.19    8.50
   7  -5  -3   62.99    8.50
  -7   5   3   78.79    7.90
  -7   5   3   75.79    9.40
  -6  -5   3   71.39    7.70
  -6  -5   3   81.69    8.20
   6  -5  -3   75.09    8.70
  -6   5   3   66.19    8.00
  -6   5   3   66.79    6.70
   6   5  -3   56.69    6.80
  -5  -5   3   13.70    3.50
  -5  -5   3   17.20    4.00
   5  -5  -3   19.60    4.50
   5   5  -3   20.80    4.50
  -5   5   3   16.30    3.30
  -5   5   3   24.30    4.70
  -4  -5   3  481.05   19.70
   4  -5  -3  457.95   20.30
  -4  -5   3  453.15   19.70
  -4   5   3  459.45   18.30
   4   5  -3  477.35   14.60
  -4   5   3  481.25   20.40
  -4   5   3  473.55   16.10
   4   5  -3  463.05   19.60
  -3  -5   3  456.95   18.80
   3  -5  -3  431.96   19.10
   3  -5  -3  462.05   17.10
  -3  -5   3  458.45   19.30
   3   5  -3  481.95   18.60
  -3   5   3  446.36   19.40
  -3   5   3  464.45   14.80
  -3   5   3  485.15   18.10
   3   5  -3  454.65   19.40
   3   5  -3  480.05   14.70
   2  -5  -3   46.40    5.70
  -2  -5   3   46.20    5.30
   2  -5  -3   51.49    4.90
   2  -5  -3   51.79    5.30
  -2  -5   3   45.60    5.70
   2   5  -3   42.80    5.00
   2   5  -3   50.99    6.10
  -2   5   3   48.40    1.90
  -2   5   3   42.60    4.40
  -2   5   3   51.99    5.80
   2   5  -3   45.90    3.10
   1  -5  -3  361.06   13.60
   1  -5  -3  345.97   14.20
  -1  -5   3  331.37   14.40
   1  -5  -3  376.36   15.40
   1  -5  -3  334.17   14.80
  -1  -5   3  335.57   15.30
   1   5  -3  372.26   14.60
  -1   5   3  336.97   14.70
  -1   5   3  366.46   13.50
   1   5  -3  354.66   15.90
   0  -5   3  164.68    8.70
   0  -5  -3  177.88    7.70
   0  -5  -3  164.88    9.30
   0  -5  -3  199.58    9.70
   0  -5  -3  170.78    9.40
   0  -5   3  169.18    9.90
   0   5   3  184.78    9.50
   0   5   3  181.88    7.60
   0   5  -3  214.08   10.30
   0   5  -3  177.58    8.90
   0   5  -3  164.48   10.30
   0   5  -3  176.28    8.90
   1  -5   3  136.69    7.00
  -1  -5  -3  139.49    7.90
  -1  -5  -3  140.89    7.80
  -1  -5  -3  141.79    5.70
  -1  -5  -3  152.48    8.50
   1  -5   3  154.08    9.20
  -1   5  -3  127.99    8.70
  -1   5  -3  136.49    8.60
  -1   5  -3  136.09    7.70
   1   5   3  132.29    7.70
  -1   5  -3  153.08    7.30
   1   5   3  142.59    5.70
  -2  -5  -3  478.15   17.70
  -2  -5  -3  447.06   17.20
  -2  -5  -3  462.95   18.40
  -2  -5  -3  473.35   15.80
  -2  -5  -3  439.06   13.70
   2  -5   3  463.05   15.60
   2  -5   3  445.56   18.80
  -2   5  -3  473.25   19.40
  -2   5  -3  456.65   17.60
  -2   5  -3  445.96   18.30
  -2   5  -3  486.55   15.60
   2   5   3  447.66   16.80
   3  -5   3  965.40   28.80
  -3  -5  -3  991.60   32.10
  -3  -5  -3  975.60   33.60
   3  -5   3 1002.50   34.20
  -3  -5  -3 1008.40   31.50
  -3   5  -3  950.00   32.60
   3   5   3  974.20   31.30
  -3   5  -3  967.90   33.80
  -3   5  -3  961.80   34.30
  -4  -5  -3  153.78   10.20
  -4  -5  -3  157.88    8.50
   4  -5   3  164.18   10.20
  -4   5  -3  176.78   10.70
  -4   5  -3  164.88   10.60
  -4   5  -3  172.98   10.00
  -5  -5  -3  253.57   12.30
   5  -5   3  277.37   14.30
  -5  -5  -3  272.97   14.30
  -5   5  -3  294.47   14.90
  -5   5  -3  292.67   15.10
  -5   5  -3  287.47   14.20
  -6  -5  -3  108.19    9.10
  -6  -5  -3  104.09    7.30
  -6   5  -3  109.29    8.50
  -6   5  -3   95.99    8.60
  -6   5  -3  114.19    9.70
  -7  -5  -3  292.97   15.30
  -7  -5  -3  274.17   13.40
  -7   5  -3  274.87   15.10
   6  -6  -3  108.29   10.90
  -6  -6   3  111.09   10.00
  -6  -6   3  115.39    9.20
  -6   6   3  118.89   10.90
  -6   6   3  122.09    9.00
  -5  -6   3  392.66   18.70
   5  -6  -3  383.06   18.80
  -5  -6   3  369.46   17.90
  -5   6   3  362.06   18.80
  -5   6   3  382.86   17.00
   5   6  -3  374.36   17.80
   4  -6  -3   21.50    3.40
  -4  -6   3   27.40    5.30
  -4  -6   3   24.20    4.40
   4  -6  -3   26.10    5.10
  -4   6   3   31.10    4.30
   4   6  -3   23.40    5.00
  -4   6   3   27.60    5.00
  -3  -6   3  302.67   14.90
   3  -6  -3  333.27   13.80
   3  -6  -3  336.77   16.40
  -3  -6   3  342.07   16.40
  -3   6   3  330.57   15.90
   3   6  -3  319.97   14.50
   3   6  -3  307.57   15.50
  -3   6   3  325.87   14.60
  -2  -6   3  351.66   15.60
  -2  -6   3  349.47   16.60
   2  -6  -3  340.17   14.50
   2  -6  -3  334.47   15.90
   2   6  -3  351.96   15.00
   2   6  -3  346.77   11.70
   2   6  -3  350.26   16.30
  -2   6   3  322.67   15.60
  -2   6   3  345.07   15.00
  -1  -6   3  108.09    7.30
   1  -6  -3  116.49    7.80
   1  -6  -3  104.19    7.80
  -1  -6   3  116.99    8.50
  -1   6   3  102.49    7.60
   1   6  -3  113.69    7.50
  -1   6   3  100.29    6.40
   1   6  -3  117.39    9.20
   0  -6  -3  265.17   12.90
   0  -6   3  253.67   11.70
   0  -6   3  270.77   13.80
   0  -6  -3  272.27   13.00
   0  -6  -3  268.37   12.90
   0   6  -3  269.77   13.30
   0   6  -3  273.17   13.90
   0   6   3  260.77   10.20
   0   6  -3  248.88   11.90
   0   6   3  286.17   13.30
  -1  -6  -3  792.72   27.80
  -1  -6  -3  734.13   26.90
  -1  -6  -3  765.62   23.10
  -1  -6  -3  811.02   27.60
   1  -6   3  723.03   28.10
   1  -6   3  754.22   25.40
  -1   6  -3  745.73   26.20
   1   6   3  732.93   26.60
  -1   6  -3  762.72   28.80
  -1   6  -3  766.42   27.60
  -2  -6  -3   49.50    5.80
  -2  -6  -3   51.89    6.60
  -2  -6  -3   50.89    4.60
   2  -6   3   51.19    4.00
   2  -6   3   41.80    5.80
  -2  -6  -3   45.80    5.40
  -2   6  -3   53.69    6.30
  -2   6  -3   57.99    6.70
   2   6   3   53.59    4.70
  -2   6  -3   44.50    5.20
   3  -6   3   72.19    7.60
  -3  -6  -3   72.99    7.20
  -3  -6  -3   76.89    6.50
  -3   6  -3   75.69    7.60
  -3   6  -3   73.69    6.10
  -3   6  -3   75.99    8.10
   4  -6   3   55.09    6.80
  -4  -6  -3   41.00    4.90
  -4  -6  -3   49.60    6.60
  -4   6  -3   51.39    6.60
  -4   6  -3   53.59    6.50
  -4   6  -3   53.99    6.00
   5  -6   3  124.29    9.60
  -5  -6  -3  131.69    8.40
  -5  -6  -3  126.19    9.80
  -5   6  -3  109.29    9.80
  -5   6  -3  128.39    9.70
  -5   6  -3  109.49    8.20
  -6  -6  -3    1.10    2.60
  -6  -6  -3   -1.80    1.20
  -6   6  -3    2.80    3.20
  -6   6  -3    0.50    2.90
  -5  -7   3   63.09    8.00
   5  -7  -3   68.59    8.50
  -5  -7   3   60.89    7.90
  -5   7   3   65.29    8.50
  -5   7   3   66.69    7.10
  -4  -7   3  164.48   10.80
   4  -7  -3  154.48    8.50
   4  -7  -3  154.58   11.20
  -4  -7   3  170.08   11.40
   4   7  -3  144.49   10.50
  -4   7   3  155.28    9.80
  -4   7   3  146.99   10.90
  -3  -7   3   18.40    4.10
   3  -7  -3   23.90    3.90
   3  -7  -3   14.60    4.00
  -3  -7   3   21.50    4.80
  -3   7   3   18.70    4.90
   3   7  -3   18.10    4.40
   3   7  -3   13.30    3.20
  -3   7   3   24.50    4.30
   2  -7  -3  147.49   10.20
  -2  -7   3  153.68   11.10
   2  -7  -3  137.49    8.80
  -2  -7   3  126.89    9.50
   2   7  -3  143.19   10.20
   2   7  -3  132.79    8.50
   1  -7  -3   13.20    3.50
  -1  -7   3   13.30    3.70
  -1  -7   3   11.30    3.00
   1  -7  -3   11.40    3.40
  -1   7   3   15.90    4.30
   1   7  -3    9.10    3.20
   1   7  -3    6.60    3.20
   0  -7  -3  333.47   15.80
   0  -7   3  316.67   16.10
   0  -7  -3  304.17   14.60
   0  -7   3  307.87   13.90
   0   7   3  313.87   15.00
   0   7  -3  308.87   16.00
   0   7  -3  314.67   14.10
  -1  -7  -3  239.18   13.10
  -1  -7  -3  256.07   13.60
   1  -7   3  244.88   11.50
   1  -7   3  254.87   14.20
  -1   7  -3  251.47   14.10
  -1   7  -3  249.58   13.70
  -1   7  -3  262.17   12.20
   1   7   3  256.07   12.70
  -2  -7  -3    2.70    2.60
   2  -7   3   -3.30    2.90
   2  -7   3    2.60    1.80
  -2  -7  -3    4.30    3.30
  -2   7  -3    2.10    2.80
  -2   7  -3   -1.00    1.50
  -2   7  -3   -0.10    3.00
   3  -7   3  359.46   18.50
  -3  -7  -3  384.86   16.90
  -3  -7  -3  368.96   17.90
  -3   7  -3  391.56   19.20
  -3   7  -3  378.96   18.10
  -3   7  -3  363.26   15.90
  -4  -7  -3  215.38   11.40
  -4  -7  -3  214.48   12.80
   4  -7   3  218.78   13.40
  -4   7  -3  197.28   13.00
  -4   7  -3  210.58   13.90
  -5  -7  -3   14.00    3.80
   5  -7   3   25.30    5.30
  -5  -7  -3   14.00    4.70
  -5   7  -3   14.60    3.60
   4  -8  -3  293.07   19.70
  -4   8   3  313.87   17.20
  -4   8   3  296.47   15.20
   3  -8  -3   57.89    8.20
  -3  -8   3   54.99    7.20
   3  -8  -3   50.89    5.60
  -3  -8   3   54.49    7.30
   3   8  -3   56.29    7.70
  -3   8   3   49.99    7.20
   3   8  -3   46.30    6.00
  -2  -8   3  430.66   20.80
  -2  -8   3  434.96   19.10
   2  -8  -3  428.06   18.30
   2  -8  -3  432.76   20.30
   2   8  -3  425.06   18.10
  -2   8   3  416.46   19.80
   2   8  -3  413.86   20.00
  -1  -8   3    7.00    4.40
   1  -8  -3   12.80    3.70
   1  -8  -3    9.10    4.20
  -1  -8   3    8.30    3.60
   1   8  -3    9.30    3.30
  -1   8   3   12.80    3.60
   1   8  -3   11.30    4.50
   0  -8  -3  206.58   12.90
   0  -8  -3  207.68   12.20
   0  -8   3  183.28   12.60
   0  -8   3  193.48   11.10
   0   8  -3  210.98   13.30
   0   8  -3  201.68   10.90
  -1  -8  -3   74.79    7.80
   1  -8   3   66.19    6.30
   1  -8   3   61.99    7.70
  -1  -8  -3   82.19    8.10
  -1   8  -3   66.09    8.00
  -1   8  -3   77.79    7.10
   2  -8   3  131.59   10.60
  -2  -8  -3  128.39    9.90
  -2  -8  -3  124.69   10.20
  -2   8  -3  134.49   10.00
  -2   8  -3  130.39    8.70
  -2   8  -3  141.69   11.70
  -3  -8  -3   57.19    6.80
  -3  -8  -3   65.99    8.00
   3  -8   3   71.19    8.40
  -3   8  -3   63.79    8.80
  -3   8  -3   52.69    7.50
  -3   8  -3   62.39    6.60
   4  -8   3   81.09    9.30
  -4  -8  -3   80.99    8.20
  -1  -9   3   48.10    6.60
   1  -9  -3   61.69    6.90
   1   9  -3   69.49    9.00
   0  -9   3   50.39    6.30
   0  -9  -3   44.60    6.20
   0  -9   3   49.10    8.60
   0   9  -3   52.99    8.30
   1  -9   3   46.10    8.00
  -1   9  -3   51.19    7.70
  -9   0   4   -3.10    1.60
  -8   0   4   38.10    5.40
   8   0  -4   32.20    5.70
  -8   0   4   35.40    6.00
  -7   0   4   55.39    6.80
   7   0  -4   47.70    6.80
  -7   0   4   63.69    6.10
   7   0  -4   48.70    5.80
   6   0  -4    3.10    3.10
  -6   0   4    4.70    2.50
   6   0  -4    5.60    3.30
  -6   0   4    4.30    1.80
   5   0  -4   77.99    6.40
   5   0  -4   78.09    6.60
  -5   0   4   76.69    5.40
  -5   0   4   88.99    7.50
  -4   0   4  115.69    5.70
  -4   0   4  108.99    6.70
   4   0  -4  116.39    7.00
  -4   0   4  126.89    7.80
   4   0  -4  120.29    7.70
   4   0  -4  121.99    7.00
  -4   0   4  115.79    7.90
  -4   0   4  116.39    7.10
   3   0  -4 1623.44   48.90
  -3   0   4 1588.24   47.20
   3   0  -4 1515.75   47.50
  -3   0   4 1485.05   45.50
   3   0  -4 1537.25   48.40
  -3   0   4 1564.54   48.80
  -3   0   4 1561.54   47.50
   3   0  -4 1602.44   47.60
  -3   0   4 1664.13   48.80
   2   0  -4  429.06   14.70
  -2   0   4  425.06   15.50
  -2   0   4  412.96   12.70
  -2   0   4  425.46   15.80
   2   0  -4  398.86   15.40
   2   0  -4  406.96   15.00
   2   0  -4  452.05   15.90
  -2   0   4  436.36   15.10
  -2   0   4  434.36   14.70
   2   0  -4  444.96   15.30
   1   0  -4  908.31   27.90
  -1   0   4  931.21   28.00
  -1   0   4  860.21   28.20
  -1   0   4  921.21   28.20
   1   0  -4  931.81   28.50
   1   0  -4  921.91   28.40
   1   0  -4  946.31   28.50
  -1   0   4  912.01   28.40
   0   0  -4 4509.75  140.99
   0   0  -4 5198.28  142.39
   0   0  -4 5241.98  142.99
   0   0  -4 4998.00  141.79
   0   0   4 4662.83  141.59
   0   0  -4 5294.17  141.89
   0   0   4 5157.38  141.69
   0   0   4 5329.37  142.49
   1   0   4  555.64   16.50
  -1   0  -4  563.64   18.60
   1   0   4  564.44   16.40
  -1   0  -4  565.74   16.80
  -1   0  -4  557.44   16.80
  -1   0  -4  560.34   17.90
  -2   0  -4  612.74   20.70
   2   0   4  612.34   17.70
   2   0   4  613.04   17.80
  -2   0  -4  636.54   18.50
  -3   0  -4  457.55   14.50
   3   0   4  442.96   13.60
  -3   0  -4  435.16   16.80
  -3   0  -4  459.85   14.80
  -3   0  -4  441.86   14.40
   3   0   4  443.86   13.70
  -4   0  -4    1.40    1.10
  -4   0  -4    5.60    1.50
   4   0   4    2.20    1.10
  -4   0  -4    3.50    1.40
   4   0   4    2.30    1.20
  -4   0  -4    2.40    2.40
  -5   0  -4  191.68    8.90
  -5   0  -4  187.08    8.00
  -5   0  -4  219.68    9.30
  -5   0  -4  211.48   11.40
  -6   0  -4  684.53   24.30
  -6   0  -4  729.13   27.50
  -6   0  -4  731.63   22.90
  -7   0  -4   12.50    3.10
  -7   0  -4   12.80    4.10
  -8   0  -4   33.30    5.90
  -8   0  -4   30.60    4.60
  -9  -1   4   72.19    7.70
  -9   1   4   80.09    7.10
  -8  -1   4  279.37   13.70
  -8  -1   4  292.87   16.10
   8  -1  -4  286.47   15.40
  -8   1   4  259.17   15.60
  -8   1   4  260.17   13.20
   8   1  -4  263.37   14.80
   7  -1  -4  200.88   12.60
  -7  -1   4  190.78   12.50
  -7  -1   4  201.18   10.80
   7  -1  -4  203.58   12.00
   7   1  -4  190.68   11.60
  -7   1   4  174.98    9.90
  -7   1   4  185.88   11.90
   7   1  -4  201.58   10.70
  -6  -1   4    5.70    2.10
   6  -1  -4    3.20    3.20
   6  -1  -4   10.80    3.60
  -6  -1   4    3.00    2.30
  -6  -1   4    7.00    2.80
  -6   1   4    1.20    2.00
   6   1  -4   -0.10    1.80
  -6   1   4    3.20    3.20
   6   1  -4    0.30    2.90
  -5  -1   4 1046.80   34.60
  -5  -1   4 1026.10   36.30
   5  -1  -4 1012.70   36.10
   5  -1  -4 1059.69   35.40
   5   1  -4 1130.49   34.80
  -5   1   4 1037.40   33.40
   5   1  -4 1062.99   36.20
  -5   1   4 1103.69   36.90
   4  -1  -4  134.49    8.00
  -4  -1   4  166.18    9.00
   4  -1  -4  158.18    7.90
  -4  -1   4  145.09    7.70
   4  -1  -4  149.59    9.10
  -4  -1   4  141.69    8.90
  -4  -1   4  141.09    7.70
   4   1  -4  148.79    7.70
  -4   1   4  149.09    9.10
  -4   1   4  158.08    7.90
   4   1  -4  147.29    8.60
  -4   1   4  137.89    6.60
  -3  -1   4  393.86   14.70
  -3  -1   4  388.36   14.10
  -3  -1   4  422.86   15.70
  -3  -1   4  389.66   15.50
   3  -1  -4  413.36   15.70
   3  -1  -4  366.66   14.60
  -3  -1   4  375.06   14.50
   3  -1  -4  385.36   15.30
   3   1  -4  365.86   15.00
   3   1  -4  370.96   14.10
  -3   1   4  361.36   15.10
  -3   1   4  400.86   15.40
  -3   1   4  400.76   15.00
  -3   1   4  355.26   13.50
  -3   1   4  353.06   12.40
   3   1  -4  396.06   15.60
   3   1  -4  370.66   14.50
   3   1  -4  421.06   14.90
   2  -1  -4  597.34   17.20
   2  -1  -4  572.14   19.80
  -2  -1   4  590.84   19.30
  -2  -1   4  586.64   20.10
  -2  -1   4  619.84   19.70
   2  -1  -4  592.04   18.50
  -2  -1   4  608.94   20.20
   2  -1  -4  583.94   20.00
   2  -1  -4  600.54   20.40
   2   1  -4  561.44   19.10
   2   1  -4  551.74   19.50
  -2   1   4  578.74   19.60
  -2   1   4  548.75   17.00
  -2   1   4  566.64   19.90
   2   1  -4  586.24   20.30
   2   1  -4  591.14   19.70
  -2   1   4  579.14   18.40
   2   1  -4  567.74   20.10
  -2   1   4  563.34   19.90
  -1  -1   4 1072.19   33.10
   1  -1  -4 1100.69   30.40
  -1  -1   4 1070.79   33.10
  -1  -1   4 1067.09   31.30
  -1  -1   4 1060.29   32.80
   1  -1  -4 1037.60   32.90
   1  -1  -4 1095.39   31.70
   1  -1  -4 1053.59   33.00
  -1  -1   4 1089.69   33.00
   1  -1  -4 1055.59   32.80
   1   1  -4 1119.59   33.10
   1   1  -4 1078.59   32.90
  -1   1   4 1085.49   33.00
  -1   1   4 1083.49   32.80
  -1   1   4 1115.69   32.80
   1   1  -4 1089.99   33.20
   1   1  -4 1018.90   32.80
  -1   1   4 1100.89   31.70
   1   1  -4 1054.59   33.10
   0  -1  -4  185.98    7.00
   0  -1   4  186.58    7.90
   0  -1   4  190.88    7.60
   0  -1  -4  183.28    7.80
   0  -1   4  192.38    7.60
   0  -1   4  189.88    7.00
   0  -1  -4  180.28    6.90
   0  -1  -4  186.48    7.10
   0   1  -4  180.88    7.70
   0   1  -4  191.68    7.60
   0   1  -4  196.58    7.70
   0   1   4  191.98    8.00
   0   1   4  195.18    7.10
   0   1  -4  182.68    8.00
   0   1  -4  187.68    7.00
   0   1   4  177.98    6.70
   1  -1   4 1371.36   40.30
  -1  -1  -4 1357.26   41.20
  -1  -1  -4 1413.46   39.00
   1  -1   4 1363.96   40.40
  -1  -1  -4 1330.37   40.70
   1  -1   4 1375.06   41.60
  -1  -1  -4 1398.66   38.90
   1  -1   4 1359.56   40.90
  -1   1  -4 1397.16   41.70
  -1   1  -4 1382.66   40.60
  -1   1  -4 1396.66   41.00
  -1   1  -4 1376.46   40.60
   2  -1   4  676.53   21.10
   2  -1   4  693.73   21.20
   2  -1   4  680.33   22.70
  -2   1  -4  709.83   21.50
  -2   1  -4  689.23   22.70
  -2   1  -4  646.64   22.90
  -3  -1  -4  391.76   13.60
   3  -1   4  368.26   14.70
  -3  -1  -4  370.86   11.60
   3  -1   4  377.06   12.80
  -3  -1  -4  367.26   11.60
   3  -1   4  382.36   12.80
  -3   1  -4  360.06   13.10
  -3   1  -4  357.46   11.70
  -3   1  -4  382.06   14.80
  -3   1  -4  350.16   13.00
  -4  -1  -4    3.00    1.10
   4  -1   4    1.70    1.40
  -4  -1  -4    1.40    1.40
  -4  -1  -4    2.10    2.00
   4  -1   4    2.00    1.30
  -4   1  -4    0.90    0.80
   4   1   4    0.70    0.50
  -4   1  -4    2.30    1.50
   4   1   4    1.60    0.60
  -4   1  -4    2.80    1.60
  -4   1  -4    3.90    2.00
  -5  -1  -4  123.19    8.40
   5  -1   4  114.19    6.20
  -5  -1  -4  120.29    6.20
  -5  -1  -4  121.59    6.70
  -5  -1  -4  111.19    6.00
  -5   1  -4  125.99    7.20
  -5   1  -4  143.59    8.90
  -5   1  -4  131.39    5.00
   5   1   4  124.49    5.30
  -5   1  -4  123.99    7.10
   5   1   4  127.29    5.20
  -6  -1  -4  417.36   15.30
  -6  -1  -4  400.96   15.30
  -6  -1  -4  412.26   18.50
  -6   1  -4  387.26   16.10
  -6   1  -4  417.36   18.60
  -7  -1  -4  295.07   15.60
  -7  -1  -4  300.77   13.10
  -7  -1  -4  308.47   17.10
  -7   1  -4  327.57   16.30
  -7   1  -4  314.07   14.20
  -8  -1  -4   92.49   10.50
  -8  -1  -4   91.19    6.60
  -8   1  -4  100.99   11.20
  -8   1  -4  101.99    7.50
  -8  -2   4   61.59    6.80
   8  -2  -4   71.09    8.60
  -8  -2   4   66.79    8.30
  -8  -2   4   65.89    7.10
  -8   2   4   80.29    7.50
  -8   2   4   65.59    8.20
   8   2  -4   57.29    7.30
  -7  -2   4  696.83   28.30
   7  -2  -4  722.33   28.50
  -7  -2   4  703.53   26.40
  -7   2   4  726.83   25.90
   7   2  -4  725.03   25.80
   7   2  -4  744.03   28.30
  -7   2   4  713.43   28.70
   6  -2  -4  327.37   15.90
  -6  -2   4  311.87   15.90
  -6  -2   4  342.47   15.20
   6  -2  -4  357.06   16.60
   6   2  -4  364.36   14.40
   6   2  -4  348.37   16.40
  -6   2   4  313.97   13.90
  -6   2   4  348.37   16.70
   5  -2  -4  173.48   10.40
   5  -2  -4  194.48   10.20
  -5  -2   4  185.38    9.90
  -5  -2   4  181.78    8.90
   5  -2  -4  183.18   10.50
  -5  -2   4  163.78   10.10
  -5   2   4  172.38    8.30
   5   2  -4  168.48    8.50
   5   2  -4  161.18   10.00
  -5   2   4  175.98   10.90
   4  -2  -4  333.17   15.00
  -4  -2   4  343.97   15.30
   4  -2  -4  359.96   13.00
  -4  -2   4  350.46   13.30
  -4  -2   4  349.17   14.40
   4  -2  -4  316.17   14.40
  -4   2   4  345.77   12.70
  -4   2   4  360.36   13.40
   4   2  -4  367.56   15.50
   4   2  -4  362.76   13.40
  -4   2   4  340.27   15.40
  -3  -2   4  534.45   19.10
   3  -2  -4  525.15   17.00
   3  -2  -4  523.65   19.60
  -3  -2   4  549.35   19.80
   3  -2  -4  553.64   20.00
  -3  -2   4  525.75   17.80
  -3  -2   4  518.35   19.70
   3  -2  -4  517.75   19.30
  -3  -2   4  503.85   18.90
  -3   2   4  545.15   19.70
   3   2  -4  540.35   19.80
  -3   2   4  516.05   19.10
   3   2  -4  513.25   19.00
   3   2  -4  531.75   17.90
   3   2  -4  538.55   19.10
   3   2  -4  498.45   19.30
  -3   2   4  526.75   17.20
  -3   2   4  520.75   19.60
  -3   2   4  487.45   16.80
   2  -2  -4   70.19    3.60
  -2  -2   4   74.99    5.30
  -2  -2   4   85.19    4.60
   2  -2  -4   74.39    5.70
  -2  -2   4   79.39    5.20
   2  -2  -4   83.39    5.50
  -2  -2   4   78.09    4.40
  -2  -2   4   80.69    5.20
   2  -2  -4   81.19    5.70
  -2  -2   4   74.39    5.40
   2   2  -4   77.79    5.10
  -2   2   4   68.19    3.60
  -2   2   4   80.49    5.20
   2   2  -4   74.29    5.30
   2   2  -4   66.79    4.60
  -2   2   4   71.09    5.10
  -2   2   4   62.79    4.90
  -2   2   4   73.49    3.60
   2   2  -4   60.89    4.90
   2   2  -4   65.79    5.50
  -1  -2   4 2589.54   73.99
  -1  -2   4 2601.14   72.29
  -1  -2   4 2339.17   72.89
   1  -2  -4 2554.14   73.29
  -1  -2   4 2562.94   73.89
  -1  -2   4 2585.84   73.59
   1  -2  -4 2536.55   71.39
   1  -2  -4 2498.45   70.79
   1  -2  -4 2464.05   73.19
   1  -2  -4 2469.05   73.09
   1   2  -4 2440.06   72.69
   1   2  -4 2520.05   72.29
   1   2  -4 2448.85   73.39
   1   2  -4 2493.95   73.79
  -1   2   4 2497.55   72.99
   1   2  -4 2497.05   73.89
   1   2  -4 2498.95   73.19
  -1   2   4 2659.73   73.29
  -1   2   4 2528.55   73.19
  -1   2   4 2526.35   70.79
   0  -2  -4 1204.78   36.80
   0  -2  -4 1294.97   36.40
   0  -2   4 1234.78   37.60
   0  -2   4 1254.77   36.80
   0  -2   4 1240.18   37.60
   0  -2   4 1168.38   36.50
   0  -2   4 1200.78   37.50
   0  -2  -4 1176.98   35.20
   0  -2  -4 1177.28   36.40
   0   2  -4 1253.47   37.70
   0   2   4 1275.57   36.20
   0   2  -4 1167.08   37.50
   0   2  -4 1240.88   36.80
   0   2  -4 1261.97   37.80
   0   2   4 1246.48   36.90
   0   2  -4 1183.08   36.70
   0   2   4 1223.48   36.10
   1  -2   4 2116.49   60.39
  -1  -2  -4 2012.50   58.29
  -1  -2  -4 2019.00   58.49
   1  -2   4 2091.19   60.89
  -1  -2  -4 2084.19   59.69
   1  -2   4 1984.40   60.19
   1  -2   4 2093.49   60.39
  -1   2  -4 2046.70   58.99
   1   2   4 2083.29   57.89
  -1   2  -4 2037.00   60.89
   1   2   4 2054.59   57.89
  -1   2  -4 2121.79   60.59
  -1   2  -4 1974.80   60.19
  -1   2  -4 1983.20   60.39
  -2  -2  -4 1698.13   46.60
  -2  -2  -4 1628.64   49.30
   2  -2   4 1713.33   49.10
  -2  -2  -4 1646.04   46.50
   2  -2   4 1667.23   49.70
   2  -2   4 1637.74   48.90
  -2  -2  -4 1655.23   48.40
  -2   2  -4 1592.54   46.90
  -2   2  -4 1586.64   49.90
  -2   2  -4 1622.04   49.60
  -2   2  -4 1551.94   49.00
  -2   2  -4 1656.13   49.20
   3  -2   4  663.73   22.00
   3  -2   4  642.74   21.80
  -3  -2  -4  654.93   22.20
  -3  -2  -4  630.74   19.70
  -3  -2  -4  667.33   19.80
  -3   2  -4  671.53   18.90
  -3   2  -4  665.33   23.30
  -3   2  -4  683.53   18.90
  -3   2  -4  636.94   22.20
  -3   2  -4  677.13   22.30
  -3   2  -4  624.74   23.00
  -4  -2  -4   44.20    3.10
   4  -2   4   49.20    4.40
  -4  -2  -4   44.90    4.60
  -4  -2  -4   48.40    3.10
   4   2   4   55.79    2.00
  -4   2  -4   51.39    5.60
  -4   2  -4   47.20    4.70
  -4   2  -4   51.19    4.40
   4   2   4   50.89    1.90
  -5  -2  -4  208.38    8.70
  -5  -2  -4  207.48    8.80
  -5  -2  -4  205.08   10.00
   5  -2   4  213.48    9.80
  -5   2  -4  220.58   11.70
   5   2   4  211.78    7.90
  -5   2  -4  200.38   10.40
  -5   2  -4  210.78   10.40
   5   2   4  207.18    7.30
  -6  -2  -4   19.80    4.20
  -6  -2  -4   23.70    3.40
  -6  -2  -4   23.70    3.20
  -6   2  -4   27.20    4.90
  -6   2  -4   29.60    4.50
  -7  -2  -4  181.78    9.10
  -7  -2  -4  181.88   11.70
  -7  -2  -4  168.98    9.40
  -7   2  -4  171.38   11.40
  -7   2  -4  160.68    9.90
  -8  -2  -4   43.20    4.80
  -8   2  -4   47.70    5.90
  -8  -3   4    1.60    3.40
   8  -3  -4    6.00    4.20
  -8  -3   4    1.60    3.00
  -8   3   4   -1.30    1.70
  -8   3   4   -1.50    3.70
   7  -3  -4   94.59    9.50
  -7  -3   4   80.79    8.70
  -7  -3   4   93.79    8.60
  -7   3   4   87.79    7.10
   7   3  -4   84.39    7.90
  -7   3   4   93.39    8.70
  -6  -3   4  524.55   22.80
   6  -3  -4  528.65   22.80
  -6  -3   4  531.75   21.40
   6  -3  -4  538.25   22.30
   6   3  -4  562.14   23.00
  -6   3   4  577.24   23.80
   6   3  -4  552.54   19.70
  -6   3   4  555.14   20.50
   5  -3  -4  108.49    8.50
  -5  -3   4   89.69    7.50
  -5  -3   4  104.89    6.20
   5  -3  -4  103.79    8.70
  -5  -3   4   98.89    7.30
  -5   3   4  110.49    8.90
   5   3  -4   99.79    5.90
   5   3  -4  104.89    8.40
  -5   3   4  120.99    7.30
  -5   3   4  107.39    6.60
   4  -3  -4  749.92   24.20
  -4  -3   4  698.93   25.60
  -4  -3   4  695.73   26.60
   4  -3  -4  715.93   26.90
  -4  -3   4  721.33   23.60
   4  -3  -4  680.13   25.90
  -4   3   4  767.32   23.80
   4   3  -4  738.23   26.10
   4   3  -4  752.82   23.80
   4   3  -4  772.42   27.00
  -4   3   4  717.33   24.00
  -4   3   4  736.03   26.90
   3  -3  -4  507.75   17.00
  -3  -3   4  509.05   16.70
  -3  -3   4  487.35   19.20
  -3  -3   4  499.55   18.70
   3  -3  -4  542.55   19.80
   3  -3  -4  487.25   19.10
   3  -3  -4  506.45   18.90
  -3   3   4  479.95   16.70
  -3   3   4  483.55   15.90
   3   3  -4  490.65   19.10
  -3   3   4  467.45   19.00
   3   3  -4  472.55   16.60
   3   3  -4  471.35   18.40
   2  -3  -4  573.84   20.60
  -2  -3   4  553.64   21.40
   2  -3  -4  597.74   21.30
  -2  -3   4  600.74   20.00
   2  -3  -4  574.34   21.10
  -2  -3   4  601.84   21.80
   2  -3  -4  601.34   19.30
  -2  -3   4  587.54   20.80
  -2  -3   4  614.64   21.00
   2   3  -4  576.04   20.80
   2   3  -4  576.74   19.40
  -2   3   4  595.84   21.10
  -2   3   4  545.55   19.00
  -2   3   4  606.64   20.80
   2   3  -4  639.84   21.20
  -2   3   4  618.04   21.60
   2   3  -4  582.64   21.60
   2   3  -4  609.34   21.70
  -2   3   4  599.64   17.50
  -1  -3   4  459.55   16.10
   1  -3  -4  453.95   16.30
   1  -3  -4  472.55   16.70
  -1  -3   4  468.65   16.90
  -1  -3   4  448.66   17.30
   1  -3  -4  442.46   16.40
  -1  -3   4  480.95   16.50
  -1  -3   4  488.55   17.50
   1  -3  -4  471.25   15.40
  -1   3   4  422.76   16.10
   1   3  -4  457.85   16.50
   1   3  -4  477.25   17.50
   1   3  -4  425.86   15.60
   1   3  -4  440.96   17.30
   1   3  -4  430.16   16.50
  -1   3   4  444.76   16.00
  -1   3   4  452.55   16.40
   0  -3   4 1131.59   35.50
   0  -3  -4 1149.78   34.70
   0  -3   4 1087.99   34.40
   0  -3   4 1126.19   35.00
   0  -3  -4 1078.19   34.30
   0  -3  -4 1175.58   34.80
   0  -3  -4 1106.69   31.90
   0  -3   4 1079.59   35.70
   0  -3  -4 1138.19   34.40
   0  -3   4 1099.49   35.70
   0   3  -4 1096.39   35.50
   0   3  -4 1161.68   36.20
   0   3  -4 1099.89   35.90
   0   3   4 1120.79   34.40
   0   3   4 1166.58   34.40
   0   3   4 1175.18   34.50
   0   3  -4 1146.99   35.20
   0   3  -4 1165.48   34.70
  -1  -3  -4   84.99    4.70
   1  -3   4   90.69    5.90
  -1  -3  -4   99.69    4.80
   1  -3   4   97.89    6.40
   1  -3   4   97.09    5.70
  -1  -3  -4   79.89    6.00
  -1  -3  -4   94.29    4.80
   1  -3   4   93.29    4.70
   1  -3   4   89.49    5.80
   1   3   4   91.49    4.50
  -1   3  -4   87.09    6.10
   1   3   4   74.69    4.20
  -1   3  -4   92.49    6.10
  -1   3  -4   93.39    6.00
  -1   3  -4   97.49    6.00
  -1   3  -4  100.29    4.90
  -2  -3  -4   21.90    2.30
   2  -3   4   17.10    3.10
  -2  -3  -4   20.60    2.30
  -2  -3  -4   23.30    2.30
  -2  -3  -4   18.90    3.00
   2   3   4   23.70    1.90
  -2   3  -4   25.00    3.50
  -2   3  -4   25.40    3.50
  -2   3  -4   27.20    2.00
   2   3   4   22.70    1.80
  -2   3  -4   31.30    3.70
  -2   3  -4   22.60    3.40
   3  -3   4  452.65   17.20
  -3  -3  -4  454.55   17.40
  -3  -3  -4  458.25   15.00
  -3  -3  -4  439.06   14.90
  -3  -3  -4  440.86   15.20
   3   3   4  450.75   13.80
   3   3   4  470.35   13.90
  -3   3  -4  458.65   17.80
  -3   3  -4  465.45   17.90
  -3   3  -4  459.45   17.50
  -3   3  -4  440.96   17.30
   4  -3   4  733.23   25.00
  -4  -3  -4  724.23   25.10
  -4  -3  -4  736.63   22.70
  -4  -3  -4  694.33   22.50
  -4   3  -4  662.63   25.00
   4   3   4  732.13   21.20
  -4   3  -4  707.03   25.80
   4   3   4  714.73   21.10
  -4   3  -4  709.93   25.30
  -4   3  -4  685.23   25.90
  -5  -3  -4  234.78   11.40
  -5  -3  -4  237.58    9.90
   5  -3   4  219.58   11.10
   5   3   4  253.67    9.40
  -5   3  -4  253.27   12.80
  -5   3  -4  239.38   12.40
  -5   3  -4  242.48   12.00
  -5   3  -4  233.48   12.90
  -6  -3  -4  172.18    9.50
  -6  -3  -4  163.58    8.20
  -6   3  -4  169.48   10.30
  -6   3  -4  152.28   10.30
  -7  -3  -4  161.48    8.60
  -7  -3  -4  160.58    9.50
  -7   3  -4  168.18   11.80
  -7   3  -4  153.88   10.00
  -8  -4   4   22.30    5.20
   8  -4  -4   21.60    6.30
  -8   4   4   24.60    4.40
   7  -4  -4   20.70    5.00
  -7  -4   4   25.40    5.00
  -7  -4   4   18.00    4.50
   7   4  -4   18.70    5.20
  -7   4   4   28.80    4.70
  -7   4   4   25.40    6.10
  -6  -4   4   58.89    7.50
   6  -4  -4   56.29    7.40
  -6  -4   4   55.39    6.40
   6   4  -4   52.39    6.50
  -6   4   4   64.99    5.60
  -6   4   4   63.69    8.00
  -5  -4   4    2.80    2.30
  -5  -4   4   -0.70    1.70
   5  -4  -4    1.20    3.10
   5  -4  -4    2.20    3.40
  -5   4   4    0.80    2.20
   5   4  -4    0.30    1.40
  -5   4   4    3.30    2.60
   5   4  -4    2.20    2.40
   4  -4  -4 1107.99   37.60
  -4  -4   4 1099.39   38.30
   4  -4  -4 1112.59   38.50
  -4  -4   4 1113.69   37.50
   4   4  -4 1133.99   37.60
  -4   4   4 1148.59   35.80
  -4   4   4 1155.68   34.30
  -4   4   4 1045.30   38.10
   4   4  -4 1169.58   38.70
   4   4  -4 1140.99   34.30
   3  -4  -4  196.68    8.90
  -3  -4   4  172.58    9.60
  -3  -4   4  192.68   10.50
   3  -4  -4  176.88   10.20
   3  -4  -4  177.08   10.00
  -3   4   4  175.48   10.00
   3   4  -4  192.58    9.90
   3   4  -4  189.08   10.50
   3   4  -4  198.18    8.00
  -3   4   4  180.88    8.70
  -3   4   4  185.88    6.90
  -2  -4   4  418.76   17.40
   2  -4  -4  447.76   15.70
   2  -4  -4  429.06   16.50
   2  -4  -4  432.86   17.20
  -2  -4   4  438.16   16.90
   2  -4  -4  450.85   17.70
   2   4  -4  436.96   14.90
  -2   4   4  406.56   15.40
   2   4  -4  441.36   17.00
   2   4  -4  423.36   17.60
  -2   4   4  420.06   17.00
  -1  -4   4  676.63   23.00
   1  -4  -4  641.34   23.00
   1  -4  -4  651.03   21.90
  -1  -4   4  651.83   23.80
   1  -4  -4  640.34   22.10
  -1  -4   4  654.83   22.60
   1  -4  -4  685.03   23.40
   1   4  -4  629.64   21.50
   1   4  -4  655.93   23.00
   1   4  -4  691.13   26.00
  -1   4   4  659.43   22.00
   1   4  -4  647.74   22.70
   1   4  -4  642.04   23.90
  -1   4   4  664.53   22.90
   0  -4  -4  133.59    7.00
   0  -4  -4  119.29    6.10
   0  -4  -4  121.49    7.50
   0  -4  -4  129.79    7.00
   0  -4  -4  112.49    6.50
   0  -4   4  119.19    6.70
   0  -4   4  129.19    7.80
   0   4  -4  128.69    7.80
   0   4  -4  124.49    7.40
   0   4  -4  124.49    7.20
   0   4  -4  134.39    7.00
   0   4  -4  123.19    8.10
   0   4   4  124.69    6.10
   1  -4   4  362.86   12.80
  -1  -4  -4  349.37   13.40
  -1  -4  -4  362.16   13.60
  -1  -4  -4  348.97   12.50
  -1  -4  -4  366.06   11.70
   1  -4   4  346.27   15.00
  -1  -4  -4  365.06   14.70
   1   4   4  342.57   13.00
  -1   4  -4  381.56   15.30
  -1   4  -4  371.66   12.90
   1   4   4  358.36   13.20
  -1   4  -4  349.87   14.60
   1   4   4  354.06   12.40
  -1   4  -4  359.96   14.60
  -1   4  -4  347.37   15.20
  -2  -4  -4 1064.69   32.20
  -2  -4  -4 1097.39   33.50
  -2  -4  -4 1093.99   35.60
  -2  -4  -4 1044.40   33.30
   2  -4   4 1089.99   35.70
   2  -4   4 1073.99   32.10
   2   4   4 1104.09   32.80
  -2   4  -4 1004.10   35.50
  -2   4  -4 1079.79   35.30
  -2   4  -4 1113.79   32.20
  -2   4  -4 1076.89   35.50
  -2   4  -4 1110.49   36.00
   2   4   4 1077.69   32.80
  -3  -4  -4  153.98    7.10
  -3  -4  -4  135.99    6.70
  -3  -4  -4  140.39    8.40
  -3  -4  -4  151.58    6.00
   3  -4   4  138.79    8.70
  -3   4  -4  151.88    8.80
  -3   4  -4  136.49    8.70
  -3   4  -4  140.79    9.10
   3   4   4  132.59    6.10
   3   4   4  118.19    5.80
  -3   4  -4  138.89    9.00
  -4  -4  -4  476.35   19.00
   4  -4   4  494.05   19.20
  -4  -4  -4  471.35   16.50
  -4  -4  -4  464.25   16.50
  -4   4  -4  458.05   19.30
  -4   4  -4  472.05   19.10
  -4   4  -4  472.15   19.30
  -4   4  -4  407.96   18.60
   5  -4   4  442.76   18.40
  -5  -4  -4  437.96   16.20
  -5  -4  -4  428.06   15.10
  -5  -4  -4  438.56   18.50
  -5   4  -4  451.05   19.70
  -5   4  -4  429.86   18.90
  -5   4  -4  465.25   19.50
  -6  -4  -4  208.78    9.90
  -6  -4  -4  203.38   11.80
  -6   4  -4  238.08   12.90
  -6   4  -4  203.98   12.30
  -6   4  -4  189.48   12.60
  -7  -4  -4   74.99    7.60
  -7  -4  -4   68.29    5.70
  -7   4  -4   69.39    8.60
  -7   4  -4   78.39    8.50
  -7   4  -4   71.49    8.20
   7  -5  -4   43.70    7.50
  -7  -5   4   63.69    7.80
  -7  -5   4   34.10    6.00
  -7   5   4   50.19    5.90
  -7   5   4   54.69    7.70
  -6  -5   4  245.48   13.50
  -6  -5   4  243.98   14.50
   6  -5  -4  244.48   14.50
  -6   5   4  245.58   12.40
   6   5  -4  250.37   14.40
  -6   5   4  231.18   14.20
  -5  -5   4  260.87   13.90
  -5  -5   4  262.97   14.30
   5  -5  -4  254.57   14.70
  -5   5   4  236.78   13.90
  -5   5   4  264.97   12.40
   5   5  -4  255.77   14.20
   4  -5  -4  431.16   18.60
  -4  -5   4  450.45   19.40
  -4  -5   4  436.86   18.70
   4  -5  -4  414.56   19.00
   4   5  -4  434.06   18.20
  -4   5   4  445.66   19.40
   4   5  -4  437.76   19.30
   4   5  -4  423.96   14.40
  -4   5   4  424.16   16.90
  -3  -5   4  240.58   13.00
   3  -5  -4  239.48   12.00
  -3  -5   4  245.78   12.70
   3  -5  -4  230.48   12.90
   3   5  -4  257.07    9.50
  -3   5   4  259.87    8.20
  -3   5   4  269.47   13.50
  -3   5   4  244.48    8.10
   3   5  -4  243.98   13.00
   3   5  -4  248.88   12.60
  -3   5   4  272.47   11.50
   2  -5  -4  198.88   10.00
   2  -5  -4  244.88   13.90
  -2  -5   4  197.68   11.20
   2  -5  -4  200.78   10.90
  -2  -5   4  193.78   10.30
   2   5  -4  215.18   11.90
  -2   5   4  210.78   11.20
   2   5  -4  200.98    8.40
   2   5  -4  183.98   10.40
   1  -5  -4  240.08   11.80
  -1  -5   4  257.37   11.80
   1  -5  -4  233.58   11.80
   1  -5  -4  230.78   10.70
   1  -5  -4  274.97   12.50
  -1  -5   4  262.67   12.90
   1   5  -4  265.97   13.00
   1   5  -4  267.07   12.10
  -1   5   4  281.17   11.20
  -1   5   4  259.57   12.00
   0  -5  -4   48.40    4.00
   0  -5   4   44.00    5.30
   0  -5  -4   45.90    5.00
   0  -5   4   44.90    4.40
   0  -5  -4   53.59    5.30
   0  -5  -4   48.80    4.60
   0   5  -4   37.80    4.80
   0   5  -4   51.49    6.00
   0   5   4   49.90    5.00
   0   5  -4   47.80    5.30
   0   5   4   51.49    4.00
  -1  -5  -4  156.68    6.80
   1  -5   4  165.98   10.10
  -1  -5  -4  161.78    9.20
   1  -5   4  153.48    7.40
  -1  -5  -4  166.88    8.70
  -1  -5  -4  155.98    8.50
  -1  -5  -4  164.98    6.00
  -1   5  -4  146.49    7.50
  -1   5  -4  156.58    9.10
   1   5   4  157.68    8.00
  -1   5  -4  164.48    8.90
  -1   5  -4  162.58    9.80
   1   5   4  165.58    6.80
   2  -5   4   69.69    7.10
  -2  -5  -4   85.59    5.50
   2  -5   4   71.29    4.40
  -2  -5  -4   72.59    6.70
  -2  -5  -4   78.49    5.40
  -2  -5  -4   73.39    4.40
  -2  -5  -4   66.49    3.70
  -2   5  -4   73.49    7.50
   2   5   4   74.09    4.90
  -2   5  -4   77.99    6.10
  -2   5  -4   81.59    6.50
  -2   5  -4   83.29    4.50
  -3  -5  -4  189.48   11.20
   3  -5   4  205.98   11.30
  -3  -5  -4  220.48   11.90
  -3  -5  -4  198.78    9.40
  -3  -5  -4  210.78    9.40
  -3   5  -4  173.78   11.20
  -3   5  -4  187.68   11.20
  -3   5  -4  182.78   10.30
   4  -5   4  299.07   14.90
  -4  -5  -4  324.77   13.10
  -4  -5  -4  306.87   15.20
  -4   5  -4  324.37   15.50
  -4   5  -4  324.87   14.90
   5  -5   4  417.26   19.00
  -5  -5  -4  428.66   16.40
  -5  -5  -4  397.76   18.30
  -5   5  -4  456.35   19.20
  -5   5  -4  411.56   19.10
  -5   5  -4  455.35   20.10
  -6  -5  -4  182.38   11.00
  -6  -5  -4  161.68    8.90
  -6   5  -4  169.88   11.30
  -6   5  -4  150.78   11.50
  -6   5  -4  159.48   10.80
  -6  -6   4   51.19    6.70
   6  -6  -4   55.79    8.30
  -6  -6   4   62.99    8.20
  -6   6   4   55.39    8.00
   6   6  -4   52.59    7.20
  -6   6   4   48.50    5.90
  -5  -6   4   49.90    6.40
   5  -6  -4   47.70    5.00
   5  -6  -4   43.60    6.60
  -5  -6   4   43.70    6.50
   5   6  -4   43.50    6.30
  -5   6   4   66.49    8.20
  -5   6   4   43.50    5.60
   4  -6  -4   46.40    4.80
  -4  -6   4   36.30    5.70
  -4  -6   4   52.09    7.00
   4  -6  -4   40.80    6.10
   4   6  -4   43.20    6.00
  -4   6   4   36.20    4.70
  -4   6   4   41.00    6.00
   4   6  -4   43.90    6.10
  -3  -6   4  781.72   29.60
  -3  -6   4  766.52   28.40
   3  -6  -4  745.63   26.80
   3  -6  -4  747.93   29.30
  -3   6   4  773.32   27.30
  -3   6   4  786.52   29.30
   3   6  -4  766.32   27.90
   3   6  -4  818.72   29.80
   2  -6  -4    0.30    1.70
   2  -6  -4    7.50    3.20
   2  -6  -4   11.10    3.10
  -2  -6   4    3.50    2.50
  -2  -6   4    5.90    3.10
   2   6  -4    5.90    3.20
   2   6  -4    5.20    2.90
  -2   6   4    6.80    3.00
   2   6  -4    6.50    1.70
   1  -6  -4   49.10    5.90
   1  -6  -4   47.30    5.30
  -1  -6   4   45.80    5.30
   1  -6  -4   51.99    4.40
  -1  -6   4   43.40    6.10
   1   6  -4   58.79    7.10
   1   6  -4   40.80    5.30
   0  -6  -4  471.75   19.30
   0  -6   4  467.95   20.20
   0  -6  -4  483.45   17.00
   0  -6  -4  526.05   19.90
   0  -6   4  482.55   18.10
   0  -6  -4  454.05   19.00
   0   6   4  488.85   17.00
   0   6  -4  459.35   18.70
   0   6   4  463.95   18.80
   0   6  -4  482.95   20.50
   0   6  -4  481.25   19.50
  -1  -6  -4  174.58    9.90
  -1  -6  -4  194.88   10.30
   1  -6   4  182.08    8.80
   1  -6   4  168.18   10.70
  -1  -6  -4  176.18    7.30
  -1  -6  -4  196.48   11.00
  -1   6  -4  168.28    9.90
  -1   6  -4  167.38   10.60
  -1   6  -4  172.98   11.00
   1   6   4  176.48    9.50
   2  -6   4  210.88   12.50
   2  -6   4  197.68    8.70
  -2  -6  -4  195.28   10.40
  -2  -6  -4  212.18   11.60
  -2   6  -4  194.68   10.80
  -2   6  -4  218.08   11.70
  -2   6  -4  197.68   12.10
   3  -6   4  793.12   29.60
  -3  -6  -4  775.02   27.10
  -3  -6  -4  756.92   29.00
  -3   6  -4  761.32   29.00
  -3   6  -4  797.12   28.20
  -3   6  -4  785.32   29.90
  -4  -6  -4   18.60    4.10
  -4  -6  -4   17.90    3.40
   4  -6   4   17.40    4.80
  -4   6  -4   18.70    4.30
  -4   6  -4   13.00    3.70
  -4   6  -4   14.30    4.00
  -5  -6  -4    8.70    4.20
  -5  -6  -4    7.50    2.30
  -5   6  -4   10.60    4.50
  -5   6  -4    6.50    3.30
  -5   6  -4    7.30    3.10
  -6  -6  -4   53.39    5.60
  -6  -6  -4   49.00    7.00
  -6   6  -4   56.59    7.50
   5  -7  -4  420.46   21.20
  -5  -7   4  446.06   21.00
  -5  -7   4  442.96   21.20
   5   7  -4  441.26   20.70
  -5   7   4  448.76   21.50
  -5   7   4  434.06   19.00
  -4  -7   4    1.70    3.70
  -4  -7   4    3.70    3.30
   4  -7  -4    2.20    2.60
   4  -7  -4    1.10    2.70
   4   7  -4    5.90    3.20
  -4   7   4    6.30    4.00
  -4   7   4    2.70    2.10
  -3  -7   4    3.40    3.30
   3  -7  -4    1.10    1.70
  -3  -7   4    1.30    2.60
   3  -7  -4   -0.70    3.20
   3   7  -4    3.50    3.20
   3   7  -4    1.30    3.80
  -3   7   4    1.00    3.10
   2  -7  -4  445.16   19.70
   2  -7  -4  435.06   18.10
  -2  -7   4  429.56   19.90
  -2  -7   4  429.26   18.80
   2   7  -4  433.76   18.10
   2   7  -4  420.96   20.10
  -1  -7   4   48.60    5.90
   1  -7  -4   56.49    7.00
   1  -7  -4   59.09    6.40
  -1  -7   4   47.50    6.90
   1   7  -4   62.39    7.10
   1   7  -4   55.69    4.50
  -1   7   4   59.69    6.60
   1   7  -4   64.29    6.50
   0  -7  -4  125.19    8.80
   0  -7   4  127.29   10.30
   0  -7  -4  130.39    9.30
   0  -7   4  116.59    7.90
   0   7  -4  114.29    8.40
   0   7  -4  126.79   10.50
   0   7   4  117.89    8.80
   1  -7   4   51.79    6.80
  -1  -7  -4   56.79    6.60
  -1  -7  -4   46.20    5.80
   1  -7   4   48.00    4.70
  -1   7  -4   55.79    6.20
  -1   7  -4   42.10    5.80
  -1   7  -4   45.40    6.50
   2  -7   4  285.47   15.90
  -2  -7  -4  289.07   14.80
  -2  -7  -4  291.87   14.10
  -2   7  -4  292.17   14.90
  -2   7  -4  289.87   16.20
  -2   7  -4  291.67   14.00
  -3  -7  -4   33.70    4.80
  -3  -7  -4   26.40    4.90
   3  -7   4   30.40    6.10
  -3   7  -4   27.30    5.50
  -3   7  -4   29.20    4.50
  -3   7  -4   26.30    5.00
   4  -7   4   34.60    5.80
  -4  -7  -4   29.10    6.00
  -4  -7  -4   29.60    4.60
  -4   7  -4   37.70    5.30
  -4   7  -4   24.70    5.00
  -4   7  -4   32.40    6.00
  -5  -7  -4  134.29    8.90
  -5   7  -4  131.59    9.90
  -4   8   4  161.98   12.40
   4   8  -4  148.99   11.40
  -4   8   4  152.88   10.50
  -3  -8   4  238.88   14.60
  -3  -8   4  244.48   13.70
   3  -8  -4  220.08   14.60
   3   8  -4  237.08   15.10
   3   8  -4  252.87   13.50
  -2  -8   4  156.98   10.60
   2  -8  -4  150.88   10.10
  -2  -8   4  147.79   11.20
   2  -8  -4  143.79   10.70
   2   8  -4  146.29    9.50
  -2   8   4  145.39   13.10
   2   8  -4  153.68   11.30
   1  -8  -4  132.99    9.90
   1  -8  -4  129.79   10.60
  -1  -8   4  132.59    9.40
  -1  -8   4  151.88   11.20
   1   8  -4  146.39    9.20
   1   8  -4  137.19   11.30
   0  -8  -4  837.22   31.90
   0  -8   4  872.91   33.80
   0  -8   4  847.62   30.20
   0  -8  -4  854.51   32.30
   0   8  -4  885.81   30.80
   0   8  -4  870.61   34.10
  -1  -8  -4   88.89    8.60
   1  -8   4   87.49    7.40
   1  -8   4   81.09    8.90
  -1  -8  -4   89.69    8.50
  -1   8  -4  105.69   10.50
  -1   8  -4   87.19    7.50
  -1   8  -4   89.59    9.00
  -2  -8  -4  249.18   14.00
   2  -8   4  228.68   14.30
  -2  -8  -4  243.18   13.10
  -2   8  -4  249.08   12.50
  -2   8  -4  215.08   14.30
  -2   8  -4  235.98   14.30
  -3  -8  -4   79.19    8.00
   3  -8   4   97.89   10.00
  -3   8  -4   94.19    8.00
  -3   8  -4   84.89   11.40
   8   0  -5  241.58   13.20
  -8   0   5  233.08   12.10
   8   0  -5  234.68   14.10
  -8   0   5  243.48   14.90
  -7   0   5  106.69    9.40
  -7   0   5   93.69    6.80
   7   0  -5   94.19    8.40
   7   0  -5   93.39    8.30
  -6   0   5  127.89    7.30
   6   0  -5  126.29    8.50
  -6   0   5  133.29    9.50
   6   0  -5  126.19    9.70
   5   0  -5  272.27   13.70
  -5   0   5  260.17   10.50
  -5   0   5  252.97   13.20
   5   0  -5  260.87   12.60
   4   0  -5   46.80    5.30
  -4   0   5   42.40    3.20
  -4   0   5   43.60    5.50
   4   0  -5   48.40    4.90
   3   0  -5  566.04   19.90
   3   0  -5  563.04   21.00
  -3   0   5  595.84   20.40
   3   0  -5  565.84   20.30
  -3   0   5  582.34   17.70
  -3   0   5  564.04   21.00
  -3   0   5  584.14   21.40
   3   0  -5  604.84   21.60
   3   0  -5  569.54   20.50
  -3   0   5  577.14   20.00
  -2   0   5   35.70    3.40
   2   0  -5   37.60    4.20
  -2   0   5   32.90    1.30
   2   0  -5   31.00    3.70
  -2   0   5   32.90    1.30
   2   0  -5   38.90    3.40
  -2   0   5   30.10    3.70
  -2   0   5   31.40    3.60
   2   0  -5   33.50    3.80
   2   0  -5   33.30    3.70
  -2   0   5   33.60    3.70
   1   0  -5 6243.08  174.78
  -1   0   5 6345.46  175.28
   1   0  -5 6402.06  175.38
  -1   0   5 6499.35  175.08
   1   0  -5 6059.29  175.48
  -1   0   5 5939.71  175.28
   1   0  -5 5912.51  175.08
  -1   0   5 6194.18  174.78
   0   0   5   33.10    2.60
   0   0  -5   32.50    2.70
   0   0   5   28.30    3.10
   0   0  -5   29.40    3.30
   0   0  -5   30.30    2.10
   0   0   5   31.20    2.70
   0   0  -5   32.50    2.70
   0   0  -5   31.50    3.30
   1   0   5  544.35   16.00
  -1   0  -5  534.25   16.40
  -1   0  -5  533.55   17.40
  -1   0  -5  549.65   16.50
  -1   0  -5  508.75   18.10
   1   0   5  517.05   15.80
  -2   0  -5 1375.86   39.70
  -2   0  -5 1366.26   42.20
  -2   0  -5 1423.76   39.80
  -2   0  -5 1359.46   42.50
  -3   0  -5   83.79    6.00
  -3   0  -5   81.59    3.80
  -3   0  -5   75.69    3.70
  -3   0  -5   79.09    4.60
  -4   0  -5  269.47   10.20
  -4   0  -5  273.17    9.90
   4   0   5  265.57    8.50
  -4   0  -5  282.07   12.70
  -4   0  -5  255.87    9.70
   4   0   5  259.47    8.50
  -5   0  -5  748.43   23.70
  -5   0  -5  704.13   23.30
  -5   0  -5  693.13   26.70
  -5   0  -5  751.52   23.20
   5   0   5  706.93   21.90
  -6   0  -5   17.90    2.90
  -6   0  -5   22.20    4.90
  -6   0  -5   18.50    2.50
  -7   0  -5   35.40    4.30
  -7   0  -5   31.80    5.90
  -8   0  -5  471.05   18.50
   8  -1  -5   58.59    7.70
  -8  -1   5   63.89    7.90
  -8  -1   5   55.39    6.20
  -8   1   5   62.79    6.20
   8   1  -5   54.69    7.40
  -8   1   5   61.29    8.10
   8   1  -5   52.89    6.60
  -7  -1   5   22.80    4.80
   7  -1  -5   19.30    5.00
   7  -1  -5   21.30    4.40
  -7  -1   5   16.40    3.60
   7   1  -5   14.10    3.50
  -7   1   5   14.80    4.70
  -7   1   5   18.40    3.50
   7   1  -5   18.80    5.10
   6  -1  -5  472.45   20.60
  -6  -1   5  466.45   20.50
  -6  -1   5  473.25   17.70
   6  -1  -5  478.95   19.60
  -6   1   5  435.86   20.10
  -6   1   5  480.85   17.40
   6   1  -5  471.25   20.30
   6   1  -5  451.05   18.50
  -5  -1   5  262.67   13.50
   5  -1  -5  246.68   12.20
   5  -1  -5  237.38   12.80
  -5   1   5  262.67   10.40
   5   1  -5  251.97   12.00
  -5   1   5  237.48   12.80
   5   1  -5  249.88   12.90
  -4  -1   5   73.59    6.30
   4  -1  -5   83.99    6.40
   4  -1  -5   94.69    7.40
  -4   1   5   88.69    5.60
  -4   1   5   84.69    6.70
  -4   1   5   87.39    4.50
   4   1  -5   90.79    6.10
   4   1  -5   89.79    6.80
  -3  -1   5 1212.28   39.00
   3  -1  -5 1262.07   39.30
   3  -1  -5 1207.48   38.90
  -3  -1   5 1252.87   37.80
  -3  -1   5 1187.48   37.90
  -3  -1   5 1266.87   39.10
   3  -1  -5 1173.98   38.30
   3   1  -5 1190.38   38.00
  -3   1   5 1204.78   39.00
  -3   1   5 1154.68   38.80
   3   1  -5 1301.77   39.50
   3   1  -5 1234.78   38.40
   3   1  -5 1133.09   38.60
   3   1  -5 1172.48   37.70
  -3   1   5 1110.99   34.80
  -3   1   5 1235.28   38.50
  -3   1   5 1219.08   36.90
   2  -1  -5  703.03   25.00
  -2  -1   5  747.43   25.30
  -2  -1   5  760.02   22.40
  -2  -1   5  752.32   24.50
   2  -1  -5  787.92   25.50
   2  -1  -5  713.83   23.40
   2  -1  -5  727.23   25.00
  -2  -1   5  764.92   25.30
  -2  -1   5  747.33   24.60
  -2   1   5  764.62   23.50
   2   1  -5  743.23   24.60
  -2   1   5  759.42   25.00
   2   1  -5  700.73   24.50
  -2   1   5  798.82   25.30
   2   1  -5  784.42   25.50
  -2   1   5  756.12   25.20
   2   1  -5  712.53   25.10
   2   1  -5  787.82   25.10
  -1  -1   5  558.94   19.00
   1  -1  -5  549.54   15.90
   1  -1  -5  568.14   19.00
   1  -1  -5  552.24   18.90
   1  -1  -5  536.95   17.80
  -1  -1   5  549.45   19.10
   1  -1  -5  550.54   19.10
  -1  -1   5  562.44   19.10
  -1  -1   5  567.84   17.00
  -1   1   5  541.55   17.80
   1   1  -5  540.05   19.00
   1   1  -5  550.64   19.10
   1   1  -5  609.44   19.30
   1   1  -5  590.24   19.30
  -1   1   5  595.74   18.70
   1   1  -5  552.44   17.00
  -1   1   5  545.85   18.60
  -1   1   5  564.54   19.10
   1   1  -5  534.45   19.10
   0  -1   5  280.57   10.50
   0  -1   5  274.97   10.90
   0  -1   5  286.47    9.70
   0  -1  -5  252.37    9.80
   0  -1  -5  273.57    9.80
   0  -1  -5  267.67    9.80
   0  -1  -5  260.47   10.70
   0  -1   5  269.67   10.30
   0   1  -5  275.67   10.60
   0   1  -5  267.17   10.30
   0   1  -5  274.17   10.60
   0   1   5  268.27   10.90
   0   1  -5  277.37   11.10
   0   1   5  291.27   10.10
   0   1  -5  267.77   10.90
   0   1   5  276.17    9.40
   0   1  -5  270.37    9.60
  -1  -1  -5  267.27   10.40
  -1  -1  -5  265.87    8.50
  -1  -1  -5  264.97   10.70
   1  -1   5  280.57   11.30
   1  -1   5  268.77    9.70
   1  -1   5  277.97   10.40
   1  -1   5  274.77    9.80
  -1  -1  -5  286.17    8.60
  -1   1  -5  264.07   10.00
  -1   1  -5  250.17   10.00
  -1   1  -5  259.97    9.90
  -1   1  -5  257.57   11.00
   2  -1   5  498.45   16.10
   2  -1   5  518.35   17.90
  -2   1  -5  488.45   16.50
  -2   1  -5  472.95   18.10
  -2   1  -5  521.55   16.50
  -2   1  -5  512.35   17.90
  -3  -1  -5  319.77   12.20
   3  -1   5  315.57   10.90
  -3  -1  -5  288.27    9.20
  -3  -1  -5  322.67    9.30
  -3  -1  -5  297.57   12.90
  -3   1  -5  320.37   13.30
  -3   1  -5  302.17   11.40
  -3   1  -5  315.97   11.40
  -3   1  -5  327.27   13.80
  -4  -1  -5  540.85   18.70
  -4  -1  -5  529.65   16.70
  -4  -1  -5  542.75   16.80
  -4  -1  -5  529.25   20.80
   4  -1   5  538.05   17.80
  -4   1  -5  560.24   20.90
  -4   1  -5  515.55   18.30
  -4   1  -5  547.35   16.90
  -4   1  -5  552.94   18.40
  -5  -1  -5   27.20    3.40
  -5  -1  -5   21.00    3.90
  -5  -1  -5   24.90    2.70
  -5  -1  -5   28.40    2.60
  -5   1  -5   24.70    4.30
  -5   1  -5   27.80    3.50
  -5   1  -5   22.40    3.20
  -5   1  -5   24.90    2.10
  -6  -1  -5   52.49    6.70
  -6  -1  -5   47.60    4.00
  -6  -1  -5   61.29    4.80
  -6   1  -5   61.29    6.90
  -6   1  -5   63.19    5.30
  -7  -1  -5  182.68    8.90
  -7  -1  -5  178.88   11.60
  -7   1  -5  171.58   11.60
  -7   1  -5  177.28    9.80
  -8  -1  -5   51.99    4.90
  -8   1  -5   54.39    6.10
  -8  -2   5  114.89   10.00
   8  -2  -5  107.59   10.90
  -8   2   5  130.09    8.50
   8   2  -5  132.09   10.10
  -8   2   5  121.39   11.00
   7  -2  -5  214.38   12.50
   7  -2  -5  220.68   13.20
  -7  -2   5  203.38   11.40
  -7  -2   5  222.28   13.70
   7   2  -5  214.18   11.30
  -7   2   5  193.38   10.10
  -7   2   5  205.08   13.00
   7   2  -5  189.48   12.30
   6  -2  -5  221.68   12.80
   6  -2  -5  235.98   12.60
  -6  -2   5  220.88   11.60
  -6  -2   5  217.48   12.80
   6   2  -5  208.58   12.40
  -6   2   5  231.08   13.50
  -6   2   5  214.78   10.10
   6   2  -5  227.98   11.00
  -5  -2   5  131.79    8.30
   5  -2  -5  140.69    9.30
   5  -2  -5  121.29    8.50
  -5  -2   5  132.79    9.10
  -5   2   5  131.09    6.80
   5   2  -5  136.09    9.20
   5   2  -5  128.19    7.80
  -5   2   5  128.79    9.10
  -4  -2   5  551.34   19.20
   4  -2  -5  528.05   20.70
   4  -2  -5  529.15   21.10
  -4  -2   5  518.85   21.00
  -4  -2   5  525.85   20.10
   4   2  -5  548.75   19.40
  -4   2   5  576.24   18.90
  -4   2   5  542.95   21.30
  -4   2   5  563.34   17.90
   4   2  -5  552.14   21.30
   4   2  -5  495.45   20.20
   3  -2  -5   58.29    5.70
   3  -2  -5   66.09    3.60
   3  -2  -5   68.99    5.80
  -3  -2   5   66.39    4.50
   3  -2  -5   64.19    6.00
  -3  -2   5   65.99    6.00
  -3  -2   5   67.29    5.20
  -3   2   5   60.99    3.40
  -3   2   5   62.59    3.90
   3   2  -5   62.99    5.90
  -3   2   5   64.99    5.90
   3   2  -5   61.49    5.20
   3   2  -5   63.49    5.50
   3   2  -5   70.19    5.20
  -2  -2   5  344.67   13.80
  -2  -2   5  325.87   11.50
  -2  -2   5  326.77   13.60
  -2  -2   5  323.47   12.60
  -2  -2   5  348.97   13.40
   2  -2  -5  310.97   13.10
   2  -2  -5  339.17   13.50
   2  -2  -5  340.37   10.60
   2  -2  -5  333.17   13.50
  -2  -2   5  322.97   13.00
   2   2  -5  317.17   13.30
  -2   2   5  319.57   11.00
   2   2  -5  334.57   13.70
  -2   2   5  307.67   12.90
   2   2  -5  330.47   13.80
   2   2  -5  311.97   12.50
   2   2  -5  335.77   13.40
  -2   2   5  308.67   13.00
  -2   2   5  297.17   13.00
   1  -2  -5  211.38    9.20
   1  -2  -5  240.28    9.70
  -1  -2   5  228.48    9.80
  -1  -2   5  229.28   10.00
   1  -2  -5  215.78    9.40
   1  -2  -5  207.58    7.40
  -1  -2   5  199.58    9.50
   1  -2  -5  222.28    7.50
  -1  -2   5  231.48    8.40
  -1   2   5  200.38    7.40
  -1   2   5  213.48    9.50
   1   2  -5  194.28    9.40
   1   2  -5  216.48    9.50
   1   2  -5  200.18    9.60
  -1   2   5  199.58    8.70
   1   2  -5  204.78    8.20
   1   2  -5  217.58    9.90
  -1   2   5  216.08    9.00
   1   2  -5  194.98    9.00
   0  -2  -5   47.10    2.90
   0  -2  -5   44.10    3.10
   0  -2  -5   44.40    3.30
   0  -2   5   42.20    3.70
   0  -2   5   45.60    4.20
   0  -2   5   47.20    3.50
   0  -2   5   44.30    4.30
   0  -2  -5   44.60    4.10
   0   2   5   48.60    3.80
   0   2   5   51.89    3.20
   0   2  -5   53.29    3.80
   0   2  -5   41.30    4.20
   0   2  -5   50.89    3.80
   0   2   5   44.40    3.00
   0   2  -5   48.60    4.00
   0   2  -5   45.40    4.60
   1  -2   5  279.27   11.20
  -1  -2  -5  277.27    9.40
  -1  -2  -5  278.47   11.00
   1  -2   5  271.57   11.90
   1  -2   5  277.07   11.10
   1  -2   5  294.27   11.20
  -1  -2  -5  290.97    9.50
  -1  -2  -5  277.17   10.30
  -1   2  -5  273.07   12.00
   1   2   5  285.57    8.50
  -1   2  -5  299.77   11.40
  -1   2  -5  288.07   11.50
   1   2   5  281.97    8.50
  -1   2  -5  283.97   10.40
  -1   2  -5  291.07   11.30
  -2  -2  -5  643.64   18.90
   2  -2   5  681.33   21.90
  -2  -2  -5  674.43   19.00
   2  -2   5  654.93   21.70
  -2  -2  -5  654.43   21.80
  -2  -2  -5  668.33   22.40
   2  -2   5  663.23   22.60
  -2   2  -5  680.43   22.00
  -2   2  -5  644.64   20.30
  -2   2  -5  652.83   22.60
  -2   2  -5  648.54   23.20
  -2   2  -5  638.04   22.00
   3  -2   5  578.24   19.40
  -3  -2  -5  558.24   20.10
  -3  -2  -5  542.45   16.40
  -3   2  -5  579.84   19.80
  -3   2  -5  591.14   21.50
  -3   2  -5  556.24   20.70
   4  -2   5  294.17   11.80
  -4  -2  -5  299.47    9.70
  -4  -2  -5  292.07   12.50
  -4  -2  -5  281.67    9.60
  -4   2  -5  284.17   12.10
  -4   2  -5  307.47   12.30
  -4   2  -5  284.77   13.40
  -4   2  -5  287.97   13.70
  -5  -2  -5  233.08   11.00
  -5  -2  -5  242.98    9.00
  -5  -2  -5  234.58    9.00
  -5   2  -5  236.98   12.90
  -5   2  -5  225.88   11.10
  -6  -2  -5   58.19    5.50
  -6  -2  -5   47.40    6.30
  -6  -2  -5   56.29    4.00
  -6   2  -5   45.40    6.20
  -6   2  -5   46.30    5.10
  -7  -2  -5   52.19    5.40
  -7  -2  -5   49.70    4.20
  -7  -2  -5   45.30    6.40
  -7   2  -5   42.00    5.10
  -7   2  -5   46.10    7.10
   8  -3  -5   70.49    9.10
  -8  -3   5   59.59    6.90
   8   3  -5   62.69    8.50
  -8   3   5   61.09    8.20
   7  -3  -5   29.30    6.10
  -7  -3   5   22.10    5.60
   7  -3  -5   23.60    5.50
  -7  -3   5   32.60    5.50
  -7   3   5   40.70    6.70
   7   3  -5   30.10    5.80
  -7   3   5   25.80    4.00
   7   3  -5   23.60    3.70
  -6  -3   5   41.20    6.00
   6  -3  -5   50.29    6.70
  -6  -3   5   48.20    6.20
   6  -3  -5   48.00    6.20
  -6   3   5   56.29    7.10
   6   3  -5   49.50    5.00
  -6   3   5   44.20    4.80
   6   3  -5   54.29    6.80
   5  -3  -5  569.94   22.80
  -5  -3   5  565.14   22.50
  -5  -3   5  582.04   23.80
   5  -3  -5  613.14   20.80
   5  -3  -5  551.44   23.40
  -5   3   5  563.44   23.50
   5   3  -5  590.54   23.70
  -5   3   5  648.74   22.00
  -5   3   5  550.24   20.10
   5   3  -5  600.34   20.80
   4  -3  -5  316.37   14.70
   4  -3  -5  315.57   11.90
  -4  -3   5  300.17   14.40
  -4  -3   5  294.67   12.10
  -4  -3   5  294.27   13.70
   4  -3  -5  283.97   13.70
   4   3  -5  299.37   14.10
  -4   3   5  302.87   11.70
  -4   3   5  318.77   11.70
  -4   3   5  295.97   14.60
   4   3  -5  297.17   12.20
   4   3  -5  304.57   14.80
  -3  -3   5  169.68   10.00
   3  -3  -5  175.18   10.10
  -3  -3   5  199.18    8.70
  -3  -3   5  172.88    9.60
   3  -3  -5  173.48    7.50
   3  -3  -5  181.48   10.20
   3  -3  -5  167.38    9.70
  -3   3   5  168.68    7.30
   3   3  -5  184.08    8.40
   3   3  -5  154.28    9.30
   3   3  -5  164.08   10.00
  -3   3   5  170.38    9.80
  -3   3   5  174.38    6.90
  -2  -3   5  957.30   29.20
   2  -3  -5  916.11   30.70
   2  -3  -5  881.41   30.00
  -2  -3   5  909.71   30.20
  -2  -3   5  925.81   31.20
   2  -3  -5  931.01   30.60
   2  -3  -5  968.40   28.20
  -2   3   5  900.51   31.70
   2   3  -5  878.41   30.40
  -2   3   5  863.01   30.10
   2   3  -5  962.00   31.30
   2   3  -5  919.41   29.20
   2   3  -5  893.51   31.10
  -2   3   5  919.51   26.70
   1  -3  -5   19.30    2.30
   1  -3  -5   13.90    2.50
  -1  -3   5   13.60    2.70
  -1  -3   5   16.10    2.60
   1  -3  -5   11.80    2.70
  -1  -3   5   16.20    2.90
   1  -3  -5   20.70    2.90
   1   3  -5   10.60    2.50
  -1   3   5    9.90    2.10
   1   3  -5   15.70    2.90
   1   3  -5    9.90    2.60
   1   3  -5   15.60    2.40
  -1   3   5   14.50    2.90
   1   3  -5    7.40    2.30
   1   3  -5    8.80    2.50
  -1   3   5   11.50    2.30
   0  -3  -5   36.50    3.40
   0  -3  -5   33.10    3.30
   0  -3   5   32.70    3.60
   0  -3   5   30.60    4.00
   0  -3  -5   36.00    3.10
   0  -3  -5   26.50    3.00
   0  -3   5   29.40    3.20
   0  -3  -5   31.50    1.90
   0   3  -5   32.80    3.60
   0   3  -5   25.40    3.10
   0   3  -5   25.90    3.90
   0   3   5   29.50    2.70
   0   3   5   28.80    3.00
   0   3  -5   26.30    3.80
   0   3  -5   27.60    3.70
   0   3   5   27.10    3.30
  -1  -3  -5  926.81   28.50
  -1  -3  -5  929.41   29.30
  -1  -3  -5  931.81   28.70
  -1  -3  -5  888.71   28.10
   1  -3   5  905.91   30.50
   1  -3   5  982.30   30.60
  -1   3  -5  975.70   30.60
  -1   3  -5  956.90   31.10
   1   3   5  883.71   27.80
  -1   3  -5  982.70   29.10
  -1   3  -5  974.20   31.10
  -1   3  -5  913.41   30.80
   1   3   5  960.90   28.00
  -2  -3  -5  348.07   11.90
  -2  -3  -5  353.26   14.50
   2  -3   5  346.87   14.30
  -2  -3  -5  372.26   12.10
  -2  -3  -5  341.77   13.00
  -2   3  -5  377.96   12.20
   2   3   5  353.66   10.40
  -2   3  -5  395.86   14.90
  -2   3  -5  358.06   14.60
  -2   3  -5  352.46   14.50
   2   3   5  369.76   10.40
  -2   3  -5  357.06   15.10
  -3  -3  -5    1.80    2.20
   3  -3   5    6.50    2.00
  -3  -3  -5    3.10    0.90
  -3  -3  -5    1.80    0.80
  -3  -3  -5    0.80    1.40
  -3   3  -5    3.30    0.70
  -3   3  -5    4.50    3.00
  -3   3  -5    1.30    1.80
  -3   3  -5    4.30    2.40
  -3   3  -5    1.80    1.60
  -4  -3  -5   74.19    3.80
  -4  -3  -5   68.99    4.90
  -4  -3  -5   71.79    6.30
  -4  -3  -5   71.19    3.90
   4  -3   5   71.29    5.50
  -4   3  -5   73.69    6.10
  -4   3  -5   67.79    6.10
  -4   3  -5   72.49    7.00
  -4   3  -5   77.99    6.70
  -5  -3  -5  411.36   14.30
  -5  -3  -5  411.86   17.00
  -5   3  -5  416.66   17.30
  -5   3  -5  437.46   18.70
  -5   3  -5  418.96   18.40
  -6  -3  -5   65.79    6.30
  -6  -3  -5   62.79    4.30
  -6   3  -5   69.59    7.60
  -6   3  -5   66.79    6.90
  -6   3  -5   61.09    7.30
  -7  -3  -5   26.50    5.60
  -7  -3  -5   28.70    3.50
  -7  -3  -5   39.10    5.20
  -7   3  -5   34.20    5.40
  -7   3  -5   44.70    6.60
  -7   3  -5   40.70    6.20
   8  -4  -5   66.89    9.10
  -7  -4   5  318.27   16.20
  -7  -4   5  308.57   16.90
   7  -4  -5  319.57   17.30
  -7   4   5  306.07   17.30
   7   4  -5  325.77   17.00
  -6  -4   5   80.59    8.20
  -6  -4   5   95.99    8.50
   6  -4  -5   95.79    9.30
   6  -4  -5   95.69    9.80
  -6   4   5  103.89    8.90
   6   4  -5   82.69    8.60
  -6   4   5   96.19    6.80
  -5  -4   5   14.40    4.00
   5  -4  -5   14.00    3.70
  -5  -4   5   14.60    4.40
   5  -4  -5   17.50    4.90
   5   4  -5   22.50    3.30
  -5   4   5   17.00    4.10
   5   4  -5   11.70    3.60
  -5   4   5   19.70    3.10
   4  -4  -5  150.78    8.00
   4  -4  -5  155.98   10.00
   4  -4  -5  127.49    9.50
  -4  -4   5  140.39    9.60
  -4  -4   5  126.79    9.10
   4   4  -5  154.68   10.00
  -4   4   5  150.78    7.60
   4   4  -5  159.48    7.70
   4   4  -5  157.38    9.60
  -4   4   5  163.78    6.90
  -4   4   5  158.88    9.90
  -3  -4   5   57.89    6.60
   3  -4  -5   65.09    6.00
  -3  -4   5   60.99    6.20
   3  -4  -5   62.59    6.10
   3  -4  -5   70.69    4.60
   3   4  -5   57.09    6.50
   3   4  -5   55.69    6.00
   3   4  -5   67.89    4.80
  -3   4   5   67.19    4.70
  -3   4   5   76.19    6.30
  -2  -4   5  231.38   12.20
   2  -4  -5  228.58   11.00
  -2  -4   5  238.48   11.50
   2  -4  -5  222.78   11.50
   2  -4  -5  250.17   10.00
   2  -4  -5  249.38   12.00
  -2   4   5  249.78   11.50
   2   4  -5  236.68   11.40
   2   4  -5  226.68   12.00
   2   4  -5  235.68   10.00
   1  -4  -5  414.46   15.90
   1  -4  -5  420.56   16.20
  -1  -4   5  423.16   17.20
  -1  -4   5  417.16   15.90
   1  -4  -5  424.26   14.90
   1  -4  -5  389.96   15.40
  -1   4   5  419.96   15.40
  -1   4   5  396.36   15.60
   1   4  -5  400.66   15.10
   1   4  -5  384.26   16.70
   1   4  -5  378.36   16.20
   0  -4  -5  520.95   19.00
   0  -4  -5  562.04   19.50
   0  -4  -5  573.34   19.20
   0  -4   5  531.95   20.60
   0  -4   5  519.55   18.90
   0  -4  -5  550.34   18.90
   0   4  -5  549.15   19.10
   0   4  -5  556.94   20.90
   0   4   5  545.05   18.70
   0   4   5  548.65   18.90
   0   4  -5  523.55   19.70
   0   4  -5  564.84   21.20
   0   4  -5  541.65   20.30
  -1  -4  -5  307.17   11.90
  -1  -4  -5  303.57   13.20
  -1  -4  -5  277.77   11.50
   1  -4   5  312.57   13.80
   1  -4   5  303.17   11.50
  -1  -4  -5  288.67   11.40
  -1   4  -5  315.77   11.50
   1   4   5  304.67   11.20
   1   4   5  314.67   11.40
  -1   4  -5  306.87   13.10
  -1   4  -5  288.37   13.10
  -1   4  -5  307.57   13.60
  -1   4  -5  285.97   13.40
  -2  -4  -5  294.97   13.70
  -2  -4  -5  297.27   11.30
  -2  -4  -5  308.27   11.60
  -2  -4  -5  299.17   11.30
   2  -4   5  300.07   13.60
  -2   4  -5  304.27   14.20
  -2   4  -5  289.87   13.40
  -2   4  -5  312.37   13.90
   2   4   5  302.17   10.60
   2   4   5  310.67   10.60
  -2   4  -5  322.87   14.10
  -2   4  -5  317.57   10.90
  -3  -4  -5  401.66   14.50
  -3  -4  -5  419.36   14.60
  -3  -4  -5  399.46   17.10
  -3  -4  -5  457.95   14.90
   3  -4   5  410.46   17.10
  -3   4  -5  406.06   17.70
  -3   4  -5  425.66   17.80
   3   4   5  429.86   13.10
  -3   4  -5  409.06   17.40
  -3   4  -5  422.36   12.90
   3   4   5  431.56   13.20
  -3   4  -5  447.96   17.70
  -4  -4  -5  333.17   12.20
  -4  -4  -5  323.67   12.10
   4  -4   5  328.37   14.60
  -4  -4  -5  329.27   15.00
  -4   4  -5  356.66   15.60
  -4   4  -5  330.07   15.30
  -4   4  -5  328.97   15.70
  -4   4  -5  320.17   15.30
  -5  -4  -5   51.09    5.90
  -5  -4  -5   49.99    3.80
  -5   4  -5   51.19    6.30
  -5   4  -5   41.20    5.70
  -5   4  -5   46.10    6.10
  -6  -4  -5  238.38   10.30
  -6  -4  -5  258.17   13.00
  -6   4  -5  263.77   14.50
  -6   4  -5  245.38   13.30
  -6   4  -5  243.98   14.40
  -7  -4  -5   58.59    6.90
  -7   4  -5   51.59    6.60
  -7   4  -5   67.49    9.60
   7  -5  -5   33.30    6.30
  -7  -5   5   29.90    6.60
  -7   5   5   35.00    5.20
  -7   5   5   30.00    6.10
   7   5  -5   39.40    7.20
  -6  -5   5   99.79    8.40
  -6  -5   5   94.09    8.80
   6  -5  -5  106.99    9.40
  -6   5   5  107.29   10.70
   6   5  -5   94.99    9.80
  -6   5   5   92.59    7.20
   5  -5  -5  200.08   12.40
  -5  -5   5  197.08   11.60
   5  -5  -5  205.38   13.10
  -5  -5   5  214.68   13.20
  -5   5   5  178.68    9.60
   5   5  -5  195.08   12.10
  -5   5   5  183.28   12.00
  -4  -5   5   85.79    7.80
   4  -5  -5   79.79    7.60
  -4  -5   5   74.09    7.40
   4  -5  -5   91.39    8.40
   4   5  -5   92.09    7.50
  -4   5   5   84.59    6.20
   4   5  -5   84.09    5.10
   4   5  -5   86.99    7.80
  -4   5   5   82.89    8.40
   3  -5  -5  268.27   14.00
  -3  -5   5  269.57   13.50
  -3  -5   5  281.57   14.50
   3  -5  -5  261.47   12.80
  -3   5   5  272.57   11.60
   3   5  -5  269.17   13.10
   3   5  -5  252.17   13.80
   3   5  -5  267.97   10.60
  -3   5   5  284.77   14.10
   2  -5  -5  550.24   21.30
  -2  -5   5  525.55   21.40
   2  -5  -5  552.34   20.10
  -2  -5   5  521.65   20.40
   2  -5  -5  493.95   20.60
   2   5  -5  514.05   20.30
  -2   5   5  514.45   20.60
   2   5  -5  530.45   18.30
   2   5  -5  532.55   21.80
   1  -5  -5  152.88    9.40
  -1  -5   5  180.18    9.30
  -1  -5   5  172.58   10.30
   1  -5  -5  165.18    9.70
   1  -5  -5  184.98    9.80
   1  -5  -5  166.18    8.80
   1   5  -5  167.58    9.50
   1   5  -5  169.98    8.50
   1   5  -5  168.58   10.30
  -1   5   5  190.18    9.50
   0  -5  -5  259.67   12.90
   0  -5  -5  297.57   12.80
   0  -5  -5  260.27   12.10
   0  -5   5  285.97   13.80
   0  -5   5  267.57   11.70
   0  -5  -5  276.77   11.30
   0   5  -5  260.17   12.40
   0   5   5  276.97   11.00
   0   5  -5  256.37   13.40
   0   5   5  268.67   11.70
   0   5  -5  270.37   12.90
  -1  -5  -5  300.87   13.00
  -1  -5  -5  324.97   12.10
   1  -5   5  318.97   12.50
  -1  -5  -5  296.57   14.20
  -1  -5  -5  354.86   13.70
   1  -5   5  321.97   14.90
  -1  -5  -5  331.17   10.30
   1   5   5  303.97   12.60
  -1   5  -5  307.47   14.90
  -1   5  -5  334.17   12.70
  -1   5  -5  323.57   14.60
  -1   5  -5  327.67   14.30
   2  -5   5  314.37   11.30
   2  -5   5  307.87   14.50
  -2  -5  -5  308.47   11.20
  -2  -5  -5  309.37   12.50
  -2  -5  -5  291.47   14.00
  -2  -5  -5  305.17   11.00
  -2  -5  -5  275.47   12.10
  -2   5  -5  277.97   13.80
   2   5   5  302.07   11.70
  -2   5  -5  309.37   11.30
  -2   5  -5  308.97   14.40
  -2   5  -5  300.67   15.00
  -3  -5  -5   25.90    4.40
  -3  -5  -5   30.60    4.30
   3  -5   5   29.00    4.60
  -3  -5  -5   26.40    2.40
  -3  -5  -5   24.90    3.30
  -3   5  -5   33.60    5.50
  -3   5  -5   29.00    5.00
  -3   5  -5   21.40    4.10
  -4  -5  -5  239.38   10.20
  -4  -5  -5  235.28   12.70
   4  -5   5  245.78   12.80
  -4   5  -5  233.18   12.50
  -4   5  -5  241.58   13.40
  -4   5  -5  231.38   13.00
  -5  -5  -5   26.20    3.40
  -5  -5  -5   37.00    5.70
  -5   5  -5   29.80    5.40
  -5   5  -5   40.20    6.50
  -5   5  -5   35.00    5.40
  -6  -5  -5  125.09    7.20
  -6  -5  -5  126.29   10.00
  -6   5  -5  134.09   10.90
  -6   5  -5  140.99   10.90
  -6  -6   5   18.00    4.80
  -6  -6   5   19.70    4.50
   6  -6  -5   28.70    6.40
  -6   6   5   32.20    4.70
   6   6  -5   23.00    4.90
  -6   6   5   24.30    5.40
   5  -6  -5  134.99   10.60
  -5  -6   5  132.39    9.70
  -5  -6   5  144.89   10.70
   5   6  -5  126.99   10.80
  -5   6   5  127.29   10.30
  -5   6   5  149.69    9.00
   4  -6  -5  282.67   15.50
  -4  -6   5  304.67   16.20
   4  -6  -5  284.77   14.50
  -4  -6   5  285.67   15.00
  -4   6   5  277.37   15.40
  -4   6   5  291.27   13.30
   4   6  -5  277.67   14.80
   4   6  -5  310.17   16.20
  -3  -6   5   71.89    7.80
  -3  -6   5   73.09    7.40
   3  -6  -5   64.29    7.30
   3  -6  -5   82.59    7.30
   3  -6  -5   71.69    6.00
  -3   6   5   65.89    7.60
   3   6  -5   67.99    7.10
   3   6  -5   72.99    8.10
  -2  -6   5   83.19    7.30
   2  -6  -5   89.79    6.70
  -2  -6   5   97.29    8.80
   2  -6  -5   91.19    8.00
   2  -6  -5   93.99    7.40
  -2   6   5   92.59    7.70
   2   6  -5   96.79    5.70
   2   6  -5   92.19    8.10
   2   6  -5   86.99    7.10
   1  -6  -5  434.86   18.50
   1  -6  -5  459.65   17.40
   1  -6  -5  466.75   19.20
  -1  -6   5  434.46   19.90
   1  -6  -5  440.86   18.80
  -1  -6   5  470.25   18.20
   1   6  -5  463.45   20.00
   1   6  -5  441.36   16.60
   1   6  -5  420.66   18.40
   0  -6  -5   44.00    5.70
   0  -6   5   44.40    4.60
   0  -6  -5   41.20    4.30
   0  -6   5   43.60    5.80
   0  -6  -5   37.90    5.10
   0   6   5   41.90    4.90
   0   6  -5   44.40    5.70
   0   6  -5   35.10    5.60
   0   6  -5   41.00    5.10
   1  -6   5    2.10    1.80
  -1  -6  -5    3.20    2.00
   1  -6   5    7.80    3.80
  -1  -6  -5    1.20    3.10
  -1  -6  -5    6.00    1.80
  -1   6  -5    3.80    2.50
  -1   6  -5    4.40    3.10
  -1   6  -5    6.90    2.90
  -2  -6  -5  791.32   27.30
   2  -6   5  774.22   25.30
  -2  -6  -5  800.42   29.30
   2  -6   5  835.32   30.10
  -2   6  -5  772.52   30.00
  -2   6  -5  783.62   28.60
  -2   6  -5  786.32   29.20
  -3  -6  -5  238.98   13.00
  -3  -6  -5  221.98   10.80
   3  -6   5  226.58   13.30
  -3   6  -5  241.88   13.60
  -3   6  -5  221.08   12.10
  -3   6  -5  223.18   12.60
   4  -6   5   78.99    7.60
  -4  -6  -5   90.49    8.80
  -4  -6  -5   94.19    6.20
  -4   6  -5   98.99    8.60
  -4   6  -5   97.19    8.30
  -4   6  -5  109.59    9.90
  -5  -6  -5  317.27   13.20
  -5  -6  -5  303.37   16.10
  -5   6  -5  299.17   16.20
  -5   6  -5  306.07   15.50
  -5   6  -5  287.27   16.30
   5  -7  -5   34.40    7.60
  -5   7   5   43.90    7.30
   5   7  -5   22.60    6.00
  -5   7   5   42.20    5.70
  -4  -7   5   27.40    6.10
   4  -7  -5   31.00    5.80
  -4  -7   5   29.60    5.30
   4  -7  -5   20.20    4.10
   4   7  -5   29.70    5.40
  -4   7   5   26.90    4.30
  -4   7   5   33.20    5.70
   4   7  -5   24.00    5.30
  -3  -7   5  369.26   18.50
   3  -7  -5  362.16   17.80
   3  -7  -5  320.27   15.20
  -3  -7   5  362.06   17.10
   3   7  -5  343.17   17.70
  -3   7   5  336.87   16.90
   3   7  -5  335.07   16.40
  -2  -7   5   56.59    7.10
   2  -7  -5   41.30    5.70
   2  -7  -5   56.99    6.80
  -2  -7   5   53.69    6.10
   2   7  -5   58.59    7.80
   2   7  -5   60.39    6.90
   1  -7  -5  264.57   13.80
  -1  -7   5  288.97   15.30
   1  -7  -5  277.97   14.40
   1  -7  -5  273.87   12.30
  -1  -7   5  258.57   13.20
   1   7  -5  247.28   14.60
   1   7  -5  271.17   13.70
   1   7  -5  263.77   11.60
   0  -7   5  279.07   15.30
   0  -7  -5  243.98   11.40
   0  -7  -5  263.27   13.60
   0  -7  -5  285.97   14.30
   0  -7   5  257.67   12.30
   0   7  -5  243.98   14.40
   0   7  -5  239.08   13.00
  -1  -7  -5   25.20    4.20
   1  -7   5   25.60    5.00
  -1  -7  -5   19.30    4.70
   1  -7   5   23.50    3.60
  -1   7  -5   31.90    5.10
  -1   7  -5   31.30    5.00
  -1   7  -5   25.80    5.20
   2  -7   5   54.09    7.40
  -2  -7  -5   59.59    7.20
  -2  -7  -5   55.19    6.10
  -2   7  -5   47.20    6.70
  -2   7  -5   60.79    6.80
  -2   7  -5   51.39    6.90
   3  -7   5   87.29    9.30
  -3  -7  -5   85.39    8.90
  -3  -7  -5   87.59    6.90
  -3   7  -5   83.49    8.50
  -3   7  -5   94.29    9.50
  -3   7  -5   83.69    8.20
  -4  -7  -5   72.59    8.20
  -4  -7  -5   92.39    6.90
  -4   7  -5   93.99    8.90
  -4   7  -5   74.29    8.50
  -4   7  -5   82.89    9.60
   3  -8  -5    6.90    3.40
  -3  -8   5   -0.90    2.80
  -3  -8   5    0.20    3.20
   3   8  -5    8.80    4.00
   3   8  -5    2.60    2.70
  -2  -8   5   49.40    6.60
   2  -8  -5   54.59    6.70
  -2  -8   5   55.99    7.70
   2  -8  -5   59.39    7.50
   2   8  -5   69.39    7.50
   2   8  -5   66.49    8.50
   1  -8  -5  301.47   16.30
  -1  -8   5  332.27   18.00
   1  -8  -5  317.47   16.00
  -1  -8   5  315.17   15.30
   1   8  -5  324.27   15.60
   1   8  -5  300.97   17.50
   0  -8  -5    5.30    3.10
   0  -8   5    7.90    3.10
   0  -8  -5    1.70    2.60
   0  -8   5    2.50    2.90
   0   8  -5    5.20    4.70
   0   8  -5    5.20    2.80
  -1  -8  -5   46.10    6.80
  -1  -8  -5   45.40    6.00
   1  -8   5   41.60    7.00
  -1   8  -5   36.90    6.00
  -1   8  -5   24.70    5.60
  -1   8  -5   35.90    5.30
  -2  -8  -5   96.09   11.20
  -2  -8  -5  110.79    8.70
   2  -8   5   99.79   10.40
  -2   8  -5   93.59   10.40
  -2   8  -5  105.89    8.80
  -2   8  -5   95.79    9.40
  -3  -8  -5   50.79    6.30
   3  -8   5   60.79    7.90
  -3   8  -5   57.09    7.00
  -8   0   6   39.30    6.60
   8   0  -6   38.40    6.50
   8   0  -6   37.80    6.10
   7   0  -6   37.70    5.90
  -7   0   6   39.70    6.70
  -7   0   6   45.80    4.70
   7   0  -6   29.80    5.40
  -6   0   6  609.14   20.90
  -6   0   6  597.74   24.70
   6   0  -6  609.84   23.70
   6   0  -6  599.84   24.60
   5   0  -6    9.00    2.90
  -5   0   6   17.40    2.50
   5   0  -6   14.10    4.00
  -5   0   6   17.00    3.90
   4   0  -6  867.71   30.70
   4   0  -6  867.41   29.70
  -4   0   6  862.81   26.20
  -4   0   6  867.61   30.80
   3   0  -6   86.79    6.10
  -3   0   6   77.99    6.20
  -3   0   6   85.39    3.30
   3   0  -6   92.59    6.70
   3   0  -6   88.49    6.50
  -3   0   6   92.29    5.80
   3   0  -6   85.19    6.30
  -2   0   6  116.99    7.20
   2   0  -6  118.79    7.20
  -2   0   6  116.99    7.00
  -2   0   6  110.39    6.50
   2   0  -6  105.49    6.10
  -2   0   6  119.29    6.30
   2   0  -6  105.89    6.60
   2   0  -6  116.69    7.00
   1   0  -6   51.29    4.30
   1   0  -6   48.50    4.40
   1   0  -6   49.80    4.00
  -1   0   6   52.99    4.00
   1   0  -6   53.09    1.90
   1   0  -6   52.79    4.60
  -1   0   6   48.60    4.20
  -1   0   6   49.99    3.80
  -1   0   6   47.20    4.20
   0   0  -6  721.73   23.80
   0   0   6  762.32   24.00
   0   0   6  726.73   22.60
   0   0  -6  740.73   23.00
   0   0  -6  741.53   21.90
   0   0  -6  704.43   22.90
   0   0  -6  686.23   24.20
   0   0   6  716.43   22.80
  -1   0  -6  371.86   13.10
  -1   0  -6  364.76   12.20
  -1   0  -6  372.86   12.20
  -1   0  -6  362.06   13.90
  -1   0  -6  372.06   14.50
   1   0   6  352.96   11.50
   1   0   6  377.46   11.80
  -2   0  -6  100.89    6.40
  -2   0  -6   97.39    4.10
  -2   0  -6   97.79    5.80
  -2   0  -6   90.49    4.00
  -3   0  -6    1.30    0.80
  -3   0  -6   -0.50    2.20
  -3   0  -6    2.50    1.50
  -3   0  -6    2.50    0.80
  -4   0  -6  435.76   15.20
  -4   0  -6  438.46   14.30
  -4   0  -6  417.96   17.50
  -4   0  -6  423.16   14.10
  -5   0  -6  345.77   12.80
  -5   0  -6  349.37   12.60
  -5   0  -6  361.16   16.40
  -6   0  -6  125.99    9.70
  -6   0  -6  118.49    6.40
  -7   0  -6  116.59    6.80
  -7   0  -6  127.49   10.30
   8  -1  -6   83.59    8.50
  -8  -1   6   85.49    9.00
  -8  -1   6   89.29    9.60
   8  -1  -6   84.29    9.60
   8   1  -6   84.49    8.40
  -8   1   6  105.69   10.90
   8   1  -6   88.39    9.60
  -7  -1   6   50.89    5.40
  -7  -1   6   47.90    6.80
   7  -1  -6   54.29    6.70
   7  -1  -6   45.20    7.10
  -7   1   6   59.29    7.50
   7   1  -6   58.59    6.40
   7   1  -6   62.39    7.40
  -7   1   6   51.39    5.00
   6  -1  -6   14.00    3.90
   6  -1  -6    9.40    4.10
  -6  -1   6    9.30    2.50
  -6  -1   6    5.70    3.00
  -6   1   6    4.40    2.90
   6   1  -6    9.80    3.50
  -6   1   6    6.60    2.10
   6   1  -6    5.70    3.30
   5  -1  -6   62.29    6.70
   5  -1  -6   63.79    6.40
  -5  -1   6   64.49    7.30
   5   1  -6   69.59    5.90
  -5   1   6   75.69    6.90
   5   1  -6   65.09    7.10
  -5   1   6   63.69    4.10
   4  -1  -6  752.82   27.60
   4  -1  -6  770.22   26.80
  -4  -1   6  794.42   27.90
   4   1  -6  740.13   26.10
  -4   1   6  739.63   22.90
   4   1  -6  744.83   26.30
  -4   1   6  775.12   25.60
   4   1  -6  748.23   27.60
  -4   1   6  740.43   27.50
   3  -1  -6  420.06   15.40
   3  -1  -6  422.06   17.20
   3  -1  -6  412.76   16.70
  -3  -1   6  421.46   13.70
   3  -1  -6  442.66   17.60
  -3  -1   6  421.56   17.20
   3   1  -6  421.46   17.40
  -3   1   6  459.65   15.70
  -3   1   6  432.76   17.40
   3   1  -6  444.36   16.60
   3   1  -6  430.66   16.70
  -3   1   6  414.66   12.70
   3   1  -6  460.75   17.70
  -2  -1   6  178.98    8.90
   2  -1  -6  178.38    7.90
  -2  -1   6  187.38    9.10
  -2  -1   6  174.38    6.50
  -2  -1   6  197.38    9.40
   2  -1  -6  177.58    9.10
  -2  -1   6  177.68    9.20
   2  -1  -6  186.18    9.30
   2  -1  -6  198.48    9.50
  -2   1   6  209.88    9.50
   2   1  -6  176.98    9.10
  -2   1   6  192.78    9.40
  -2   1   6  194.88    8.10
   2   1  -6  196.38    9.60
   2   1  -6  217.08    9.70
   2   1  -6  191.68    9.40
  -2   1   6  221.08   10.90
   2   1  -6  180.78    9.50
  -1  -1   6  182.48    6.80
   1  -1  -6  188.38    8.70
  -1  -1   6  182.28    8.60
   1  -1  -6  179.88    5.60
   1  -1  -6  201.98    9.20
  -1  -1   6  182.78    8.70
   1  -1  -6  194.48    8.00
   1  -1  -6  176.68    5.60
  -1  -1   6  185.58    8.60
   1  -1  -6  193.08    8.60
   1   1  -6  191.08    8.90
  -1   1   6  200.38    8.10
  -1   1   6  197.38    9.20
  -1   1   6  212.28    8.50
   1   1  -6  199.38    9.40
   1   1  -6  197.88    8.90
   1   1  -6  202.98    9.00
   1   1  -6  193.18    6.80
  -1   1   6  190.38    8.30
   1   1  -6  186.38    8.80
   0  -1  -6  800.12   25.50
   0  -1  -6  826.02   25.20
   0  -1   6  811.82   25.90
   0  -1   6  837.52   25.90
   0  -1   6  841.42   26.90
   0  -1   6  802.72   24.80
   0  -1  -6  797.82   25.20
   0  -1  -6  788.82   24.40
   0  -1  -6  794.92   26.60
   0   1  -6  814.42   24.90
   0   1  -6  789.32   26.00
   0   1   6  800.82   24.60
   0   1  -6  810.82   26.90
   0   1  -6  833.42   26.90
   0   1   6  792.62   25.50
   0   1  -6  837.42   26.00
  -1  -1  -6  760.02   22.90
  -1  -1  -6  742.73   24.30
   1  -1   6  798.52   24.00
   1  -1   6  769.62   24.00
   1  -1   6  784.12   25.90
  -1  -1  -6  768.82   24.80
   1  -1   6  791.82   24.70
  -1  -1  -6  761.52   25.50
  -1  -1  -6  777.42   22.80
  -1   1  -6  740.13   24.40
  -1   1  -6  798.52   24.40
  -1   1  -6  751.42   25.70
  -1   1  -6  738.63   24.20
   2  -1   6  776.12   24.50
   2  -1   6  808.22   26.80
  -2  -1  -6  787.32   26.60
  -2  -1  -6  794.72   26.60
  -2   1  -6  830.92   27.70
  -2   1  -6  840.42   25.40
  -2   1  -6  816.12   26.70
  -2   1  -6  811.42   25.20
  -3  -1  -6  506.85   19.20
  -3  -1  -6  508.05   18.10
   3  -1   6  522.45   16.40
  -3   1  -6  492.65   17.00
  -3   1  -6  514.25   19.20
  -3   1  -6  528.85   17.20
  -3   1  -6  500.55   19.60
  -4  -1  -6  391.36   16.60
   4  -1   6  424.86   13.60
  -4  -1  -6  388.36   14.90
  -4  -1  -6  393.36   12.00
   4  -1   6  387.56   13.20
  -4   1  -6  393.66   16.80
  -4   1  -6  403.56   14.30
  -4   1  -6  397.66   17.30
  -4   1  -6  387.66   13.30
  -5  -1  -6  248.78   10.90
  -5  -1  -6  265.97   13.60
  -5  -1  -6  244.78    8.90
  -5   1  -6  256.87   13.20
  -5   1  -6  254.27   10.70
  -6  -1  -6   74.09    5.50
  -6  -1  -6   71.49    4.40
  -6  -1  -6   80.79    8.30
  -6   1  -6   67.59    7.50
  -6   1  -6   63.39    5.20
  -7  -1  -6    2.30    2.60
  -7  -1  -6    4.20    1.60
  -7   1  -6    3.00    3.50
  -7   1  -6    2.50    2.00
  -8  -2   6  248.68   15.00
  -8  -2   6  238.48   12.80
   8  -2  -6  272.37   14.80
   8  -2  -6  231.78   15.10
  -8   2   6  219.68   14.50
   8   2  -6  241.28   15.10
   8   2  -6  238.98   13.00
  -7  -2   6  600.74   22.50
  -7  -2   6  581.34   25.60
   7  -2  -6  596.24   25.60
   7  -2  -6  619.64   25.00
   7   2  -6  602.84   25.40
  -7   2   6  627.34   26.20
   7   2  -6  602.74   23.20
  -7   2   6  590.34   21.50
  -6  -2   6  352.96   17.50
   6  -2  -6  342.97   17.20
   6  -2  -6  338.27   16.60
  -6   2   6  369.96   13.90
   6   2  -6  387.46   17.80
   6   2  -6  344.37   15.20
  -6   2   6  357.66   17.60
  -5  -2   6  390.26   16.80
   5  -2  -6  388.76   17.70
  -5  -2   6  384.16   18.00
   5  -2  -6  373.66   16.80
  -5   2   6  364.26   17.70
   5   2  -6  382.36   15.60
   5   2  -6  408.26   18.00
  -5   2   6  382.86   13.70
  -4  -2   6  420.56   17.60
   4  -2  -6  418.66   17.50
  -4  -2   6  387.86   16.50
   4  -2  -6  400.36   16.80
   4   2  -6  388.56   17.50
  -4   2   6  395.96   14.70
   4   2  -6  389.46   15.50
   4   2  -6  386.26   16.70
  -4   2   6  393.36   13.20
  -4   2   6  378.16   17.30
   3  -2  -6  535.65   20.20
  -3  -2   6  507.05   20.40
  -3  -2   6  540.25   20.60
   3  -2  -6  568.94   21.20
   3  -2  -6  539.75   16.50
  -3  -2   6  554.54   17.70
   3  -2  -6  493.55   20.30
   3   2  -6  522.55   20.70
  -3   2   6  578.74   18.00
  -3   2   6  528.55   16.30
   3   2  -6  513.25   19.20
  -3   2   6  542.15   20.50
   3   2  -6  518.35   20.00
   2  -2  -6  350.56   14.30
  -2  -2   6  352.56   12.00
   2  -2  -6  343.37   11.90
   2  -2  -6  340.47   10.60
  -2  -2   6  353.86   14.70
   2  -2  -6  317.37   14.00
   2  -2  -6  339.67   14.10
   2   2  -6  333.47   13.90
   2   2  -6  364.56   14.80
  -2   2   6  349.96   11.90
  -2   2   6  341.17   13.90
   2   2  -6  319.67   13.30
   2   2  -6  315.77   14.20
   1  -2  -6  374.06   12.70
  -1  -2   6  390.76   13.20
   1  -2  -6  383.96   15.00
   1  -2  -6  366.86   14.20
   1  -2  -6  413.06   14.80
   1  -2  -6  382.06   12.10
  -1  -2   6  377.76   15.00
  -1   2   6  369.26   13.90
  -1   2   6  381.46   12.80
   1   2  -6  353.96   14.50
   1   2  -6  400.46   15.30
  -1   2   6  409.26   14.30
   1   2  -6  357.06   15.00
  -1   2   6  378.66   14.70
   1   2  -6  393.36   14.80
   1   2  -6  375.66   13.20
   1   2  -6  383.76   15.30
   0  -2   6  228.58   10.40
   0  -2   6  255.67   10.70
   0  -2   6  256.07    9.70
   0  -2  -6  237.68    9.10
   0  -2  -6  242.38    9.40
   0  -2  -6  246.38   10.60
   0  -2  -6  248.68    9.60
   0   2   6  240.78    9.00
   0   2  -6  248.28   11.00
   0   2  -6  251.37   10.70
   0   2  -6  244.38   11.20
   0   2   6  258.17   10.70
   0   2  -6  258.97   10.40
   0   2  -6  238.88    9.70
   0   2  -6  232.18   10.50
  -1  -2  -6  373.66   12.20
  -1  -2  -6  363.86   13.50
   1  -2   6  383.66   14.20
  -1  -2  -6  396.16   14.60
   1  -2   6  398.36   14.30
  -1  -2  -6  403.96   12.50
   1  -2   6  392.36   14.30
  -1   2  -6  345.77   14.20
  -1   2  -6  372.86   14.10
  -1   2  -6  388.86   13.80
  -1   2  -6  368.26   15.10
  -1   2  -6  398.66   14.60
  -2  -2  -6  325.97   13.10
   2  -2   6  354.46   14.30
  -2  -2  -6  347.37   13.50
   2  -2   6  334.77   12.90
   2  -2   6  337.77   15.00
  -2   2  -6  357.56   12.30
  -2   2  -6  328.47   14.30
  -2   2  -6  345.67   13.30
  -2   2  -6  363.36   13.40
  -2   2  -6  348.17   14.00
  -3  -2  -6   90.89    6.40
   3  -2   6   84.29    5.10
  -3  -2  -6   89.99    6.00
  -3   2  -6   85.99    5.80
  -3   2  -6   84.59    6.60
  -3   2  -6   89.59    4.30
  -3   2  -6   88.69    5.40
  -3   2  -6   95.99    7.50
   4  -2   6   27.20    3.20
  -4  -2  -6   26.20    3.80
  -4   2  -6   35.40    4.10
  -4   2  -6   31.90    4.70
  -4   2  -6   36.70    4.90
  -4   2  -6   29.90    2.00
  -4   2  -6   31.60    2.00
  -4   2  -6   33.90    4.00
  -5  -2  -6  477.35   20.00
  -5  -2  -6  465.95   18.00
  -5  -2  -6  461.95   14.30
  -5   2  -6  458.95   17.80
  -5   2  -6  476.75   20.00
  -5   2  -6  460.55   20.00
  -6  -2  -6  208.98   10.50
  -6  -2  -6  236.58   13.50
  -6  -2  -6  202.08    7.90
  -6   2  -6  194.08   10.40
  -6   2  -6  219.98   12.90
  -6   2  -6  217.98   12.70
  -7  -2  -6  115.39    9.50
  -7   2  -6  115.39   10.80
  -7   2  -6  110.09    7.90
  -7   2  -6  108.79    9.20
   8  -3  -6  110.79   11.20
   8   3  -6  106.49    9.70
  -8   3   6   98.69   10.50
  -7  -3   6  235.48   13.10
  -7  -3   6  194.88   13.20
   7  -3  -6  238.58   14.20
   7  -3  -6  209.38   14.10
   7   3  -6  208.38   13.20
   7   3  -6  203.58   10.80
  -7   3   6  212.98   14.10
  -6  -3   6  409.56   18.40
   6  -3  -6  414.16   18.80
   6  -3  -6  423.06   19.70
  -6  -3   6  386.86   19.10
  -6   3   6  393.36   19.30
   6   3  -6  413.76   16.50
   6   3  -6  427.46   19.60
  -6   3   6  410.66   15.60
   5  -3  -6   19.70    4.50
   5  -3  -6   32.30    5.00
  -5  -3   6   22.20    4.00
  -5  -3   6   21.30    4.30
  -5   3   6   28.50    4.90
   5   3  -6   29.20    4.20
  -5   3   6   27.90    3.30
   5   3  -6   32.40    5.70
  -4  -3   6 1077.59   39.30
  -4  -3   6 1162.78   38.70
   4  -3  -6 1143.79   38.90
   4  -3  -6 1179.08   35.50
   4  -3  -6 1146.39   39.70
  -4  -3   6 1206.48   36.80
   4   3  -6 1201.18   37.20
   4   3  -6 1104.59   39.40
  -4   3   6 1141.09   39.40
  -4   3   6 1226.38   35.80
  -4   3   6 1184.58   35.30
   4   3  -6 1141.99   38.70
   3  -3  -6  975.50   33.50
  -3  -3   6  972.20   34.30
   3  -3  -6  997.80   30.20
  -3  -3   6 1028.40   31.60
   3  -3  -6  922.81   33.70
   3  -3  -6 1064.99   34.60
  -3  -3   6  969.10   33.20
   3   3  -6  995.30   34.30
  -3   3   6 1013.80   29.90
   3   3  -6  993.70   32.00
   3   3  -6 1003.40   33.60
  -3   3   6  968.10   30.00
  -3   3   6 1002.70   33.80
   2  -3  -6 1007.90   32.40
  -2  -3   6  981.40   30.20
   2  -3  -6  956.40   32.00
   2  -3  -6  978.20   32.10
   2  -3  -6  961.00   28.90
  -2  -3   6  937.11   32.50
  -2  -3   6  924.51   31.60
  -2   3   6  950.90   31.70
  -2   3   6  948.01   28.10
   2   3  -6  943.61   30.90
   2   3  -6 1030.10   35.20
   2   3  -6  891.91   32.40
   2   3  -6  938.21   32.10
   1  -3  -6  998.90   28.40
   1  -3  -6 1028.00   32.00
   1  -3  -6 1015.90   29.80
  -1  -3   6  965.40   31.70
  -1  -3   6  937.41   32.60
   1  -3  -6  941.41   31.40
   1  -3  -6  953.30   31.80
  -1  -3   6 1020.40   30.90
   1   3  -6  980.70   32.90
   1   3  -6  977.60   30.90
   1   3  -6  964.80   32.80
  -1   3   6  972.70   31.10
   1   3  -6  946.91   32.40
   1   3  -6  965.10   31.60
  -1   3   6 1003.00   33.50
   0  -3  -6 1313.97   38.40
   0  -3  -6 1229.98   36.30
   0  -3  -6 1222.08   38.90
   0  -3   6 1202.28   39.70
   0  -3   6 1355.96   38.90
   0  -3  -6 1234.48   38.00
   0   3   6 1248.28   37.60
   0   3   6 1265.07   38.90
   0   3  -6 1222.48   38.60
   0   3  -6 1259.17   38.70
   0   3  -6 1204.48   39.90
   0   3  -6 1275.97   40.10
   0   3   6 1224.88   37.50
   0   3  -6 1184.98   39.70
  -1  -3  -6  256.97   10.00
  -1  -3  -6  262.07   11.10
   1  -3   6  304.27   13.30
  -1  -3  -6  262.77    9.90
   1  -3   6  289.17   12.30
  -1  -3  -6  283.77   10.30
   1   3   6  283.17    9.30
  -1   3  -6  278.87   11.80
  -1   3  -6  259.37   12.00
  -1   3  -6  296.37   12.50
  -1   3  -6  281.47   12.60
  -1   3  -6  272.47   10.80
   1   3   6  281.97    9.20
   2  -3   6   38.30    4.30
  -2  -3  -6   40.90    3.70
  -2  -3  -6   41.40    2.50
  -2  -3  -6   42.10    2.50
  -2  -3  -6   33.60    4.50
  -2   3  -6   40.30    4.60
  -2   3  -6   53.19    5.30
  -2   3  -6   39.10    4.80
  -2   3  -6   39.60    4.30
  -2   3  -6   53.59    3.40
  -3  -3  -6  849.41   24.50
   3  -3   6  842.62   28.10
  -3  -3  -6  836.62   24.40
  -3  -3  -6  830.92   29.00
  -3  -3  -6  844.22   27.50
  -3   3  -6  866.61   25.10
  -3   3  -6  818.02   29.60
  -3   3  -6  801.32   28.50
  -3   3  -6  825.52   29.30
  -3   3  -6  888.71   28.80
  -4  -3  -6  165.08    5.50
   4  -3   6  152.58    8.50
  -4  -3  -6  158.78    9.00
  -4  -3  -6  148.59    5.40
  -4  -3  -6  160.88    8.20
  -4   3  -6  165.98   10.30
  -4   3  -6  155.08   10.40
  -4   3  -6  144.79    8.60
  -5  -3  -6  113.99    4.70
  -5  -3  -6  118.49    8.20
  -5   3  -6  138.09    9.30
  -5   3  -6  124.69    9.90
  -6  -3  -6  184.58   10.50
  -6  -3  -6  197.98   12.40
  -6   3  -6  180.08   12.50
  -6   3  -6  183.38   12.20
  -6   3  -6  172.38   10.40
  -7  -3  -6    4.40    2.80
  -7   3  -6    3.20    2.30
   7  -4  -6  306.27   16.60
  -7  -4   6  306.37   16.20
  -7  -4   6  324.17   17.90
   7  -4  -6  281.77   16.70
   7   4  -6  311.87   17.00
  -7   4   6  334.07   17.80
   6  -4  -6   63.29    7.90
   6  -4  -6   77.09    8.90
  -6  -4   6   60.69    7.90
  -6  -4   6   80.19    8.20
   6   4  -6   64.09    8.00
  -6   4   6   60.79    5.00
   6   4  -6   62.09    5.90
  -6   4   6   67.19    8.10
   5  -4  -6   72.89    7.40
   5  -4  -6   64.39    7.90
  -5  -4   6   67.89    7.70
  -5  -4   6   69.39    7.10
  -5   4   6   58.49    7.40
   5   4  -6   51.29    6.30
   5   4  -6   57.99    5.10
  -5   4   6   59.59    4.90
   5   4  -6   64.69    7.30
   4  -4  -6  270.67   10.70
  -4  -4   6  237.88   13.30
   4  -4  -6  230.78   13.00
  -4  -4   6  235.98   12.80
   4  -4  -6  249.78   13.20
  -4   4   6  236.68   13.20
   4   4  -6  234.58   13.00
  -4   4   6  232.68   10.10
   4   4  -6  259.67   14.00
   4   4  -6  258.97   11.10
  -3  -4   6   50.39    5.90
   3  -4  -6   48.30    6.10
  -3  -4   6   34.10    5.00
   3  -4  -6   45.90    5.70
   3  -4  -6   47.70    3.90
  -3   4   6   47.70    5.80
  -3   4   6   40.80    3.80
   3   4  -6   34.50    4.90
  -3   4   6   47.30    2.40
   3   4  -6   49.70    4.20
   3   4  -6   36.40    5.50
   2  -4  -6  556.74   21.50
   2  -4  -6  599.74   21.90
  -2  -4   6  540.75   20.90
   2  -4  -6  575.64   19.00
   2  -4  -6  562.34   21.30
  -2  -4   6  571.04   22.20
   2   4  -6  548.55   20.00
   2   4  -6  556.54   22.20
  -2   4   6  595.74   21.50
   2   4  -6  560.04   21.50
   1  -4  -6   73.89    5.50
   1  -4  -6   71.19    5.80
   1  -4  -6   68.69    5.60
   1  -4  -6   62.39    4.50
  -1  -4   6   57.09    6.10
  -1  -4   6   67.59    5.30
   1   4  -6   68.09    6.50
   1   4  -6   64.99    5.60
   1   4  -6   65.19    6.10
  -1   4   6   71.59    5.10
   0  -4  -6  166.18    8.30
   0  -4  -6  170.98    8.40
   0  -4   6  167.28    9.50
   0  -4  -6  170.88    5.20
   0  -4   6  165.68    8.50
   0  -4  -6  177.98    8.30
   0  -4  -6  158.88    8.40
   0   4  -6  201.28   10.10
   0   4  -6  169.18    9.10
   0   4  -6  186.08   10.00
   0   4  -6  144.89    9.50
   0   4   6  180.88    8.60
   0   4   6  161.28    7.90
   0   4  -6  171.98    9.80
  -1  -4  -6  120.99    6.60
  -1  -4  -6  121.09    5.30
   1  -4   6  122.39    8.10
  -1  -4  -6  117.39    6.10
  -1  -4  -6  115.09    8.20
  -1  -4  -6  121.09    6.40
  -1   4  -6  122.59    6.50
  -1   4  -6  126.19    8.40
   1   4   6  124.89    5.80
  -1   4  -6  111.39    7.20
  -1   4  -6  123.89    7.90
  -1   4  -6  121.89    8.40
  -2  -4  -6  526.05   20.20
  -2  -4  -6  505.05   17.10
   2  -4   6  530.35   20.20
  -2  -4  -6  543.95   17.40
  -2  -4  -6  491.75   17.80
   2   4   6  506.35   15.60
   2   4   6  519.55   15.70
  -2   4  -6  497.55   19.80
  -2   4  -6  523.35   17.10
  -2   4  -6  518.75   20.50
  -2   4  -6  526.75   20.30
  -2   4  -6  502.25   20.30
  -3  -4  -6   95.59    7.70
  -3  -4  -6   94.99    4.80
   3  -4   6   98.49    7.30
  -3  -4  -6   98.39    5.70
  -3  -4  -6  103.79    4.80
  -3   4  -6   85.69    7.10
  -3   4  -6   90.09    7.10
  -3   4  -6   87.09    7.30
  -3   4  -6   97.69    7.10
  -4  -4  -6    4.70    1.90
  -4  -4  -6    6.00    3.00
  -4  -4  -6    6.10    1.30
  -4   4  -6    9.70    3.50
  -4   4  -6    3.20    3.40
  -4   4  -6    7.00    3.10
  -5  -4  -6   56.09    3.60
  -5  -4  -6   64.19    6.60
  -5   4  -6   68.99    7.80
  -5   4  -6   55.99    6.80
  -5   4  -6   70.79    6.50
  -6  -4  -6  195.88   11.70
  -6   4  -6  204.38   13.30
  -6   4  -6  197.48   12.70
   7  -5  -6  154.58   15.90
   7   5  -6  170.88   12.30
  -7   5   6  160.98   12.30
  -6  -5   6  129.59    9.80
   6  -5  -6  120.49   10.30
   6  -5  -6  131.09   10.90
  -6  -5   6  134.29   11.20
   6   5  -6  121.79   10.80
  -6   5   6  118.39   10.20
  -5  -5   6   29.80    5.40
  -5  -5   6   25.20    5.10
   5  -5  -6   26.00    5.40
   5  -5  -6   34.40    6.40
   5   5  -6   25.40    5.10
   5   5  -6   27.30    5.60
  -5   5   6   21.10    5.50
  -5   5   6   28.40    3.70
   4  -5  -6   25.10    4.50
  -4  -5   6   18.60    4.30
  -4  -5   6   22.00    4.20
   4  -5  -6   19.90    4.40
   4   5  -6   18.40    4.10
   4   5  -6   19.00    4.90
  -4   5   6   19.40    4.20
   4   5  -6   20.30    3.10
  -4   5   6   10.20    2.60
   3  -5  -6  205.48   11.10
  -3  -5   6  205.08   12.00
   3  -5  -6  205.28   11.60
  -3  -5   6  185.78   11.20
   3   5  -6  215.28   11.90
   3   5  -6  202.98    9.40
   3   5  -6  188.28   12.40
  -3   5   6  194.08   11.20
  -2  -5   6  170.18    9.80
   2  -5  -6  177.88   10.60
  -2  -5   6  193.28   11.60
   2  -5  -6  168.38   10.40
   2  -5  -6  186.08   10.20
   2   5  -6  178.98   11.20
   2   5  -6  192.88   10.60
  -2   5   6  183.18   10.10
   2   5  -6  183.68    9.00
  -1  -5   6  343.27   14.80
   1  -5  -6  357.86   14.80
   1  -5  -6  339.57   15.20
  -1  -5   6  349.47   16.30
   1  -5  -6  375.16   15.60
  -1   5   6  370.96   15.10
   1   5  -6  347.17   15.50
   1   5  -6  347.87   16.40
   1   5  -6  367.36   14.40
   0  -5  -6  697.63   25.00
   0  -5  -6  717.93   24.50
   0  -5  -6  679.23   26.00
   0  -5   6  723.83   27.00
   0  -5  -6  774.32   25.60
   0  -5   6  714.43   24.80
   0   5   6  729.13   24.70
   0   5  -6  713.23   26.40
   0   5   6  775.92   26.00
   0   5  -6  705.93   25.70
   0   5  -6  723.53   27.20
  -1  -5  -6  554.34   16.80
  -1  -5  -6  534.35   21.80
  -1  -5  -6  541.85   19.30
   1  -5   6  557.04   19.40
  -1  -5  -6  590.34   20.50
  -1  -5  -6  539.75   19.80
   1  -5   6  542.05   21.90
  -1  -5  -6  574.74   17.40
  -1   5  -6  561.54   19.60
   1   5   6  613.94   21.00
  -1   5  -6  536.35   22.40
  -1   5  -6  538.65   21.60
  -1   5  -6  539.75   21.40
  -2  -5  -6   75.59    5.20
   2  -5   6   75.09    6.70
  -2  -5  -6   72.89    4.80
  -2  -5  -6   68.69    7.10
  -2   5  -6   69.49    6.80
  -2   5  -6   82.39    7.50
  -2   5  -6   66.69    7.00
  -3  -5  -6  122.09    9.30
  -3  -5  -6  128.39    6.60
   3  -5   6  136.59    9.40
  -3   5  -6  144.89    9.30
  -3   5  -6  130.49    9.50
  -3   5  -6  121.49    9.00
  -4  -5  -6   72.89    4.80
  -4  -5  -6   82.09    8.00
  -4   5  -6   88.79    8.60
  -4   5  -6   89.39    7.80
  -4   5  -6  103.59    8.70
  -5  -5  -6   38.80    5.50
  -5  -5  -6   30.40    3.20
  -5   5  -6   44.50    6.10
  -5   5  -6   30.60    5.10
  -5   5  -6   32.30    5.60
  -6  -5  -6  134.69    9.70
  -6   5  -6  121.99   10.00
   6   6  -6  126.89   10.50
  -6   6   6  122.99   11.20
  -5  -6   6  176.18   11.80
   5  -6  -6  148.99   10.60
  -5  -6   6  163.48   12.40
   5  -6  -6  150.88   11.40
  -5   6   6  175.28   12.40
   5   6  -6  166.28   12.40
  -5   6   6  151.38    8.90
  -4  -6   6   88.29    9.40
  -4  -6   6   76.99    7.80
   4  -6  -6   89.69    8.40
   4  -6  -6   88.19    7.70
   4   6  -6   85.79    8.80
  -4   6   6   87.59    8.80
  -4   6   6   78.49    6.30
   4   6  -6   82.49    8.50
  -3  -6   6  369.46   17.10
   3  -6  -6  365.76   16.70
  -3  -6   6  363.76   18.20
   3  -6  -6  356.66   17.60
   3   6  -6  363.76   18.30
   3   6  -6  392.46   16.50
  -3   6   6  364.16   17.10
   3   6  -6  354.66   17.00
  -2  -6   6   62.49    7.50
   2  -6  -6   74.39    6.70
   2  -6  -6   88.29    7.90
   2  -6  -6   79.69    6.80
  -2  -6   6   70.59    7.00
   2   6  -6   76.19    8.10
   2   6  -6   81.29    5.70
  -2   6   6   83.09    6.90
   2   6  -6   78.39    7.40
  -1  -6   6  157.58   10.40
  -1  -6   6  148.89    9.20
   1  -6  -6  142.09    8.60
   1  -6  -6  146.49    9.40
   1  -6  -6  152.98    9.60
   1   6  -6  148.19    9.60
   1   6  -6  157.88    8.30
   1   6  -6  151.48   11.00
   0  -6  -6   86.09    6.00
   0  -6   6   72.89    7.70
   0  -6   6   85.79    6.20
   0  -6  -6   82.49    6.90
   0  -6  -6   95.29    7.50
   0   6  -6   88.09    8.00
   0   6  -6   82.59    7.80
   0   6  -6   91.89    7.30
   1  -6   6  159.68   10.80
  -1  -6  -6  150.08    8.60
  -1  -6  -6  145.19    7.60
   1  -6   6  151.98    8.00
  -1  -6  -6  160.48   10.50
  -1   6  -6  141.69   10.90
  -1   6  -6  153.78    9.70
  -1   6  -6  176.58   10.60
  -2  -6  -6   24.50    4.40
  -2  -6  -6   20.50    3.50
   2  -6   6   23.90    4.70
  -2   6  -6   26.50    5.10
  -2   6  -6   26.60    4.60
  -2   6  -6   26.80    5.00
  -3  -6  -6   18.20    4.60
  -3  -6  -6   19.70    3.20
   3  -6   6   13.50    3.60
  -3   6  -6   27.90    4.70
  -3   6  -6   13.60    4.30
  -3   6  -6   12.40    4.60
  -4  -6  -6  171.98   11.10
  -4  -6  -6  159.48    8.20
  -4   6  -6  161.38   10.60
  -4   6  -6  153.18   10.80
  -4   6  -6  158.88   11.10
  -5  -6  -6  121.79    9.70
  -5  -6  -6  137.29    7.30
  -5   6  -6  127.39    9.80
  -5   7   6   34.30    6.20
   5   7  -6   37.70    6.50
   4  -7  -6  503.25   21.20
   4  -7  -6  538.35   24.40
  -4  -7   6  526.55   23.00
  -4  -7   6  533.95   24.40
   4   7  -6  529.55   22.70
   4   7  -6  555.14   24.50
  -4   7   6  533.05   23.80
   3  -7  -6    5.20    3.10
   3  -7  -6   12.00    3.90
  -3  -7   6    1.50    3.70
   3  -7  -6    6.30    3.50
  -3  -7   6    3.10    2.50
   3   7  -6    4.00    3.30
  -3   7   6   11.70    7.10
   3   7  -6    8.00    4.10
   2  -7  -6   44.70    6.10
  -2  -7   6   35.10    5.00
   2  -7  -6   38.40    5.80
  -2  -7   6   48.80    7.10
   2  -7  -6   40.50    5.50
   2   7  -6   32.30    5.80
   2   7  -6   33.70    6.40
   1  -7  -6  311.77   15.80
   1  -7  -6  340.87   14.80
   1  -7  -6  345.97   16.70
  -1  -7   6  330.77   17.30
  -1  -7   6  352.56   15.70
   1   7  -6  357.26   14.50
   1   7  -6  360.56   18.30
   1   7  -6  358.66   16.70
   0  -7  -6  107.19    8.50
   0  -7  -6  119.59    8.80
   0  -7   6  112.09    7.40
   0  -7   6  106.89    9.20
   0   7  -6  100.19    9.20
   0   7  -6  100.29    8.00
  -1  -7  -6  244.28   13.40
   1  -7   6  230.28   13.70
   1  -7   6  211.68   10.70
  -1  -7  -6  232.58   12.20
  -1   7  -6  237.98   13.50
  -1   7  -6  246.98   12.90
  -1   7  -6  240.68   14.80
   2  -7   6  302.67   16.80
  -2  -7  -6  329.47   14.40
  -2  -7  -6  343.37   16.60
  -2   7  -6  317.37   15.90
  -2   7  -6  320.57   17.10
  -2   7  -6  308.77   16.40
  -3  -7  -6   27.90    4.30
  -3  -7  -6   25.80    5.60
   3  -7   6   23.40    6.20
  -3   7  -6   38.30    5.90
  -3   7  -6   26.60    5.90
  -3   7  -6   19.60    4.50
  -4  -7  -6   97.09    6.80
  -4   7  -6   91.59    8.90
   3  -8  -6  125.49    9.60
  -3  -8   6  123.79    9.60
   3   8  -6  124.39    9.60
   3   8  -6  127.19   10.90
   2  -8  -6   36.30    5.50
  -2  -8   6   32.10    6.80
  -2  -8   6   39.00    5.60
   2   8  -6   29.40    5.80
   2   8  -6   49.50    7.70
   1  -8  -6    6.30    3.00
   1  -8  -6    7.60    3.80
  -1  -8   6    7.40    3.60
  -1  -8   6    7.70    3.30
   1   8  -6   -0.50    3.30
   1   8  -6    3.50    4.30
   0  -8   6  199.28   13.90
   0  -8   6  202.18   11.00
   0  -8  -6  187.88   12.60
   0  -8  -6  185.58   11.90
   0   8  -6  202.58   13.50
   0   8  -6  185.08   11.50
   1  -8   6  196.58   13.80
  -1  -8  -6  198.48   11.90
  -1   8  -6  186.88   13.80
  -1   8  -6  194.38   12.20
  -1   8  -6  190.78   12.30
   2  -8   6   20.50    5.80
  -2  -8  -6   19.30    4.30
  -2   8  -6   11.30    4.40
  -8   0   7   91.89   10.00
   8   0  -7   90.99    9.80
   8   0  -7   98.49    8.50
   7   0  -7  287.67   16.50
  -7   0   7  314.07   17.00
   7   0  -7  298.97   15.50
   6   0  -7   -0.70    3.20
  -6   0   7    2.00    2.50
   6   0  -7   -2.90    3.00
  -6   0   7    2.00    1.30
  -5   0   7   61.69    3.70
   5   0  -7   63.39    7.20
  -5   0   7   50.99    6.40
   5   0  -7   53.19    6.30
   4   0  -7  293.87   13.50
  -4   0   7  301.67    9.70
   4   0  -7  294.87   13.10
   4   0  -7  280.87   14.00
  -4   0   7  290.67   14.10
   3   0  -7    7.80    3.10
  -3   0   7   10.10    3.10
   3   0  -7    9.10    2.70
   3   0  -7    9.30    2.70
   3   0  -7    9.80    2.70
   2   0  -7 1407.46   44.60
  -2   0   7 1503.05   44.90
  -2   0   7 1511.05   46.00
   2   0  -7 1401.16   45.70
   2   0  -7 1394.06   45.60
   2   0  -7 1535.95   46.10
   1   0  -7  290.17   12.60
   1   0  -7  286.17   11.80
  -1   0   7  287.17   11.50
  -1   0   7  298.77   12.00
   1   0  -7  285.07   11.70
   1   0  -7  282.67   11.70
   1   0  -7  297.57    8.60
  -1   0   7  268.27   11.70
   0   0  -7   57.49    3.80
   0   0  -7   49.40    3.90
   0   0  -7   54.09    4.80
   0   0  -7   60.09    3.30
   0   0   7   56.69    3.60
   0   0  -7   51.09    5.40
   0   0   7   63.99    5.10
   0   0   7   55.89    3.90
  -1   0  -7  638.64   20.90
  -1   0  -7  714.13   21.10
  -1   0  -7  665.63   23.00
  -1   0  -7  648.74   23.40
  -1   0  -7  678.03   21.70
   1   0   7  657.43   20.10
  -2   0  -7  357.36   15.00
  -2   0  -7  363.46   14.20
  -2   0  -7  369.86   12.00
  -2   0  -7  369.76   12.00
  -3   0  -7   51.59    5.60
  -3   0  -7   64.39    5.60
  -3   0  -7   61.59    3.10
  -3   0  -7   58.19    3.00
  -4   0  -7   59.79    6.60
  -4   0  -7   41.90    2.70
  -4   0  -7   44.60    2.80
  -4   0  -7   47.40    5.70
  -4   0  -7   46.60    4.20
  -5   0  -7   79.59    5.20
  -5   0  -7   83.89    4.30
  -5   0  -7   84.09    7.10
  -6   0  -7  138.09   10.20
  -6   0  -7  109.89    5.70
  -7   0  -7   36.40    6.40
   8  -1  -7  107.89   10.20
  -8  -1   7  117.49   10.20
   8  -1  -7  104.59    9.70
   8   1  -7  117.89   10.20
  -8   1   7   96.59   10.70
   8   1  -7  112.09    9.50
   7  -1  -7  182.88   12.40
  -7  -1   7  184.08   12.60
   7  -1  -7  206.98   12.80
   7   1  -7  176.48   11.50
   7   1  -7  211.38   13.50
  -7   1   7  204.58   13.00
   6  -1  -7  180.68   12.30
   6  -1  -7  195.58   11.40
  -6  -1   7  198.58    8.80
  -6  -1   7  191.38   12.10
  -6   1   7  178.48    8.10
  -6   1   7  167.88   11.50
   6   1  -7  194.38   11.30
   6   1  -7  166.78   11.40
   5  -1  -7    2.70    2.40
  -5  -1   7    4.00    2.60
   5  -1  -7    2.20    2.70
  -5  -1   7    6.00    1.70
  -5   1   7    5.10    1.30
  -5   1   7    2.60    2.50
   5   1  -7    0.70    3.30
   5   1  -7    8.70    2.80
  -4  -1   7  274.27    9.50
   4  -1  -7  252.67   12.70
  -4  -1   7  265.07   13.40
   4  -1  -7  238.58   12.90
   4   1  -7  269.47   12.40
  -4   1   7  279.97   13.50
   4   1  -7  280.27   13.70
  -4   1   7  252.77    8.50
   4   1  -7  275.47   13.00
   3  -1  -7   50.69    5.60
   3  -1  -7   35.70    4.90
   3  -1  -7   53.09    5.70
  -3  -1   7   41.40    2.50
   3  -1  -7   43.00    4.30
  -3  -1   7   44.00    5.10
  -3   1   7   49.30    5.60
  -3   1   7   45.50    3.90
   3   1  -7   43.60    4.70
   3   1  -7   43.80    5.20
   3   1  -7   53.99    5.80
   3   1  -7   43.40    5.00
  -2  -1   7  560.74   17.00
  -2  -1   7  549.85   20.90
   2  -1  -7  549.25   20.80
   2  -1  -7  558.14   19.20
   2  -1  -7  608.94   21.10
   2  -1  -7  558.64   21.00
   2   1  -7  573.34   20.80
  -2   1   7  576.94   20.60
   2   1  -7  555.04   20.50
   2   1  -7  539.15   20.80
  -2   1   7  590.84   19.40
   2   1  -7  599.74   21.20
   1  -1  -7  336.07   13.10
   1  -1  -7  369.66   14.90
  -1  -1   7  367.66   11.80
   1  -1  -7  354.36   14.00
  -1  -1   7  368.96   14.20
   1  -1  -7  397.86   14.20
   1   1  -7  347.77   14.20
   1   1  -7  343.67   14.50
  -1   1   7  359.86   13.50
   1   1  -7  355.56   11.60
  -1   1   7  336.97   13.10
  -1   1   7  376.66   13.50
   1   1  -7  343.77   14.20
   1   1  -7  381.26   14.50
   0  -1  -7  708.03   23.60
   0  -1   7  711.63   24.10
   0  -1  -7  767.42   23.70
   0  -1   7  755.42   23.20
   0  -1  -7  727.13   22.50
   0  -1  -7  724.73   25.40
   0  -1   7  741.33   24.10
   0  -1  -7  697.73   23.90
   0   1  -7  702.43   25.10
   0   1   7  753.92   24.20
   0   1  -7  798.62   24.70
   0   1  -7  726.53   25.60
   0   1   7  794.72   23.10
   0   1  -7  754.82   23.10
   0   1  -7  737.93   24.40
  -1  -1  -7  461.95   16.80
  -1  -1  -7  470.15   14.70
   1  -1   7  487.95   16.50
   1  -1   7  476.35   15.70
  -1  -1  -7  444.76   16.00
  -1  -1  -7  456.85   14.80
   1  -1   7  465.65   15.80
  -1  -1  -7  471.55   17.70
  -1   1  -7  466.05   17.80
  -1   1  -7  462.55   16.20
  -1   1  -7  455.05   16.20
  -1   1  -7  447.26   16.10
  -2  -1  -7  698.63   24.70
  -2  -1  -7  753.32   20.00
   2  -1   7  749.23   22.10
  -2  -1  -7  685.63   23.90
  -2  -1  -7  688.83   24.30
   2  -1   7  676.53   21.90
  -2   1  -7  712.23   22.70
  -2   1  -7  707.63   24.10
  -2   1  -7  688.13   25.20
  -2   1  -7  712.43   22.70
   3  -1   7  581.34   17.80
  -3  -1  -7  573.44   20.30
  -3  -1  -7  567.54   21.10
   3  -1   7  593.74   17.80
  -3  -1  -7  586.44   21.50
  -3   1  -7  562.74   21.90
  -3   1  -7  575.64   18.90
  -3   1  -7  562.54   18.90
  -3   1  -7  538.65   20.90
  -4  -1  -7  639.04   22.30
   4  -1   7  645.24   19.50
  -4  -1  -7  617.24   23.90
  -4   1  -7  619.54   24.70
  -4   1  -7  702.13   22.60
  -4   1  -7  647.64   20.70
  -4   1  -7  624.84   21.10
  -4   1  -7  646.14   24.30
  -5  -1  -7  185.88   10.80
  -5  -1  -7  181.38    8.90
  -5  -1  -7  162.18    5.40
  -5   1  -7  165.18   10.50
  -5   1  -7  158.28    7.80
  -5   1  -7  168.08   10.80
  -6  -1  -7  268.17   14.50
  -6   1  -7  284.27   14.90
  -6   1  -7  267.97   14.90
  -7  -1  -7  207.88   13.20
  -7   1  -7  226.38   10.40
  -7   1  -7  230.38   14.40
   8  -2  -7   50.19    7.60
   8   2  -7   60.59    7.20
  -8   2   7   70.69    9.00
   8   2  -7   59.39    8.10
  -7  -2   7   95.09    9.10
   7  -2  -7  109.49   10.20
   7  -2  -7   87.89    9.60
  -7   2   7   81.99    9.60
   7   2  -7   92.79    9.80
   7   2  -7  101.49    8.30
  -6  -2   7  131.29   10.80
   6  -2  -7  167.78   11.30
   6  -2  -7  134.69   10.20
   6   2  -7  157.58   10.90
  -6   2   7  138.19   10.40
   6   2  -7  131.99    8.80
   5  -2  -7  635.24   24.70
  -5  -2   7  626.74   25.40
   5  -2  -7  624.34   25.20
   5   2  -7  623.34   23.30
  -5   2   7  618.14   20.10
  -5   2   7  642.54   25.70
   5   2  -7  660.23   25.70
   4  -2  -7  383.16   17.50
   4  -2  -7  362.56   16.80
  -4  -2   7  407.46   17.90
  -4  -2   7  390.16   13.70
   4   2  -7  391.96   17.50
  -4   2   7  392.76   17.60
  -4   2   7  397.66   14.60
   4   2  -7  385.16   16.10
  -4   2   7  377.66   12.30
   4   2  -7  382.16   16.50
  -3  -2   7  216.78    8.40
   3  -2  -7  235.28   11.70
   3  -2  -7  210.18   11.10
  -3  -2   7  241.28   11.80
   3  -2  -7  204.48   11.20
   3   2  -7  204.48   10.50
  -3   2   7  213.98   11.00
   3   2  -7  203.08   11.40
  -3   2   7  216.08    9.00
   3   2  -7  198.08   10.70
   2  -2  -7  176.08    9.70
   2  -2  -7  187.78    8.00
  -2  -2   7  189.68    7.60
   2  -2  -7  177.68    9.50
  -2  -2   7  185.78    9.90
   2  -2  -7  205.08   10.10
   2  -2  -7  186.88    5.80
  -2   2   7  195.08    9.70
   2   2  -7  201.38   10.50
   2   2  -7  184.18    9.80
  -2   2   7  208.18    8.10
   2   2  -7  211.18   10.70
   2   2  -7  204.88   10.40
   1  -2  -7 1094.89   33.80
  -1  -2   7 1160.58   34.00
  -1  -2   7 1131.79   36.30
   1  -2  -7 1120.49   35.50
   1  -2  -7 1119.19   36.40
   1  -2  -7 1156.78   35.80
   1  -2  -7 1127.79   32.50
   1   2  -7 1108.39   33.90
  -1   2   7 1146.89   34.00
   1   2  -7 1186.98   36.80
  -1   2   7 1133.29   35.00
   1   2  -7 1078.89   36.40
   1   2  -7 1092.89   36.50
   1   2  -7 1067.79   36.20
   0  -2  -7  410.36   14.60
   0  -2  -7  426.96   15.00
   0  -2   7  414.56   16.00
   0  -2  -7  405.86   16.30
   0  -2   7  457.55   15.20
   0  -2  -7  406.56   14.70
   0   2  -7  444.26   16.40
   0   2   7  433.16   14.10
   0   2  -7  412.36   14.90
   0   2  -7  431.46   16.40
   0   2  -7  433.96   17.00
   0   2  -7  436.46   16.00
   0   2  -7  412.36   16.80
  -1  -2  -7  129.39    5.40
   1  -2   7  133.39    7.10
  -1  -2  -7  146.09    5.60
  -1  -2  -7  124.39    7.60
  -1  -2  -7  125.39    6.60
   1  -2   7  149.79    7.20
  -1   2  -7  130.99    8.00
  -1   2  -7  130.19    7.10
  -1   2  -7  131.99    7.10
  -1   2  -7  134.69    7.00
  -1   2  -7  128.59    7.40
  -2  -2  -7  319.57   12.50
  -2  -2  -7  303.87   12.80
   2  -2   7  292.27   11.60
  -2   2  -7  297.97   12.10
  -2   2  -7  281.77   13.40
  -2   2  -7  284.37   12.40
  -2   2  -7  295.47   12.20
  -2   2  -7  288.97   11.30
  -3  -2  -7   13.90    3.10
  -3  -2  -7   16.00    3.00
  -3  -2  -7   17.20    3.30
   3  -2   7   13.40    2.30
  -3   2  -7    5.40    3.40
  -3   2  -7   12.20    1.90
  -3   2  -7   14.50    2.80
  -3   2  -7   13.10    3.20
  -3   2  -7   18.70    3.00
  -4  -2  -7  217.58   10.90
  -4  -2  -7  255.47   12.60
  -4   2  -7  248.28   12.50
  -4   2  -7  239.08   10.70
  -4   2  -7  232.18   12.70
  -4   2  -7  238.18    8.50
  -5  -2  -7   17.90    4.00
  -5  -2  -7   17.20    3.20
  -5   2  -7   23.40    4.70
  -5   2  -7   24.40    4.60
  -5   2  -7   19.30    3.10
  -6  -2  -7   11.10    4.30
  -6  -2  -7    9.20    2.80
  -6   2  -7   15.70    4.20
  -6   2  -7   22.20    5.20
   7  -3  -7   28.10    5.50
   7  -3  -7   19.50    5.10
  -7  -3   7   19.50    5.00
   7   3  -7   26.00    5.40
  -7   3   7   33.60    6.70
   7   3  -7   26.30    4.70
  -6  -3   7  532.85   23.80
   6  -3  -7  523.15   23.50
  -6  -3   7  500.55   22.00
   6  -3  -7  549.54   23.00
  -6   3   7  542.95   23.60
   6   3  -7  522.95   20.70
   6   3  -7  553.94   23.70
  -5  -3   7  405.16   17.60
   5  -3  -7  368.06   18.30
  -5  -3   7  374.86   18.00
   5  -3  -7  374.56   17.40
   5   3  -7  385.06   17.40
   5   3  -7  383.16   18.20
  -5   3   7  369.86   13.50
   5   3  -7  397.16   16.20
  -5   3   7  374.66   18.00
  -4  -3   7  582.84   23.80
  -4  -3   7  573.54   22.70
  -4  -3   7  629.04   20.70
   4  -3  -7  586.94   23.90
   4  -3  -7  592.84   23.20
  -4   3   7  602.54   23.80
  -4   3   7  576.04   18.80
   4   3  -7  578.04   23.20
   4   3  -7  614.64   21.90
  -4   3   7  605.84   20.10
   4   3  -7  582.84   24.10
  -3  -3   7  214.38   11.50
   3  -3  -7  205.68   11.60
   3  -3  -7  230.28    8.20
  -3  -3   7  237.48    9.70
  -3  -3   7  234.08   12.20
   3  -3  -7  207.78   11.70
   3  -3  -7  230.78   12.30
   3   3  -7  222.38   12.00
   3   3  -7  216.98   10.50
   3   3  -7  204.78   11.30
  -3   3   7  230.78    8.70
  -3   3   7  212.38   11.30
   2  -3  -7  698.13   25.00
  -2  -3   7  664.13   25.20
   2  -3  -7  658.93   24.60
  -2  -3   7  711.83   22.90
   2  -3  -7  690.43   21.20
   2  -3  -7  663.93   24.80
   2   3  -7  698.23   25.30
  -2   3   7  724.03   24.60
   2   3  -7  710.93   24.30
   2   3  -7  699.53   25.60
  -2   3   7  686.53   21.10
   1  -3  -7  858.61   28.30
   1  -3  -7  876.71   28.60
  -1  -3   7  839.62   27.30
   1  -3  -7  883.61   26.10
  -1  -3   7  828.22   29.30
   1  -3  -7  853.21   25.50
   1  -3  -7  808.72   28.70
  -1   3   7  849.91   27.70
   1   3  -7  908.01   30.00
   1   3  -7  863.51   27.50
   1   3  -7  819.12   29.20
   1   3  -7  838.72   29.60
   1   3  -7  826.62   28.60
   0  -3   7  175.78    9.30
   0  -3  -7  180.48    8.40
   0  -3  -7  185.58    7.20
   0  -3   7  186.18    8.70
   0  -3  -7  175.08    8.00
   0  -3  -7  179.98    9.30
   0   3   7  179.08    7.60
   0   3  -7  194.38   10.10
   0   3  -7  174.08    9.70
   0   3   7  190.58    7.70
   0   3  -7  179.88    8.70
   0   3  -7  172.18    9.50
   0   3  -7  175.88    9.50
  -1  -3  -7  184.28    7.50
   1  -3   7  194.68    9.70
  -1  -3  -7  176.28    9.00
  -1  -3  -7  194.08    8.10
  -1  -3  -7  196.88    7.90
   1   3   7  184.28    6.20
  -1   3  -7  189.98   10.30
  -1   3  -7  197.88    9.70
  -1   3  -7  198.48    8.90
   1   3   7  194.18    6.20
  -1   3  -7  212.88   10.10
  -1   3  -7  164.38    9.30
  -2  -3  -7  722.63   21.60
  -2  -3  -7  773.62   25.10
   2  -3   7  740.43   25.00
  -2  -3  -7  727.13   21.50
  -2  -3  -7  732.03   24.10
  -2  -3  -7  727.93   25.80
  -2   3  -7  699.83   26.20
  -2   3  -7  699.13   25.30
  -2   3  -7  693.63   25.20
  -2   3  -7  728.03   25.30
  -2   3  -7  721.13   23.30
  -3  -3  -7  207.78   11.00
   3  -3   7  220.08   10.40
  -3  -3  -7  219.18   10.40
  -3   3  -7  219.78   11.40
  -3   3  -7  215.28   11.80
  -3   3  -7  215.08   11.00
  -3   3  -7  252.47    9.10
  -3   3  -7  244.48   11.20
  -4  -3  -7  114.89    7.00
  -4  -3  -7  101.99    7.60
  -4   3  -7   93.99    7.10
  -4   3  -7  108.29    8.30
  -4   3  -7   85.79    7.40
  -5  -3  -7  393.96   16.10
  -5  -3  -7  402.66   17.30
  -5   3  -7  429.66   19.70
  -5   3  -7  426.26   18.90
  -5   3  -7  388.06   16.60
  -6  -3  -7   25.50    4.20
  -6  -3  -7   36.40    5.90
  -6   3  -7   26.60    4.50
  -6   3  -7   21.60    4.90
  -6   3  -7   29.50    5.90
   7  -4  -7  158.58   12.90
  -7  -4   7  155.68   11.90
  -7  -4   7  169.28   11.90
  -7   4   7  151.08   11.80
   7   4  -7  144.09   11.50
   6  -4  -7  198.78   13.00
  -6  -4   7  181.88   11.60
   6  -4  -7  189.68   12.30
  -6  -4   7  202.28   13.10
  -6   4   7  184.28   12.60
   6   4  -7  202.58   11.90
   6   4  -7  195.18   12.70
  -5  -4   7  136.99    9.60
   5  -4  -7  142.09   11.10
   5  -4  -7  126.29   10.40
  -5  -4   7  130.39   10.10
  -5   4   7  170.18   11.50
   5   4  -7  137.19   11.00
   5   4  -7  158.78    8.80
   5   4  -7  143.29   10.60
   4  -4  -7  540.45   22.90
   4  -4  -7  544.35   22.50
  -4  -4   7  530.15   22.00
  -4  -4   7  543.85   23.30
  -4   4   7  573.34   23.00
   4   4  -7  590.84   23.60
   4   4  -7  570.84   20.40
   4   4  -7  550.94   22.70
  -3  -4   7   23.90    4.20
   3  -4  -7   25.10    4.80
   3  -4  -7   31.40    3.10
   3  -4  -7   30.30    4.70
  -3  -4   7   30.70    5.10
   3   4  -7   29.80    4.60
   3   4  -7   27.80    5.20
   3   4  -7   27.60    4.00
  -3   4   7   33.80    4.70
  -2  -4   7   74.59    6.80
  -2  -4   7   83.59    6.50
   2  -4  -7   77.89    7.00
   2  -4  -7   97.79    5.20
   2  -4  -7   81.29    6.50
   2  -4  -7   79.79    6.80
   2   4  -7   69.69    7.50
   2   4  -7   89.29    6.50
   2   4  -7   83.89    6.90
  -2   4   7   74.79    5.90
  -1  -4   7  647.94   24.20
   1  -4  -7  672.03   23.30
   1  -4  -7  630.44   22.70
   1  -4  -7  661.03   21.10
   1  -4  -7  628.24   22.80
  -1  -4   7  646.14   23.00
  -1   4   7  604.54   22.00
   1   4  -7  621.64   22.20
   1   4  -7  633.94   24.00
   1   4  -7  598.34   24.10
   1   4  -7  630.44   22.70
   0  -4  -7  683.33   24.20
   0  -4  -7  730.23   21.40
   0  -4   7  735.63   26.60
   0  -4  -7  727.63   25.20
   0  -4  -7  746.73   24.90
   0  -4  -7  743.33   24.20
   0   4  -7  745.93   25.50
   0   4  -7  730.93   26.90
   0   4   7  720.93   23.80
   0   4  -7  725.73   26.60
   1  -4   7  155.88    9.10
  -1  -4  -7  141.49    7.70
  -1  -4  -7  137.39    6.70
  -1  -4  -7  148.59    7.00
  -1  -4  -7  125.09    5.80
  -1  -4  -7  139.49    9.00
  -1   4  -7  133.19    8.60
  -1   4  -7  141.49    8.70
  -1   4  -7  144.89    7.40
  -1   4  -7  115.39    8.30
  -1   4  -7  127.89    7.90
   1   4   7  126.29    5.70
   1   4   7  124.19    5.60
  -2  -4  -7   97.59    4.90
   2  -4   7   94.69    7.20
  -2  -4  -7   93.19    7.20
  -2  -4  -7  100.69    6.20
  -2  -4  -7  104.29    5.80
  -2  -4  -7   91.59    4.90
  -2   4  -7   93.39    7.40
  -2   4  -7   99.49    8.20
  -2   4  -7  101.09    7.20
  -2   4  -7   85.09    6.90
  -3  -4  -7  186.78    6.80
  -3  -4  -7  184.78    8.90
  -3  -4  -7  179.58   10.80
   3  -4   7  178.88    9.80
  -3   4  -7  182.58   10.30
  -3   4  -7  162.78   10.10
  -3   4  -7  192.98   11.20
  -4  -4  -7  210.58   11.40
  -4  -4  -7  206.88    9.70
  -4   4  -7  195.38   11.90
  -4   4  -7  196.78   11.60
  -4   4  -7  204.18   11.60
  -5  -4  -7  127.29    9.20
  -5   4  -7  104.49    8.40
  -5   4  -7  115.39    9.20
  -5   4  -7  122.89    9.80
  -6  -4  -7   17.30    4.10
  -6   4  -7   -0.80    2.60
  -6   4  -7    4.90    3.10
   6  -5  -7  185.88   13.70
  -6  -5   7  179.18   12.80
  -6  -5   7  191.18   12.60
   6  -5  -7  193.98   12.50
  -6   5   7  174.58   13.10
   6   5  -7  184.88   12.80
   5  -5  -7  208.48   12.80
   5  -5  -7  221.98   14.20
  -5  -5   7  226.58   13.80
  -5  -5   7  220.28   13.10
   5   5  -7  212.68   13.30
   5   5  -7  225.18   14.20
  -5   5   7  209.88   13.50
  -4  -5   7  512.85   22.30
   4  -5  -7  499.95   21.80
  -4  -5   7  486.05   21.10
   4  -5  -7  531.75   21.70
   4   5  -7  476.95   21.30
  -4   5   7  483.05   21.50
   4   5  -7  489.85   18.40
   4   5  -7  498.75   22.10
   3  -5  -7    8.50    2.90
   3  -5  -7   13.80    4.00
  -3  -5   7    9.80    3.60
  -3  -5   7    9.60    3.40
   3   5  -7    9.70    4.30
   3   5  -7    8.80    2.80
   3   5  -7    4.00    3.40
  -3   5   7    3.60    3.10
  -2  -5   7   34.60    4.70
  -2  -5   7   43.00    5.70
   2  -5  -7   43.30    5.70
   2  -5  -7   50.19    5.90
   2   5  -7   37.30    5.40
   2   5  -7   43.40    4.70
   2   5  -7   45.20    6.00
  -2   5   7   51.19    5.50
   1  -5  -7  265.37   12.50
  -1  -5   7  229.68   11.80
   1  -5  -7  258.57   12.10
  -1  -5   7  264.57   13.30
  -1   5   7  254.87   11.80
   1   5  -7  238.48   12.60
   1   5  -7  226.58   11.60
   1   5  -7  246.58   13.80
   0  -5   7  158.78   10.10
   0  -5   7  186.48    9.30
   0  -5  -7  166.98   10.10
   0  -5  -7  171.88    8.80
   0  -5  -7  171.38    9.20
   0   5  -7  158.78   10.30
   0   5  -7  177.78    9.70
   0   5  -7  155.98   10.30
  -1  -5  -7  150.38    8.20
  -1  -5  -7  163.38    8.30
  -1  -5  -7  144.49   10.10
   1  -5   7  160.28   10.40
  -1   5  -7  174.08   10.70
  -1   5  -7  157.78    9.80
  -1   5  -7  165.08   10.80
  -2  -5  -7 1114.79   39.50
   2  -5   7 1147.99   39.20
  -2  -5  -7 1179.78   36.50
  -2  -5  -7 1151.68   35.20
  -2  -5  -7 1145.69   35.90
  -2   5  -7 1144.89   39.60
  -2   5  -7 1188.58   40.20
  -2   5  -7 1194.58   39.40
  -3  -5  -7  384.06   13.60
  -3  -5  -7  383.06   17.70
  -3  -5  -7  380.96   16.40
  -3   5  -7  382.26   17.70
  -3   5  -7  353.66   17.20
  -3   5  -7  386.56   17.40
  -4  -5  -7  214.18   12.80
  -4  -5  -7  222.78    8.60
  -4   5  -7  215.68   12.80
  -4   5  -7  233.38   13.50
  -4   5  -7  217.98   13.30
  -5  -5  -7  181.38   11.70
  -5   5  -7  177.38   11.80
  -5   5  -7  175.38   12.30
  -5   5  -7  162.58   11.40
  -5  -6   7  143.49   11.80
   5  -6  -7  149.79   11.30
  -5  -6   7  136.29   10.80
   5  -6  -7  135.09   10.20
   5   6  -7  139.49   11.10
   5   6  -7  140.29   10.50
  -5   6   7  127.69   10.30
  -4  -6   7  150.08   11.60
   4  -6  -7  158.18   11.10
  -4  -6   7  158.08   11.10
   4  -6  -7  156.58   11.10
  -4   6   7  139.39   10.80
   4   6  -7  164.98   11.40
   4   6  -7  140.49   11.00
  -3  -6   7  251.17   13.60
   3  -6  -7  265.57   14.40
  -3  -6   7  248.48   14.30
   3  -6  -7  248.38   13.40
   3   6  -7  221.28   12.10
   3   6  -7  238.88   13.80
   3   6  -7  257.47   15.10
  -3   6   7  240.58   13.10
   2  -6  -7  499.95   20.30
   2  -6  -7  516.65   21.30
  -2  -6   7  486.15   21.80
  -2  -6   7  519.15   20.80
   2   6  -7  504.15   18.90
   2   6  -7  477.95   21.90
   2   6  -7  496.55   21.30
  -1  -6   7  187.08   10.70
   1  -6  -7  195.08   10.70
   1  -6  -7  216.48   11.60
  -1  -6   7  221.78   12.80
   1  -6  -7  220.18   12.00
   1   6  -7  205.08   10.70
   1   6  -7  220.78   12.70
   1   6  -7  205.98   12.60
   0  -6  -7  157.48   10.20
   0  -6  -7  164.28    9.00
   0  -6   7  152.38    9.00
   0  -6  -7  163.28    9.20
   0  -6   7  146.69   10.90
   0   6  -7  170.28   10.10
   0   6  -7  171.98   11.80
   0   6  -7  169.58   11.00
   1  -6   7  111.99    8.70
  -1  -6  -7   97.59    6.40
  -1  -6  -7  106.89    7.20
  -1  -6  -7   96.09    8.10
  -1   6  -7  104.69    8.10
  -1   6  -7  119.69    9.30
  -1   6  -7  113.79    9.70
   2  -6   7   58.99    7.00
  -2  -6  -7   58.59    7.10
  -2  -6  -7   51.49    4.80
  -2   6  -7   47.60    6.40
  -2   6  -7   51.79    6.30
  -2   6  -7   53.89    6.90
  -3  -6  -7   28.50    5.80
  -3  -6  -7   30.00    3.60
  -3   6  -7   40.60    6.50
  -3   6  -7   24.90    5.30
  -3   6  -7   25.50    4.90
  -4  -6  -7   70.19    4.90
  -4  -6  -7   89.99    8.80
  -4   6  -7   87.59    8.80
  -4   6  -7   91.99    8.80
  -4   6  -7   83.89    9.10
  -4  -7   7  159.58   12.60
   4  -7  -7  161.98   11.40
   4  -7  -7  138.89   10.10
  -4  -7   7  162.18   13.50
   4   7  -7  161.48   12.00
   4   7  -7  154.08   11.10
   3  -7  -7   16.60    4.40
   3  -7  -7    8.80    3.30
  -3  -7   7   19.40    4.60
   3  -7  -7   15.30    4.20
  -3  -7   7   20.50    5.00
   3   7  -7   19.80    5.10
   3   7  -7   13.90    4.50
   2  -7  -7  128.89    9.80
   2  -7  -7  111.59    8.60
  -2  -7   7  125.69    8.90
   2  -7  -7  137.99   10.00
  -2  -7   7  109.89    9.70
   2   7  -7  118.79   10.70
   2   7  -7  131.89    9.60
  -1  -7   7  156.28   10.00
   1  -7  -7  163.18   10.80
  -1  -7   7  167.88   12.40
   1  -7  -7  177.08   11.10
   1  -7  -7  172.58    9.50
   1   7  -7  172.78   10.90
   1   7  -7  158.48   12.30
   1   7  -7  165.08    9.50
   0  -7   7  116.89    8.10
   0  -7   7  124.09    9.90
   0  -7  -7  122.39    8.50
   0  -7  -7  121.49    9.30
   0   7  -7  135.09   10.10
   0   7  -7  125.59   10.90
   1  -7   7  169.18   11.60
  -1  -7  -7  148.19   10.60
  -1  -7  -7  162.78    9.60
  -1   7  -7  194.08   11.90
  -1   7  -7  168.98   10.80
  -1   7  -7  159.28   11.70
  -2  -7  -7   18.00    3.30
  -2  -7  -7   19.30    4.50
   2  -7   7   13.10    4.00
  -2   7  -7   18.10    5.50
  -2   7  -7   16.10    4.70
  -2   7  -7   18.80    4.20
  -3  -7  -7  320.97   13.90
  -3   7  -7  307.07   16.80
  -3   7  -7  342.57   16.70
  -2  -8   7  168.78   12.50
  -2  -8   7  184.28   11.80
   2  -8  -7  182.18   11.50
   2   8  -7  163.88   11.90
  -1  -8   7  112.99    8.90
   1  -8  -7  128.39   12.20
  -1  -8   7  122.19   11.40
   1   8  -7  116.49    9.30
   0  -8   7   32.70    6.20
   0  -8  -7   21.20    4.30
   0   8  -7   35.90    6.40
   8   0  -8    6.30    4.50
   8   0  -8    2.10    3.90
  -8   0   8    0.80    2.80
  -7   0   8  219.48   14.10
   7   0  -8  187.98   12.00
   7   0  -8  202.38   13.70
   6   0  -8  117.89   10.20
   6   0  -8  117.59    8.90
  -6   0   8  128.19    9.90
   5   0  -8  171.88   11.70
   5   0  -8  168.68   10.40
  -5   0   8  179.98   11.70
  -4   0   8  267.37   13.70
   4   0  -8  283.77   12.70
   4   0  -8  270.07   13.60
   4   0  -8  270.97   14.10
   3   0  -8   91.39    7.00
   3   0  -8   89.79    7.00
  -3   0   8   83.19    6.70
   3   0  -8   92.29    6.80
   3   0  -8   85.59    6.80
   2   0  -8  200.88    9.70
   2   0  -8  202.18   10.50
   2   0  -8  191.48   10.10
   2   0  -8  207.78   10.50
  -2   0   8  215.48   10.60
   1   0  -8  311.47    9.00
   1   0  -8  291.27   12.60
   1   0  -8  299.27   12.70
   1   0  -8  291.87   13.40
   1   0  -8  318.37   12.80
  -1   0   8  290.97   12.30
   0   0  -8 1115.49   36.10
   0   0  -8 1207.78   36.20
   0   0  -8 1186.08   38.30
   0   0   8 1185.18   35.80
   0   0   8 1126.99   35.30
   0   0  -8 1163.28   37.20
   0   0  -8 1186.08   34.60
  -1   0  -8  145.59    6.80
  -1   0  -8  152.68    7.20
  -1   0  -8  157.78    8.70
   1   0   8  159.48    6.00
  -1   0  -8  160.78    6.90
  -1   0  -8  168.58    9.50
  -2   0  -8    3.00    2.00
  -2   0  -8    2.40    1.00
  -2   0  -8    4.20    2.10
  -2   0  -8    4.40    2.00
  -2   0  -8    2.00    1.00
  -3   0  -8  454.35   18.20
  -3   0  -8  471.45   14.50
  -3   0  -8  453.85   18.90
  -3   0  -8  464.55   14.50
  -4   0  -8   -4.50    1.70
  -4   0  -8   -0.80    1.00
  -4   0  -8   -0.10    0.60
  -4   0  -8    0.10    1.60
  -5   0  -8   33.30    5.30
  -5   0  -8   50.39    6.90
  -5   0  -8   42.70    4.20
  -5   0  -8   38.00    2.50
  -6   0  -8  153.88   11.80
  -6   0  -8  180.68   11.80
   8  -1  -8   98.79   10.70
   8   1  -8   73.89    9.30
  -8   1   8   86.29    9.70
   8   1  -8   85.79    8.40
   7  -1  -8  120.49   11.00
   7  -1  -8  124.49    9.90
  -7  -1   8  127.89   10.50
  -7   1   8  117.59   10.10
   7   1  -8  127.29   11.10
   7   1  -8  134.19    9.50
   6  -1  -8  150.68   10.80
   6  -1  -8  154.88   10.90
  -6  -1   8  133.39   10.80
  -6   1   8  127.99   10.10
   6   1  -8  139.69   10.50
   6   1  -8  150.08    9.80
   5  -1  -8  334.07   16.50
  -5  -1   8  338.07   12.20
  -5  -1   8  370.26   17.80
   5  -1  -8  377.96   17.70
   5   1  -8  359.56   17.60
  -5   1   8  335.67   16.80
   5   1  -8  379.46   16.60
  -4  -1   8   75.49    4.20
   4  -1  -8   78.29    6.90
  -4  -1   8   68.39    3.40
  -4  -1   8   75.39    7.70
   4  -1  -8   61.19    6.90
  -4   1   8   77.19    7.30
   4   1  -8   68.79    6.70
   4   1  -8   83.09    7.20
   4   1  -8   74.49    6.50
  -3  -1   8  197.28    6.40
   3  -1  -8  184.58   10.50
  -3  -1   8  204.38   10.90
   3  -1  -8  180.08   10.40
   3  -1  -8  195.38    9.30
   3  -1  -8  188.28   10.90
  -3   1   8  224.68   10.80
   3   1  -8  193.68   11.00
   3   1  -8  204.38   10.40
  -3   1   8  192.08   10.50
   3   1  -8  195.38   10.40
  -2  -1   8  437.26   17.40
  -2  -1   8  433.76   13.00
   2  -1  -8  472.75   17.70
   2  -1  -8  440.86   17.40
   2  -1  -8  434.26   15.90
   2  -1  -8  452.95   17.80
  -2   1   8  416.06   16.80
   2   1  -8  416.96   16.90
  -2   1   8  416.76   15.80
   2   1  -8  439.86   17.50
   2   1  -8  413.66   17.20
   2   1  -8  411.06   17.40
  -1  -1   8   67.49    5.20
   1  -1  -8   70.99    5.40
  -1  -1   8   68.19    3.50
   1  -1  -8   80.09    5.40
   1  -1  -8   79.79    6.70
   1  -1  -8   76.89    5.60
   1   1  -8   73.59    5.80
   1   1  -8   64.69    5.20
  -1   1   8   79.09    5.00
   1   1  -8   63.59    5.50
  -1   1   8   73.09    5.10
   1   1  -8   76.99    6.70
   1   1  -8   70.59    3.50
   0  -1   8   53.09    4.40
   0  -1  -8   54.99    3.30
   0  -1  -8   58.09    4.30
   0  -1  -8   62.39    4.90
   0  -1  -8   60.79    4.20
   0  -1  -8   52.79    5.40
   0  -1   8   64.59    4.00
   0   1   8   63.59    3.80
   0   1  -8   52.19    5.20
   0   1  -8   54.59    4.70
   0   1  -8   58.39    4.70
   0   1  -8   66.49    5.70
   0   1  -8   71.39    4.00
  -1  -1  -8  222.68    9.40
  -1  -1  -8  217.28    8.50
  -1  -1  -8  241.28   11.60
   1  -1   8  235.98    9.30
  -1  -1  -8  233.28    8.40
   1  -1   8  242.58   10.20
  -1  -1  -8  223.18   10.20
  -1   1  -8  216.48    9.60
  -1   1  -8  233.18    9.70
  -1   1  -8  218.68   11.40
  -1   1  -8  235.58    9.70
  -1   1  -8  227.58   11.20
  -2  -1  -8  313.77   12.90
   2  -1   8  317.67   10.90
  -2  -1  -8  325.67   13.70
  -2  -1  -8  311.77    9.40
   2  -1   8  302.27   10.90
  -2  -1  -8  320.87    9.50
  -2  -1  -8  305.57   13.80
  -2   1  -8  313.07   13.00
  -2   1  -8  324.57   11.90
  -2   1  -8  310.27   11.80
  -2   1  -8  315.37   14.50
   3  -1   8  161.98    5.70
  -3  -1  -8  168.28    9.10
  -3  -1  -8  151.98    9.10
  -3  -1  -8  162.28    9.50
  -3   1  -8  159.18    9.20
  -3   1  -8  162.78    7.30
  -3   1  -8  158.38    7.10
  -3   1  -8  158.68   10.10
  -4  -1  -8   62.49    6.60
  -4  -1  -8   68.19    7.20
  -4  -1  -8   63.39    5.40
  -4   1  -8   64.59    4.20
  -4   1  -8   72.79    7.20
  -4   1  -8   67.09    4.50
  -4   1  -8   63.09    7.00
  -5  -1  -8   68.09    7.30
  -5  -1  -8   65.69    5.50
  -5  -1  -8   65.99    7.10
  -5   1  -8   65.59    7.20
  -5   1  -8   49.80    6.70
  -5   1  -8   64.29    4.40
  -6  -1  -8  168.08   11.70
  -6   1  -8  172.28   11.40
  -6   1  -8  180.38   12.10
  -6   1  -8  171.48    8.20
   7  -2  -8  181.98   12.30
  -7  -2   8  169.18   12.50
   7  -2  -8  192.28   12.90
   7   2  -8  179.58   11.40
  -7   2   8  172.48   13.00
   7   2  -8  199.28   13.70
   6  -2  -8   21.60    4.60
   6  -2  -8   24.50    5.10
  -6  -2   8   14.40    4.20
   6   2  -8   11.50    4.00
   6   2  -8   23.70    5.00
  -6   2   8   21.70    4.70
   5  -2  -8    5.40    3.90
   5  -2  -8    3.50    2.80
  -5  -2   8    0.60    2.30
   5   2  -8    6.70    3.80
  -5   2   8    7.10    3.90
   5   2  -8   10.10    3.70
   5   2  -8    4.20    3.00
  -4  -2   8    1.10    3.00
   4  -2  -8    3.10    2.50
   4  -2  -8    1.70    2.40
   4   2  -8   -0.40    2.70
   4   2  -8   -0.60    2.20
   4   2  -8   -1.30    1.90
  -4   2   8    0.40    2.80
   3  -2  -8  526.55   20.40
   3  -2  -8  442.66   19.30
  -3  -2   8  487.55   16.00
   3  -2  -8  493.85   20.10
  -3  -2   8  505.85   20.20
   3  -2  -8  491.35   17.30
  -3   2   8  485.55   19.50
  -3   2   8  491.65   17.20
   3   2  -8  491.05   19.10
   3   2  -8  468.15   19.30
   3   2  -8  493.45   20.20
   2  -2  -8  364.06   13.40
   2  -2  -8  380.16   15.50
  -2  -2   8  374.66   15.70
  -2  -2   8  361.36   12.40
   2  -2  -8  335.07   15.10
   2  -2  -8  352.26   15.50
   2   2  -8  374.16   15.90
   2   2  -8  339.17   15.30
   2   2  -8  343.27   15.10
  -2   2   8  377.86   15.10
   2   2  -8  378.66   16.20
  -2   2   8  373.56   13.30
   1  -2  -8 1417.66   43.10
   1  -2  -8 1391.76   39.40
   1  -2  -8 1398.06   44.20
  -1  -2   8 1401.96   44.00
  -1  -2   8 1410.16   41.20
   1  -2  -8 1401.96   43.20
   1  -2  -8 1324.07   39.40
   1  -2  -8 1406.66   41.60
   1   2  -8 1387.46   41.10
   1   2  -8 1320.77   43.80
   1   2  -8 1360.46   44.20
  -1   2   8 1413.26   41.60
  -1   2   8 1337.17   42.10
   1   2  -8 1365.96   44.20
   1   2  -8 1337.47   43.80
   0  -2  -8  126.79    5.90
   0  -2   8  122.29    7.40
   0  -2  -8  136.39    6.60
   0  -2  -8  137.09    6.70
   0  -2  -8  133.09    8.30
   0  -2  -8  123.79    6.60
   0  -2   8  127.89    6.50
   0   2  -8  137.49    8.40
   0   2  -8  136.89    6.80
   0   2  -8  142.99    7.80
   0   2  -8  123.69    7.50
   0   2  -8  130.29    8.30
   0   2   8  136.79    5.90
  -1  -2  -8  398.66   13.10
  -1  -2  -8  379.66   12.90
  -1  -2  -8  376.66   14.40
   1  -2   8  393.26   15.00
  -1  -2  -8  366.16   15.90
   1  -2   8  371.76   14.80
  -1  -2  -8  410.46   15.00
  -1   2  -8  424.86   15.60
  -1   2  -8  383.16   16.70
  -1   2  -8  466.15   17.00
  -1   2  -8  392.16   15.40
  -1   2  -8  389.26   15.00
   2  -2   8  578.24   19.50
  -2  -2  -8  537.45   20.20
  -2  -2  -8  556.44   20.50
  -2  -2  -8  557.34   21.10
  -2   2  -8  563.44   20.00
  -2   2  -8  581.94   20.80
  -2   2  -8  571.84   22.30
  -2   2  -8  576.14   20.10
  -2   2  -8  593.14   19.80
  -3  -2  -8   81.69    6.60
  -3  -2  -8   87.29    6.30
  -3  -2  -8   79.79    6.40
  -3  -2  -8   83.69    6.20
  -3   2  -8   73.39    6.40
  -3   2  -8   65.79    6.90
  -3   2  -8   79.79    5.30
  -3   2  -8   77.69    5.60
  -4  -2  -8   81.19    7.70
  -4  -2  -8   71.89    6.40
  -4  -2  -8   87.59    6.70
  -4  -2  -8   80.39    7.10
  -4   2  -8   88.69    7.70
  -4   2  -8   75.39    6.70
  -4   2  -8   84.59    5.80
  -5  -2  -8  160.88   10.30
  -5  -2  -8  159.18    9.30
  -5   2  -8  146.59   10.70
  -5   2  -8  154.88    8.40
  -5   2  -8  156.48   10.30
  -6  -2  -8   67.79    7.90
  -6  -2  -8   92.69   10.70
  -6   2  -8   77.19    8.40
  -6   2  -8   74.09    5.90
  -6   2  -8   79.39    8.80
   7  -3  -8   97.59   10.60
   7  -3  -8   78.79    9.50
  -7  -3   8   94.69   10.60
  -7   3   8  102.49    9.60
   7   3  -8  102.69    8.30
   7   3  -8   87.79    9.60
  -6  -3   8  292.47   16.50
   6  -3  -8  322.77   17.40
   6  -3  -8  310.87   16.60
   6   3  -8  319.77   14.50
  -6   3   8  302.17   16.50
   6   3  -8  291.57   16.50
   5  -3  -8    8.70    4.20
  -5  -3   8   12.50    4.10
   5  -3  -8    2.20    2.90
  -5   3   8   10.70    3.60
   5   3  -8   15.60    4.80
   5   3  -8   13.70    3.20
   5   3  -8   14.20    4.00
   4  -3  -8  240.38   13.60
  -4  -3   8  240.78   13.60
   4  -3  -8  225.78   13.10
   4   3  -8  280.47   14.40
   4   3  -8  248.18   12.40
  -4   3   8  276.37   14.10
   4   3  -8  263.57   13.80
  -3  -3   8 1493.25   44.40
   3  -3  -8 1371.96   47.40
   3  -3  -8 1525.45   48.50
   3  -3  -8 1419.66   47.60
  -3  -3   8 1444.66   48.40
   3   3  -8 1456.65   48.40
   3   3  -8 1485.15   46.60
  -3   3   8 1515.15   47.60
   3   3  -8 1486.55   47.80
  -2  -3   8   47.80    3.80
   2  -3  -8   53.99    5.80
   2  -3  -8   41.10    5.40
   2  -3  -8   28.00    4.30
   2  -3  -8   43.80    2.50
  -2  -3   8   42.90    5.30
   2  -3  -8   43.60    3.10
   2   3  -8   44.40    5.00
  -2   3   8   47.30    3.20
   2   3  -8   46.70    5.80
  -2   3   8   47.20    4.90
   2   3  -8   39.80    5.10
   1  -3  -8  259.57   11.70
   1  -3  -8  247.68   12.20
   1  -3  -8  239.18   11.00
   1  -3  -8  255.67    9.10
   1  -3  -8  259.77    9.30
  -1  -3   8  252.77   10.40
  -1  -3   8  245.38   12.10
   1   3  -8  249.88   10.50
   1   3  -8  229.48   12.10
   1   3  -8  244.28   12.60
   1   3  -8  259.97   12.70
  -1   3   8  246.78   10.70
   1   3  -8  234.08   11.80
   0  -3  -8  304.27   11.80
   0  -3   8  298.47   12.50
   0  -3  -8  308.07   13.60
   0  -3   8  293.47   13.20
   0  -3  -8  290.47   11.00
   0  -3  -8  313.27   12.30
   0   3  -8  320.37   13.90
   0   3  -8  295.47   14.30
   0   3  -8  302.57   12.30
   0   3  -8  306.27   14.20
   0   3  -8  300.77   13.90
  -1  -3  -8    9.80    2.20
  -1  -3  -8    9.90    2.50
   1  -3   8    7.40    2.20
  -1  -3  -8    6.20    1.50
  -1  -3  -8    9.30    1.60
  -1   3  -8    4.50    2.60
  -1   3  -8    4.40    2.00
  -1   3  -8    5.70    2.60
  -1   3  -8    0.70    2.20
  -2  -3  -8  101.49    6.30
  -2  -3  -8   98.59    3.70
  -2  -3  -8   87.49    6.40
   2  -3   8   95.29    6.50
  -2  -3  -8  102.79    3.80
  -2   3  -8  101.29    6.90
  -2   3  -8   98.09    7.20
  -2   3  -8  100.49    7.70
  -2   3  -8  104.99    5.90
  -2   3  -8  103.59    8.50
  -3  -3  -8   61.99    5.20
  -3  -3  -8   59.09    5.10
  -3  -3  -8   62.29    6.20
  -3   3  -8   66.19    7.30
  -3   3  -8   58.59    6.20
  -3   3  -8   71.09    6.00
  -4  -3  -8  164.08    8.80
  -4  -3  -8  170.68   10.10
  -4   3  -8  152.58   10.40
  -4   3  -8  153.78    9.10
  -4   3  -8  149.69    9.80
  -5  -3  -8  386.56   16.10
  -5  -3  -8  374.16   18.00
  -5  -3  -8  381.36   16.90
  -5   3  -8  371.56   18.40
  -5   3  -8  381.46   16.30
  -5   3  -8  419.86   19.00
  -6  -3  -8   93.39    7.30
  -6  -3  -8  106.19   10.10
  -6   3  -8   99.99    7.20
  -6   3  -8   89.19    9.20
   7   4  -8   96.59   10.50
  -7   4   8  103.09   11.10
   6  -4  -8   47.90    7.70
  -6  -4   8   62.59    8.00
   6  -4  -8   62.69    8.30
   6   4  -8   58.49    7.80
   6   4  -8   69.39    7.30
  -6   4   8   59.79    8.40
  -5  -4   8  126.49   10.00
   5  -4  -8  124.19    9.70
   5  -4  -8  113.89    9.70
  -5  -4   8  139.99   10.20
   5   4  -8  121.49   10.10
   5   4  -8  138.69    8.70
   5   4  -8  129.19   10.30
  -5   4   8  129.09    9.90
  -4  -4   8  287.17   15.70
   4  -4  -8  291.27   15.40
   4  -4  -8  290.67   14.80
  -4  -4   8  274.87   14.60
   4   4  -8  275.47   13.20
   4   4  -8  297.77   15.30
   4   4  -8  297.77   15.60
  -4   4   8  286.97   14.70
  -3  -4   8  112.89    9.20
   3  -4  -8  115.39    8.50
   3  -4  -8  106.79    8.20
   3   4  -8  124.29    7.70
   3   4  -8   99.89    9.10
  -3   4   8  109.49    7.90
   3   4  -8  114.49    9.10
   2  -4  -8  406.86   17.70
   2  -4  -8  460.95   20.10
   2  -4  -8  426.06   17.80
  -2  -4   8  423.16   18.60
  -2   4   8  408.86   17.00
   2   4  -8  408.56   18.20
   2   4  -8  438.96   19.00
   2   4  -8  440.46   17.40
   1  -4  -8  112.09    8.50
   1  -4  -8  103.29    5.60
  -1  -4   8  101.99    7.60
   1  -4  -8   81.29    7.20
   1  -4  -8   97.99    6.90
   1   4  -8  100.39    8.50
   1   4  -8  113.59    7.50
   1   4  -8  120.69    9.00
  -1   4   8  105.99    6.60
   0  -4  -8  220.88   11.10
   0  -4  -8  223.08    9.90
   0  -4  -8  228.78    7.90
   0  -4   8  225.48   11.70
   0  -4  -8  239.88    9.90
   0   4  -8  214.08   10.70
   0   4  -8  215.18   11.80
   0   4  -8  208.88   11.70
   0   4  -8  213.78   11.80
  -1  -4  -8  333.87   11.80
  -1  -4  -8  322.37   12.20
   1  -4   8  315.87   14.70
  -1  -4  -8  328.87   13.90
  -1   4  -8  321.27   15.30
  -1   4  -8  317.27   14.90
  -1   4  -8  355.26   15.40
  -1   4  -8  333.87   14.50
  -2  -4  -8 1252.37   41.70
  -2  -4  -8 1268.77   36.90
  -2  -4  -8 1231.88   38.40
   2  -4   8 1241.38   40.80
  -2  -4  -8 1274.07   40.00
  -2   4  -8 1193.18   41.20
  -2   4  -8 1243.18   41.20
  -2   4  -8 1274.17   42.60
  -3  -4  -8    8.50    2.60
  -3  -4  -8    9.80    2.60
  -3  -4  -8    8.80    3.60
  -3   4  -8    9.40    3.40
  -3   4  -8   11.40    4.50
  -3   4  -8    4.80    2.40
  -4  -4  -8   65.49    5.60
  -4  -4  -8   72.59    7.10
  -4   4  -8   70.39    7.90
  -4   4  -8   70.79    7.80
  -4   4  -8   77.19    7.10
  -5  -4  -8  239.18   13.30
  -5   4  -8  230.58   13.60
  -5   4  -8  256.97   13.40
  -5   4  -8  247.58   14.90
  -6  -5   8  230.58   14.90
   6   5  -8  226.68   14.70
  -6   5   8  252.37   15.60
  -5  -5   8   83.89    8.50
  -5  -5   8   93.29    8.80
   5  -5  -8   97.99    9.00
   5  -5  -8   73.39    8.20
   5   5  -8   86.39    9.10
  -5   5   8   91.39    9.30
   5   5  -8   84.59    9.30
  -4  -5   8   88.29    9.40
   4  -5  -8  109.29    8.60
   4  -5  -8   96.19    9.10
  -4  -5   8  108.19    8.50
  -4   5   8   89.89    8.40
   4   5  -8   95.49    8.50
   4   5  -8  101.09    7.20
   4   5  -8   94.59    8.80
   3  -5  -8  230.58   13.30
   3  -5  -8  231.48   13.10
  -3  -5   8  215.08   12.20
  -3  -5   8  226.98   13.80
   3   5  -8  231.78   13.10
  -3   5   8  227.38   12.70
   3   5  -8  255.47   14.60
   3   5  -8  245.38   11.70
   2  -5  -8  165.28   10.30
  -2  -5   8  158.58   10.50
   2  -5  -8  150.88    9.90
  -2  -5   8  150.58    9.40
   2   5  -8  151.18   11.10
   2   5  -8  158.58   10.20
   2   5  -8  152.88    9.20
   1  -5  -8   11.20    2.90
  -1  -5   8   12.20    3.50
   1  -5  -8    5.90    2.90
   1   5  -8   10.50    3.40
   1   5  -8    5.40    3.70
   1   5  -8    6.30    3.10
   0  -5  -8  187.68    9.40
   0  -5  -8  185.48    9.90
   0  -5   8  164.58   10.80
   0   5  -8  172.88    9.80
   0   5  -8  169.48   10.00
   0   5  -8  187.88   11.80
   0   5  -8  170.78   11.30
  -1  -5  -8    7.00    3.70
   1  -5   8    8.80    2.90
  -1  -5  -8   12.60    3.00
  -1  -5  -8    7.30    2.10
  -1   5  -8   12.30    3.80
  -1   5  -8   12.00    4.00
  -1   5  -8   11.00    3.50
  -2  -5  -8  110.09    9.00
  -2  -5  -8  105.29    5.80
  -2  -5  -8  105.49    6.80
  -2   5  -8   98.19    9.30
  -2   5  -8  101.59    7.80
  -2   5  -8  115.99    9.20
  -3  -5  -8   75.59    7.80
  -3  -5  -8   65.99    3.70
  -3   5  -8   68.19    7.30
  -3   5  -8   55.19    6.90
  -3   5  -8   69.79    7.40
  -4  -5  -8  354.56   17.40
  -4   5  -8  374.06   17.60
  -4   5  -8  341.87   16.80
  -4   5  -8  369.46   18.30
  -5  -5  -8  213.38   13.20
   5  -6  -8   81.29    8.60
  -5  -6   8   83.69    9.70
   5   6  -8   75.79    9.00
  -4  -6   8   47.70    7.00
  -4  -6   8   50.99    6.90
   4  -6  -8   44.20    6.70
   4  -6  -8   42.10    7.10
   4   6  -8   52.99    8.10
   4   6  -8   52.99    7.40
  -3  -6   8  177.18   11.00
   3  -6  -8  171.78   11.30
   3  -6  -8  165.98   11.20
  -3  -6   8  191.68   12.50
   3   6  -8  173.98   12.70
   3   6  -8  186.78   12.40
   3   6  -8  203.78   14.30
  -2  -6   8   90.29    8.20
   2  -6  -8   83.89    7.30
  -2  -6   8  101.89    9.20
   2  -6  -8   87.89    7.70
   2   6  -8   78.69    6.80
   2   6  -8   73.19    8.70
   2   6  -8   75.69    8.00
   1  -6  -8  310.77   14.30
   1  -6  -8  299.77   14.10
   1  -6  -8  316.97   15.30
  -1  -6   8  291.67   15.50
  -1  -6   8  304.37   14.20
   1   6  -8  276.67   15.60
   1   6  -8  289.77   13.80
   1   6  -8  275.87   14.80
   0  -6  -8  368.16   15.70
   0  -6  -8  368.26   15.90
   0  -6  -8  329.17   16.90
   0  -6   8  377.16   18.20
   0   6  -8  376.16   16.80
   0   6  -8  400.26   18.40
   0   6  -8  385.96   16.60
   0   6  -8  373.26   18.20
  -1  -6  -8  171.58   10.20
  -1  -6  -8  181.58    9.50
  -1  -6  -8  185.28   11.90
   1  -6   8  168.78   11.10
  -1   6  -8  178.78   12.20
  -1   6  -8  172.98   11.20
  -1   6  -8  199.38   11.60
  -2  -6  -8   36.70    4.00
  -2  -6  -8   41.70    6.40
  -2   6  -8   31.90    5.20
  -2   6  -8   49.30    6.70
  -2   6  -8   40.10    6.00
  -3  -6  -8  123.49    6.60
  -3  -6  -8  113.29   10.00
  -3   6  -8  125.89   10.20
  -3   6  -8  123.49    9.70
  -3   6  -8  145.59   11.00
  -3  -7   8   26.30    4.80
   3  -7  -8   40.30    5.70
  -3  -7   8   26.60    5.60
   3  -7  -8   20.50    5.10
   3   7  -8   22.50    5.00
   3   7  -8   31.40    6.10
   2  -7  -8  239.18   13.00
  -2  -7   8  221.98   13.00
   2  -7  -8  232.18   13.90
  -2  -7   8  244.48   15.30
   2  -7  -8  244.88   13.50
   2   7  -8  249.48   15.10
   2   7  -8  248.58   14.40
   1  -7  -8   78.99    6.50
  -1  -7   8   72.89    7.30
   1  -7  -8   71.59    7.40
  -1  -7   8   72.59    8.70
   1  -7  -8   66.09    7.70
   1   7  -8  100.59    8.50
   1   7  -8   79.09    6.40
   1   7  -8   81.49    9.00
   0  -7  -8   25.20    4.70
   0  -7   8   37.50    6.10
   0  -7  -8   37.30    5.70
   0   7  -8   39.10    6.50
   0   7  -8   30.00    5.80
   0   7  -8   29.00    5.10
   1  -7   8  151.88   17.20
  -1  -7  -8  152.88   11.00
  -1  -7  -8  146.89    8.80
  -1   7  -8  144.59   10.50
  -1   7  -8  147.79   12.10
  -1   7  -8  128.39   10.30
  -2  -7  -8   66.39    5.80
  -2   7  -8   72.79    8.30
  -2   7  -8   59.19    7.70
  -7   0   9    6.40    3.40
   7   0  -9    3.40    4.20
   7   0  -9    1.60    3.10
   6   0  -9   -2.70    3.40
   6   0  -9    2.60    2.80
  -6   0   9   -0.30    3.40
   5   0  -9  513.65   22.60
  -5   0   9  501.75   22.00
   5   0  -9  516.95   21.50
  -4   0   9    6.10    2.70
   4   0  -9   12.00    3.50
   4   0  -9    6.40    2.60
   4   0  -9    4.20    3.20
   3   0  -9   -1.30    2.40
   3   0  -9   -0.70    2.50
  -3   0   9    0.00    1.70
   3   0  -9    3.30    3.20
   3   0  -9    2.40    3.40
   2   0  -9   58.59    5.20
  -2   0   9   52.19    5.60
   2   0  -9   51.69    5.50
   2   0  -9   67.69    5.70
   2   0  -9   59.09    6.20
   1   0  -9  385.86   15.90
  -1   0   9  390.86   15.50
   1   0  -9  418.36   16.00
   1   0  -9  410.06   17.40
   1   0  -9  402.16   15.90
   0   0   9  192.08    8.50
   0   0  -9  209.18   11.30
   0   0  -9  197.68   10.20
   0   0  -9  195.88    9.00
   0   0  -9  195.08    9.10
   0   0  -9  194.18    7.50
   1   0   9    0.80    0.80
  -1   0  -9    1.80    2.40
  -1   0  -9    1.20    1.20
  -1   0  -9    2.10    1.20
  -1   0  -9    2.40    1.40
   1   0   9    0.50    0.90
  -1   0  -9   -2.70    1.30
  -2   0  -9  120.49    7.10
  -2   0  -9  123.99    5.40
  -2   0  -9  123.89    8.80
  -2   0  -9  113.79    7.80
  -2   0  -9  119.79    5.40
  -3   0  -9    0.40    2.10
  -3   0  -9   -1.00    1.80
  -3   0  -9    1.70    0.80
  -4   0  -9  131.79    9.00
  -4   0  -9  131.29    7.50
  -4   0  -9  140.09   10.00
  -5   0  -9 1006.20   37.10
  -5   0  -9 1047.90   36.80
  -6   0  -9   11.90    4.70
  -6   0  -9    8.30    3.30
  -7  -1   9   14.20    5.30
   7  -1  -9   21.60    6.00
   7  -1  -9   28.00    6.40
   7   1  -9   26.70    5.40
  -7   1   9   20.90    5.20
   7   1  -9   27.90    6.50
  -6  -1   9  184.58   12.30
   6  -1  -9  184.78   12.40
   6  -1  -9  179.68   11.70
  -6   1   9  176.98   12.00
   6   1  -9  175.98   12.20
   6   1  -9  187.98   12.00
  -5  -1   9   41.20    6.30
   5  -1  -9   49.60    6.90
   5  -1  -9   51.49    7.10
   5   1  -9   43.90    5.60
   5   1  -9   44.60    6.30
   5   1  -9   56.49    7.00
  -5   1   9   52.09    7.00
   4  -1  -9  415.96   18.60
   4  -1  -9  423.36   18.70
   4  -1  -9  413.96   16.70
  -4  -1   9  390.86   18.60
   4   1  -9  447.36   19.50
   4   1  -9  434.06   18.20
  -4   1   9  427.76   18.60
   4   1  -9  395.66   17.70
   3  -1  -9  554.84   22.40
   3  -1  -9  653.03   23.60
   3  -1  -9  566.04   22.70
   3  -1  -9  569.84   20.70
  -3  -1   9  582.54   22.70
  -3   1   9  576.14   22.40
   3   1  -9  553.64   22.60
   3   1  -9  592.94   22.20
   3   1  -9  548.85   22.30
   2  -1  -9   97.59    8.00
   2  -1  -9   94.69    7.00
   2  -1  -9  101.19    6.60
  -2  -1   9   99.09    7.30
   2  -1  -9  104.29    7.10
   2   1  -9  105.69    7.70
  -2   1   9  104.59    6.80
   2   1  -9  116.49    7.90
   2   1  -9   97.19    7.10
   2   1  -9   94.89    7.30
   1  -1  -9   35.50    5.20
  -1  -1   9   32.80    4.00
   1  -1  -9   32.30    3.80
   1  -1  -9   24.60    3.60
   1  -1  -9   29.00    4.00
   1   1  -9   32.10    4.40
   1   1  -9   40.60    4.60
   1   1  -9   38.90    5.00
   1   1  -9   29.00    4.90
  -1   1   9   37.50    4.00
   1   1  -9   35.30    2.30
   0  -1  -9  566.84   17.40
   0  -1  -9  574.74   19.00
   0  -1   9  532.45   19.20
   0  -1  -9  547.35   21.40
   0  -1  -9  534.55   19.70
   0  -1  -9  530.45   18.90
   0   1  -9  523.75   20.60
   0   1  -9  563.64   19.70
   0   1  -9  540.65   17.90
   0   1  -9  539.85   19.70
   0   1  -9  537.85   21.30
  -1  -1  -9  149.59    8.20
  -1  -1  -9  158.98    7.30
  -1  -1  -9  160.08    6.60
  -1  -1  -9  147.99    9.40
  -1  -1  -9  148.69    6.50
   1  -1   9  138.39    6.80
  -1   1  -9  144.39    7.40
  -1   1  -9  150.98    9.90
  -1   1  -9  143.09    7.30
  -1   1  -9  160.08    7.80
  -1   1  -9  146.29    9.40
  -2  -1  -9   85.69    6.40
  -2  -1  -9   86.49    3.40
  -2  -1  -9   87.69    3.40
  -2  -1  -9   91.79    5.90
  -2  -1  -9   99.59    7.70
  -2   1  -9   86.49    6.10
  -2   1  -9   87.69    6.00
  -2   1  -9   85.89    7.60
  -2   1  -9   93.89    8.20
  -2   1  -9   92.89    5.40
  -3  -1  -9  383.16   16.60
  -3  -1  -9  385.66   16.00
  -3  -1  -9  368.76   16.70
  -3   1  -9  385.96   17.40
  -3   1  -9  391.06   16.00
  -3   1  -9  370.56   13.60
  -4  -1  -9  202.58   11.70
  -4  -1  -9  183.88   11.20
  -4  -1  -9  215.88   10.60
  -4  -1  -9  206.88   11.50
  -4   1  -9  206.48    9.20
  -4   1  -9  214.88   11.50
  -4   1  -9  231.98   12.60
  -4   1  -9  207.78    8.50
  -5  -1  -9   60.69    5.10
  -5  -1  -9   64.49    7.60
  -5  -1  -9   61.29    6.90
  -5   1  -9   60.59    7.20
  -5   1  -9   63.59    7.60
  -6  -1  -9   34.60    6.10
  -6  -1  -9   41.10    7.10
  -6   1  -9   39.10    6.00
  -7  -2   9  269.87   16.30
   7  -2  -9  279.37   16.40
   7  -2  -9  261.37   17.30
  -7   2   9  300.47   17.20
   7   2  -9  292.47   14.80
   7   2  -9  270.57   16.80
   6  -2  -9   29.60    6.10
  -6  -2   9   35.50    6.50
   6  -2  -9   28.80    5.80
  -6   2   9   44.60    6.80
   6   2  -9   37.90    5.40
   6   2  -9   31.80    6.00
  -5  -2   9  163.48   11.50
   5  -2  -9  137.69   10.70
   5  -2  -9  154.18   11.20
   5   2  -9  155.08   11.60
   5   2  -9  143.39   10.50
  -5   2   9  162.38   11.20
   5   2  -9  142.39    9.90
   4  -2  -9  441.46   19.60
  -4  -2   9  482.15   20.70
   4  -2  -9  487.65   20.40
   4   2  -9  437.26   19.40
  -4   2   9  464.25   20.00
   4   2  -9  444.46   20.00
   4   2  -9  434.46   18.90
   3  -2  -9   51.29    6.30
   3  -2  -9   52.19    6.40
  -3  -2   9   52.29    6.30
   3  -2  -9   48.30    6.00
   3  -2  -9   48.40    4.50
  -3   2   9   49.60    4.60
   3   2  -9   53.49    6.40
   3   2  -9   49.80    5.60
  -3   2   9   58.89    6.40
   3   2  -9   44.00    5.90
   2  -2  -9  140.99    9.70
  -2  -2   9  157.98    9.70
   2  -2  -9  159.48    9.40
   2  -2  -9  181.38    9.90
   2  -2  -9  156.98    7.70
   2   2  -9  152.48    9.50
   2   2  -9  148.99    9.40
   2   2  -9  146.29    9.20
  -2   2   9  149.79    7.50
   2   2  -9  169.18    9.80
  -2   2   9  138.89    8.20
   1  -2  -9  511.55   20.60
   1  -2  -9  526.05   19.30
  -1  -2   9  497.15   17.10
   1  -2  -9  519.75   15.20
  -1  -2   9  536.75   20.10
   1  -2  -9  502.15   19.00
   1  -2  -9  521.35   15.20
   1  -2  -9  514.55   18.10
   1   2  -9  511.05   17.20
   1   2  -9  506.85   20.00
   1   2  -9  512.25   20.40
   1   2  -9  524.65   20.80
   1   2  -9  535.95   20.30
  -1   2   9  548.95   18.60
   0  -2  -9  279.57   10.00
   0  -2  -9  273.07   10.90
   0  -2   9  262.87   10.80
   0  -2  -9  260.17   12.70
   0  -2  -9  284.57   11.10
   0  -2  -9  256.07   11.10
   0  -2   9  268.47   12.00
   0   2   9  256.57    9.70
   0   2  -9  272.37   12.40
   0   2  -9  276.67   13.20
   0   2  -9  250.57   12.10
   0   2  -9  267.67   13.50
   0   2  -9  270.77   10.80
  -1  -2  -9 1250.47   38.20
   1  -2   9 1254.67   38.80
  -1  -2  -9 1217.88   36.60
  -1  -2  -9 1228.68   38.90
  -1  -2  -9 1216.28   40.50
  -1  -2  -9 1260.47   36.70
  -1   2  -9 1235.58   41.20
  -1   2  -9 1221.88   38.80
  -1   2  -9 1196.68   39.30
  -1   2  -9 1285.37   39.60
  -1   2  -9 1213.38   41.20
  -2  -2  -9  556.34   21.50
  -2  -2  -9  540.45   20.30
  -2  -2  -9  580.84   20.90
  -2   2  -9  558.44   20.20
  -2   2  -9  566.14   20.80
  -2   2  -9  574.34   22.50
  -3  -2  -9  198.38   10.70
  -3  -2  -9  177.18   10.20
  -3  -2  -9  201.98   10.70
  -3  -2  -9  196.38   10.70
  -3   2  -9  211.38   11.10
  -3   2  -9  209.48    9.60
  -3   2  -9  208.78   12.00
  -4  -2  -9  244.28   13.00
  -4  -2  -9  235.08   12.40
  -4  -2  -9  238.68   12.60
  -4  -2  -9  242.48   12.10
  -4   2  -9  256.37   13.00
  -4   2  -9  258.87   11.10
  -4   2  -9  271.37   14.70
  -5  -2  -9   40.80    6.20
  -5  -2  -9   44.60    5.50
  -5  -2  -9   51.39    5.60
  -5  -2  -9   54.29    6.90
  -5   2  -9   43.50    6.50
  -5   2  -9   43.20    6.00
  -5   2  -9   44.20    4.50
  -6  -2  -9  141.09   10.90
  -6  -2  -9  158.38   11.30
  -6   2  -9  140.99    7.90
  -6   2  -9  149.88   11.40
  -7  -3   9  212.78   14.40
   7   3  -9  216.48   14.30
   7   3  -9  208.08   11.90
  -7   3   9  190.08   13.50
   6  -3  -9   30.60    5.70
   6  -3  -9   30.10    6.30
  -6  -3   9   25.00    5.40
   6   3  -9   17.60    4.50
  -6   3   9   24.40    5.20
   6   3  -9   30.00    6.40
   5  -3  -9  392.86   19.50
   5  -3  -9  401.66   19.30
  -5  -3   9  392.76   19.70
   5   3  -9  397.36   17.70
  -5   3   9  428.56   19.40
   5   3  -9  407.76   18.70
   5   3  -9  411.06   19.70
  -4  -3   9  330.57   16.40
   4  -3  -9  294.67   15.10
   4  -3  -9  303.67   15.70
   4   3  -9  284.07   14.70
   4   3  -9  310.07   16.00
   4   3  -9  279.87   14.10
  -4   3   9  292.97   15.10
   3  -3  -9  137.59    9.40
   3  -3  -9  126.29    9.10
  -3  -3   9  134.69    9.40
   3   3  -9  136.89    9.70
   3   3  -9  126.49    9.70
   3   3  -9  145.39    9.30
  -3   3   9  139.19    8.80
   2  -3  -9  519.25   20.40
   2  -3  -9  514.15   17.20
   2  -3  -9  521.25   21.10
  -2  -3   9  504.95   21.10
   2   3  -9  506.35   20.60
   2   3  -9  511.35   21.00
   2   3  -9  516.25   21.30
  -2   3   9  535.95   19.80
   1  -3  -9 1115.99   35.90
  -1  -3   9 1115.09   37.30
   1  -3  -9 1063.49   37.00
  -1  -3   9 1097.59   34.60
   1  -3  -9 1058.79   33.40
   1   3  -9 1104.99   37.30
   1   3  -9 1085.59   37.70
   1   3  -9 1069.99   37.50
  -1   3   9 1162.78   36.90
   1   3  -9 1207.58   40.60
   1   3  -9 1093.39   34.50
   0  -3  -9   22.10    2.90
   0  -3  -9   23.30    4.30
   0  -3  -9   24.90    2.90
   0  -3   9   17.30    3.50
   0  -3  -9   21.70    3.00
   0   3  -9   14.00    3.30
   0   3  -9   18.90    3.70
   0   3  -9   29.00    4.50
   0   3  -9   18.50    3.20
   0   3  -9   17.70    4.00
  -1  -3  -9  172.18    9.60
  -1  -3  -9  182.18    8.40
  -1  -3  -9  173.18    7.10
   1  -3   9  163.78    9.10
  -1   3  -9  182.68    9.40
  -1   3  -9  164.98   10.90
  -1   3  -9  169.98   10.40
  -1   3  -9  164.18    9.70
  -2  -3  -9    6.80    2.40
  -2  -3  -9    7.20    2.50
  -2   3  -9    4.00    2.00
  -2   3  -9    2.40    3.50
  -2   3  -9    8.00    2.90
  -3  -3  -9   46.60    5.70
  -3  -3  -9   52.49    5.90
  -3  -3  -9   42.30    5.10
  -3  -3  -9   51.09    5.40
  -3   3  -9   39.10    4.70
  -3   3  -9   57.09    6.80
  -3   3  -9   37.20    5.20
  -4  -3  -9  252.97   12.50
  -4  -3  -9  265.57   13.30
  -4  -3  -9  261.97   12.90
  -4  -3  -9  256.07   13.10
  -4   3  -9  240.98   11.80
  -4   3  -9  239.58   13.10
  -4   3  -9  257.47   14.80
  -5  -3  -9   48.70    6.10
  -5  -3  -9   44.30    6.40
  -5  -3  -9   49.99    6.10
  -5  -3  -9   39.10    5.30
  -5   3  -9   47.00    6.90
  -5   3  -9   46.90    5.40
  -5   3  -9   48.10    6.80
  -6  -4   9   55.99    8.30
   6  -4  -9   43.20    8.20
   6  -4  -9   68.79    9.70
   6   4  -9   52.19    8.10
  -6   4   9   52.49    8.00
   5  -4  -9  133.79   10.30
   5  -4  -9  139.29   11.00
  -5  -4   9  129.19   10.40
   5   4  -9  130.99   10.10
   5   4  -9  128.89   11.10
  -5   4   9  129.89   10.00
   5   4  -9  131.89    9.10
  -4  -4   9  127.39   10.30
   4  -4  -9  122.09    9.30
   4  -4  -9  116.29    9.20
  -4   4   9  116.89    8.90
   4   4  -9  102.59    7.60
   4   4  -9  122.79    9.30
   4   4  -9  108.29   10.00
  -3  -4   9   16.10    3.90
   3  -4  -9   18.10    4.50
   3  -4  -9   17.90    4.00
   3   4  -9   23.90    4.60
   3   4  -9   30.20    4.40
  -3   4   9   23.50    4.80
   3   4  -9   19.10    4.90
  -2  -4   9  106.89    8.80
   2  -4  -9  112.49    8.30
   2  -4  -9  105.89    7.90
   2   4  -9  104.79    9.10
   2   4  -9  104.19    9.00
   2   4  -9  116.29    7.90
  -1  -4   9  322.87   15.20
   1  -4  -9  324.17   14.70
   1  -4  -9  296.37   13.50
   1   4  -9  327.27   15.90
   1   4  -9  322.87   15.50
   1   4  -9  321.67   14.80
   0  -4   9  344.57   15.80
   0  -4  -9  326.17   13.60
   0  -4  -9  351.06   15.50
   0   4  -9  359.16   16.30
   0   4  -9  360.56   14.60
   0   4  -9  350.36   16.00
   0   4  -9  352.36   16.70
   1  -4   9  331.07   17.10
  -1  -4  -9  336.47   12.70
  -1  -4  -9  347.37   12.70
  -1  -4  -9  353.16   15.30
  -1   4  -9  358.26   17.00
  -1   4  -9  377.36   16.50
  -1   4  -9  358.16   15.20
  -2  -4  -9   47.40    5.90
  -2  -4  -9   49.30    4.50
  -2  -4  -9   44.70    5.20
  -2  -4  -9   41.00    2.70
  -2   4  -9   45.70    5.80
  -2   4  -9   51.59    6.90
  -2   4  -9   39.90    5.50
  -3  -4  -9  322.37   13.80
  -3  -4  -9  346.87   16.20
  -3  -4  -9  312.27   14.10
  -3   4  -9  326.47   15.80
  -3   4  -9  300.57   14.80
  -3   4  -9  341.07   16.60
  -4  -4  -9  715.93   27.40
  -4  -4  -9  693.33   25.90
  -4   4  -9  724.03   26.90
  -4   4  -9  741.03   28.30
  -4   4  -9  725.43   29.20
  -5  -4  -9  116.39    9.30
  -5  -4  -9  105.79    8.50
  -5  -4  -9  113.19    9.40
  -5   4  -9  105.59    8.40
  -5   4  -9   96.79    9.50
   5  -5  -9  126.49   11.00
  -5  -5   9  109.39    9.80
   5  -5  -9  134.89   10.20
   5   5  -9   99.79   10.40
   5   5  -9   85.39    9.20
  -4  -5   9  188.18   13.10
   4  -5  -9  186.68   12.40
   4  -5  -9  182.18   12.00
   4   5  -9  208.68   13.20
   4   5  -9  184.58   12.00
   4   5  -9  198.78   10.50
   3  -5  -9  200.28   11.80
   3  -5  -9  191.08   11.90
  -3  -5   9  201.68   12.50
   3   5  -9  177.78   12.20
   3   5  -9  174.68   12.10
   3   5  -9  188.68   10.70
  -2  -5   9  202.68   12.70
   2  -5  -9  205.58   11.90
   2  -5  -9  195.68   11.40
   2   5  -9  193.58   12.90
   2   5  -9  198.08   12.60
   2   5  -9  211.98   11.50
  -1  -5   9  261.07   14.20
   1  -5  -9  279.67   13.20
   1  -5  -9  285.97   13.70
   1   5  -9  266.37   13.70
   1   5  -9  275.67   15.30
   1   5  -9  288.37   15.10
   0  -5  -9   30.30    4.30
   0  -5   9   25.80    4.70
   0  -5  -9   28.90    4.00
   0   5  -9   38.70    6.00
   0   5  -9   29.90    5.40
   0   5  -9   28.70    4.50
   0   5  -9   30.90    5.30
  -1  -5  -9   85.69    5.50
  -1  -5  -9   89.19    6.80
  -1  -5  -9   80.59    8.10
  -1   5  -9   88.59    7.10
  -1   5  -9   90.79    8.40
  -1   5  -9   89.89    8.80
  -2  -5  -9   74.59    8.10
  -2  -5  -9   81.99    4.70
  -2  -5  -9   72.19    6.20
  -2   5  -9   83.19    7.50
  -2   5  -9   84.09    8.00
  -2   5  -9   81.19    8.70
  -3  -5  -9  168.68   11.40
  -3   5  -9  162.28   11.20
  -3   5  -9  150.88   10.20
  -3   5  -9  151.98   10.70
  -4  -5  -9  190.58   12.40
  -4   5  -9  190.58   12.60
  -4   5  -9  213.88   12.60
  -4  -6   9   62.89    7.40
   4  -6  -9   58.79    8.00
  -4  -6   9   57.59    7.90
   4   6  -9   56.59    8.50
   3  -6  -9    2.70    3.60
   3  -6  -9    2.80    3.50
  -3  -6   9    4.40    4.10
  -3  -6   9   -1.50    3.00
   3   6  -9    6.20    3.40
   3   6  -9   10.60    4.80
  -2  -6   9   96.39    8.80
   2  -6  -9   82.99    8.00
   2  -6  -9   96.09    7.70
   2   6  -9   94.29    9.90
   2   6  -9   93.89    9.50
   2   6  -9   96.69    7.80
   1  -6  -9  133.09    9.10
   1  -6  -9  155.28   11.00
  -1  -6   9  129.49   10.00
   1  -6  -9  142.99    9.20
   1   6  -9  161.78   10.00
   1   6  -9  154.08   10.70
   1   6  -9  141.09   10.80
   0  -6  -9    9.70    4.40
   0  -6  -9   18.10    3.60
   0  -6   9   19.70    4.90
   0  -6  -9   15.60    3.30
   0   6  -9   23.60    4.70
   0   6  -9   19.20    4.60
   0   6  -9   19.00    4.70
   0   6  -9   16.50    5.20
  -1  -6  -9   79.79    6.00
  -1  -6  -9   73.19    8.30
  -1   6  -9   83.19    8.90
  -1   6  -9   78.29    8.00
  -1   6  -9   82.09    8.80
  -2  -6  -9  243.48   10.50
  -2  -6  -9  255.77   14.30
  -2   6  -9  257.37   14.50
  -2   6  -9  250.87   14.90
  -2   6  -9  269.07   14.40
  -3   6  -9   84.59    8.50
  -2  -7   9    4.80    3.20
   2  -7  -9    0.70    2.30
  -2  -7   9   -2.10    3.40
  -1  -7   9    8.30    3.80
   1  -7  -9    5.10    3.40
   0  -7  -9  487.05   20.10
   0   7  -9  488.05   20.50
  -1  -7  -9   23.60    4.00
  -1   7  -9   16.90    4.30
   7   0 -10   96.59    9.90
  -7   0  10  111.59   10.00
   6   0 -10  829.72   33.00
   6   0 -10  849.32   31.80
  -6   0  10  817.42   32.60
   5   0 -10   56.19    7.10
   5   0 -10   49.80    6.60
  -5   0  10   60.49    7.40
  -4   0  10   57.39    6.80
   4   0 -10   64.99    7.20
   4   0 -10   55.39    6.30
   4   0 -10   60.59    6.90
   3   0 -10  460.75   19.80
   3   0 -10  474.65   19.00
  -3   0  10  469.15   19.60
   3   0 -10  482.45   20.20
   2   0 -10   -1.20    1.40
   2   0 -10   -1.00    2.20
   2   0 -10   -0.90    2.10
   2   0 -10   -3.30    2.20
  -2   0  10   -1.90    1.90
   1   0 -10  195.48   10.00
  -1   0  10  177.18    9.20
   1   0 -10  203.98   10.30
   1   0 -10  201.28   10.70
   1   0 -10  185.48   10.90
   0   0 -10   66.79    7.20
   0   0 -10   57.59    5.70
   0   0 -10   62.49    5.10
  -1   0 -10   11.50    2.20
  -1   0 -10   11.30    2.20
  -1   0 -10    7.70    2.60
  -1   0 -10   12.70    3.50
  -2   0 -10   26.30    4.60
  -2   0 -10   33.30    2.70
  -2   0 -10   32.80    4.60
  -2   0 -10   32.00    3.90
  -3   0 -10    4.80    2.00
  -3   0 -10    1.70    0.70
  -3   0 -10    1.30    2.30
  -3   0 -10   -2.00    1.90
  -4   0 -10  181.78   11.70
  -4   0 -10  172.58    9.20
  -4   0 -10  166.28   10.40
  -5   0 -10   42.50    5.90
  -5   0 -10   35.10    5.90
  -7  -1  10   -2.60    2.10
   7   1 -10    3.80    4.10
  -7   1  10   -3.60    3.50
   6  -1 -10   33.60    5.90
  -6  -1  10   31.30    6.40
   6  -1 -10   43.50    6.50
  -6   1  10   32.10    6.30
   6   1 -10   25.00    6.20
   6   1 -10   29.60    5.90
   5  -1 -10   23.70    5.50
  -5  -1  10   15.50    4.10
   5  -1 -10   22.30    5.30
   5   1 -10   24.60    5.00
  -5   1  10   28.20    5.10
   5   1 -10   24.50    4.40
   5   1 -10   15.10    4.80
   4  -1 -10  372.46   17.40
   4  -1 -10  390.56   15.90
  -4  -1  10  371.46   17.80
   4  -1 -10  365.56   17.70
   4   1 -10  361.76   16.50
   4   1 -10  364.36   17.70
   4   1 -10  381.06   17.60
  -4   1  10  370.36   17.50
  -3  -1  10  218.08   12.00
   3  -1 -10  234.28   12.50
   3  -1 -10  227.98   10.90
   3  -1 -10  206.18   11.70
  -3   1  10  219.68   11.80
   3   1 -10  214.88   12.10
   3   1 -10  207.48   11.30
   3   1 -10  200.68   12.20
  -2  -1  10   77.99    6.30
   2  -1 -10   71.39    6.10
   2  -1 -10   75.69    7.70
   2  -1 -10   84.29    7.00
   2   1 -10   79.59    7.10
   2   1 -10   69.89    7.10
   2   1 -10   85.49    7.30
  -2   1  10   78.19    6.00
   2   1 -10   76.59    6.60
   1  -1 -10  371.76   17.30
   1  -1 -10  366.16   15.50
  -1  -1  10  397.66   15.90
   1  -1 -10  399.36   15.50
   1   1 -10  391.66   16.40
   1   1 -10  398.26   16.70
  -1   1  10  392.86   16.30
   1   1 -10  373.96   17.10
   1   1 -10  400.46   17.50
   0  -1 -10   77.99    7.00
   0  -1 -10   91.79    6.30
   0  -1 -10   88.99    4.40
   0  -1 -10   92.79    5.90
   0   1 -10   93.89    6.50
   0   1 -10  100.19    5.10
   0   1 -10   90.09    7.10
   0   1 -10   80.19    7.70
  -1  -1 -10   79.49    4.90
  -1  -1 -10   77.69    4.70
  -1  -1 -10   81.29    7.00
  -1  -1 -10   91.29    6.90
  -1   1 -10   74.49    5.20
  -1   1 -10   83.09    6.90
  -1   1 -10   88.49    5.50
  -1   1 -10   81.69    7.30
  -2  -1 -10  981.30   32.90
  -2  -1 -10  957.20   33.60
  -2  -1 -10  936.31   31.30
  -2  -1 -10  982.60   27.60
  -2   1 -10  930.01   33.40
  -2   1 -10  925.01   30.20
  -2   1 -10  971.70   31.60
  -2   1 -10  932.11   34.00
  -3  -1 -10  397.86   17.00
  -3  -1 -10  345.27   17.00
  -3  -1 -10  385.16   16.20
  -3   1 -10  384.16   13.80
  -3   1 -10  396.56   17.80
  -3   1 -10  387.46   16.30
  -4  -1 -10   46.20    6.40
  -4  -1 -10   37.10    5.90
  -4  -1 -10   44.90    5.10
  -4  -1 -10   41.50    5.60
  -4   1 -10   55.89    7.00
  -4   1 -10   45.40    3.50
  -4   1 -10   49.50    6.10
  -5  -1 -10  204.58   12.10
  -5  -1 -10  209.78   12.50
  -5  -1 -10  202.88   12.40
  -5   1 -10  208.68   12.50
  -5   1 -10  203.88   12.90
   6  -2 -10  145.69   11.80
  -6  -2  10  143.79   11.90
   6  -2 -10  144.79   11.60
   6   2 -10  140.69   11.90
   6   2 -10  151.48   10.20
  -6   2  10  160.58   11.90
   5  -2 -10  172.48   12.20
  -5  -2  10  181.98   12.60
   5  -2 -10  195.88   12.70
   5   2 -10  179.08   11.50
   5   2 -10  191.68   11.70
   5   2 -10  189.68   12.50
  -5   2  10  180.28   11.70
  -4  -2  10  183.38   11.50
   4  -2 -10  192.48   11.70
   4  -2 -10  183.08   11.50
   4   2 -10  181.28   10.80
   4   2 -10  170.88   12.00
   4   2 -10  187.58   11.10
  -4   2  10  155.08   10.40
   3  -2 -10   77.29    8.00
  -3  -2  10   86.99    7.40
   3  -2 -10   88.29    6.10
   3  -2 -10   97.19    8.00
   3   2 -10   90.99    7.50
   3   2 -10   79.39    7.40
  -3   2  10   85.19    6.80
   3   2 -10   82.29    8.00
   2  -2 -10  101.09    8.00
  -2  -2  10   98.89    7.50
   2  -2 -10   94.39    7.50
   2  -2 -10  105.99    6.50
   2   2 -10  100.99    8.00
   2   2 -10   98.79    8.50
   2   2 -10  100.69    8.30
   1  -2 -10   11.20    2.30
  -1  -2  10    8.60    2.90
   1  -2 -10   10.70    2.80
   1  -2 -10    8.60    3.70
   1   2 -10   12.50    3.30
   1   2 -10    8.30    3.80
   1   2 -10   10.30    3.30
   1   2 -10    9.80    1.90
   0  -2 -10  191.88    8.70
   0  -2 -10  195.68    7.50
   0  -2 -10  183.48    8.90
   0  -2 -10  183.38   10.70
   0   2 -10  171.48    9.90
   0   2 -10  178.58    8.40
   0   2 -10  181.18   10.70
   0   2 -10  182.88   11.40
  -1  -2 -10  221.98    8.70
  -1  -2 -10  237.38    9.90
  -1  -2 -10  243.08   10.90
  -1  -2 -10  225.68   12.20
  -1   2 -10  251.97   13.60
  -1   2 -10  246.08   10.60
  -1   2 -10  221.48   11.00
  -1   2 -10  221.98   12.30
  -2  -2 -10   69.39    5.70
  -2  -2 -10   70.39    5.30
  -2  -2 -10   65.99    6.70
  -2   2 -10   72.19    5.60
  -2   2 -10   65.79    7.70
  -2   2 -10   62.39    7.30
  -2   2 -10   73.49    6.10
  -3  -2 -10  327.57   14.70
  -3  -2 -10  329.57   15.10
  -3  -2 -10  370.16   16.20
  -3  -2 -10  356.66   15.50
  -3   2 -10  315.67   14.80
  -3   2 -10  334.67   16.80
  -3   2 -10  336.17   13.70
  -4  -2 -10   36.60    5.30
  -4  -2 -10   34.30    5.20
  -4  -2 -10   27.70    4.50
  -4  -2 -10   29.80    4.70
  -4   2 -10   33.70    3.90
  -4   2 -10   30.50    4.90
  -4   2 -10   31.30    6.10
  -5  -2 -10   25.00    4.00
  -5  -2 -10   30.50    5.00
  -5  -2 -10   31.70    5.30
  -5  -2 -10   28.80    5.30
  -5   2 -10   32.10    5.30
  -5   2 -10   25.90    3.60
  -6  -3  10   31.30    5.90
   6   3 -10   24.70    5.40
   6   3 -10   32.40    6.10
  -6   3  10   37.90    6.50
   5  -3 -10   59.69    7.70
  -5  -3  10   56.29    7.90
   5  -3 -10   58.29    7.90
   5   3 -10   58.29    8.10
   5   3 -10   56.49    6.40
   5   3 -10   53.79    7.40
  -5   3  10   52.39    7.90
  -4  -3  10   25.40    5.40
   4  -3 -10   30.30    5.80
   4  -3 -10   18.10    5.00
   4   3 -10   28.10    5.20
   4   3 -10   31.80    5.50
   4   3 -10   25.30    5.40
   3  -3 -10  157.58   10.70
   3  -3 -10  166.38   10.70
  -3  -3  10  169.48   11.30
   3   3 -10  186.28   11.10
   3   3 -10  180.38   11.50
   3   3 -10  173.08   11.20
   2  -3 -10  198.98   11.50
   2  -3 -10  201.08    8.60
  -2  -3  10  200.18   11.60
   2  -3 -10  178.38   10.50
   2   3 -10  193.98   11.50
   2   3 -10  190.48   11.50
   2   3 -10  177.98   10.90
   1  -3 -10  123.49    7.60
   1  -3 -10  121.69    6.20
   1  -3 -10  111.89    8.30
  -1  -3  10  106.79    8.20
   1   3 -10  120.49    8.70
   1   3 -10  109.29    8.60
   1   3 -10  108.69    8.50
   0  -3 -10  376.96   14.60
   0  -3 -10  394.16   14.50
   0  -3 -10  384.36   17.20
   0  -3 -10  386.46   13.90
   0   3 -10  404.76   15.30
   0   3 -10  376.46   17.40
   0   3 -10  402.56   17.40
   0   3 -10  405.26   18.10
  -1  -3 -10  380.76   15.00
  -1  -3 -10  404.26   13.60
  -1  -3 -10  410.96   17.50
  -1   3 -10  402.96   18.10
  -1   3 -10  399.46   16.00
  -1   3 -10  383.26   16.70
  -1   3 -10  390.16   18.00
  -2  -3 -10  114.49    7.20
  -2  -3 -10  113.99    7.30
  -2  -3 -10  116.69    8.40
  -2   3 -10  111.99    7.80
  -2   3 -10   92.69    8.40
  -2   3 -10  104.79    7.70
  -3  -3 -10  226.18   11.60
  -3  -3 -10  246.08   12.70
  -3  -3 -10  238.18   12.20
  -3  -3 -10  247.58   12.20
  -3   3 -10  249.28   11.90
  -3   3 -10  212.78   13.00
  -3   3 -10  230.58   12.50
  -4  -3 -10   15.50    3.60
  -4  -3 -10   15.90    3.50
  -4  -3 -10   15.60    3.50
  -4  -3 -10   16.70    4.00
  -4   3 -10   15.30    3.00
  -4   3 -10   13.80    3.60
  -4   3 -10   11.10    4.10
  -5  -3 -10   65.09    7.60
  -5  -3 -10   53.39    6.80
  -5  -3 -10   62.59    6.60
  -5   3 -10   63.49    5.80
  -5   3 -10   57.79    7.50
   5  -4 -10  149.79   11.40
   5  -4 -10  123.29   11.00
  -5  -4  10  128.19   10.60
   5   4 -10  149.69   11.50
   5   4 -10  149.59   10.00
   5   4 -10  131.39   10.30
   4  -4 -10  269.17   14.80
  -4  -4  10  271.97   15.30
   4  -4 -10  267.67   14.80
   4   4 -10  275.07   16.00
   4   4 -10  264.77   13.80
   4   4 -10  268.27   15.20
   3  -4 -10   60.29    7.20
   3  -4 -10   64.29    7.20
  -3  -4  10   63.39    7.40
   3   4 -10   50.39    7.10
   3   4 -10   56.09    7.10
   3   4 -10   62.19    6.60
   2  -4 -10  165.58   10.40
   2  -4 -10  145.89    9.30
  -2  -4  10  150.28   10.70
   2   4 -10  162.68   11.40
   2   4 -10  164.88   10.80
   2   4 -10  156.68   10.50
   1  -4 -10   72.59    7.30
   1  -4 -10   93.39    6.70
  -1  -4  10   64.89    7.30
   1   4 -10   64.19    7.70
   1   4 -10   82.99    7.80
   1   4 -10   75.39    7.70
   0  -4 -10   39.00    4.20
   0  -4 -10   42.00    5.80
   0   4 -10   32.40    5.80
   0   4 -10   42.60    5.70
   0   4 -10   51.99    6.40
   0   4 -10   39.20    4.50
  -1  -4 -10  105.29    5.60
  -1  -4 -10  102.99    8.00
  -1   4 -10  103.99    8.00
  -1   4 -10  104.39    9.60
  -1   4 -10  118.09    7.70
  -1   4 -10  118.99    9.70
  -2  -4 -10   49.90    6.40
  -2  -4 -10   62.89    6.50
  -2   4 -10   58.39    7.60
  -2   4 -10   58.69    6.60
  -2   4 -10   74.59    7.00
  -3  -4 -10   84.99    7.00
  -3  -4 -10   74.79    7.60
  -3   4 -10   84.49    8.10
  -3   4 -10   75.59    8.30
  -3   4 -10   87.09    7.10
  -4  -4 -10   33.60    6.00
  -4  -4 -10   40.20    5.60
  -4   4 -10   39.90    5.70
  -4   4 -10   49.60    6.90
  -5  -5  10   18.90    5.60
  -4  -5  10   21.10    4.80
   4  -5 -10   14.40    5.00
   4  -5 -10   15.00    4.30
   4   5 -10   13.80    4.70
   4   5 -10   11.90    3.90
   4   5 -10   22.60    4.70
   3  -5 -10   11.90    3.80
   3  -5 -10   14.40    4.00
  -3  -5  10    5.70    3.80
   3   5 -10   11.00    3.70
   3   5 -10    8.80    3.80
   3   5 -10   22.70    4.70
   2  -5 -10  203.98   11.60
  -2  -5  10  207.58   13.20
   2  -5 -10  242.08   13.10
   2   5 -10  236.78   14.10
   2   5 -10  218.38   13.30
   2   5 -10  212.48   11.90
   1  -5 -10  617.14   24.30
   1  -5 -10  616.74   23.10
  -1  -5  10  621.44   25.40
   1   5 -10  628.04   26.10
   1   5 -10  622.04   25.40
   1   5 -10  627.64   24.40
   0  -5 -10  208.68   10.40
   0  -5 -10  226.58   12.30
   0   5 -10  223.48   13.80
   0   5 -10  225.38   13.50
   0   5 -10  217.98   12.50
   0   5 -10  247.38   11.80
  -1  -5 -10  300.17   13.60
  -1  -5 -10  276.67   15.10
  -1  -5 -10  282.97   11.20
  -1   5 -10  271.17   14.50
  -1   5 -10  262.07   13.50
  -1   5 -10  249.18   14.50
  -1   5 -10  250.57   14.20
  -2  -5 -10   32.10    5.60
  -2   5 -10   35.60    5.30
  -2   5 -10   45.70    7.00
  -2   5 -10   49.50    6.70
  -3  -5 -10  105.69    8.80
  -3   5 -10  110.29    9.30
  -3   5 -10  116.39    9.40
   3  -6 -10  157.28   11.20
  -3  -6  10  152.38   11.60
   2  -6 -10  177.98   11.00
  -2  -6  10  149.19   11.30
   2  -6 -10  180.28   11.30
   2   6 -10  138.59   13.00
   2   6 -10  173.38   14.30
   2   6 -10  162.98   10.10
   1  -6 -10   10.40    3.50
   1  -6 -10   18.30    4.10
   1   6 -10   15.50    4.30
   1   6 -10   11.80    4.90
   1   6 -10   14.90    3.60
   0  -6 -10   69.39    6.80
   0  -6 -10   70.39    6.00
   0  -6 -10   77.39    9.50
   0   6 -10   68.99    7.70
   0   6 -10   74.39    8.60
   0   6 -10   58.89    6.40
   0   6 -10   73.49    8.30
  -1  -6 -10  146.39    8.00
  -1   6 -10  153.68   10.70
  -1   6 -10  156.68   10.00
  -2   6 -10    8.50    3.10
  -6   0  11    1.10    3.70
   6   0 -11   -1.40    2.70
   6   0 -11    3.50    3.10
  -5   0  11  374.06   18.50
   5   0 -11  357.86   16.80
   5   0 -11  366.06   18.20
   5   0 -11  361.66   18.40
   4   0 -11  139.39   10.20
   4   0 -11  144.69    9.20
  -4   0  11  140.99   10.20
   4   0 -11  147.39   10.90
   3   0 -11   -0.40    2.50
   3   0 -11    2.20    2.40
   3   0 -11    0.80    2.10
   2   0 -11   39.90    4.90
   2   0 -11   44.10    6.20
   2   0 -11   39.30    5.50
   1   0 -11  325.27   14.60
   1   0 -11  313.37   15.60
   1   0 -11  332.67   14.60
   0   0 -11   27.90    5.40
   0   0 -11   25.70    4.10
   0   0 -11   27.00    3.80
  -1   0 -11  818.82   26.00
  -1   0 -11  783.72   29.80
  -1   0 -11  772.32   28.60
  -1   0 -11  782.12   25.70
  -2   0 -11   -0.80    2.30
  -2   0 -11   -0.30    1.70
  -2   0 -11    2.60    2.40
  -2   0 -11    2.80    1.10
  -3   0 -11    2.90    2.50
  -3   0 -11   -2.40    2.70
  -3   0 -11    1.70    1.70
  -4   0 -11    3.30    2.60
  -4   0 -11    0.90    3.40
  -4   0 -11    2.00    2.00
  -6  -1  11   62.39    8.20
   6  -1 -11   67.99    9.60
   6   1 -11   60.19    9.30
   6   1 -11   65.29    7.70
  -6   1  11   55.59    7.60
   5  -1 -11   26.30    5.30
   5  -1 -11   27.40    5.40
  -5  -1  11   37.60    6.10
   5   1 -11   35.10    5.70
   5   1 -11   38.70    6.10
  -5   1  11   38.50    6.60
   5   1 -11   24.80    5.20
   4  -1 -11  187.48   12.30
   4  -1 -11  190.98   10.30
  -4  -1  11  195.18   12.40
   4  -1 -11  197.68   12.80
   4   1 -11  191.58   11.70
   4   1 -11  191.28   11.80
   4   1 -11  192.98   12.20
   3  -1 -11   14.30    3.00
   3  -1 -11    9.10    3.70
  -3  -1  11   18.00    4.20
   3  -1 -11   11.70    3.70
   3   1 -11   10.10    3.30
   3   1 -11   22.40    5.10
   3   1 -11   14.80    3.70
   2  -1 -11  443.16   17.20
   2  -1 -11  428.36   17.90
   2  -1 -11  408.26   19.10
   2   1 -11  407.26   18.00
   2   1 -11  454.35   19.60
   2   1 -11  393.06   17.90
   1  -1 -11  244.58   13.30
   1  -1 -11  237.78   11.50
   1  -1 -11  251.07   12.00
   1   1 -11  245.38   12.20
   1   1 -11  238.68   12.90
   1   1 -11  262.17   13.70
   0  -1 -11   19.50    4.20
   0  -1 -11   15.60    3.60
   0  -1 -11   17.50    2.90
   0   1 -11   14.20    3.50
   0   1 -11   14.60    2.90
   0   1 -11   21.80    5.00
  -1  -1 -11  180.48   11.10
  -1  -1 -11  194.38   10.60
  -1  -1 -11  172.78    9.00
  -1  -1 -11  181.98    7.80
  -1   1 -11  183.68    8.70
  -1   1 -11  191.78   12.00
  -1   1 -11  183.08   10.90
  -1   1 -11  172.78    9.00
  -2  -1 -11   60.59    5.10
  -2  -1 -11   69.69    6.90
  -2  -1 -11   56.79    6.70
  -2   1 -11   55.79    6.70
  -2   1 -11   66.39    4.90
  -2   1 -11   57.59    4.90
  -2   1 -11   65.19    7.30
  -3  -1 -11  176.68   11.10
  -3  -1 -11  176.98   10.00
  -3  -1 -11  182.88   11.20
  -3   1 -11  172.38    7.80
  -3   1 -11  189.88   11.60
  -3   1 -11  190.88   10.40
  -3   1 -11  188.98   11.90
  -4  -1 -11  475.85   20.00
  -4  -1 -11  441.86   18.20
  -4  -1 -11  468.75   19.30
  -4  -1 -11  432.36   19.60
  -4   1 -11  416.36   18.60
  -4   1 -11  417.16   20.00
  -6  -2  11  136.69   11.60
   6   2 -11  133.59   10.20
   5  -2 -11  106.89   10.30
   5  -2 -11   99.89   10.20
  -5  -2  11  102.89    9.90
   5   2 -11  116.09   10.10
   5   2 -11  110.99    8.90
   5   2 -11  104.99    9.50
   4  -2 -11  219.88   13.10
  -4  -2  11  225.78   13.30
   4  -2 -11  229.78   14.00
   4   2 -11  211.68   13.70
   4   2 -11  245.48   13.20
   4   2 -11  220.58   13.20
   3  -2 -11  252.77   13.50
   3  -2 -11  238.28   10.90
  -3  -2  11  230.58   13.30
   3  -2 -11  232.58   13.40
   3   2 -11  231.48   13.30
   3   2 -11  236.38   13.10
   3   2 -11  248.38   13.60
   2  -2 -11  327.77   15.00
   2  -2 -11  331.67   13.60
   2  -2 -11  362.86   16.70
   2   2 -11  317.07   15.70
   2   2 -11  341.57   16.20
   2   2 -11  311.07   15.60
   1  -2 -11   50.59    5.20
   1  -2 -11   49.99    6.80
   1  -2 -11   52.29    5.00
   1   2 -11   32.70    5.80
   1   2 -11   48.50    5.90
   1   2 -11   43.40    5.60
   0  -2 -11  550.84   19.80
   0  -2 -11  572.44   20.80
   0  -2 -11  563.54   23.20
   0   2 -11  543.75   21.50
   0   2 -11  591.84   23.60
   0   2 -11  563.84   23.20
   0   2 -11  602.34   19.70
  -1  -2 -11   47.10    3.30
  -1  -2 -11   49.30    5.30
  -1  -2 -11   46.60    6.40
  -1   2 -11   51.39    5.00
  -1   2 -11   47.10    5.20
  -1   2 -11   48.60    6.50
  -1   2 -11   53.69    6.30
  -2  -2 -11  276.37   14.00
  -2  -2 -11  277.17   13.00
  -2  -2 -11  244.08   11.60
  -2   2 -11  309.27   15.80
  -2   2 -11  279.97   14.60
  -2   2 -11  261.17   12.20
  -2   2 -11  263.27   12.00
  -3  -2 -11  142.09   10.00
  -3  -2 -11  146.59    9.20
  -3  -2 -11  143.19    9.60
  -3  -2 -11  140.59    8.80
  -3   2 -11  133.19    7.60
  -3   2 -11  146.09   11.30
  -3   2 -11  137.39    9.10
  -3   2 -11  153.38   10.70
  -4  -2 -11   51.39    6.40
  -4  -2 -11   48.70    5.80
  -4  -2 -11   45.50    5.90
  -4  -2 -11   59.19    6.70
  -4   2 -11   45.30    6.70
  -4   2 -11   45.90    6.30
  -4   2 -11   46.10    4.30
   5  -3 -11  478.25   22.50
  -5  -3  11  460.55   21.90
   5  -3 -11  470.05   22.50
   5   3 -11  453.75   21.00
   5   3 -11  460.25   20.60
   5   3 -11  466.55   22.40
   4  -3 -11  136.39   11.20
   4  -3 -11  159.78   11.30
  -4  -3  11  136.99   10.50
   4   3 -11  163.28   10.50
   4   3 -11  149.19   10.60
   4   3 -11  145.69   11.00
   3  -3 -11    3.10    2.90
  -3  -3  11    6.20    2.90
   3  -3 -11    0.10    3.60
   3   3 -11    1.90    2.60
   3   3 -11    6.60    3.20
   3   3 -11    3.70    3.50
   2  -3 -11  260.77   13.30
   2  -3 -11  260.97   14.70
   2   3 -11  279.37   14.60
   2   3 -11  292.17   14.50
   2   3 -11  265.47   14.60
   1  -3 -11  288.37   13.00
   1  -3 -11  279.27   15.10
   1   3 -11  308.17   15.70
   1   3 -11  286.37   14.50
   1   3 -11  295.47   15.00
   0  -3 -11   64.59    7.30
   0  -3 -11   65.59    4.90
   0   3 -11   71.79    6.80
   0   3 -11   70.39    7.80
   0   3 -11   60.29    7.10
  -1  -3 -11   72.69    4.10
  -1  -3 -11   82.59    5.60
  -1  -3 -11   71.29    7.20
  -1   3 -11   75.29    7.90
  -1   3 -11   72.99    6.30
  -1   3 -11   74.29    8.00
  -1   3 -11   69.99    5.70
  -2  -3 -11  564.34   21.70
  -2  -3 -11  623.54   24.00
  -2   3 -11  576.64   24.60
  -2   3 -11  651.63   25.80
  -2   3 -11  593.84   22.50
  -2   3 -11  585.14   22.60
  -3  -3 -11   37.60    5.70
  -3  -3 -11   41.80    5.60
  -3  -3 -11   37.80    4.90
  -3  -3 -11   51.89    5.90
  -3   3 -11   36.60    4.60
  -3   3 -11   48.00    5.90
  -3   3 -11   52.29    7.40
  -4  -3 -11   45.80    6.10
  -4  -3 -11   53.59    6.70
  -4  -3 -11   51.09    6.40
  -4  -3 -11   45.60    6.40
  -4   3 -11   47.60    5.30
  -4   3 -11   46.40    6.10
  -5  -4  11   16.10    5.50
   5   4 -11   13.90    3.90
   4  -4 -11   63.29    7.80
  -4  -4  11   69.19    8.60
   4  -4 -11   65.19    7.70
   4   4 -11   51.89    8.10
   4   4 -11   65.19    7.50
   4   4 -11   52.29    7.00
   3  -4 -11  522.15   22.70
   3  -4 -11  519.75   22.00
  -3  -4  11  485.55   22.50
   3   4 -11  510.85   21.70
   3   4 -11  525.95   22.90
   3   4 -11  503.25   22.80
   2  -4 -11  156.28    9.70
   2  -4 -11  160.98   11.50
   2   4 -11  161.18   11.10
   2   4 -11  184.48   12.10
   2   4 -11  166.58   10.70
   1  -4 -11    5.60    2.90
   1  -4 -11    7.50    2.70
   1   4 -11    7.40    3.50
   1   4 -11    9.40    4.10
   1   4 -11    4.90    3.80
   0  -4 -11  227.88   10.40
   0  -4 -11  236.78   12.70
   0   4 -11  214.68   13.70
   0   4 -11  230.98   11.30
   0   4 -11  236.48   13.00
   0   4 -11  251.77   13.50
  -1  -4 -11   39.50    5.50
  -1  -4 -11   33.40    3.20
  -1   4 -11   30.30    6.10
  -1   4 -11   30.00    4.30
  -1   4 -11   36.20    5.90
  -1   4 -11   40.70    5.80
  -2  -4 -11   23.30    5.30
  -2  -4 -11   16.50    4.00
  -2   4 -11   17.40    3.50
  -2   4 -11   18.70    4.80
  -2   4 -11   18.10    3.80
  -2   4 -11   18.40    5.30
  -3  -4 -11  183.78   10.70
  -3  -4 -11  183.28   12.10
  -3   4 -11  178.68   11.40
  -3   4 -11  179.18   10.50
   3  -5 -11   -3.60    3.40
   3  -5 -11   -0.20    2.10
   3   5 -11    2.50    2.60
   2  -5 -11   60.19    6.60
   2  -5 -11   68.09    7.50
   2   5 -11   77.29    7.80
   2   5 -11   51.69    7.50
   2   5 -11   51.69    7.60
   1  -5 -11   51.19    6.80
   1  -5 -11   35.50    4.70
   1   5 -11   44.10    6.30
   1   5 -11   34.80    5.40
   1   5 -11   37.50    5.80
   0  -5 -11    9.50    2.60
   0  -5 -11   12.90    3.50
   0   5 -11    5.40    3.90
   0   5 -11   13.90    4.50
   0   5 -11   14.50    3.70
   0   5 -11   18.90    4.70
  -1  -5 -11  103.39    8.40
  -1  -5 -11  112.09   11.80
  -1   5 -11  103.49    8.30
  -1   5 -11  106.59    9.20
  -1   5 -11  108.59    8.90
  -2   5 -11  205.18   11.80
   5   0 -12    7.50    3.80
   5   0 -12    4.10    2.80
   5   0 -12    5.00    4.50
   4   0 -12   25.80    5.50
   4   0 -12   39.60    6.60
   4   0 -12   30.10    5.30
   3   0 -12   27.50    5.30
   3   0 -12   29.10    4.60
   3   0 -12   27.60    4.90
   2   0 -12  251.87   13.40
   2   0 -12  257.37   14.70
   2   0 -12  265.07   13.40
   1   0 -12   10.30    4.30
   1   0 -12    4.30    2.10
   1   0 -12    9.70    3.70
   0   0 -12  356.16   14.80
   0   0 -12  353.86   15.90
   0   0 -12  350.56   17.70
  -1   0 -12  229.78   12.40
  -1   0 -12  242.68   14.00
  -1   0 -12  230.88   10.20
  -2   0 -12    2.70    3.50
  -2   0 -12    4.90    3.60
  -2   0 -12    4.30    1.60
  -3   0 -12  150.28   10.30
  -3   0 -12  147.39   11.20
   5   1 -12   42.40    6.50
   5   1 -12   52.19    6.90
   4  -1 -12  273.17   15.10
   4  -1 -12  247.58   14.40
   4  -1 -12  265.07   13.40
   4   1 -12  285.37   14.80
   4   1 -12  264.87   15.30
   4   1 -12  289.77   15.10
   3  -1 -12  136.79   10.30
   3  -1 -12  134.79    8.50
   3  -1 -12  151.38   10.40
   3   1 -12  132.89    9.80
   3   1 -12  136.69    9.50
   3   1 -12  146.99   11.10
   2  -1 -12  255.57   12.50
   2  -1 -12  272.87   13.20
   2  -1 -12  240.48   14.50
   2   1 -12  267.87   14.00
   2   1 -12  240.88   13.20
   2   1 -12  258.67   14.20
   1  -1 -12   35.90    5.00
   1  -1 -12   32.10    5.90
   1  -1 -12   33.00    4.40
   1   1 -12   39.90    6.60
   1   1 -12   41.30    5.50
   1   1 -12   39.00    5.90
   0  -1 -12   63.69    5.20
   0  -1 -12   60.29    6.30
   0  -1 -12   71.59    8.00
   0   1 -12   68.99    7.30
   0   1 -12   54.09    7.40
   0   1 -12   66.49    5.60
  -1  -1 -12   33.30    3.20
  -1  -1 -12   32.80    4.60
  -1  -1 -12   29.20    5.10
  -1   1 -12   43.20    6.20
  -1   1 -12   40.90    4.50
  -1   1 -12   35.50    5.90
  -2  -1 -12    4.50    3.00
  -2  -1 -12   -2.60    3.10
  -2   1 -12    6.20    4.00
  -2   1 -12    2.40    1.60
  -2   1 -12    8.20    3.90
  -3  -1 -12   62.69    7.70
  -3  -1 -12   51.79    6.60
  -3   1 -12   53.99    7.50
  -3   1 -12   48.40    7.30
   5   2 -12   26.20    5.80
   5   2 -12   16.10    4.30
   4  -2 -12   57.69    7.60
   4  -2 -12   65.99    7.90
   4   2 -12   61.89    8.10
   4   2 -12   62.39    7.70
   4   2 -12   52.49    6.90
   3  -2 -12   42.00    6.50
   3  -2 -12   50.49    6.50
   3   2 -12   43.80    6.60
   3   2 -12   45.00    6.20
   3   2 -12   48.00    6.70
   2  -2 -12  157.58   10.90
   2  -2 -12  148.89    8.70
   2  -2 -12  157.98    9.90
   2   2 -12  156.68   10.60
   2   2 -12  146.89   11.20
   2   2 -12  154.48   11.10
   1  -2 -12  189.98    9.90
   1  -2 -12  182.48   11.70
   1  -2 -12  175.48    9.80
   1   2 -12  193.58   12.10
   1   2 -12  196.48   12.10
   1   2 -12  178.88   11.00
   0  -2 -12   82.89    6.60
   0  -2 -12   78.89    5.50
   0  -2 -12   80.99    8.20
   0   2 -12   64.69    7.60
   0   2 -12   96.09    7.40
   0   2 -12   78.09    8.20
  -1  -2 -12  265.87   14.60
  -1  -2 -12  262.47   10.00
  -1  -2 -12  289.77   13.00
  -1   2 -12  237.08   14.20
  -1   2 -12  233.08   12.00
  -1   2 -12  266.87   15.00
  -2  -2 -12  135.99    9.70
  -2  -2 -12  127.29    8.80
  -2   2 -12  137.09   10.40
  -2   2 -12  121.09    7.70
  -2   2 -12  126.49   10.50
  -3  -2 -12  169.48   11.00
  -3  -2 -12  183.98   11.10
  -3  -2 -12  173.38   10.70
  -3   2 -12  168.78    8.70
  -3   2 -12  170.48   10.20
  -3   2 -12  156.78   11.50
   4  -3 -12   57.79    8.50
   4  -3 -12   55.99    7.50
   4   3 -12   59.29    7.10
   4   3 -12   45.50    6.70
   3  -3 -12  267.37   14.40
   3  -3 -12  286.57   16.10
   3   3 -12  317.37   16.70
   3   3 -12  291.37   15.70
   3   3 -12  277.97   15.80
   2  -3 -12   11.00    3.00
   2  -3 -12   11.90    4.70
   2   3 -12   11.80    4.60
   2   3 -12   13.00    4.50
   2   3 -12    8.10    4.20
   1  -3 -12   34.20    5.50
   1  -3 -12   38.10    4.60
   1   3 -12   32.50    5.50
   1   3 -12   36.10    5.30
   1   3 -12   48.20    6.50
   0  -3 -12  103.69    8.50
   0  -3 -12  103.29    6.40
   0   3 -12  103.99    9.90
   0   3 -12  106.39    9.10
   0   3 -12  104.69    8.30
  -1  -3 -12   30.30    5.60
  -1   3 -12   27.40    6.00
  -1   3 -12   26.40    5.20
  -1   3 -12   36.40    5.10
  -2  -3 -12   -0.50    2.70
  -2   3 -12    2.30    2.20
  -2   3 -12   -4.70    2.60
  -2   3 -12    0.70    3.90
   3  -4 -12   15.00    4.60
   3  -4 -12   16.30    4.30
   3   4 -12   19.50    5.20
   2  -4 -12  178.68   10.80
   2  -4 -12  192.18   12.80
   2   4 -12  155.98   11.60
   2   4 -12  196.08   12.40
   2   4 -12  195.48   11.90
   1  -4 -12  177.98    9.90
   1  -4 -12  195.68   12.20
   1   4 -12  215.28   13.20
   1   4 -12  215.98   13.70
   1   4 -12  188.68   12.40
   0  -4 -12   42.10    4.30
   0  -4 -12   44.90    6.50
   0   4 -12   39.50    6.80
   0   4 -12   41.80    7.10
   0   4 -12   42.70    6.10
  -1  -4 -12    3.90    2.90
  -1   4 -12   12.70    6.10
  -1   4 -12    9.30    3.20
  -2  -4 -12  287.27   14.20
  -2   4 -12  251.97   13.50
   1  -5 -12  111.39    9.00
   1  -5 -12  116.29    7.90
   1   5 -12   99.89    9.50
   4   0 -13  123.89    9.70
   3   0 -13    3.70    4.20
   3   0 -13    4.00    2.70
   3   0 -13    9.20    4.00
   2   0 -13   53.49    6.10
   2   0 -13   57.19    7.30
   2   0 -13   54.89    6.40
   1   0 -13   39.40    6.20
   1   0 -13   37.50    5.20
   1   0 -13   44.20    6.10
   0   0 -13  146.59    8.60
   0   0 -13  153.08   11.60
   0   0 -13  134.69   10.00
  -1   0 -13   83.49    5.70
  -1   0 -13   99.29    8.80
  -1   0 -13   83.69    8.90
  -2   0 -13  500.15   21.70
  -2   0 -13  481.25   24.90
   4   1 -13   67.89    7.80
   3  -1 -13  271.07   14.90
   3  -1 -13  249.88   13.90
   3  -1 -13  236.28   12.10
   3   1 -13  223.38   13.30
   3   1 -13  222.08   12.90
   3   1 -13  227.18   13.90
   2  -1 -13   44.50    5.70
   2  -1 -13   44.40    6.70
   2  -1 -13   56.69    6.20
   2   1 -13   52.59    6.70
   2   1 -13   50.99    6.40
   2   1 -13   56.89    7.80
   1  -1 -13  104.19    8.20
   1  -1 -13  103.99    9.20
   1  -1 -13  113.99    7.90
   1   1 -13  139.19   11.10
   1   1 -13  105.59    8.60
   1   1 -13  105.59    8.30
   0  -1 -13  396.96   19.70
   0  -1 -13  391.06   15.90
   0  -1 -13  432.36   17.80
   0   1 -13  412.26   17.20
   0   1 -13  412.16   19.70
   0   1 -13  419.26   19.00
  -1  -1 -13   19.90    5.00
  -1  -1 -13   13.40    4.20
  -1   1 -13   18.30    4.60
  -1   1 -13   19.70    3.40
  -1   1 -13   25.50    4.90
  -2  -1 -13   37.30    5.80
  -2  -1 -13   38.40    6.10
  -2   1 -13   38.10    5.90
   4   2 -13   99.29    9.80
   3  -2 -13   13.10    3.70
   3   2 -13    0.90    3.70
   3   2 -13   12.10    4.80
   3   2 -13   13.90    5.00
   2  -2 -13  389.46   17.40
   2  -2 -13  400.56   19.40
   2   2 -13  394.76   18.50
   2   2 -13  386.76   19.50
   2   2 -13  390.36   18.30
   1  -2 -13  104.59    7.30
   1  -2 -13   97.89    9.80
   1   2 -13   82.39    7.40
   1   2 -13  100.49    9.60
   1   2 -13  114.99    9.10
   0  -2 -13   14.90    2.80
   0  -2 -13   21.20    4.70
   0   2 -13   14.40    4.90
   0   2 -13   14.90    5.10
   0   2 -13   22.20    4.30
  -1  -2 -13  281.37   15.80
  -1   2 -13  320.67   16.70
  -1   2 -13  276.47   13.20
  -2  -2 -13   96.99    9.70
  -2   2 -13  113.79    7.30
   3  -3 -13   11.30    4.40
   3   3 -13    1.20    3.30
   2  -3 -13   28.30    4.80
   2  -3 -13   25.70    6.00
   2   3 -13   24.50    6.00
   2   3 -13   25.60    5.20
   1  -3 -13  345.77   15.10
   1  -3 -13  359.06   18.00
   1   3 -13  344.37   18.20
   1   3 -13  353.36   17.20
   1   3 -13  405.76   19.30
   0  -3 -13   46.60    4.60
   0  -3 -13   54.89    7.50
   0   3 -13   56.79    6.50
  -1  -3 -13  160.98   11.20
  -1   3 -13  180.18   10.40
   2   0 -14    5.40    3.10
   2   0 -14   16.70    4.40
   1   0 -14    8.40    2.70
   1   0 -14    4.90    3.70
   0   0 -14   25.60    5.20
   0   0 -14   25.80    4.10
   2  -1 -14   25.50    4.40
   2   1 -14   23.00    5.40
   1  -1 -14  116.29    8.00
   1   1 -14  119.89    9.20
   1   1 -14  100.79    8.00
   0  -1 -14   24.40    5.00
   0  -1 -14   26.90    3.70
   0   1 -14   21.60    5.40
   0   1 -14   22.10    4.10
   0   0   0    0.00    0.00

_computing_structure_solution     'SHELXT 2014/5 (Sheldrick, 2014)'
;
_shelx_hkl_checksum              9688
_shelx_shelxl_version_number     2014/7
_olex2_submission_special_instructions 'No special instructions were received'
loop_
_space_group_symop_operation_xyz
'x, y, z'
'-x, y+1/2, -z'
loop_
_atom_site_label
_atom_site_type_symbol
_atom_site_fract_x
_atom_site_fract_y
_atom_site_fract_z
_atom_site_U_iso_or_equiv
_atom_site_adp_type
_atom_site_occupancy
_atom_site_site_symmetry_order
_atom_site_calc_flag
_atom_site_refinement_flags_posn
Cl1 Cl 0.65647(7) 0.19323(7) 0.13629(4) 0.01937(13) Uani 1 1 d .
O1 O 0.5224(2) 0.2955(2) 0.38508(13) 0.0169(3) Uani 1 1 d .
O2 O 0.19222(19) 0.4026(2) 0.27457(13) 0.0168(3) Uani 1 1 d D
H2 H 0.221(4) 0.304(4) 0.317(3) 0.044(9) Uiso 1 1 d D
N1 N 0.8565(2) 0.4290(3) 0.36893(15) 0.0136(4) Uani 1 1 d D
H1A H 0.965(3) 0.460(3) 0.338(2) 0.021(6) Uiso 1 1 d D
H1B H 0.873(4) 0.458(4) 0.4508(19) 0.026(7) Uiso 1 1 d D
H1C H 0.850(4) 0.305(3) 0.366(2) 0.029(8) Uiso 1 1 d D
C1 C 0.5223(3) 0.4237(3) 0.31967(17) 0.0126(4) Uani 1 1 d .
C2 C 0.3483(3) 0.5092(3) 0.26274(18) 0.0135(4) Uani 1 1 d .
H2A H 0.3578 0.5290 0.1766 0.016 Uiso 1 1 calc R
C3 C 0.3301(3) 0.6901(3) 0.32322(18) 0.0165(4) Uani 1 1 d .
H3A H 0.2214 0.7534 0.2840 0.020 Uiso 1 1 calc R
H3B H 0.3118 0.6707 0.4072 0.020 Uiso 1 1 calc R
C4 C 0.5001(3) 0.8056(3) 0.31739(19) 0.0168(5) Uani 1 1 d .
H4A H 0.4885 0.9167 0.3630 0.020 Uiso 1 1 calc R
H4B H 0.5090 0.8388 0.2339 0.020 Uiso 1 1 calc R
C5 C 0.6740(3) 0.7069(3) 0.36779(17) 0.0142(4) Uani 1 1 d .
H5A H 0.6695 0.6835 0.4532 0.017 Uiso 1 1 calc R
H5B H 0.7814 0.7837 0.3603 0.017 Uiso 1 1 calc R
C6 C 0.6978(3) 0.5273(3) 0.30326(17) 0.0121(4) Uani 1 1 d .
C7 C 0.7327(2) 0.5480(3) 0.17314(16) 0.0133(4) Uani 1 1 d .
C8 C 0.7194(3) 0.4056(3) 0.09345(18) 0.0146(4) Uani 1 1 d .
C9 C 0.7586(3) 0.4236(3) -0.02248(18) 0.0187(4) Uani 1 1 d .
H9 H 0.7483 0.3237 -0.0744 0.022 Uiso 1 1 calc R
C10 C 0.8126(3) 0.5872(3) -0.06220(19) 0.0216(5) Uani 1 1 d .
H10 H 0.8389 0.6009 -0.1416 0.026 Uiso 1 1 calc R
C11 C 0.8281(3) 0.7308(3) 0.0146(2) 0.0203(5) Uani 1 1 d .
H11 H 0.8646 0.8438 -0.0124 0.024 Uiso 1 1 calc R
C12 C 0.7907(3) 0.7115(3) 0.13100(18) 0.0165(4) Uani 1 1 d .
H12 H 0.8048 0.8111 0.1830 0.020 Uiso 1 1 calc R
Cl2 Cl 0.96235(7) 0.54826(7) 0.62907(4) 0.01584(12) Uani 1 1 d .
loop_
_atom_site_aniso_label
_atom_site_aniso_U_11
_atom_site_aniso_U_22
_atom_site_aniso_U_33
_atom_site_aniso_U_23
_atom_site_aniso_U_13
_atom_site_aniso_U_12
Cl1 0.0251(3) 0.0136(2) 0.0194(2) -0.0026(2) 0.0030(2) -0.0017(2)
O1 0.0169(8) 0.0162(8) 0.0184(8) 0.0044(6) 0.0049(6) 0.0001(6)
O2 0.0106(7) 0.0179(8) 0.0221(8) 0.0020(6) 0.0029(6) -0.0013(6)
N1 0.0121(9) 0.0157(9) 0.0129(8) 0.0005(7) 0.0009(7) 0.0004(7)
C1 0.0153(10) 0.0127(10) 0.0103(9) -0.0035(8) 0.0036(8) -0.0002(8)
C2 0.0126(10) 0.0143(11) 0.0142(9) 0.0003(8) 0.0035(8) -0.0019(8)
C3 0.0152(10) 0.0153(10) 0.0190(10) -0.0012(10) 0.0019(8) 0.0042(9)
C4 0.0181(11) 0.0133(11) 0.0190(11) -0.0023(8) 0.0023(8) 0.0013(9)
C5 0.0146(10) 0.0138(10) 0.0139(9) -0.0023(9) 0.0009(7) -0.0010(9)
C6 0.0100(9) 0.0130(10) 0.0130(9) -0.0005(8) 0.0004(7) 0.0003(8)
C7 0.0095(9) 0.0170(10) 0.0135(9) 0.0011(9) 0.0011(7) 0.0020(9)
C8 0.0113(10) 0.0160(11) 0.0161(10) 0.0028(8) -0.0002(8) 0.0012(8)
C9 0.0167(10) 0.0252(11) 0.0138(10) -0.0010(10) 0.0005(8) 0.0065(9)
C10 0.0170(11) 0.0336(15) 0.0144(10) 0.0073(9) 0.0032(8) 0.0043(9)
C11 0.0147(10) 0.0250(13) 0.0214(11) 0.0093(9) 0.0029(8) 0.0001(9)
C12 0.0135(10) 0.0170(11) 0.0191(10) 0.0012(9) 0.0017(8) -0.0018(9)
Cl2 0.0185(2) 0.0136(2) 0.0152(2) -0.0006(2) 0.00070(17) -0.0007(2)
loop_
_atom_type_symbol
_atom_type_description
_atom_type_scat_dispersion_real
_atom_type_scat_dispersion_imag
_atom_type_scat_source
C C 0.0033 0.0016 'International Tables Vol C Tables 4.2.6.8 and 6.1.1.4'
H H 0.0000 0.0000 'International Tables Vol C Tables 4.2.6.8 and 6.1.1.4'
Cl Cl 0.1484 0.1585 'International Tables Vol C Tables 4.2.6.8 and 6.1.1.4'
N N 0.0061 0.0033 'International Tables Vol C Tables 4.2.6.8 and 6.1.1.4'
O O 0.0106 0.0060 'International Tables Vol C Tables 4.2.6.8 and 6.1.1.4'
loop_
_geom_angle_atom_site_label_1
_geom_angle_atom_site_label_2
_geom_angle_atom_site_label_3
_geom_angle
C2 O2 H2 112(2)
H1A N1 H1B 107(2)
H1A N1 H1C 106(2)
H1B N1 H1C 105(2)
C6 N1 H1A 110.1(16)
C6 N1 H1B 112.1(16)
C6 N1 H1C 115.8(18)
O1 C1 C2 122.50(18)
O1 C1 C6 122.30(19)
C2 C1 C6 114.63(17)
O2 C2 C1 112.09(16)
O2 C2 H2A 109.1
O2 C2 C3 109.94(16)
C1 C2 H2A 109.1
C1 C2 C3 107.39(16)
C3 C2 H2A 109.1
C2 C3 H3A 109.3
C2 C3 H3B 109.3
H3A C3 H3B 108.0
C4 C3 C2 111.46(17)
C4 C3 H3A 109.3
C4 C3 H3B 109.3
C3 C4 H4A 109.4
C3 C4 H4B 109.4
C3 C4 C5 111.25(17)
H4A C4 H4B 108.0
C5 C4 H4A 109.4
C5 C4 H4B 109.4
C4 C5 H5A 109.1
C4 C5 H5B 109.1
C4 C5 C6 112.30(16)
H5A C5 H5B 107.9
C6 C5 H5A 109.1
C6 C5 H5B 109.1
N1 C6 C1 107.91(17)
N1 C6 C5 108.41(15)
N1 C6 C7 108.56(16)
C1 C6 C5 103.68(15)
C7 C6 C1 113.97(16)
C7 C6 C5 114.01(18)
C8 C7 C6 122.64(19)
C8 C7 C12 116.61(18)
C12 C7 C6 120.64(19)
C7 C8 Cl1 121.19(16)
C9 C8 Cl1 116.44(18)
C9 C8 C7 122.4(2)
C8 C9 H9 120.1
C10 C9 C8 119.7(2)
C10 C9 H9 120.1
C9 C10 H10 120.3
C9 C10 C11 119.4(2)
C11 C10 H10 120.3
C10 C11 H11 119.7
C10 C11 C12 120.6(2)
C12 C11 H11 119.7
C7 C12 H12 119.3
C11 C12 C7 121.3(2)
C11 C12 H12 119.3
loop_
_geom_bond_atom_site_label_1
_geom_bond_atom_site_label_2
_geom_bond_distance
Cl1 C8 1.744(2)
O1 C1 1.215(3)
O2 H2 0.89(2)
O2 C2 1.419(2)
N1 H1A 0.94(2)
N1 H1B 0.95(2)
N1 H1C 0.93(2)
N1 C6 1.502(3)
C1 C2 1.507(3)
C1 C6 1.538(3)
C2 H2A 1.0000
C2 C3 1.533(3)
C3 H3A 0.9900
C3 H3B 0.9900
C3 C4 1.529(3)
C4 H4A 0.9900
C4 H4B 0.9900
C4 C5 1.529(3)
C5 H5A 0.9900
C5 H5B 0.9900
C5 C6 1.553(3)
C6 C7 1.537(3)
C7 C8 1.395(3)
C7 C12 1.400(3)
C8 C9 1.387(3)
C9 H9 0.9500
C9 C10 1.382(4)
C10 H10 0.9500
C10 C11 1.382(3)
C11 H11 0.9500
C11 C12 1.389(3)
C12 H12 0.9500
loop_
_geom_hbond_atom_site_label_D
_geom_hbond_atom_site_label_H
_geom_hbond_atom_site_label_A
_geom_hbond_distance_DH
_geom_hbond_distance_HA
_geom_hbond_distance_DA
_geom_hbond_angle_DHA
_geom_hbond_site_symmetry_A
O2 H2 Cl2 0.89(2) 2.46(3) 3.1370(17) 133(3) 2_646
N1 H1A O2 0.94(2) 1.95(2) 2.815(2) 153(2) 1_655
N1 H1B Cl2 0.95(2) 2.16(2) 3.0963(18) 168(2) .
N1 H1C Cl2 0.93(2) 2.37(2) 3.149(2) 142(2) 2_746
