#------------------------------------------------------------------------------
#$Date: 2017-12-05 15:20:46 +0200 (Tue, 05 Dec 2017) $
#$Revision: 203992 $
#$URL: file:///home/coder/svn-repositories/cod/cif/1/54/79/1547900.cif $
#------------------------------------------------------------------------------
#
# This file is available in the Crystallography Open Database (COD),
# http://www.crystallography.net/
#
# All data on this site have been placed in the public domain by the
# contributors.
#
data_1547900
loop_
_publ_author_name
'Salama, Michael'
'Shterenberg, Ivgeni'
'J.W. Shimon, Linda'
'Keinan-Adamsky, Keren'
'Afri, Michal'
'Gofer, Yosef'
'Aurbach, Doron'
_publ_section_title
;
 Structural Analysis of Magnesium Chloride Complexes in Dimethoxyethane
 Solutions in the Context of Mg Batteries Research
;
_journal_issue                   45
_journal_name_full               'The Journal of Physical Chemistry C'
_journal_page_first              24909
_journal_paper_doi               10.1021/acs.jpcc.7b05452
_journal_volume                  121
_journal_year                    2017
_chemical_formula_moiety         'C8 H20 Cl2 Mg O4'
_chemical_formula_sum            'C8 H20 Cl2 Mg O4'
_chemical_formula_weight         275.45
_space_group_crystal_system      triclinic
_space_group_IT_number           2
_space_group_name_Hall           '-P 1'
_space_group_name_H-M_alt        'P -1'
_symmetry_space_group_name_Hall  '-P 1'
_symmetry_space_group_name_H-M   'P -1'
_atom_sites_solution_hydrogens   geom
_audit_creation_method           SHELXL-2016/4
_cell_angle_alpha                83.146(2)
_cell_angle_beta                 85.655(2)
_cell_angle_gamma                62.313(2)
_cell_formula_units_Z            2
_cell_length_a                   7.3174(4)
_cell_length_b                   7.3446(4)
_cell_length_c                   14.0810(7)
_cell_measurement_reflns_used    9897
_cell_measurement_temperature    100(2)
_cell_measurement_theta_max      30.61
_cell_measurement_theta_min      2.92
_cell_volume                     665.14(6)
_computing_cell_refinement       'Bruker Apex2'
_computing_data_collection       'Bruker Apex2'
_computing_data_reduction        'Bruker Apex2'
_computing_structure_refinement  'SHELXL-2016/4 (Sheldrick, 2016)'
_computing_structure_solution    'SHELXT-2016/4 (Sheldrick, 2016)'
_diffrn_ambient_temperature      100(2)
_diffrn_measured_fraction_theta_full 0.998
_diffrn_measured_fraction_theta_max 0.998
_diffrn_measurement_device_type  'Bruker KappaApexII CCD'
_diffrn_measurement_method       'phi and omega scans'
_diffrn_radiation_type           MoK\a
_diffrn_radiation_wavelength     0.71073
_diffrn_reflns_av_R_equivalents  0.0264
_diffrn_reflns_av_unetI/netI     0.0207
_diffrn_reflns_Laue_measured_fraction_full 0.998
_diffrn_reflns_Laue_measured_fraction_max 0.998
_diffrn_reflns_limit_h_max       10
_diffrn_reflns_limit_h_min       -10
_diffrn_reflns_limit_k_max       9
_diffrn_reflns_limit_k_min       -10
_diffrn_reflns_limit_l_max       20
_diffrn_reflns_limit_l_min       -20
_diffrn_reflns_number            26202
_diffrn_reflns_point_group_measured_fraction_full 0.998
_diffrn_reflns_point_group_measured_fraction_max 0.998
_diffrn_reflns_theta_full        25.242
_diffrn_reflns_theta_max         30.648
_diffrn_reflns_theta_min         3.145
_diffrn_source                   sealed-tube
_exptl_absorpt_coefficient_mu    0.528
_exptl_absorpt_correction_T_max  0.919
_exptl_absorpt_correction_T_min  0.881
_exptl_absorpt_correction_type   multi-scan
_exptl_absorpt_process_details   SADABS
_exptl_crystal_colour            colourless
_exptl_crystal_density_diffrn    1.375
_exptl_crystal_description       prism
_exptl_crystal_F_000             292
_exptl_crystal_size_max          0.240
_exptl_crystal_size_mid          0.200
_exptl_crystal_size_min          0.160
_refine_diff_density_max         0.426
_refine_diff_density_min         -0.210
_refine_diff_density_rms         0.045
_refine_ls_extinction_method     none
_refine_ls_goodness_of_fit_ref   1.034
_refine_ls_hydrogen_treatment    constr
_refine_ls_matrix_type           full
_refine_ls_number_parameters     140
_refine_ls_number_reflns         4112
_refine_ls_number_restraints     0
_refine_ls_restrained_S_all      1.034
_refine_ls_R_factor_all          0.0273
_refine_ls_R_factor_gt           0.0228
_refine_ls_shift/su_max          0.001
_refine_ls_shift/su_mean         0.000
_refine_ls_structure_factor_coef Fsqd
_refine_ls_weighting_details
'w=1/[\s^2^(Fo^2^)+(0.0243P)^2^+0.1714P] where P=(Fo^2^+2Fc^2^)/3'
_refine_ls_weighting_scheme      calc
_refine_ls_wR_factor_gt          0.0545
_refine_ls_wR_factor_ref         0.0568
_reflns_Friedel_coverage         0.000
_reflns_number_gt                3680
_reflns_number_total             4112
_reflns_threshold_expression     'I > 2\s(I)'
_cod_data_source_file            jp7b05452_si_003.cif
_cod_data_source_block           ms7
_cod_depositor_comments
'Adding full bibliography for 1547897--1547901.cif.'
_cod_database_code               1547900
_shelx_shelxl_version_number     2016/4
_shelx_space_group_comment
;
The symmetry employed for this shelxl refinement is uniquely defined
by the following loop, which should always be used as a source of
symmetry information in preference to the above space-group names.
They are only intended as comments.
;
_shelx_estimated_absorpt_t_min   0.884
_shelx_estimated_absorpt_t_max   0.920
_shelx_res_file
;
TITL ms7 in P-1
 ms7.res created by SHELXL-2016/4 at 13:52:17 on 08-Jan-2017
CELL 0.71073 7.3174 7.3446 14.0810 83.146 85.655 62.313
ZERR 2.00 0.0004 0.0004 0.0007 0.002 0.002 0.002
LATT 1
SFAC C  H  O  Mg Cl
UNIT 16  40  8  2  4
L.S. 4
ACTA
BOND $H
FMAP 2
rem Michael Salama BarIlan
rem colorless prism rounded
size 0.24 0.20 0.16
conf
PLAN 12
TEMP -173.000
omit 0 0 1
omit -1 4 3
WGHT    0.024300    0.171400
FVAR       0.24915
MG2   4    0.973163    1.044265    0.245364    11.00000    0.01327    0.01364 =
         0.01229   -0.00076   -0.00101   -0.00648
CL2   5    0.889813    1.311488    0.348628    11.00000    0.02087    0.01623 =
         0.01446   -0.00282   -0.00071   -0.00908
CL3   5    1.235458    1.082811    0.147500    11.00000    0.01595    0.02307 =
         0.01703   -0.00257    0.00164   -0.01145
O1    3    0.760208    0.951121    0.334953    11.00000    0.01719    0.01797 =
         0.01385    0.00020    0.00026   -0.00803
O2    3    1.166615    0.799576    0.341016    11.00000    0.01600    0.01527 =
         0.01831    0.00230   -0.00225   -0.00577
O3    3    0.724118    1.230681    0.151972    11.00000    0.01695    0.01538 =
         0.01343    0.00027   -0.00243   -0.00810
O4    3    0.973983    0.830605    0.151273    11.00000    0.01633    0.01553 =
         0.01743   -0.00185   -0.00194   -0.00856
C1    1    0.548610    1.097984    0.351739    11.00000    0.01765    0.02301 =
         0.02166   -0.00227    0.00296   -0.00983
AFIX 137
H1A   2    0.475615    1.026873    0.386877    11.00000   -1.50000
H1B   2    0.482334    1.163019    0.290345    11.00000   -1.50000
H1C   2    0.543755    1.204093    0.389429    11.00000   -1.50000
AFIX   0
C2    1    0.856565    0.844388    0.424046    11.00000    0.02431    0.02031 =
         0.01305    0.00133    0.00057   -0.00967
AFIX  23
H2A   2    0.780667    0.772671    0.457435    11.00000   -1.20000
H2B   2    0.855435    0.943862    0.466032    11.00000   -1.20000
AFIX   0
C3    1    1.074846    0.690560    0.401875    11.00000    0.02600    0.01668 =
         0.01492    0.00291   -0.00142   -0.00908
AFIX  23
H3A   2    1.152822    0.629369    0.461647    11.00000   -1.20000
H3B   2    1.076468    0.578034    0.368919    11.00000   -1.20000
AFIX   0
C4    1    1.387682    0.688765    0.339426    11.00000    0.01676    0.02065 =
         0.03008    0.00108   -0.00625   -0.00489
AFIX 137
H4A   2    1.438274    0.673438    0.403849    11.00000   -1.50000
H4B   2    1.443617    0.765213    0.295314    11.00000   -1.50000
H4C   2    1.432280    0.551891    0.318028    11.00000   -1.50000
AFIX   0
C5    1    0.681766    1.439508    0.120619    11.00000    0.02291    0.01650 =
         0.01863    0.00257   -0.00321   -0.00858
AFIX 137
H5A   2    0.780207    1.439463    0.069387    11.00000   -1.50000
H5B   2    0.695160    1.505332    0.174440    11.00000   -1.50000
H5C   2    0.541017    1.516292    0.096627    11.00000   -1.50000
AFIX   0
C6    1    0.706660    1.127955    0.074469    11.00000    0.02144    0.02180 =
         0.01407   -0.00051   -0.00434   -0.01224
AFIX  23
H6A   2    0.795269    1.137524    0.019385    11.00000   -1.20000
H6B   2    0.562041    1.193423    0.053360    11.00000   -1.20000
AFIX   0
C7    1    0.774491    0.905857    0.110813    11.00000    0.01886    0.02111 =
         0.01751   -0.00100   -0.00347   -0.01232
AFIX  23
H7A   2    0.675232    0.894595    0.160005    11.00000   -1.20000
H7B   2    0.783098    0.824821    0.057774    11.00000   -1.20000
AFIX   0
C8    1    1.080176    0.609258    0.164566    11.00000    0.02273    0.01579 =
         0.02063   -0.00231   -0.00052   -0.00890
AFIX 137
H8A   2    1.001053    0.559257    0.209720    11.00000   -1.50000
H8B   2    1.217205    0.563893    0.190023    11.00000   -1.50000
H8C   2    1.094827    0.553387    0.103037    11.00000   -1.50000
AFIX   0
HKLF 4 1 1 0 0 0 1 0 0 0 1




REM  ms7 in P-1
REM R1 =  0.0228 for    3680 Fo > 4sig(Fo)  and  0.0273 for all    4112 data
REM    140 parameters refined using      0 restraints

END

WGHT      0.0246      0.1610

REM Highest difference peak  0.426,  deepest hole -0.210,  1-sigma level  0.045
Q1    1   0.7331  1.0178  0.0957  11.00000  0.05    0.43
Q2    1   0.9707  0.7631  0.4145  11.00000  0.05    0.37
Q3    1   0.7245  1.1890  0.1177  11.00000  0.05    0.26
Q4    1   1.1252  0.7428  0.3731  11.00000  0.05    0.25
Q5    1   1.2022  1.0216  0.1961  11.00000  0.05    0.24
Q6    1   0.8006  0.9045  0.3772  11.00000  0.05    0.24
Q7    1   1.1158  0.8600  0.3079  11.00000  0.05    0.23
Q8    1   0.8647  1.3031  0.2937  11.00000  0.05    0.22
Q9    1   0.6823  1.2031  0.1951  11.00000  0.05    0.21
Q10   1   1.2389  0.7725  0.3367  11.00000  0.05    0.20
Q11   1   0.8097  1.1870  0.1743  11.00000  0.05    0.20
Q12   1   0.8842  0.8659  0.1327  11.00000  0.05    0.20
;
_shelx_res_checksum              13347
_shelx_hkl_file
;
  -1   0   0  279.06    7.76
  -1   0   0  268.08    6.82
  -1   0   0  267.51    7.66
  -1   0   0  267.66    6.87
  -1   0   0  266.83    6.83
  -1   0   0  268.50    7.31
   1   0   0  268.38    6.91
   1   0   0  265.01    6.91
   1   0   0  285.18    7.31
   1   0   0  261.59    7.30
   1   0   0  272.12    7.53
   1   0   0  267.49    7.66
   1   0   0  281.01    7.69
  -2   0   0   37.83    1.03
  -2   0   0   39.06    1.25
  -2   0   0   39.25    1.17
  -2   0   0   37.76    1.24
  -2   0   0   39.54    1.24
   2   0   0   40.41    1.24
   2   0   0   39.45    1.06
   2   0   0   37.28    1.15
   2   0   0   39.53    1.08
   2   0   0   38.29    1.16
   2   0   0   40.22    1.11
   2   0   0   38.90    1.24
   2   0   0   38.60    1.24
  -3   0   0    0.98    0.17
  -3   0   0    1.28    0.13
  -3   0   0    1.11    0.18
  -3   0   0    1.08    0.18
  -3   0   0    0.94    0.15
   3   0   0    1.66    0.21
   3   0   0    1.32    0.18
   3   0   0    1.31    0.15
   3   0   0    1.34    0.15
   3   0   0    1.50    0.16
   3   0   0    1.28    0.16
   3   0   0    1.26    0.13
   3   0   0    0.92    0.16
  -4   0   0   33.67    1.26
  -4   0   0   35.18    1.28
  -4   0   0   35.40    1.21
  -4   0   0   34.74    1.30
  -4   0   0   34.47    1.04
   4   0   0   34.93    1.11
   4   0   0   32.83    1.07
   4   0   0   36.33    1.15
   4   0   0   35.14    1.18
   4   0   0   36.21    1.27
   4   0   0   37.89    1.14
   4   0   0   36.11    1.23
   4   0   0   34.97    1.25
   4   0   0   35.59    1.03
   4   0   0   36.72    1.05
  -5   0   0    0.18    0.11
  -5   0   0   -0.05    0.09
  -5   0   0   -0.02    0.08
  -5   0   0    0.00    0.11
  -5   0   0   -0.14    0.08
   5   0   0   -0.05    0.10
   5   0   0   -0.05    0.08
   5   0   0   -0.06    0.12
   5   0   0   -0.05    0.08
   5   0   0   -0.09    0.06
   5   0   0    0.00    0.07
   5   0   0   -0.07    0.09
   5   0   0    0.00    0.09
  -6   0   0   14.82    0.60
  -6   0   0   13.01    0.73
  -6   0   0   14.71    0.74
  -6   0   0   13.01    0.77
   6   0   0   14.62    0.64
   6   0   0   15.05    0.73
   6   0   0   14.01    0.59
   6   0   0   14.20    0.75
   6   0   0   13.42    0.49
   6   0   0   13.96    0.51
  -7   0   0    0.08    0.13
   7   0   0    0.04    0.16
   7   0   0    0.09    0.13
   7   0   0    0.19    0.15
   7   0   0   -0.05    0.13
   7   0   0    0.08    0.06
  -8   0   0    8.31    0.50
   8   0   0    8.98    0.63
   8   0   0    7.47    0.63
   8   0   0    8.32    0.52
   8   0   0    7.36    0.44
   8   0   0    8.35    0.47
   9   0   0    4.18    0.44
   9   0   0    3.69    0.30
   9   0   0    4.66    0.33
   9   0   0    3.76    0.52
   9   0   0    4.26    0.57
   8  -1   0    1.52    0.36
   8  -1   0    2.11    0.35
   8  -1   0    1.30    0.15
   8  -1   0    1.81    0.36
   8  -1   0    1.74    0.28
  -8   1   0    1.59    0.29
   7  -1   0    0.53    0.23
   7  -1   0    0.14    0.15
   7  -1   0    0.55    0.14
   7  -1   0    0.67    0.21
   7  -1   0    0.74    0.24
   7  -1   0    0.73    0.16
  -7   1   0    0.85    0.22
   6  -1   0    8.96    0.53
   6  -1   0    9.37    0.60
   6  -1   0   11.00    0.57
   6  -1   0   10.11    0.47
   6  -1   0   10.19    0.47
   6  -1   0   10.16    0.53
   6  -1   0    9.81    0.63
  -6   1   0    8.42    0.62
  -6   1   0   10.29    0.51
   5  -1   0   49.12    1.72
   5  -1   0   47.30    1.55
   5  -1   0   46.39    1.47
   5  -1   0   47.86    1.51
   5  -1   0   49.19    1.63
   5  -1   0   49.31    1.45
   5  -1   0   50.07    1.76
  -5   1   0   47.68    1.47
  -5   1   0   48.82    1.80
  -5   1   0   48.29    1.83
  -5   1   0   48.34    1.70
  -5   1   0   48.05    1.78
   4  -1   0   49.83    1.52
   4  -1   0   51.19    1.77
   4  -1   0   50.27    1.47
   4  -1   0   51.03    1.63
   4  -1   0   51.36    1.56
   4  -1   0   50.44    1.76
  -4   1   0   52.11    1.79
  -4   1   0   50.87    1.69
  -4   1   0   48.63    1.76
  -4   1   0   48.73    1.45
  -4   1   0   48.37    1.79
   3  -1   0   64.97    1.79
   3  -1   0   61.60    1.82
   3  -1   0   65.26    1.98
   3  -1   0   66.19    2.10
   3  -1   0   66.10    2.11
  -3   1   0   64.95    1.99
  -3   1   0   63.96    2.10
  -3   1   0   62.55    2.09
  -3   1   0   64.06    1.76
   2  -1   0   64.39    1.98
   2  -1   0   62.20    1.96
   2  -1   0   62.18    1.87
   2  -1   0   62.28    1.85
   2  -1   0   61.91    1.72
   2  -1   0   62.51    1.69
   2  -1   0   59.65    1.83
  -2   1   0   61.83    1.86
  -2   1   0   62.86    1.98
  -2   1   0   61.31    1.66
  -2   1   0   60.69    1.95
  -2   1   0   63.52    1.97
   1  -1   0   38.72    1.22
   1  -1   0   37.15    1.14
   1  -1   0   38.79    1.07
   1  -1   0   38.10    1.05
   1  -1   0   37.68    1.16
  -1   1   0   37.88    1.21
  -1   1   0   37.98    1.03
  -1   1   0   37.39    1.05
  -1   1   0   38.33    1.06
  -1   1   0   38.38    1.22
  -1   1   0   38.70    1.15
   0  -1   0  208.25    6.33
   0  -1   0  226.13    6.08
   0  -1   0  242.56    6.67
   0  -1   0  249.90    6.52
   0  -1   0  253.52    6.86
   0   1   0  243.19    6.51
   0   1   0  248.60    6.83
   0   1   0  246.49    6.02
   0   1   0  249.06    6.20
  -1  -1   0  165.65    4.38
  -1  -1   0  167.25    4.27
  -1  -1   0  165.54    4.74
  -1  -1   0  168.03    4.29
  -1  -1   0  169.96    4.74
   1   1   0  166.20    4.55
   1   1   0  167.76    4.27
   1   1   0  169.88    4.74
  -2  -1   0   16.30    0.49
  -2  -1   0   15.67    0.48
  -2  -1   0   16.36    0.51
  -2  -1   0   16.45    0.55
  -2  -1   0   16.03    0.49
  -2  -1   0   16.52    0.54
  -2  -1   0   15.78    0.49
  -2  -1   0   16.39    0.54
  -2  -1   0   17.43    0.54
   2   1   0   16.22    0.47
   2   1   0   15.76    0.44
   2   1   0   16.94    0.57
   2   1   0   16.51    0.54
   2   1   0   16.92    0.51
   2   1   0   16.90    0.50
   2   1   0   15.60    0.54
  -3  -1   0   92.10    2.78
  -3  -1   0   95.69    2.78
  -3  -1   0   92.12    2.63
  -3  -1   0   94.68    2.47
  -3  -1   0   93.50    2.51
  -3  -1   0   90.40    2.79
   3   1   0   93.84    2.60
   3   1   0   92.07    2.46
   3   1   0   94.38    2.51
   3   1   0   94.03    2.42
   3   1   0   95.13    2.74
   3   1   0   94.62    2.70
   3   1   0   95.10    2.78
  -4  -1   0  267.19    6.56
  -4  -1   0  255.38    7.54
  -4  -1   0  266.52    6.72
  -4  -1   0  252.67    6.77
  -4  -1   0  263.62    7.60
  -4  -1   0  265.27    7.55
  -4  -1   0  264.01    7.20
   4   1   0  261.39    7.54
   4   1   0  257.33    7.23
   4   1   0  261.85    7.55
   4   1   0  254.50    6.71
   4   1   0  252.37    6.64
   4   1   0  249.52    6.96
   4   1   0  272.42    6.77
   4   1   0  268.67    7.51
  -5  -1   0   18.93    0.61
  -5  -1   0   16.76    0.73
  -5  -1   0   17.98    0.81
  -5  -1   0   17.78    0.78
  -5  -1   0   19.38    0.80
   5   1   0   20.39    0.82
   5   1   0   18.64    0.72
   5   1   0   18.41    0.66
   5   1   0   19.37    0.67
   5   1   0   18.03    0.61
   5   1   0   18.24    0.70
   5   1   0   19.00    0.78
  -6  -1   0   30.15    1.22
  -6  -1   0   29.60    1.13
  -6  -1   0   28.64    1.16
  -6  -1   0   31.35    1.18
  -6  -1   0   30.10    0.94
   6   1   0   29.20    0.98
   6   1   0   28.29    1.12
   6   1   0   28.77    1.17
   6   1   0   28.18    1.03
   6   1   0   27.38    0.91
  -7  -1   0    0.40    0.17
  -7  -1   0    0.02    0.13
  -7  -1   0    0.00    0.15
   7   1   0    0.21    0.11
   7   1   0    0.33    0.14
   7   1   0    0.40    0.12
   7   1   0    0.28    0.17
   7   1   0    0.02    0.11
   8   1   0    6.68    0.41
   8   1   0    5.76    0.52
   8   1   0    6.78    0.53
   8   1   0    6.94    0.35
   8   1   0    6.62    0.34
   9   1   0    0.19    0.14
   9   1   0    0.34    0.23
   9   1   0    0.31    0.09
   9   1   0    0.62    0.22
   8  -2   0    6.28    0.48
   8  -2   0    7.56    0.65
   8  -2   0    6.38    0.38
   8  -2   0    6.01    0.67
  -8   2   0    6.34    0.48
   7  -2   0   30.53    1.38
   7  -2   0   28.05    1.30
   7  -2   0   29.32    1.06
   7  -2   0   28.79    1.22
   7  -2   0   30.91    1.18
  -7   2   0   29.76    1.14
   6  -2   0    1.67    0.30
   6  -2   0    1.58    0.27
   6  -2   0    1.50    0.24
   6  -2   0    1.42    0.33
   6  -2   0    1.51    0.29
  -6   2   0    1.44    0.25
   5  -2   0   21.20    0.88
   5  -2   0   21.87    0.92
   5  -2   0   22.47    1.05
   5  -2   0   23.27    0.96
   5  -2   0   22.07    0.84
  -5   2   0   22.90    1.08
  -5   2   0   23.71    1.12
  -5   2   0   21.14    0.83
   4  -2   0   52.26    1.73
   4  -2   0   51.02    1.55
   4  -2   0   50.31    1.59
   4  -2   0   51.93    1.86
  -4   2   0   51.36    1.86
  -4   2   0   50.68    1.89
  -4   2   0   52.70    1.88
  -4   2   0   46.68    1.72
  -4   2   0   50.50    1.52
   3  -2   0    8.95    0.48
   3  -2   0    9.35    0.43
   3  -2   0    9.04    0.48
   3  -2   0    9.30    0.45
   3  -2   0    8.78    0.52
   3  -2   0    9.24    0.53
  -3   2   0    8.91    0.42
  -3   2   0    9.17    0.54
  -3   2   0    8.81    0.54
  -3   2   0    8.50    0.39
  -3   2   0    7.95    0.46
  -3   2   0    9.93    0.55
   2  -2   0   29.24    1.09
   2  -2   0   28.81    0.93
   2  -2   0   29.49    1.08
   2  -2   0   29.29    1.02
   2  -2   0   29.55    1.00
   2  -2   0   25.82    0.98
   2  -2   0   28.15    0.90
  -2   2   0   28.24    0.86
  -2   2   0   28.16    0.90
  -2   2   0   28.57    0.91
  -2   2   0   27.58    1.06
  -2   2   0   29.92    1.09
  -2   2   0   28.26    1.08
  -2   2   0   29.06    1.00
   1  -2   0  101.17    2.68
   1  -2   0  102.74    2.65
   1  -2   0  100.05    2.94
   1  -2   0   97.41    2.86
   1  -2   0  102.44    3.03
  -1   2   0   98.27    3.02
  -1   2   0   99.67    3.04
  -1   2   0  102.24    3.03
  -1   2   0   99.56    2.86
  -1   2   0   98.59    2.70
  -1   2   0   97.90    2.59
   0  -2   0    3.29    0.22
   0  -2   0    3.45    0.22
   0  -2   0    3.35    0.18
   0  -2   0    3.50    0.20
   0  -2   0    3.10    0.21
   0  -2   0    3.15    0.14
   0   2   0    2.95    0.15
   0   2   0    2.84    0.17
   0   2   0    3.32    0.22
   0   2   0    3.29    0.19
   0   2   0    2.99    0.20
   0   2   0    2.95    0.12
  -1  -2   0  310.11    8.90
  -1  -2   0  330.39    9.11
  -1  -2   0  321.54    8.65
  -1  -2   0  319.32    9.08
   1   2   0  328.14    8.39
   1   2   0  311.51    8.06
   1   2   0  321.85    8.07
   1   2   0  323.63    9.07
  -2  -2   0  153.69    3.88
  -2  -2   0  153.28    3.98
  -2  -2   0  149.75    3.97
  -2  -2   0  148.40    4.34
  -2  -2   0  153.47    4.29
  -2  -2   0  154.91    4.34
  -2  -2   0  156.42    4.07
   2   2   0  155.12    4.34
   2   2   0  154.67    4.34
   2   2   0  153.20    3.97
   2   2   0  151.27    4.24
  -3  -2   0   13.13    0.46
  -3  -2   0   13.10    0.41
  -3  -2   0   13.39    0.48
  -3  -2   0   13.40    0.45
  -3  -2   0   12.65    0.40
  -3  -2   0   12.64    0.41
  -3  -2   0   12.77    0.44
  -3  -2   0   13.93    0.46
   3   2   0   13.73    0.52
   3   2   0   13.26    0.46
   3   2   0   13.29    0.46
   3   2   0   12.50    0.52
   3   2   0   13.14    0.47
  -4  -2   0   65.94    2.03
  -4  -2   0   65.43    1.88
  -4  -2   0   68.83    2.06
  -4  -2   0   66.94    2.04
  -4  -2   0   65.70    1.83
  -4  -2   0   66.19    1.92
   4   2   0   67.01    1.76
   4   2   0   66.37    1.76
   4   2   0   68.88    2.04
   4   2   0   68.03    1.98
   4   2   0   67.17    1.88
  -5  -2   0    4.71    0.25
  -5  -2   0    4.59    0.29
  -5  -2   0    4.05    0.29
  -5  -2   0    5.14    0.29
  -5  -2   0    5.18    0.33
  -5  -2   0    4.87    0.31
   5   2   0    4.75    0.23
   5   2   0    5.11    0.35
   5   2   0    4.36    0.33
   5   2   0    4.62    0.28
   5   2   0    4.25    0.30
  -6  -2   0    3.12    0.28
  -6  -2   0    2.82    0.27
  -6  -2   0    3.39    0.31
  -6  -2   0    3.14    0.22
  -6  -2   0    3.52    0.30
   6   2   0    3.46    0.38
   6   2   0    3.10    0.21
   6   2   0    3.28    0.36
   6   2   0    3.28    0.27
  -7  -2   0   14.92    0.75
  -7  -2   0   14.35    0.78
  -7  -2   0   14.82    0.73
   7   2   0   15.82    0.82
   7   2   0   17.60    0.61
   7   2   0   17.07    0.81
  -8  -2   0   15.56    0.82
  -8  -2   0   14.63    0.86
   8   2   0   16.40    0.88
   8   2   0   16.55    0.62
   8   2   0   16.09    0.84
   9   2   0    0.53    0.23
   9   2   0    0.37    0.19
   9   2   0    0.32    0.12
  10   2   0   13.57    0.89
  10   2   0   13.32    0.89
   7  -3   0   24.39    1.30
   7  -3   0   26.52    1.02
   7  -3   0   25.72    1.20
   7  -3   0   25.44    1.26
  -7   3   0   26.11    1.06
   6  -3   0    5.20    0.46
   6  -3   0    4.42    0.37
   6  -3   0    4.22    0.49
   6  -3   0    4.89    0.48
  -6   3   0    4.38    0.37
   5  -3   0    0.02    0.13
   5  -3   0   -0.08    0.12
   5  -3   0   -0.09    0.13
  -5   3   0   -0.34    0.10
  -5   3   0    0.05    0.18
   4  -3   0   25.59    1.08
   4  -3   0   24.09    0.97
   4  -3   0   25.47    0.94
  -4   3   0   26.03    0.91
  -4   3   0   24.72    1.15
   3  -3   0   26.39    1.14
   3  -3   0   25.18    0.95
   3  -3   0   26.32    1.05
   3  -3   0   25.33    1.12
   3  -3   0   26.54    0.92
  -3   3   0   24.76    0.86
  -3   3   0   27.08    1.15
  -3   3   0   26.58    1.12
  -3   3   0   24.04    1.11
   2  -3   0   34.71    1.14
   2  -3   0   36.94    1.33
   2  -3   0   34.14    1.20
   2  -3   0   35.07    1.10
   2  -3   0   33.79    1.25
   2  -3   0   34.96    1.33
  -2   3   0   31.88    1.02
  -2   3   0   34.81    1.22
  -2   3   0   33.24    1.30
  -2   3   0   35.17    1.33
  -2   3   0   33.32    1.29
   1  -3   0  158.63    4.64
   1  -3   0  154.16    4.07
   1  -3   0  155.88    4.11
   1  -3   0  156.56    4.67
   1  -3   0  157.77    4.41
   1  -3   0  149.35    4.38
   1  -3   0  149.64    4.51
  -1   3   0  158.14    4.10
  -1   3   0  156.71    4.64
  -1   3   0  152.57    4.62
  -1   3   0  154.99    4.64
  -1   3   0  148.92    3.96
   0  -3   0    2.51    0.16
   0  -3   0    2.78    0.25
   0  -3   0    2.73    0.21
   0  -3   0    2.59    0.20
   0  -3   0    2.63    0.20
   0  -3   0    2.85    0.24
   0  -3   0    2.60    0.23
   0   3   0    3.01    0.24
   0   3   0    2.70    0.22
   0   3   0    2.45    0.18
   0   3   0    2.76    0.23
  -1  -3   0   35.72    1.00
  -1  -3   0   37.08    1.12
  -1  -3   0   37.68    1.20
  -1  -3   0   35.40    1.02
  -1  -3   0   35.95    1.18
  -1  -3   0   36.31    1.20
   1   3   0   37.34    1.15
   1   3   0   36.70    1.18
   1   3   0   36.71    1.00
  -2  -3   0    0.77    0.13
  -2  -3   0    0.50    0.08
  -2  -3   0    0.62    0.08
  -2  -3   0    0.67    0.10
  -2  -3   0    0.88    0.10
   2   3   0    0.83    0.10
   2   3   0    0.71    0.09
   2   3   0    0.67    0.14
  -3  -3   0   91.71    2.71
  -3  -3   0   98.01    2.59
  -3  -3   0   94.75    2.56
  -3  -3   0   92.96    2.43
  -3  -3   0   94.38    2.56
  -3  -3   0   96.10    2.71
  -3  -3   0   93.39    2.73
   3   3   0   93.93    2.71
   3   3   0   93.75    2.75
  -4  -3   0    1.90    0.14
  -4  -3   0    2.22    0.14
  -4  -3   0    1.62    0.11
  -4  -3   0    1.62    0.13
   4   3   0    2.19    0.25
   4   3   0    1.89    0.22
   4   3   0    1.85    0.19
   4   3   0    2.28    0.14
   4   3   0    1.73    0.13
  -5  -3   0   15.93    0.66
  -5  -3   0   17.58    0.67
  -5  -3   0   17.20    0.64
  -5  -3   0   18.57    0.65
  -5  -3   0   16.80    0.61
  -5  -3   0   17.42    0.61
   5   3   0   17.57    0.64
   5   3   0   18.50    0.65
   5   3   0   18.22    0.75
   5   3   0   18.56    0.67
   5   3   0   17.17    0.75
  -6  -3   0   24.22    0.87
  -6  -3   0   22.34    0.90
  -6  -3   0   24.66    0.79
  -6  -3   0   23.32    0.84
  -6  -3   0   23.32    0.87
  -6  -3   0   22.71    0.86
   6   3   0   24.02    0.86
   6   3   0   22.61    0.97
   6   3   0   23.89    0.96
  -7  -3   0   21.10    0.85
  -7  -3   0   20.77    0.86
  -7  -3   0   20.93    0.92
  -7  -3   0   21.21    0.86
   7   3   0   22.79    1.00
   7   3   0   21.79    0.95
  -8  -3   0   23.21    1.08
  -8  -3   0   25.66    1.04
  -8  -3   0   23.87    1.01
   8   3   0   22.91    1.10
   8   3   0   25.59    1.10
  -9  -3   0    0.13    0.16
   9   3   0    0.18    0.18
   9   3   0    0.13    0.16
  10   3   0    0.09    0.18
  10   3   0    0.40    0.22
   6  -4   0    2.95    0.45
   6  -4   0    2.73    0.43
  -6   4   0    3.24    0.36
   5  -4   0    1.18    0.30
  -5   4   0    1.03    0.21
   4  -4   0    9.28    0.63
  -4   4   0    9.42    0.48
  -4   4   0    9.89    0.69
   3  -4   0   60.50    2.13
  -3   4   0   64.10    2.25
  -3   4   0   59.77    1.78
   2  -4   0    4.21    0.45
   2  -4   0    4.18    0.31
   2  -4   0    3.27    0.36
   2  -4   0    3.65    0.41
   2  -4   0    3.59    0.36
  -2   4   0    4.06    0.25
  -2   4   0    4.26    0.38
  -2   4   0    4.54    0.39
   1  -4   0   13.19    0.64
   1  -4   0   14.53    0.67
   1  -4   0   14.40    0.73
   1  -4   0   13.60    0.58
   1  -4   0   14.31    0.71
   1  -4   0   14.74    0.71
   1  -4   0   14.67    0.62
  -1   4   0   14.87    0.61
  -1   4   0   14.80    0.74
  -1   4   0   14.34    0.70
  -1   4   0   13.26    0.69
  -1   4   0   14.58    0.48
  -1   4   0   14.28    0.47
   0  -4   0    5.37    0.34
   0  -4   0    5.86    0.36
   0  -4   0    5.56    0.39
   0  -4   0    5.70    0.40
   0  -4   0    5.70    0.38
   0  -4   0    6.13    0.28
   0  -4   0    5.28    0.33
   0   4   0    4.61    0.33
   0   4   0    4.93    0.36
   0   4   0    5.87    0.38
   0   4   0    6.51    0.32
  -1  -4   0   30.16    1.01
  -1  -4   0   31.26    1.09
  -1  -4   0   32.13    1.04
  -1  -4   0   31.08    1.11
  -1  -4   0   29.41    1.11
   1   4   0   30.95    1.08
   1   4   0   29.43    1.03
   1   4   0   31.86    0.91
  -2  -4   0   29.05    1.00
  -2  -4   0   30.38    0.99
  -2  -4   0   28.92    1.04
  -2  -4   0   29.43    0.93
  -2  -4   0   28.74    0.82
  -2  -4   0   28.69    0.92
   2   4   0   30.45    0.89
  -3  -4   0  312.72    9.05
  -3  -4   0  328.32    9.06
  -3  -4   0  320.70    9.10
  -3  -4   0  307.64    8.62
  -3  -4   0  321.14    8.97
  -3  -4   0  311.99    8.26
   3   4   0  324.84    9.05
   3   4   0  329.82    8.43
   3   4   0  314.56    8.80
  -4  -4   0   33.10    1.10
  -4  -4   0   33.00    1.08
  -4  -4   0   32.00    1.01
  -4  -4   0   33.59    1.02
  -4  -4   0   34.46    1.06
   4   4   0   31.59    1.17
  -5  -4   0    3.24    0.25
  -5  -4   0    3.31    0.20
  -5  -4   0    3.24    0.24
  -5  -4   0    3.59    0.24
  -5  -4   0    3.12    0.17
   5   4   0    3.52    0.31
   5   4   0    2.93    0.16
   5   4   0    3.07    0.24
   5   4   0    3.15    0.16
  -6  -4   0    0.32    0.08
  -6  -4   0    0.29    0.09
  -6  -4   0    0.35    0.10
  -6  -4   0    0.37    0.09
  -6  -4   0    0.29    0.09
  -6  -4   0    0.40    0.12
  -6  -4   0    0.50    0.13
   6   4   0    0.37    0.15
   6   4   0    0.20    0.11
   6   4   0    0.29    0.10
  -7  -4   0    9.53    0.50
  -7  -4   0    9.63    0.47
  -7  -4   0    9.54    0.44
  -7  -4   0    9.19    0.43
  -7  -4   0    9.96    0.51
   7   4   0    9.69    0.59
   7   4   0    8.96    0.60
  -8  -4   0    5.44    0.35
  -8  -4   0    5.36    0.39
  -8  -4   0    6.05    0.41
   8   4   0    4.89    0.51
   8   4   0    4.28    0.50
  -9  -4   0    1.82    0.30
   9   4   0    1.70    0.34
   9   4   0    1.80    0.36
 -10  -4   0    0.51    0.21
  10   4   0    1.05    0.27
  10   4   0    0.97    0.29
   5  -5   0    0.99    0.32
   5  -5   0    1.30    0.32
  -5   5   0    0.97    0.22
   4  -5   0    1.08    0.29
  -4   5   0    0.81    0.19
  -4   5   0    1.20    0.35
   3  -5   0    0.21    0.16
  -3   5   0    0.08    0.12
  -3   5   0    0.05    0.10
   2  -5   0    3.81    0.44
   2  -5   0    3.88    0.50
  -2   5   0    4.93    0.45
  -2   5   0    4.50    0.26
   1  -5   0    2.28    0.33
   1  -5   0    2.66    0.35
   1  -5   0    2.65    0.34
   1  -5   0    2.50    0.35
  -1   5   0    2.86    0.36
  -1   5   0    3.21    0.27
  -1   5   0    2.59    0.33
  -1   5   0    2.71    0.14
   0  -5   0   24.60    1.00
   0  -5   0   22.74    0.77
   0  -5   0   21.18    0.97
   0  -5   0   22.86    0.91
   0  -5   0   24.12    1.02
   0  -5   0   21.22    0.91
   0   5   0   23.35    0.81
   0   5   0   22.94    0.97
   0   5   0   22.16    0.93
  -1  -5   0    1.66    0.24
  -1  -5   0    2.05    0.24
  -1  -5   0    1.53    0.24
  -1  -5   0    1.64    0.25
  -1  -5   0    1.93    0.15
  -1  -5   0    1.41    0.21
   1   5   0    1.52    0.16
   1   5   0    1.88    0.21
   1   5   0    1.96    0.25
   1   5   0    1.61    0.17
  -2  -5   0    3.52    0.28
  -2  -5   0    3.69    0.26
  -2  -5   0    3.63    0.25
  -2  -5   0    3.73    0.16
  -2  -5   0    4.09    0.34
  -2  -5   0    3.70    0.28
   2   5   0    3.58    0.17
   2   5   0    3.89    0.22
   2   5   0    3.74    0.28
  -3  -5   0   32.65    1.10
  -3  -5   0   32.48    0.89
  -3  -5   0   32.35    1.16
  -3  -5   0   31.62    0.88
  -3  -5   0   31.11    1.01
  -3  -5   0   32.40    1.06
  -3  -5   0   30.21    1.00
  -3  -5   0   32.03    1.06
  -3  -5   0   31.74    1.09
   3   5   0   32.13    0.98
   3   5   0   31.43    1.05
  -4  -5   0   15.68    0.55
  -4  -5   0   16.51    0.68
  -4  -5   0   17.29    0.70
  -4  -5   0   16.14    0.55
  -4  -5   0   16.63    0.55
  -4  -5   0   16.67    0.60
  -4  -5   0   16.67    0.68
   4   5   0   16.24    0.75
   4   5   0   16.36    0.56
  -5  -5   0    2.33    0.27
  -5  -5   0    2.39    0.26
  -5  -5   0    2.14    0.14
  -5  -5   0    2.61    0.23
   5   5   0    2.46    0.31
  -6  -5   0   45.83    1.39
  -6  -5   0   48.60    1.50
  -6  -5   0   45.75    1.48
  -6  -5   0   45.64    1.51
  -6  -5   0   48.84    1.48
   6   5   0   46.15    1.67
  -7  -5   0   65.34    2.00
  -7  -5   0   63.16    1.92
  -7  -5   0   66.20    1.91
  -7  -5   0   62.43    2.04
   7   5   0   63.09    2.20
  -8  -5   0    2.05    0.25
   8   5   0    1.17    0.28
  -9  -5   0    8.96    0.45
  -9  -5   0    9.04    0.54
   9   5   0    8.79    0.67
 -10  -5   0    0.02    0.13
  10   5   0    0.08    0.17
   4  -6   0    9.18    0.73
  -4   6   0   10.21    0.47
   3  -6   0    0.14    0.18
  -3   6   0    0.11    0.09
   2  -6   0    9.35    0.69
  -2   6   0    9.78    0.33
   1  -6   0   14.62    0.83
   0  -6   0    0.80    0.16
   0  -6   0    0.75    0.21
   0  -6   0    1.03    0.23
   0  -6   0    0.77    0.23
   0   6   0    0.75    0.17
   0   6   0    0.76    0.18
   0   6   0    1.04    0.22
   0   6   0    0.68    0.16
  -1  -6   0    1.19    0.26
  -1  -6   0    1.48    0.24
  -1  -6   0    1.79    0.27
  -1  -6   0    1.78    0.28
  -1  -6   0    1.40    0.24
  -1  -6   0    1.82    0.19
   1   6   0    1.22    0.20
   1   6   0    1.77    0.19
   1   6   0    1.17    0.21
   1   6   0    1.57    0.19
  -2  -6   0   39.80    1.45
  -2  -6   0   39.32    1.35
  -2  -6   0   38.46    1.33
  -2  -6   0   41.51    1.42
  -2  -6   0   37.89    1.47
   2   6   0   38.89    1.38
   2   6   0   39.82    1.21
   2   6   0   37.58    1.05
  -3  -6   0    0.89    0.21
  -3  -6   0    0.62    0.10
  -3  -6   0    0.65    0.14
  -3  -6   0    0.66    0.14
  -3  -6   0    0.87    0.16
  -3  -6   0    0.47    0.14
  -3  -6   0    0.72    0.15
   3   6   0    0.72    0.12
  -4  -6   0   52.64    1.64
  -4  -6   0   53.79    1.75
  -4  -6   0   54.68    1.48
  -4  -6   0   55.53    1.65
  -4  -6   0   55.12    1.84
  -4  -6   0   53.31    1.68
  -4  -6   0   51.75    1.47
  -4  -6   0   54.15    1.73
  -4  -6   0   56.41    1.69
  -4  -6   0   53.75    1.73
   4   6   0   56.48    1.69
  -5  -6   0    1.36    0.22
  -5  -6   0    1.38    0.22
  -5  -6   0    1.70    0.25
  -5  -6   0    1.65    0.18
  -5  -6   0    1.46    0.16
   5   6   0    1.56    0.28
  -6  -6   0   38.72    1.22
  -6  -6   0   39.76    1.38
  -6  -6   0   41.77    1.39
  -6  -6   0   43.02    1.38
   6   6   0   38.75    1.52
  -7  -6   0   36.96    1.32
  -7  -6   0   39.92    1.28
  -7  -6   0   35.85    1.16
   7   6   0   34.78    1.46
  -8  -6   0    9.18    0.45
   8   6   0    9.95    0.67
  -9  -6   0    0.11    0.12
  -9  -6   0    0.12    0.09
   9   6   0    0.01    0.17
 -10  -6   0    2.46    0.33
  10   6   0    2.43    0.44
   3  -7   0    0.62    0.27
   2  -7   0   -0.19    0.15
  -2   7   0    0.07    0.18
   1  -7   0    2.87    0.44
  -1   7   0    3.36    0.38
   0  -7   0    1.57    0.33
   0   7   0    1.90    0.26
  -1  -7   0    6.75    0.56
  -1  -7   0    7.50    0.40
  -1  -7   0    7.81    0.52
   1   7   0    7.11    0.37
   1   7   0    6.91    0.36
  -2  -7   0   35.96    1.31
  -2  -7   0   33.68    1.44
  -2  -7   0   36.47    1.33
  -3  -7   0   11.04    0.57
  -3  -7   0   11.15    0.56
  -3  -7   0   11.83    0.69
  -3  -7   0   11.50    0.57
  -3  -7   0   11.58    0.62
   3   7   0   10.94    0.46
  -4  -7   0   20.31    0.88
  -4  -7   0   21.51    0.80
  -4  -7   0   20.11    0.77
  -4  -7   0   18.89    0.84
  -4  -7   0   20.05    0.78
  -4  -7   0   20.01    0.90
  -4  -7   0   19.35    0.92
  -5  -7   0   15.63    0.75
  -5  -7   0   15.79    0.63
  -5  -7   0   15.80    0.77
  -5  -7   0   15.26    0.62
  -5  -7   0   14.94    0.66
  -5  -7   0   16.40    0.53
  -5  -7   0   17.40    0.81
  -6  -7   0   11.64    0.62
  -6  -7   0   10.64    0.47
  -6  -7   0   12.55    0.64
  -6  -7   0   11.10    0.47
  -6  -7   0   12.23    0.62
   6   7   0   10.61    0.70
  -7  -7   0    0.27    0.09
  -7  -7   0    0.18    0.13
  -7  -7   0    0.57    0.18
   7   7   0    1.07    0.27
  -8  -7   0    6.99    0.37
   8   7   0    8.20    0.62
  -9  -7   0   -0.05    0.10
  -9  -7   0    0.01    0.08
   9   7   0    0.21    0.21
 -10  -7   0   18.51    0.82
  10   7   0   18.85    1.08
   2  -8   0    0.75    0.31
  -2   8   0    0.78    0.25
   1  -8   0    9.08    0.74
  -1   8   0    9.93    0.58
   0  -8   0   25.14    1.28
   0   8   0   24.61    0.95
  -1  -8   0    5.07    0.61
   1   8   0    4.90    0.31
   1   8   0    5.99    0.33
  -2  -8   0   -0.01    0.12
  -2  -8   0    0.21    0.19
  -3  -8   0    0.35    0.16
  -3  -8   0    0.27    0.14
  -3  -8   0    0.26    0.22
  -4  -8   0    2.23    0.29
  -4  -8   0    2.54    0.31
  -4  -8   0    2.54    0.38
  -4  -8   0    2.41    0.28
  -4  -8   0    2.54    0.39
  -5  -8   0    3.79    0.34
  -5  -8   0    3.68    0.46
  -5  -8   0    4.50    0.33
  -5  -8   0    3.73    0.30
  -5  -8   0    4.13    0.47
  -5  -8   0    4.54    0.48
  -5  -8   0    4.22    0.25
  -6  -8   0   16.92    0.69
  -6  -8   0   17.72    0.85
  -6  -8   0   16.55    0.68
  -6  -8   0   16.22    0.84
  -6  -8   0   18.19    0.87
  -6  -8   0   17.05    0.60
  -7  -8   0    0.42    0.12
  -7  -8   0    0.53    0.09
  -7  -8   0    0.61    0.24
  -7  -8   0    0.53    0.13
  -7  -8   0    0.55    0.21
   7   8   0    0.14    0.19
  -8  -8   0   19.07    0.72
   8   8   0   19.82    1.08
  -9  -8   0    3.93    0.29
  -9  -8   0    3.56    0.24
   9   8   0    3.63    0.54
   0  -9   0   -0.05    0.19
   0   9   0    0.08    0.12
  -1  -9   0    3.59    0.53
   1   9   0    3.77    0.25
   1   9   0    3.56    0.24
  -2  -9   0   14.81    0.95
  -3  -9   0   31.84    1.31
  -3  -9   0   31.94    1.49
  -4  -9   0    2.24    0.41
  -4  -9   0    2.30    0.34
  -4  -9   0    2.00    0.30
  -4  -9   0    2.93    0.43
  -5  -9   0    2.17    0.30
  -5  -9   0    2.01    0.37
  -5  -9   0    2.24    0.31
  -5  -9   0    2.18    0.38
  -6  -9   0    5.41    0.39
  -6  -9   0    6.02    0.40
  -6  -9   0    5.29    0.57
  -6  -9   0    5.47    0.56
  -7  -9   0    0.95    0.17
  -7  -9   0    0.85    0.18
  -7  -9   0    0.45    0.23
  -8  -9   0   -0.09    0.09
  -8  -9   0    0.04    0.10
  -8  -9   0    0.05    0.09
  -2 -10   0    0.36    0.27
  -3 -10   0    9.30    0.78
  -4 -10   0    0.14    0.24
  -4 -10   0    0.71    0.28
  -5 -10   0    0.07    0.20
  -5 -10   0    0.04    0.15
  -5 -10   0    0.01    0.21
  -5 -10   0    0.25    0.17
  -6 -10   0    4.88    0.43
  -6 -10   0    5.64    0.44
  -6 -10   0    6.92    0.68
  -7 -10   0    8.59    0.64
  -7 -10   0    8.61    0.51
  -7 -10   0    8.01    0.50
  -7 -10   1    5.08    0.40
  -7 -10   1    5.26    0.61
  -7 -10   1    5.37    0.41
  -6 -10   1    8.64    0.54
  -6 -10   1    8.97    0.67
  -6 -10   1    7.80    0.53
  -5 -10   1    5.13    0.45
  -5 -10   1    4.45    0.57
  -5 -10   1    5.09    0.60
  -4 -10   1    1.37    0.35
  -4 -10   1    1.42    0.35
  -3 -10   1    5.11    0.60
  -3 -10   1    5.82    0.68
  -8  -9   1    1.05    0.19
  -8  -9   1    1.06    0.17
  -8  -9   1    0.94    0.18
  -7  -9   1    1.02    0.28
  -7  -9   1    0.43    0.15
  -7  -9   1    0.55    0.16
  -6  -9   1   20.74    0.86
  -6  -9   1   19.08    0.86
  -6  -9   1   18.92    0.97
  -5  -9   1   11.11    0.73
  -5  -9   1    9.56    0.58
  -5  -9   1   10.25    0.69
  -5  -9   1    9.19    0.57
  -4  -9   1    0.83    0.22
  -4  -9   1    0.66    0.20
  -4  -9   1    1.16    0.30
  -4  -9   1    0.41    0.21
  -3  -9   1    5.29    0.63
  -2  -9   1    2.21    0.43
   1   9  -1    2.49    0.24
   1   9  -1    2.11    0.22
  -1  -9   1    2.81    0.50
   0   9  -1    0.64    0.18
   0  -9   1    0.10    0.19
   9   8  -1    0.08    0.20
  -9  -8   1    0.16    0.10
  -9  -8   1   -0.05    0.10
   8   8  -1    5.81    0.65
  -8  -8   1    6.08    0.31
  -8  -8   1    6.41    0.38
   7   8  -1   -0.22    0.14
  -7  -8   1    0.13    0.11
  -7  -8   1    0.13    0.08
  -7  -8   1    0.12    0.15
  -7  -8   1    0.10    0.09
  -6  -8   1    1.28    0.27
  -6  -8   1    1.11    0.18
  -6  -8   1    1.14    0.16
  -6  -8   1    0.91    0.18
  -6  -8   1    0.55    0.21
  -5  -8   1    0.36    0.17
  -5  -8   1    0.31    0.13
  -5  -8   1    0.40    0.14
  -5  -8   1    0.14    0.15
  -5  -8   1    0.20    0.11
  -5  -8   1    0.48    0.21
  -5  -8   1    0.48    0.21
  -4  -8   1    6.84    0.55
  -4  -8   1    7.02    0.46
  -4  -8   1    6.63    0.54
  -4  -8   1    7.56    0.47
  -4  -8   1    6.34    0.44
  -3  -8   1    2.97    0.44
  -3  -8   1    2.44    0.34
  -3  -8   1    2.81    0.35
  -2  -8   1   26.98    1.15
  -2  -8   1   26.57    1.27
   1   8  -1   15.15    0.61
   1   8  -1   14.13    0.59
  -1  -8   1   15.50    0.93
   0   8  -1    0.05    0.15
   0  -8   1    0.51    0.24
  -1   8  -1    0.10    0.16
   1  -8   1    0.01    0.17
  -2   8  -1    0.61    0.23
   2  -8   1   -0.02    0.25
  10   7  -1    2.86    0.47
 -10  -7   1    3.61    0.39
   9   7  -1    1.30    0.32
  -9  -7   1    1.27    0.17
  -9  -7   1    1.09    0.20
   8   7  -1    1.76    0.36
  -8  -7   1    1.53    0.21
  -8  -7   1    1.50    0.16
   7   7  -1    7.09    0.57
  -7  -7   1    7.09    0.38
  -7  -7   1    7.45    0.49
  -7  -7   1    7.97    0.53
  -7  -7   1    6.99    0.29
   6   7  -1   20.53    1.05
  -6  -7   1   23.84    0.95
  -6  -7   1   22.99    0.83
  -6  -7   1   22.74    0.71
  -6  -7   1   22.65    0.83
  -6  -7   1   25.20    1.01
  -6  -7   1   22.42    0.97
  -5  -7   1    0.08    0.09
  -5  -7   1    0.11    0.14
  -5  -7   1    0.04    0.11
  -5  -7   1    0.15    0.08
  -5  -7   1    0.05    0.07
  -5  -7   1    0.19    0.11
  -5  -7   1    0.05    0.08
  -5  -7   1    0.09    0.13
  -4  -7   1   16.97    0.73
  -4  -7   1   17.29    0.71
  -4  -7   1   16.51    0.77
  -4  -7   1   17.75    0.83
  -4  -7   1   17.46    0.73
  -4  -7   1   17.53    0.85
  -4  -7   1   17.97    0.82
   3   7  -1    0.25    0.09
  -3  -7   1    0.14    0.11
  -3  -7   1    0.34    0.14
  -3  -7   1    0.18    0.13
  -3  -7   1    0.13    0.11
  -3  -7   1    0.23    0.16
   2   7  -1    0.15    0.07
   2   7  -1    0.20    0.10
   2   7  -1    0.18    0.08
  -2  -7   1    0.18    0.17
  -2  -7   1    0.16    0.11
  -2  -7   1    0.08    0.12
   1   7  -1   -0.05    0.08
   1   7  -1    0.04    0.10
  -1  -7   1   -0.01    0.09
  -1  -7   1    0.13    0.13
  -1  -7   1    0.21    0.17
   0   7  -1    0.60    0.17
   0  -7   1    0.69    0.24
   0  -7   1    0.48    0.15
   1  -7   1   12.69    0.83
  -2   7  -1   24.74    1.04
   2  -7   1   21.91    1.21
   3  -7   1    6.36    0.71
  10   6  -1    4.43    0.58
 -10  -6   1    3.71    0.41
   9   6  -1   12.57    0.81
  -9  -6   1   12.19    0.53
  -9  -6   1   12.66    0.63
   8   6  -1    3.02    0.43
  -8  -6   1    2.62    0.28
  -8  -6   1    2.22    0.18
  -8  -6   1    2.16    0.32
   7   6  -1    2.94    0.41
  -7  -6   1    2.76    0.34
  -7  -6   1    3.17    0.35
  -7  -6   1    2.98    0.17
  -7  -6   1    3.48    0.25
   6   6  -1   11.50    0.69
  -6  -6   1   11.84    0.61
  -6  -6   1   12.06    0.55
  -6  -6   1   11.85    0.60
  -6  -6   1   11.08    0.48
   5   6  -1   24.73    1.10
  -5  -6   1   28.40    1.05
  -5  -6   1   28.66    1.04
  -5  -6   1   26.36    0.90
  -5  -6   1   25.80    1.01
  -5  -6   1   26.55    0.88
  -5  -6   1   28.03    0.88
   4   6  -1   15.85    0.61
   4   6  -1   15.66    0.60
  -4  -6   1   15.59    0.67
  -4  -6   1   15.94    0.53
  -4  -6   1   16.36    0.74
  -4  -6   1   14.72    0.60
  -4  -6   1   15.77    0.72
  -4  -6   1   15.29    0.61
  -4  -6   1   15.32    0.61
  -4  -6   1   15.18    0.70
  -4  -6   1   14.82    0.60
   3   6  -1   50.15    1.51
  -3  -6   1   48.70    1.74
  -3  -6   1   49.72    1.61
  -3  -6   1   51.00    1.42
  -3  -6   1   49.88    1.64
  -3  -6   1   50.51    1.67
  -3  -6   1   49.24    1.59
  -3  -6   1   49.20    1.71
  -3  -6   1   52.20    1.68
   2   6  -1   13.79    0.47
   2   6  -1   15.51    0.48
   2   6  -1   14.04    0.66
   2   6  -1   14.88    0.58
  -2  -6   1   13.84    0.65
  -2  -6   1   14.00    0.71
  -2  -6   1   13.96    0.65
  -2  -6   1   14.00    0.74
  -2  -6   1   15.22    0.70
   1   6  -1    3.78    0.31
   1   6  -1    3.53    0.25
   1   6  -1    3.07    0.35
  -1  -6   1    3.47    0.41
  -1  -6   1    3.95    0.35
  -1  -6   1    3.60    0.38
  -1  -6   1    4.06    0.26
  -1  -6   1    3.86    0.42
   0   6  -1   23.54    0.87
   0   6  -1   23.52    1.01
   0   6  -1   24.14    1.07
   0  -6   1   22.20    1.07
   0  -6   1   23.92    1.01
   0  -6   1   24.57    0.85
   1  -6   1    0.10    0.16
  -2   6  -1   29.63    0.83
   2  -6   1   26.96    1.30
  -3   6  -1    4.88    0.28
   3  -6   1    4.04    0.54
  -4   6  -1    3.63    0.27
   4  -6   1    3.00    0.49
  10   5  -1   -0.02    0.17
 -10  -5   1    0.15    0.17
   9   5  -1    4.75    0.56
  -9  -5   1    5.11    0.41
   8   5  -1    1.40    0.30
  -8  -5   1    1.10    0.15
  -8  -5   1    1.07    0.16
  -8  -5   1    1.09    0.21
  -8  -5   1    1.40    0.25
   7   5  -1    4.48    0.49
  -7  -5   1    4.39    0.36
  -7  -5   1    3.90    0.29
  -7  -5   1    4.44    0.33
  -7  -5   1    4.37    0.33
   6   5  -1   10.69    0.63
  -6  -5   1   11.23    0.49
  -6  -5   1   11.57    0.54
  -6  -5   1   10.83    0.56
  -6  -5   1   10.47    0.45
  -6  -5   1   11.02    0.40
   5   5  -1   15.09    0.72
   5   5  -1   14.69    0.52
  -5  -5   1   13.30    0.62
  -5  -5   1   13.95    0.64
  -5  -5   1   13.69    0.52
  -5  -5   1   14.64    0.60
  -5  -5   1   15.13    0.51
  -5  -5   1   14.96    0.51
   4   5  -1    1.85    0.15
   4   5  -1    1.27    0.24
  -4  -5   1    2.09    0.24
  -4  -5   1    1.43    0.22
  -4  -5   1    1.60    0.15
  -4  -5   1    1.77    0.15
  -4  -5   1    1.66    0.17
  -4  -5   1    1.96    0.25
  -4  -5   1    1.91    0.17
   3   5  -1  136.28    3.59
   3   5  -1  132.89    3.86
  -3  -5   1  131.01    3.91
  -3  -5   1  128.53    3.61
  -3  -5   1  128.87    3.86
  -3  -5   1  130.14    3.69
  -3  -5   1  134.42    3.87
  -3  -5   1  126.00    3.62
  -3  -5   1  129.26    3.88
  -3  -5   1  130.21    3.46
  -3  -5   1  128.16    3.68
   2   5  -1  110.57    3.00
   2   5  -1  118.88    3.53
   2   5  -1  119.49    3.41
   2   5  -1  118.19    3.01
   2   5  -1  119.22    3.23
  -2  -5   1  112.24    3.35
  -2  -5   1  121.20    3.55
  -2  -5   1  117.34    3.37
  -2  -5   1  113.42    3.57
  -2  -5   1  116.13    3.53
   1   5  -1   27.72    1.09
   1   5  -1   28.71    0.91
   1   5  -1   31.31    1.07
  -1  -5   1   28.50    1.14
  -1  -5   1   30.04    1.12
  -1  -5   1   27.61    1.13
  -1  -5   1   27.57    1.03
  -1  -5   1   29.41    0.88
  -1  -5   1   29.86    1.06
   0   5  -1   29.88    1.22
   0   5  -1   32.37    1.05
   0   5  -1   32.72    1.22
   0  -5   1   32.52    1.19
   0  -5   1   31.71    1.00
   0  -5   1   30.36    1.24
   0  -5   1   30.74    1.27
   0  -5   1   31.74    1.25
   0  -5   1   31.76    1.17
  -1   5  -1   10.44    0.61
  -1   5  -1    9.20    0.33
  -1   5  -1   10.19    0.60
   1  -5   1    9.97    0.61
   1  -5   1    8.30    0.53
   1  -5   1    7.83    0.57
   1  -5   1   10.13    0.61
  -2   5  -1    3.99    0.47
  -2   5  -1    3.71    0.24
   2  -5   1    4.14    0.49
  -3   5  -1    0.10    0.15
  -3   5  -1    0.00    0.10
   3  -5   1   -0.16    0.13
  -4   5  -1    0.81    0.18
  -4   5  -1    0.90    0.31
   4  -5   1    0.77    0.24
  -5   5  -1    0.86    0.21
   5  -5   1    0.54    0.24
  10   4  -1    4.11    0.54
  10   4  -1    3.71    0.53
   9   4  -1    1.24    0.29
   9   4  -1    1.65    0.34
  -9  -4   1    1.11    0.24
   8   4  -1   19.40    0.98
   8   4  -1   20.10    0.98
  -8  -4   1   20.18    0.77
  -8  -4   1   20.30    0.89
  -8  -4   1   21.42    0.85
  -8  -4   1   19.87    0.86
   7   4  -1   53.88    1.94
  -7  -4   1   53.72    1.86
  -7  -4   1   57.28    1.79
  -7  -4   1   56.09    1.79
  -7  -4   1   57.18    1.69
  -7  -4   1   55.28    1.77
   6   4  -1    3.35    0.22
   6   4  -1    3.33    0.38
   6   4  -1    2.85    0.31
  -6  -4   1    3.26    0.33
  -6  -4   1    3.04    0.22
  -6  -4   1    2.93    0.21
  -6  -4   1    2.34    0.22
  -6  -4   1    3.44    0.27
  -6  -4   1    2.89    0.22
   5   4  -1   14.44    0.68
   5   4  -1   15.35    0.54
   5   4  -1   15.62    0.62
   5   4  -1   14.00    0.53
  -5  -4   1   14.79    0.53
  -5  -4   1   13.44    0.52
  -5  -4   1   14.52    0.53
  -5  -4   1   13.66    0.55
  -5  -4   1   13.67    0.61
  -5  -4   1   14.40    0.59
  -5  -4   1   14.16    0.51
   4   4  -1   24.69    0.93
   4   4  -1   23.77    0.78
  -4  -4   1   24.24    0.84
  -4  -4   1   22.42    0.74
  -4  -4   1   23.09    0.78
  -4  -4   1   24.23    0.78
  -4  -4   1   24.24    0.83
  -4  -4   1   23.60    0.85
   3   4  -1    2.37    0.17
   3   4  -1    2.42    0.18
   3   4  -1    2.36    0.26
  -3  -4   1    2.07    0.17
  -3  -4   1    2.50    0.17
  -3  -4   1    2.22    0.17
  -3  -4   1    2.51    0.25
  -3  -4   1    2.42    0.16
  -3  -4   1    2.18    0.23
  -3  -4   1    2.21    0.23
   2   4  -1   17.56    0.49
   2   4  -1   18.20    0.58
   2   4  -1   18.77    0.62
  -2  -4   1   18.54    0.72
  -2  -4   1   18.07    0.64
  -2  -4   1   16.76    0.62
  -2  -4   1   18.09    0.69
  -2  -4   1   18.25    0.68
  -2  -4   1   17.71    0.68
   1   4  -1    0.11    0.06
   1   4  -1    0.17    0.09
   1   4  -1    0.12    0.08
  -1  -4   1    0.20    0.10
  -1  -4   1    0.08    0.07
  -1  -4   1    0.12    0.09
  -1  -4   1    0.12    0.10
  -1  -4   1    0.27    0.06
  -1  -4   1    0.24    0.09
   0   4  -1   37.37    1.15
   0   4  -1   37.03    1.33
   0   4  -1   36.72    1.32
   0  -4   1   35.52    1.35
   0  -4   1   39.57    1.28
   0  -4   1   37.44    1.09
   0  -4   1   37.70    1.34
   0  -4   1   37.22    1.18
   0  -4   1   36.39    1.26
   0  -4   1   38.64    1.35
  -1   4  -1  163.14    4.98
  -1   4  -1  163.62    4.19
  -1   4  -1  161.34    4.98
  -1   4  -1  161.80    4.97
  -1   4  -1  162.92    4.38
   1  -4   1  165.41    4.99
   1  -4   1  164.41    4.41
   1  -4   1  163.38    5.02
   1  -4   1  162.56    4.74
   1  -4   1  166.73    4.72
   1  -4   1  161.31    4.86
   1  -4   1  163.84    4.36
  -2   4  -1   37.97    1.51
  -2   4  -1   38.85    1.17
  -2   4  -1   39.99    1.53
   2  -4   1   42.12    1.55
   2  -4   1   39.39    1.48
   2  -4   1   37.77    1.27
   2  -4   1   39.12    1.33
  -3   4  -1    2.26    0.25
  -3   4  -1    2.08    0.36
   3  -4   1    2.21    0.35
  -4   4  -1    1.94    0.36
  -4   4  -1    1.72    0.24
   4  -4   1    2.19    0.36
  -5   4  -1    2.74    0.31
   5  -4   1    2.77    0.42
  -6   4  -1    0.19    0.15
   6  -4   1    0.08    0.21
   6  -4   1    0.43    0.22
   6  -4   1    0.06    0.15
  10   3  -1   20.21    1.10
   9   3  -1    5.80    0.60
   9   3  -1    6.77    0.57
  -9  -3   1    5.54    0.57
   8   3  -1    0.75    0.09
   8   3  -1    0.60    0.23
   8   3  -1    0.49    0.20
  -8  -3   1    0.56    0.22
  -8  -3   1    0.61    0.19
   7   3  -1    5.54    0.46
   7   3  -1    5.38    0.44
   7   3  -1    5.28    0.22
  -7  -3   1    5.50    0.33
  -7  -3   1    5.06    0.38
  -7  -3   1    4.71    0.38
  -7  -3   1    5.70    0.40
  -7  -3   1    5.75    0.38
   6   3  -1    9.72    0.55
   6   3  -1    8.97    0.30
   6   3  -1    8.96    0.48
   6   3  -1    8.87    0.54
  -6  -3   1    8.89    0.45
  -6  -3   1    9.46    0.47
  -6  -3   1    9.42    0.49
  -6  -3   1    8.77    0.47
  -6  -3   1    9.69    0.46
  -6  -3   1    9.58    0.44
   5   3  -1   13.57    0.63
   5   3  -1   13.77    0.55
   5   3  -1   13.27    0.63
   5   3  -1   13.68    0.55
   5   3  -1   13.79    0.57
  -5  -3   1   13.97    0.55
  -5  -3   1   13.79    0.45
  -5  -3   1   13.06    0.53
  -5  -3   1   13.41    0.52
  -5  -3   1   12.98    0.57
  -5  -3   1   13.15    0.54
  -5  -3   1   12.99    0.56
   4   3  -1   46.65    1.41
   4   3  -1   47.09    1.41
   4   3  -1   45.83    1.37
   4   3  -1   45.16    1.48
   4   3  -1   45.68    1.45
  -4  -3   1   42.77    1.40
  -4  -3   1   46.14    1.35
  -4  -3   1   45.29    1.34
  -4  -3   1   46.60    1.41
  -4  -3   1   44.55    1.32
  -4  -3   1   45.33    1.41
  -4  -3   1   42.79    1.37
   3   3  -1    6.28    0.27
   3   3  -1    5.95    0.27
   3   3  -1    5.98    0.34
  -3  -3   1    6.03    0.27
  -3  -3   1    5.93    0.32
  -3  -3   1    5.76    0.26
  -3  -3   1    5.66    0.26
  -3  -3   1    5.25    0.23
  -3  -3   1    5.74    0.30
  -3  -3   1    6.08    0.28
   2   3  -1    8.80    0.40
   2   3  -1    8.67    0.33
  -2  -3   1    8.36    0.35
  -2  -3   1    8.76    0.35
  -2  -3   1    7.61    0.36
  -2  -3   1    7.86    0.34
  -2  -3   1    7.86    0.31
  -2  -3   1    7.96    0.37
   1   3  -1   16.32    0.61
   1   3  -1   16.02    0.58
   1   3  -1   16.50    0.50
  -1  -3   1   15.13    0.56
  -1  -3   1   15.96    0.57
  -1  -3   1   15.00    0.61
  -1  -3   1   15.40    0.60
  -1  -3   1   15.81    0.62
  -1  -3   1   16.02    0.45
   0   3  -1   14.75    0.62
   0   3  -1   15.02    0.53
   0   3  -1   14.62    0.61
   0   3  -1   14.77    0.43
   0  -3   1   14.54    0.58
   0  -3   1   14.64    0.62
   0  -3   1   15.07    0.59
   0  -3   1   14.94    0.64
   0  -3   1   15.25    0.63
   0  -3   1   15.05    0.55
   0  -3   1   15.07    0.48
  -1   3  -1    0.20    0.12
  -1   3  -1    0.27    0.11
  -1   3  -1    0.05    0.06
   1  -3   1    0.05    0.11
   1  -3   1    0.16    0.08
   1  -3   1    0.08    0.07
   1  -3   1    0.16    0.10
   1  -3   1    0.09    0.10
   1  -3   1    0.14    0.09
   1  -3   1    0.12    0.08
  -2   3  -1   15.47    0.77
  -2   3  -1   15.93    0.58
  -2   3  -1   15.50    0.75
  -2   3  -1   16.15    0.71
  -2   3  -1   16.07    0.78
   2  -3   1   17.15    0.67
   2  -3   1   16.67    0.64
   2  -3   1   17.00    0.79
   2  -3   1   16.24    0.78
   2  -3   1   16.54    0.71
   2  -3   1   16.58    0.74
  -3   3  -1    5.59    0.44
  -3   3  -1    5.16    0.31
  -3   3  -1    5.62    0.48
  -3   3  -1    5.50    0.45
   3  -3   1    5.82    0.45
   3  -3   1    5.54    0.36
   3  -3   1    5.64    0.43
   3  -3   1    6.08    0.39
   3  -3   1    5.35    0.46
  -4   3  -1    0.76    0.18
  -4   3  -1    0.75    0.23
   4  -3   1    0.60    0.19
   4  -3   1    0.88    0.20
   4  -3   1    0.53    0.16
  -5   3  -1   31.71    1.11
  -5   3  -1   29.99    1.41
   5  -3   1   31.69    1.20
   5  -3   1   32.26    1.14
   5  -3   1   30.00    1.28
  -6   3  -1    5.08    0.40
   6  -3   1    6.53    0.53
   6  -3   1    6.51    0.44
   6  -3   1    6.40    0.53
   6  -3   1    6.77    0.49
  -7   3  -1    0.63    0.22
   7  -3   1    0.30    0.25
   7  -3   1    0.27    0.17
   7  -3   1    0.39    0.23
   7  -3   1    0.95    0.32
  10   2  -1    2.03    0.42
  10   2  -1    1.88    0.38
   9   2  -1    0.40    0.13
   9   2  -1    0.29    0.18
   9   2  -1    0.34    0.21
   8   2  -1    0.17    0.18
   8   2  -1    0.15    0.10
   8   2  -1    0.01    0.13
  -8  -2   1   -0.09    0.15
  -8  -2   1    0.14    0.15
   7   2  -1   49.11    1.76
   7   2  -1   49.25    1.80
   7   2  -1   52.63    1.50
  -7  -2   1   49.87    1.79
  -7  -2   1   49.18    1.84
  -7  -2   1   51.84    1.75
   6   2  -1   97.11    2.92
   6   2  -1   91.00    2.78
   6   2  -1   92.96    2.51
   6   2  -1   91.06    2.64
   6   2  -1   89.80    2.38
   6   2  -1   90.78    2.85
  -6  -2   1   94.88    2.91
  -6  -2   1   92.87    2.67
  -6  -2   1   89.02    2.77
  -6  -2   1   88.92    2.89
  -6  -2   1   95.99    2.57
  -6  -2   1   90.22    2.95
   5   2  -1    4.42    0.21
   5   2  -1    4.47    0.23
   5   2  -1    4.61    0.34
   5   2  -1    4.37    0.30
   5   2  -1    4.27    0.16
   5   2  -1    4.79    0.30
   5   2  -1    4.92    0.35
  -5  -2   1    4.16    0.29
  -5  -2   1    4.58    0.27
  -5  -2   1    4.40    0.30
  -5  -2   1    4.23    0.28
  -5  -2   1    4.52    0.30
  -5  -2   1    4.18    0.31
   4   2  -1   22.21    0.66
   4   2  -1   21.81    0.82
   4   2  -1   22.40    0.79
   4   2  -1   23.51    0.77
   4   2  -1   22.23    0.83
  -4  -2   1   21.71    0.80
  -4  -2   1   21.53    0.74
  -4  -2   1   22.49    0.78
  -4  -2   1   21.90    0.79
  -4  -2   1   22.38    0.72
  -4  -2   1   22.61    0.79
   3   2  -1    8.93    0.35
   3   2  -1    8.10    0.39
   3   2  -1    8.92    0.28
   3   2  -1    8.44    0.36
   3   2  -1    8.34    0.39
  -3  -2   1    7.67    0.30
  -3  -2   1    7.80    0.34
  -3  -2   1    7.59    0.34
  -3  -2   1    8.00    0.34
  -3  -2   1    8.29    0.34
  -3  -2   1    8.46    0.29
   2   2  -1   30.59    0.84
   2   2  -1   32.10    0.94
   2   2  -1   33.24    0.94
   2   2  -1   30.05    0.99
   2   2  -1   32.20    0.98
  -2  -2   1   30.42    0.94
  -2  -2   1   32.51    0.87
  -2  -2   1   30.81    0.93
  -2  -2   1   30.60    0.91
  -2  -2   1   32.07    0.97
  -2  -2   1   32.09    0.98
  -2  -2   1   31.36    0.95
  -2  -2   1   33.25    0.94
  -2  -2   1   31.27    0.98
   1   2  -1    0.04    0.06
  -1  -2   1   -0.04    0.05
  -1  -2   1    0.09    0.07
  -1  -2   1   -0.01    0.04
  -1  -2   1    0.10    0.07
  -1  -2   1    0.00    0.06
  -1  -2   1    0.03    0.05
  -1  -2   1    0.03    0.07
   0   2  -1   89.87    2.71
   0   2  -1   91.57    2.31
   0   2  -1   93.55    2.40
   0   2  -1   92.13    2.72
   0   2  -1   92.10    2.56
   0  -2   1   92.27    2.73
   0  -2   1   88.20    2.56
   0  -2   1   89.74    2.33
   0  -2   1   89.68    2.42
   0  -2   1   89.43    2.71
   0  -2   1   88.38    2.40
   0  -2   1   92.01    2.58
  -1   2  -1    0.94    0.16
  -1   2  -1    1.08    0.11
  -1   2  -1    1.20    0.15
  -1   2  -1    1.03    0.16
   1  -2   1    0.96    0.16
   1  -2   1    1.20    0.15
   1  -2   1    0.97    0.13
   1  -2   1    1.12    0.13
   1  -2   1    1.06    0.16
   1  -2   1    0.93    0.11
  -2   2  -1    4.72    0.31
  -2   2  -1    6.22    0.39
  -2   2  -1    6.54    0.39
  -2   2  -1    5.83    0.35
  -2   2  -1    5.86    0.38
  -2   2  -1    5.95    0.28
   2  -2   1    6.03    0.32
   2  -2   1    6.02    0.35
   2  -2   1    6.11    0.34
   2  -2   1    6.41    0.31
   2  -2   1    6.45    0.38
   2  -2   1    5.30    0.37
   2  -2   1    6.51    0.40
  -3   2  -1    3.62    0.30
  -3   2  -1    3.22    0.23
  -3   2  -1    3.70    0.34
  -3   2  -1    3.17    0.36
  -3   2  -1    4.06    0.34
   3  -2   1    3.58    0.31
   3  -2   1    4.07    0.34
   3  -2   1    3.94    0.28
   3  -2   1    3.44    0.29
   3  -2   1    4.25    0.34
   3  -2   1    3.66    0.26
  -4   2  -1    0.59    0.19
  -4   2  -1    0.09    0.14
  -4   2  -1    0.40    0.18
  -4   2  -1    0.06    0.13
  -4   2  -1    0.27    0.12
   4  -2   1    0.41    0.16
   4  -2   1    0.45    0.13
   4  -2   1    0.68    0.17
   4  -2   1    0.34    0.16
  -5   2  -1   11.00    0.55
  -5   2  -1   11.66    0.77
  -5   2  -1   11.82    0.72
   5  -2   1   10.73    0.67
   5  -2   1   10.05    0.57
   5  -2   1   12.93    0.57
   5  -2   1   11.23    0.63
  -6   2  -1    4.37    0.36
   6  -2   1    4.71    0.35
   6  -2   1    4.96    0.48
   6  -2   1    5.42    0.59
   6  -2   1    4.64    0.44
   6  -2   1    4.77    0.41
  -7   2  -1    3.83    0.42
   7  -2   1    3.36    0.45
   7  -2   1    3.11    0.41
   7  -2   1    2.86    0.46
   7  -2   1    3.04    0.38
   7  -2   1    3.05    0.33
  -8   2  -1    0.38    0.19
   8  -2   1    0.56    0.21
   8  -2   1    0.38    0.14
   8  -2   1    0.45    0.15
   8  -2   1    0.33    0.23
   8  -2   1    0.77    0.29
   9   1  -1    1.85    0.18
   9   1  -1    1.98    0.39
   9   1  -1    2.27    0.40
   9   1  -1    2.02    0.27
   9   1  -1    2.19    0.18
   8   1  -1    4.16    0.28
   8   1  -1    3.87    0.27
   8   1  -1    4.17    0.33
   8   1  -1    4.51    0.51
   8   1  -1    4.02    0.50
   7   1  -1    2.95    0.23
   7   1  -1    3.29    0.41
   7   1  -1    2.72    0.38
   7   1  -1    3.61    0.34
  -7  -1   1    2.87    0.38
  -7  -1   1    3.36    0.41
  -7  -1   1    3.04    0.39
   6   1  -1   58.47    1.78
   6   1  -1   59.89    1.72
   6   1  -1   59.24    2.02
   6   1  -1   59.80    1.97
  -6  -1   1   59.01    2.07
  -6  -1   1   62.10    2.00
  -6  -1   1   61.41    1.73
  -6  -1   1   64.29    2.10
  -6  -1   1   60.91    2.13
   5   1  -1   58.20    1.87
   5   1  -1   60.48    1.99
   5   1  -1   61.81    1.80
   5   1  -1   60.89    1.92
   5   1  -1   59.19    1.93
   5   1  -1   58.23    1.67
   5   1  -1   59.80    1.72
  -5  -1   1   56.62    2.00
  -5  -1   1   60.21    1.72
  -5  -1   1   58.70    1.88
  -5  -1   1   62.83    2.00
  -5  -1   1   56.97    1.97
  -5  -1   1   61.82    1.65
   4   1  -1    8.34    0.43
   4   1  -1    7.99    0.35
   4   1  -1    7.53    0.32
   4   1  -1    7.23    0.24
   4   1  -1    7.07    0.40
   4   1  -1    7.60    0.38
   4   1  -1    8.40    0.43
   4   1  -1    8.44    0.43
   4   1  -1    8.27    0.38
  -4  -1   1    8.40    0.43
  -4  -1   1    8.55    0.35
  -4  -1   1    7.14    0.38
  -4  -1   1    7.45    0.41
  -4  -1   1    8.09    0.29
  -4  -1   1    6.97    0.41
  -4  -1   1    7.71    0.38
   3   1  -1   76.43    2.07
   3   1  -1   80.83    2.16
   3   1  -1   79.44    2.38
   3   1  -1   77.33    2.23
   3   1  -1   78.66    2.29
   3   1  -1   77.40    2.10
   3   1  -1   82.30    2.36
   3   1  -1   81.37    2.38
  -3  -1   1   77.99    2.25
  -3  -1   1   80.17    2.39
  -3  -1   1   76.64    2.37
  -3  -1   1   77.52    2.21
  -3  -1   1   77.39    2.16
  -3  -1   1   77.76    2.12
  -3  -1   1   80.02    2.38
  -3  -1   1   80.06    2.00
   2   1  -1  158.86    4.08
   2   1  -1  159.64    4.57
   2   1  -1  154.71    4.04
   2   1  -1  160.18    4.12
   2   1  -1  155.33    4.23
   2   1  -1  165.60    4.57
   2   1  -1  160.29    4.37
  -2  -1   1  159.20    4.12
  -2  -1   1  154.99    4.57
  -2  -1   1  162.85    4.59
  -2  -1   1  159.58    4.34
  -2  -1   1  159.39    4.13
  -2  -1   1  155.52    4.23
  -2  -1   1  163.43    4.58
  -2  -1   1  158.77    4.08
   1   1  -1    7.71    0.24
   1   1  -1    7.64    0.27
   1   1  -1    7.85    0.27
   1   1  -1    7.47    0.25
   1   1  -1    7.53    0.26
   1   1  -1    7.93    0.29
   1   1  -1    7.60    0.28
   1   1  -1    7.63    0.24
   1   1  -1    8.06    0.29
   1   1  -1    7.64    0.25
   1   1  -1    7.97    0.29
  -1  -1   1    7.75    0.28
  -1  -1   1    7.09    0.26
  -1  -1   1    7.68    0.25
  -1  -1   1    7.77    0.23
  -1  -1   1    7.33    0.29
  -1  -1   1    7.65    0.29
  -1  -1   1    7.66    0.26
  -1  -1   1    7.98    0.29
  -1  -1   1    7.50    0.25
  -1  -1   1    7.60    0.28
  -1  -1   1    8.00    0.29
   0   1  -1   27.35    0.72
   0   1  -1   28.66    0.86
   0   1  -1   27.07    0.80
   0   1  -1   27.63    0.74
   0   1  -1   27.38    0.76
   0   1  -1   28.69    0.72
   0   1  -1   28.19    0.81
   0  -1   1   27.18    0.83
   0  -1   1   25.33    0.74
   0  -1   1   28.36    0.76
   0  -1   1   28.24    0.86
   0  -1   1   25.73    0.72
   0  -1   1   27.95    0.77
   0  -1   1   24.82    0.80
  -1   1  -1   16.11    0.52
  -1   1  -1   15.45    0.59
  -1   1  -1   16.71    0.61
  -1   1  -1   16.61    0.56
  -1   1  -1   15.80    0.48
   1  -1   1   15.96    0.60
   1  -1   1   16.47    0.52
   1  -1   1   16.82    0.53
   1  -1   1   14.82    0.54
   1  -1   1   15.55    0.50
   1  -1   1   16.48    0.56
   1  -1   1   16.17    0.57
  -2   1  -1    0.06    0.08
  -2   1  -1    0.15    0.09
  -2   1  -1    0.23    0.09
  -2   1  -1    0.11    0.07
  -2   1  -1    0.10    0.07
   2  -1   1    0.14    0.07
   2  -1   1    0.18    0.10
   2  -1   1   -0.02    0.05
   2  -1   1    0.34    0.10
   2  -1   1    0.10    0.09
   2  -1   1    0.09    0.07
   2  -1   1    0.08    0.07
  -3   1  -1   75.56    2.38
  -3   1  -1   70.28    2.38
  -3   1  -1   72.93    2.23
  -3   1  -1   71.70    2.35
  -3   1  -1   72.86    2.00
   3  -1   1   74.68    2.25
   3  -1   1   75.04    2.06
   3  -1   1   75.55    2.05
   3  -1   1   73.62    2.36
   3  -1   1   74.97    2.36
   3  -1   1   74.50    2.02
  -4   1  -1   16.62    0.72
  -4   1  -1   16.51    0.78
  -4   1  -1   15.36    0.74
  -4   1  -1   15.06    0.58
  -4   1  -1   15.84    0.78
   4  -1   1   16.91    0.69
   4  -1   1   15.91    0.76
   4  -1   1   15.29    0.58
   4  -1   1   15.15    0.62
   4  -1   1   16.11    0.65
   4  -1   1   16.70    0.75
   4  -1   1   15.70    0.61
  -5   1  -1    0.24    0.16
  -5   1  -1    0.26    0.16
  -5   1  -1    0.18    0.12
  -5   1  -1    0.28    0.16
  -5   1  -1    0.08    0.12
   5  -1   1    0.37    0.14
   5  -1   1    0.12    0.10
   5  -1   1    0.32    0.16
   5  -1   1    0.35    0.17
   5  -1   1    0.19    0.13
   5  -1   1    0.19    0.11
  -6   1  -1    1.04    0.20
  -6   1  -1    0.49    0.22
   6  -1   1    1.01    0.16
   6  -1   1    0.82    0.20
   6  -1   1    0.68    0.22
   6  -1   1    0.83    0.16
   6  -1   1    0.90    0.19
   6  -1   1    1.18    0.27
  -7   1  -1    1.18    0.23
   7  -1   1    1.36    0.18
   7  -1   1    1.11    0.27
   7  -1   1    1.05    0.29
   7  -1   1    1.37    0.26
   7  -1   1    1.08    0.22
   7  -1   1    1.32    0.18
  -8   1  -1   10.64    0.59
   8  -1   1   10.69    0.70
   8  -1   1    8.11    0.67
   8  -1   1    8.74    0.33
   8  -1   1    9.00    0.59
   8  -1   1    8.88    0.53
   9   0  -1    1.03    0.30
   9   0  -1    0.82    0.29
   9   0  -1    0.70    0.24
   9   0  -1    1.06    0.20
  -9   0   1    0.73    0.23
   8   0  -1    2.85    0.43
   8   0  -1    2.09    0.29
   8   0  -1    3.09    0.46
   8   0  -1    2.46    0.33
  -8   0   1    2.86    0.35
   7   0  -1    7.28    0.31
   7   0  -1    7.00    0.29
   7   0  -1    6.57    0.45
   7   0  -1    7.52    0.55
   7   0  -1    7.35    0.56
   7   0  -1    7.56    0.43
  -7   0   1    7.41    0.44
   6   0  -1    3.39    0.39
   6   0  -1    3.11    0.39
   6   0  -1    3.07    0.33
   6   0  -1    2.87    0.28
   6   0  -1    3.74    0.23
   6   0  -1    3.18    0.22
  -6   0   1    3.22    0.39
  -6   0   1    2.99    0.37
  -6   0   1    3.60    0.28
  -6   0   1    3.28    0.41
   5   0  -1    0.38    0.16
   5   0  -1    0.35    0.10
   5   0  -1    0.29    0.15
   5   0  -1    0.37    0.14
   5   0  -1    0.35    0.12
   5   0  -1    0.28    0.13
   5   0  -1    0.24    0.08
   5   0  -1    0.47    0.11
   5   0  -1    0.30    0.12
  -5   0   1    0.18    0.11
  -5   0   1    0.11    0.11
  -5   0   1    0.29    0.14
  -5   0   1    0.41    0.11
  -5   0   1    0.42    0.14
   4   0  -1    4.93    0.33
   4   0  -1    4.22    0.29
   4   0  -1    6.00    0.36
   4   0  -1    5.10    0.27
   4   0  -1    4.78    0.35
   4   0  -1    4.98    0.34
   4   0  -1    4.73    0.26
   4   0  -1    5.74    0.37
   4   0  -1    5.22    0.31
   4   0  -1    4.15    0.27
  -4   0   1    5.49    0.37
  -4   0   1    4.53    0.35
  -4   0   1    5.04    0.36
  -4   0   1    4.38    0.25
  -4   0   1    4.57    0.33
   3   0  -1   24.20    0.88
   3   0  -1   22.98    0.62
   3   0  -1   23.76    0.89
   3   0  -1   22.85    0.74
   3   0  -1   24.09    0.79
   3   0  -1   23.30    0.77
   3   0  -1   23.87    0.77
   3   0  -1   23.35    0.83
   3   0  -1   24.44    0.88
   3   0  -1   23.92    0.82
   3   0  -1   24.90    0.72
  -3   0   1   24.58    0.84
  -3   0   1   22.95    0.88
  -3   0   1   23.48    0.70
  -3   0   1   23.73    0.88
  -3   0   1   23.66    0.89
   2   0  -1   93.63    2.69
   2   0  -1   99.07    2.87
   2   0  -1   94.92    2.50
   2   0  -1   96.47    2.52
   2   0  -1   96.80    2.56
   2   0  -1   97.52    2.86
   2   0  -1  100.06    2.72
   2   0  -1  101.93    2.88
   2   0  -1   92.56    2.54
   2   0  -1   95.36    2.71
  -2   0   1   96.02    2.88
  -2   0   1   99.89    2.87
  -2   0   1   94.86    2.54
  -2   0   1   95.01    2.57
  -2   0   1   96.35    2.72
  -2   0   1   94.50    2.86
  -2   0   1   93.53    2.47
   1   0  -1   66.21    1.90
   1   0  -1   71.30    1.91
   1   0  -1   57.57    1.89
   1   0  -1   60.37    1.69
   1   0  -1   67.73    1.71
   1   0  -1   67.29    1.64
   1   0  -1   66.71    1.80
   1   0  -1   67.11    1.81
  -1   0   1   66.07    1.68
  -1   0   1   69.41    1.91
  -1   0   1   65.64    1.90
  -1   0   1   65.91    1.71
  -1   0   1   58.57    1.67
  -1   0   1   51.97    1.64
  -1   0   1   66.88    1.70
  -1   0   1   65.28    1.70
   0   0  -1   -0.01    0.01
   0   0  -1   -0.01    0.01
   0   0  -1    0.01    0.01
   0   0  -1    0.00    0.01
   0   0   1    0.00    0.01
   0   0   1    0.01    0.02
   0   0   1   -0.01    0.01
   0   0   1    0.00    0.01
  -1   0  -1    8.68    0.32
  -1   0  -1    8.42    0.27
  -1   0  -1    8.41    0.29
  -1   0  -1    6.84    0.24
  -1   0  -1    7.91    0.27
  -1   0  -1    8.48    0.32
   1   0   1    8.77    0.29
   1   0   1    8.60    0.31
   1   0   1    7.91    0.28
   1   0   1    8.35    0.26
   1   0   1    8.54    0.28
   1   0   1    8.21    0.31
  -2   0  -1   43.93    1.29
  -2   0  -1   43.02    1.15
  -2   0  -1   42.77    1.38
  -2   0  -1   42.26    1.36
  -2   0  -1   44.70    1.30
   2   0   1   45.61    1.37
   2   0   1   43.51    1.37
   2   0   1   40.31    1.27
   2   0   1   45.09    1.22
   2   0   1   43.50    1.17
   2   0   1   43.76    1.19
   2   0   1   44.59    1.18
   2   0   1   43.27    1.31
  -3   0  -1   89.87    2.65
  -3   0  -1   93.19    2.80
  -3   0  -1   90.85    2.38
  -3   0  -1   85.68    2.78
  -3   0  -1   92.25    2.65
  -3   0  -1   91.22    2.82
   3   0   1   91.94    2.68
   3   0   1   94.49    2.68
   3   0   1   94.83    2.78
   3   0   1   92.89    2.42
   3   0   1   92.85    2.48
   3   0   1   90.22    2.40
   3   0   1   91.69    2.48
   3   0   1   90.00    2.44
   3   0   1   92.99    2.79
  -4   0  -1  214.21    5.95
  -4   0  -1  204.69    6.23
  -4   0  -1  213.16    5.41
  -4   0  -1  221.03    6.26
  -4   0  -1  213.19    6.29
   4   0   1  215.06    5.55
   4   0   1  214.56    5.45
   4   0   1  205.65    5.72
   4   0   1  209.06    5.54
   4   0   1  209.99    5.43
   4   0   1  202.58    5.94
   4   0   1  211.00    6.23
   4   0   1  215.25    6.22
   4   0   1  214.05    5.50
  -5   0  -1   12.06    0.63
  -5   0  -1   12.49    0.50
  -5   0  -1   12.60    0.62
  -5   0  -1   13.15    0.69
  -5   0  -1   12.21    0.65
   5   0   1   12.42    0.45
   5   0   1   12.26    0.46
   5   0   1   12.93    0.56
   5   0   1   12.03    0.60
   5   0   1   12.54    0.65
   5   0   1   11.85    0.51
   5   0   1   12.43    0.55
   5   0   1   14.06    0.56
   5   0   1   12.89    0.61
  -6   0  -1    9.84    0.64
  -6   0  -1    9.39    0.45
  -6   0  -1    9.26    0.57
  -6   0  -1    8.01    0.54
   6   0   1    9.95    0.57
   6   0   1    9.19    0.45
   6   0   1    9.09    0.36
   6   0   1    8.51    0.35
   6   0   1    9.13    0.49
   6   0   1    8.74    0.57
  -7   0  -1    0.99    0.20
   7   0   1    1.41    0.30
   7   0   1    0.95    0.19
   7   0   1    1.10    0.20
   7   0   1    1.57    0.29
   7   0   1    0.73    0.20
  -8   0  -1    1.64    0.27
   8   0   1    1.85    0.30
   8   0   1    1.39    0.22
   8   0   1    1.67    0.24
   8   0   1    1.70    0.33
   8   0   1    1.69    0.35
   9   0   1    1.88    0.41
   9   0   1    1.60    0.22
   9   0   1    2.02    0.38
   9   0   1    1.14    0.19
   9   0   1    1.21    0.29
   8  -1  -1   10.48    0.42
   8  -1  -1   10.11    0.57
   8  -1  -1   10.30    0.71
   8  -1  -1    9.79    0.63
   8  -1  -1    9.12    0.40
   8  -1  -1   10.04    0.73
  -8   1   1    9.12    0.57
   7  -1  -1   23.31    1.14
   7  -1  -1   25.99    1.05
   7  -1  -1   23.75    0.97
   7  -1  -1   25.14    0.88
   7  -1  -1   25.24    0.86
   7  -1  -1   25.27    1.15
  -7   1   1   24.90    0.98
   6  -1  -1    0.54    0.14
   6  -1  -1    0.75    0.17
   6  -1  -1    0.27    0.19
   6  -1  -1    0.47    0.16
   6  -1  -1    0.66    0.18
   6  -1  -1    0.79    0.22
   6  -1  -1    0.53    0.14
  -6   1   1    0.58    0.23
  -6   1   1    0.57    0.16
   5  -1  -1    3.97    0.37
   5  -1  -1    4.28    0.34
   5  -1  -1    3.69    0.28
   5  -1  -1    4.20    0.45
   5  -1  -1    4.62    0.33
   5  -1  -1    3.80    0.31
  -5   1   1    3.27    0.39
  -5   1   1    3.80    0.44
  -5   1   1    4.28    0.45
  -5   1   1    4.09    0.44
  -5   1   1    4.85    0.31
   4  -1  -1    7.74    0.42
   4  -1  -1    7.82    0.48
   4  -1  -1    5.46    0.37
   4  -1  -1    6.25    0.35
   4  -1  -1    6.16    0.46
   4  -1  -1    6.83    0.39
   4  -1  -1    7.05    0.39
  -4   1   1    6.94    0.48
  -4   1   1    7.19    0.36
  -4   1   1    7.54    0.45
  -4   1   1    6.86    0.47
  -4   1   1    6.63    0.45
   3  -1  -1    1.17    0.21
   3  -1  -1    1.12    0.17
   3  -1  -1    1.23    0.17
   3  -1  -1    1.64    0.23
   3  -1  -1    1.17    0.15
   3  -1  -1    1.49    0.19
   3  -1  -1    1.41    0.22
   3  -1  -1    1.51    0.19
  -3   1   1    1.72    0.24
  -3   1   1    1.16    0.19
  -3   1   1    1.16    0.15
  -3   1   1    1.00    0.19
  -3   1   1    1.14    0.21
   2  -1  -1   17.65    0.66
   2  -1  -1   17.89    0.72
   2  -1  -1   19.10    0.73
   2  -1  -1   18.71    0.73
   2  -1  -1   18.81    0.60
   2  -1  -1   18.90    0.66
   2  -1  -1   19.37    0.63
  -2   1   1   17.85    0.67
  -2   1   1   18.43    0.73
  -2   1   1   18.29    0.58
  -2   1   1   19.02    0.62
  -2   1   1   18.83    0.73
  -2   1   1   18.04    0.73
   1  -1  -1   44.30    1.33
   1  -1  -1   44.46    1.22
   1  -1  -1   45.42    1.21
   1  -1  -1   44.19    1.39
   1  -1  -1   43.33    1.39
  -1   1   1   43.99    1.22
  -1   1   1   45.21    1.40
  -1   1   1   45.87    1.32
  -1   1   1   44.98    1.23
  -1   1   1   44.12    1.18
  -1   1   1   41.96    1.39
  -1   1   1   43.13    1.39
   0  -1  -1    1.84    0.10
   0  -1  -1    1.34    0.07
   0  -1  -1    1.69    0.13
   0  -1  -1    1.69    0.11
   0  -1  -1    1.73    0.09
   0  -1  -1    1.82    0.12
   0  -1  -1    1.72    0.10
   0  -1  -1    1.81    0.12
   0  -1  -1    1.78    0.10
   0   1   1    1.75    0.07
   0   1   1    1.89    0.10
   0   1   1    1.70    0.09
   0   1   1    1.90    0.11
   0   1   1    1.82    0.13
   0   1   1    1.82    0.10
   0   1   1    1.27    0.11
   1   1   1    6.04    0.24
  -2  -1  -1   18.70    0.60
  -2  -1  -1   18.54    0.51
  -2  -1  -1   18.52    0.59
  -2  -1  -1   18.19    0.58
  -2  -1  -1   18.95    0.54
  -2  -1  -1   18.63    0.59
  -2  -1  -1   19.06    0.54
  -2  -1  -1   17.74    0.54
   2   1   1   17.38    0.50
   2   1   1   18.62    0.51
   2   1   1   18.61    0.59
   2   1   1   18.85    0.62
   2   1   1   18.43    0.54
   2   1   1   18.61    0.59
  -3  -1  -1    0.50    0.10
  -3  -1  -1    0.39    0.08
  -3  -1  -1    0.46    0.08
  -3  -1  -1    0.62    0.11
  -3  -1  -1    0.49    0.06
  -3  -1  -1    0.47    0.09
  -3  -1  -1    0.40    0.09
   3   1   1    0.49    0.08
   3   1   1    0.34    0.06
   3   1   1    0.46    0.08
   3   1   1    0.53    0.09
   3   1   1    0.71    0.11
   3   1   1    0.64    0.12
   3   1   1    0.38    0.06
   3   1   1    0.39    0.06
   3   1   1    0.25    0.10
  -4  -1  -1   19.87    0.78
  -4  -1  -1   21.97    0.80
  -4  -1  -1   21.08    0.75
  -4  -1  -1   20.78    0.80
  -4  -1  -1   20.67    0.59
  -4  -1  -1   20.14    0.73
   4   1   1   21.09    0.67
   4   1   1   20.45    0.64
   4   1   1   19.99    0.77
   4   1   1   20.42    0.76
   4   1   1   20.18    0.63
   4   1   1   21.07    0.70
   4   1   1   20.97    0.72
   4   1   1   19.63    0.79
   4   1   1   20.81    0.67
  -5  -1  -1   63.56    2.18
  -5  -1  -1   68.31    2.16
  -5  -1  -1   68.31    1.79
  -5  -1  -1   67.46    2.06
  -5  -1  -1   61.90    2.13
   5   1   1   66.01    1.87
   5   1   1   65.51    1.82
   5   1   1   70.04    1.92
   5   1   1   67.34    2.03
   5   1   1   63.93    1.80
   5   1   1   67.10    2.06
   5   1   1   63.61    1.85
  -6  -1  -1    1.97    0.27
  -6  -1  -1    1.54    0.25
  -6  -1  -1    1.59    0.24
  -6  -1  -1    1.68    0.18
  -6  -1  -1    1.47    0.26
   6   1   1    1.71    0.23
   6   1   1    1.53    0.26
   6   1   1    1.64    0.21
   6   1   1    1.48    0.17
   6   1   1    1.85    0.18
   6   1   1    1.52    0.27
  -7  -1  -1    7.54    0.52
  -7  -1  -1    7.05    0.54
  -7  -1  -1    6.81    0.50
   7   1   1    7.08    0.35
   7   1   1    6.79    0.50
   7   1   1    7.34    0.35
   7   1   1    8.13    0.42
   7   1   1    7.21    0.53
   8   1   1   14.42    0.54
   8   1   1   15.13    0.65
   8   1   1   15.59    0.84
   8   1   1   14.57    0.85
   8   1   1   15.01    0.55
   9   1   1    0.80    0.18
   9   1   1    0.91    0.30
   9   1   1    0.95    0.27
   8  -2  -1    2.03    0.31
   8  -2  -1    1.72    0.23
   8  -2  -1    1.95    0.41
   8  -2  -1    2.22    0.42
   8  -2  -1    1.83    0.23
  -8   2   1    2.14    0.33
   7  -2  -1    2.21    0.33
   7  -2  -1    1.54    0.31
   7  -2  -1    1.88    0.36
   7  -2  -1    2.45    0.30
   7  -2  -1    2.19    0.40
  -7   2   1    2.17    0.32
   6  -2  -1    0.33    0.23
   6  -2  -1    0.37    0.16
   6  -2  -1    0.24    0.14
   6  -2  -1    0.41    0.18
   6  -2  -1    0.32    0.19
  -6   2   1    0.14    0.14
   5  -2  -1   -0.24    0.09
   5  -2  -1   -0.13    0.13
   5  -2  -1   -0.02    0.11
   5  -2  -1    0.06    0.13
   5  -2  -1    0.12    0.12
  -5   2   1   -0.11    0.10
  -5   2   1   -0.08    0.12
  -5   2   1    0.00    0.20
   4  -2  -1   48.09    1.55
   4  -2  -1   49.31    1.59
   4  -2  -1   51.31    1.83
   4  -2  -1   50.10    1.51
   4  -2  -1   48.27    1.66
  -4   2   1   50.89    1.72
  -4   2   1   47.71    1.80
  -4   2   1   47.04    1.82
  -4   2   1   51.73    1.84
  -4   2   1   47.11    1.47
   3  -2  -1   64.90    2.11
   3  -2  -1   61.09    1.95
   3  -2  -1   63.77    1.98
   3  -2  -1   63.53    2.12
   3  -2  -1   60.93    1.83
   3  -2  -1   60.94    1.78
  -3   2   1   65.18    1.84
  -3   2   1   61.56    2.12
  -3   2   1   57.91    1.96
  -3   2   1   59.08    2.08
  -3   2   1   64.60    2.13
  -3   2   1   60.79    1.74
   2  -2  -1    1.15    0.20
   2  -2  -1    1.05    0.16
   2  -2  -1    1.15    0.20
   2  -2  -1    1.33    0.17
   2  -2  -1    1.15    0.15
   2  -2  -1    1.20    0.18
   2  -2  -1    1.03    0.17
  -2   2   1    1.41    0.15
  -2   2   1    1.10    0.16
  -2   2   1    1.05    0.19
  -2   2   1    1.19    0.15
  -2   2   1    1.08    0.19
  -2   2   1    1.25    0.21
  -2   2   1    1.07    0.17
   1  -2  -1   52.79    1.65
   1  -2  -1   53.11    1.50
   1  -2  -1   52.89    1.70
   1  -2  -1   53.53    1.47
  -1   2   1   53.44    1.71
  -1   2   1   52.17    1.60
  -1   2   1   51.87    1.49
  -1   2   1   53.10    1.42
  -1   2   1   53.60    1.70
   0  -2  -1   18.95    0.65
   0  -2  -1   17.34    0.52
   0  -2  -1   18.48    0.60
   0  -2  -1   17.52    0.54
   0  -2  -1   17.93    0.64
   0  -2  -1   16.94    0.55
   0  -2  -1   16.84    0.54
   0  -2  -1   17.92    0.50
   0  -2  -1   17.14    0.63
   0   2   1   17.62    0.52
   0   2   1   16.59    0.57
   0   2   1   17.82    0.62
   0   2   1   18.38    0.55
   0   2   1   17.85    0.64
   0   2   1   17.21    0.63
   0   2   1   17.68    0.46
  -1  -2  -1   45.10    1.34
  -1  -2  -1   46.09    1.27
  -1  -2  -1   46.05    1.35
  -1  -2  -1   43.85    1.37
  -1  -2  -1   45.46    1.26
   1   2   1   46.04    1.35
   1   2   1   45.24    1.34
  -2  -2  -1   16.65    0.52
  -2  -2  -1   15.94    0.56
  -2  -2  -1   16.59    0.50
   2   2   1   16.30    0.59
  -3  -2  -1    0.04    0.04
  -3  -2  -1    0.00    0.04
  -3  -2  -1    0.05    0.05
  -3  -2  -1    0.03    0.04
  -3  -2  -1    0.06    0.05
  -3  -2  -1    0.02    0.04
   3   2   1    0.07    0.07
   3   2   1    0.07    0.05
   3   2   1    0.00    0.07
   3   2   1   -0.04    0.05
  -4  -2  -1   63.70    1.78
  -4  -2  -1   61.00    1.77
  -4  -2  -1   60.30    1.89
  -4  -2  -1   62.13    1.66
  -4  -2  -1   60.37    1.72
  -4  -2  -1   63.98    1.88
  -4  -2  -1   59.31    1.87
   4   2   1   61.33    1.72
   4   2   1   59.46    1.90
   4   2   1   63.27    1.60
   4   2   1   63.58    1.87
   4   2   1   62.36    1.84
   4   2   1   61.67    1.60
  -5  -2  -1   32.39    1.15
  -5  -2  -1   34.35    1.07
  -5  -2  -1   32.57    1.18
  -5  -2  -1   35.20    1.16
  -5  -2  -1   33.12    1.10
  -5  -2  -1   34.14    0.97
   5   2   1   34.28    0.96
   5   2   1   33.15    0.95
   5   2   1   34.22    1.15
   5   2   1   35.49    1.17
   5   2   1   33.08    1.05
   5   2   1   31.51    1.19
  -6  -2  -1    4.41    0.32
  -6  -2  -1    4.16    0.32
  -6  -2  -1    4.06    0.34
  -6  -2  -1    4.66    0.34
   6   2   1    4.40    0.29
   6   2   1    3.98    0.23
   6   2   1    5.22    0.38
   6   2   1    4.21    0.36
  -7  -2  -1    9.70    0.56
  -7  -2  -1    9.21    0.53
  -7  -2  -1    9.87    0.60
   7   2   1    9.46    0.61
   7   2   1    9.34    0.40
   7   2   1    9.23    0.57
  -8  -2  -1   15.06    0.80
  -8  -2  -1   15.79    0.87
   8   2   1   13.84    0.78
   8   2   1   15.62    0.59
   8   2   1   14.66    0.84
   9   2   1    0.27    0.11
   9   2   1    1.18    0.28
   9   2   1    0.58    0.25
  10   2   1   -0.13    0.20
  10   2   1    0.26    0.21
   7  -3  -1   -0.23    0.14
   7  -3  -1   -0.17    0.19
   7  -3  -1   -0.15    0.16
   7  -3  -1    0.17    0.22
  -7   3   1   -0.19    0.14
   6  -3  -1    3.51    0.37
   6  -3  -1    2.42    0.39
   6  -3  -1    3.71    0.45
  -6   3   1    3.54    0.37
   5  -3  -1    1.85    0.31
   5  -3  -1    1.67    0.30
   5  -3  -1    1.48    0.25
   5  -3  -1    1.72    0.29
  -5   3   1    1.78    0.36
  -5   3   1    1.74    0.25
   4  -3  -1   18.47    0.77
   4  -3  -1   18.33    0.80
   4  -3  -1   19.24    0.88
  -4   3   1   19.68    0.98
  -4   3   1   17.94    0.72
   3  -3  -1   51.03    1.86
   3  -3  -1   51.72    1.57
   3  -3  -1   49.87    1.75
   3  -3  -1   54.23    1.91
   3  -3  -1   52.50    1.63
  -3   3   1   51.71    1.89
  -3   3   1   50.25    1.87
  -3   3   1   47.87    1.49
  -3   3   1   51.20    1.86
   2  -3  -1   54.97    1.65
   2  -3  -1   54.91    1.76
   2  -3  -1   56.01    1.90
   2  -3  -1   51.89    1.79
   2  -3  -1   53.97    1.60
  -2   3   1   53.50    1.88
  -2   3   1   57.03    1.91
  -2   3   1   53.11    1.53
  -2   3   1   54.66    1.89
  -2   3   1   54.93    1.76
   1  -3  -1    5.05    0.36
   1  -3  -1    5.41    0.34
   1  -3  -1    4.80    0.28
   1  -3  -1    5.11    0.30
   1  -3  -1    5.41    0.37
   1  -3  -1    5.43    0.36
  -1   3   1    4.90    0.35
  -1   3   1    4.82    0.23
  -1   3   1    5.62    0.36
  -1   3   1    5.41    0.37
  -1   3   1    5.49    0.30
   0  -3  -1  115.60    3.07
   0  -3  -1  115.75    3.04
   0  -3  -1  116.27    3.26
   0  -3  -1  114.56    3.46
   0  -3  -1  107.51    3.36
   0  -3  -1  116.04    2.94
   0  -3  -1  112.79    3.07
   0  -3  -1  111.97    3.42
   0   3   1  117.65    3.44
   0   3   1  110.61    3.41
   0   3   1  118.54    3.02
   0   3   1  114.01    3.42
  -1  -3  -1    0.46    0.12
  -1  -3  -1    0.73    0.11
  -1  -3  -1    0.58    0.08
  -1  -3  -1    0.58    0.12
  -1  -3  -1    0.58    0.11
   1   3   1    0.60    0.09
   1   3   1    0.62    0.12
   1   3   1    0.56    0.07
  -2  -3  -1   48.22    1.45
  -2  -3  -1   48.10    1.44
  -2  -3  -1   49.64    1.53
   2   3   1   50.37    1.45
   2   3   1   49.85    1.45
   2   3   1   49.48    1.34
   2   3   1   47.81    1.51
  -3  -3  -1    2.67    0.16
  -3  -3  -1    2.39    0.18
  -3  -3  -1    2.60    0.18
   3   3   1    2.76    0.24
  -4  -3  -1    4.58    0.25
  -4  -3  -1    4.54    0.23
  -4  -3  -1    3.96    0.18
   4   3   1    4.58    0.32
   4   3   1    4.34    0.24
  -5  -3  -1   52.50    1.54
  -5  -3  -1   51.24    1.47
  -5  -3  -1   50.82    1.53
  -5  -3  -1   51.69    1.54
  -5  -3  -1   52.19    1.65
  -5  -3  -1   52.84    1.60
  -5  -3  -1   51.31    1.60
   5   3   1   53.92    1.61
   5   3   1   53.14    1.54
   5   3   1   55.88    1.68
  -6  -3  -1    3.51    0.25
  -6  -3  -1    3.49    0.25
  -6  -3  -1    3.92    0.29
  -6  -3  -1    3.39    0.21
  -6  -3  -1    3.37    0.26
  -6  -3  -1    3.65    0.26
   6   3   1    3.96    0.27
   6   3   1    3.42    0.36
   6   3   1    3.32    0.37
  -7  -3  -1    0.33    0.14
  -7  -3  -1    0.29    0.12
  -7  -3  -1    0.16    0.11
  -7  -3  -1    0.39    0.16
   7   3   1    0.22    0.13
   7   3   1    0.33    0.16
   7   3   1    0.31    0.16
  -8  -3  -1    0.00    0.17
  -8  -3  -1    0.21    0.17
  -8  -3  -1    0.11    0.20
   8   3   1    0.32    0.18
   8   3   1    0.09    0.13
  -9  -3  -1    4.56    0.50
   9   3   1    4.32    0.54
   9   3   1    4.79    0.53
  10   3   1    0.08    0.17
  10   3   1    0.26    0.21
   6  -4  -1    1.15    0.28
   6  -4  -1    1.21    0.32
  -6   4   1    0.86    0.21
   5  -4  -1    2.40    0.38
   5  -4  -1    2.91    0.42
  -5   4   1    2.68    0.31
   4  -4  -1    4.52    0.50
  -4   4   1    3.69    0.29
  -4   4   1    3.65    0.48
   3  -4  -1    7.81    0.53
  -3   4   1    7.14    0.54
  -3   4   1    6.97    0.38
   2  -4  -1    0.85    0.21
   2  -4  -1    0.85    0.18
   2  -4  -1    0.94    0.17
   2  -4  -1    1.42    0.26
   2  -4  -1    0.90    0.19
  -2   4   1    0.94    0.22
  -2   4   1    1.29    0.25
  -2   4   1    1.24    0.16
   1  -4  -1   35.79    1.33
   1  -4  -1   34.95    1.15
   1  -4  -1   33.38    1.29
   1  -4  -1   34.95    1.25
   1  -4  -1   34.78    1.35
   1  -4  -1   34.61    1.12
   1  -4  -1   35.24    1.24
  -1   4   1   34.37    1.30
  -1   4   1   34.44    1.33
  -1   4   1   35.19    0.98
  -1   4   1   36.00    1.14
  -1   4   1   34.77    1.32
   0  -4  -1  124.34    3.78
   0  -4  -1  124.92    3.82
   0  -4  -1  126.04    3.60
   0  -4  -1  120.47    3.72
   0  -4  -1  126.83    3.24
   0   4   1  123.66    3.77
   0   4   1  122.79    3.30
   0   4   1  125.41    3.79
   0   4   1  120.45    3.74
  -1  -4  -1  210.73    5.97
  -1  -4  -1  200.63    5.38
  -1  -4  -1  204.27    5.42
  -1  -4  -1  201.82    5.90
  -1  -4  -1  210.08    5.69
  -1  -4  -1  209.03    6.01
  -1  -4  -1  210.15    5.16
   1   4   1  201.27    5.97
   1   4   1  199.60    5.91
   1   4   1  198.28    5.95
   1   4   1  202.96    5.24
   1   4   1  206.58    5.24
  -2  -4  -1   14.52    0.56
  -2  -4  -1   14.55    0.63
  -2  -4  -1   14.66    0.50
  -2  -4  -1   14.28    0.55
  -2  -4  -1   14.13    0.42
  -2  -4  -1   14.94    0.52
   2   4   1   14.82    0.55
   2   4   1   15.20    0.47
  -3  -4  -1    2.80    0.16
  -3  -4  -1    3.71    0.25
  -3  -4  -1    3.75    0.17
  -3  -4  -1    3.70    0.17
  -3  -4  -1    4.17    0.30
   3   4   1    3.68    0.17
   3   4   1    3.53    0.17
   3   4   1    4.53    0.32
  -4  -4  -1    3.32    0.24
  -4  -4  -1    3.96    0.26
  -4  -4  -1    3.80    0.27
   4   4   1    3.83    0.31
  -5  -4  -1    0.04    0.05
  -5  -4  -1    0.03    0.03
  -5  -4  -1    0.06    0.07
  -5  -4  -1    0.13    0.09
   5   4   1    0.04    0.09
  -6  -4  -1   13.73    0.52
  -6  -4  -1   12.34    0.53
  -6  -4  -1   13.35    0.57
  -6  -4  -1   12.58    0.49
   6   4   1   13.28    0.56
   6   4   1   13.85    0.70
   6   4   1   13.39    0.47
  -7  -4  -1    5.21    0.34
  -7  -4  -1    4.53    0.33
  -7  -4  -1    4.42    0.26
  -7  -4  -1    4.66    0.31
   7   4   1    4.38    0.47
   7   4   1    3.76    0.42
   7   4   1    4.90    0.34
  -8  -4  -1   -0.08    0.10
  -8  -4  -1   -0.13    0.08
   8   4   1    0.04    0.16
   8   4   1   -0.04    0.11
  -9  -4  -1    5.82    0.45
   9   4   1    5.10    0.58
   9   4   1    6.10    0.51
 -10  -4  -1   -0.11    0.12
  10   4   1    0.45    0.23
  10   4   1    0.37    0.22
   5  -5  -1   20.21    1.09
   5  -5  -1   21.73    1.10
  -5   5   1   19.94    0.83
   4  -5  -1   27.92    1.30
  -4   5   1   27.42    0.99
  -4   5   1   30.67    1.44
   3  -5  -1    0.06    0.14
  -3   5   1    0.11    0.14
  -3   5   1    0.04    0.09
   2  -5  -1   18.82    0.96
   2  -5  -1   22.18    1.06
  -2   5   1   20.92    0.68
  -2   5   1   19.85    0.99
   1  -5  -1    1.96    0.31
   1  -5  -1    1.61    0.29
   1  -5  -1    2.23    0.30
   1  -5  -1    1.55    0.28
  -1   5   1    2.04    0.25
  -1   5   1    1.62    0.27
  -1   5   1    1.83    0.29
   0  -5  -1   10.35    0.55
   0  -5  -1    9.44    0.58
   0  -5  -1   10.49    0.43
   0  -5  -1   10.95    0.59
   0  -5  -1   10.62    0.55
   0  -5  -1    9.62    0.59
   0   5   1    9.48    0.46
   0   5   1    9.70    0.56
   0   5   1   10.62    0.47
   0   5   1   11.13    0.55
  -1  -5  -1    1.14    0.19
  -1  -5  -1    0.93    0.11
  -1  -5  -1    0.80    0.16
  -1  -5  -1    1.12    0.19
  -1  -5  -1    0.92    0.20
  -1  -5  -1    1.03    0.20
   1   5   1    1.05    0.14
   1   5   1    1.02    0.13
   1   5   1    0.75    0.16
   1   5   1    0.99    0.16
  -2  -5  -1    2.82    0.23
  -2  -5  -1    2.53    0.23
  -2  -5  -1    2.20    0.29
  -2  -5  -1    2.87    0.22
  -2  -5  -1    2.47    0.15
  -2  -5  -1    2.57    0.17
   2   5   1    2.25    0.16
   2   5   1    2.21    0.24
  -3  -5  -1   50.39    1.61
  -3  -5  -1   51.38    1.58
  -3  -5  -1   52.36    1.51
  -3  -5  -1   49.62    1.51
  -3  -5  -1   49.89    1.70
  -3  -5  -1   52.10    1.58
   3   5   1   49.84    1.58
   3   5   1   52.12    1.44
   3   5   1   51.76    1.58
  -4  -5  -1   28.74    0.99
  -4  -5  -1   29.48    0.99
  -4  -5  -1   29.46    1.06
  -4  -5  -1   27.65    0.91
   4   5   1   28.77    1.11
  -5  -5  -1    2.91    0.25
  -5  -5  -1    3.40    0.28
  -5  -5  -1    3.35    0.27
   5   5   1    3.22    0.36
  -6  -5  -1    3.81    0.29
  -6  -5  -1    3.48    0.19
  -6  -5  -1    3.82    0.21
  -6  -5  -1    3.86    0.28
  -6  -5  -1    4.11    0.29
   6   5   1    3.57    0.40
  -7  -5  -1   -0.03    0.07
  -7  -5  -1    0.13    0.10
  -7  -5  -1   -0.06    0.08
  -7  -5  -1    0.07    0.10
   7   5   1    0.23    0.15
  -8  -5  -1    0.43    0.14
   8   5   1    0.80    0.25
  -9  -5  -1    3.40    0.37
   9   5   1    3.77    0.50
 -10  -5  -1    4.84    0.44
  10   5   1    5.36    0.62
   4  -6  -1    3.36    0.50
  -4   6   1    3.22    0.26
   3  -6  -1    6.42    0.57
  -3   6   1    7.27    0.33
   2  -6  -1    9.54    0.68
  -2   6   1   10.22    0.59
   1  -6  -1   13.71    0.80
  -1   6   1   10.40    0.69
  -1   6   1   14.11    0.64
   0  -6  -1   11.42    0.61
   0  -6  -1   10.56    0.47
   0  -6  -1   10.48    0.59
   0  -6  -1    8.51    0.61
   0  -6  -1    8.77    0.62
   0   6   1   11.60    0.64
   0   6   1   10.09    0.49
   0   6   1   10.22    0.49
   0   6   1   10.83    0.57
  -1  -6  -1    0.97    0.20
  -1  -6  -1    1.25    0.23
  -1  -6  -1    1.05    0.21
  -1  -6  -1    0.80    0.22
  -1  -6  -1    1.06    0.15
  -1  -6  -1    1.02    0.22
   1   6   1    1.33    0.19
   1   6   1    1.13    0.15
   1   6   1    0.82    0.13
   1   6   1    0.53    0.15
  -2  -6  -1   27.73    1.13
  -2  -6  -1   29.01    1.05
  -2  -6  -1   30.21    1.07
  -2  -6  -1   27.16    1.17
  -2  -6  -1   31.38    1.12
   2   6   1   29.09    0.92
  -3  -6  -1   -0.02    0.08
  -3  -6  -1    0.08    0.06
  -3  -6  -1   -0.03    0.10
  -3  -6  -1   -0.02    0.08
  -3  -6  -1    0.11    0.08
  -3  -6  -1   -0.05    0.08
  -3  -6  -1    0.02    0.06
   3   6   1    0.01    0.08
   3   6   1    0.01    0.05
  -4  -6  -1    3.64    0.35
  -4  -6  -1    3.20    0.21
  -4  -6  -1    2.77    0.18
  -4  -6  -1    3.08    0.21
  -4  -6  -1    3.40    0.24
  -4  -6  -1    3.00    0.24
  -4  -6  -1    3.17    0.19
  -4  -6  -1    3.13    0.35
   4   6   1    3.33    0.19
   4   6   1    2.98    0.20
  -5  -6  -1    0.59    0.09
  -5  -6  -1    0.72    0.18
  -5  -6  -1    0.41    0.09
  -5  -6  -1    0.77    0.18
  -5  -6  -1    0.94    0.18
   5   6   1    0.50    0.17
  -6  -6  -1    3.18    0.32
  -6  -6  -1    2.12    0.14
  -6  -6  -1    2.82    0.30
  -6  -6  -1    2.55    0.29
   6   6   1    2.31    0.34
  -7  -6  -1   18.89    0.80
  -7  -6  -1   20.41    0.78
  -7  -6  -1   18.38    0.64
   7   6   1   17.74    0.93
  -8  -6  -1   25.28    0.88
  -9  -6  -1    2.37    0.28
   9   6   1    3.16    0.47
 -10  -6  -1    7.52    0.49
  10   6   1    6.75    0.72
   3  -7  -1    7.46    0.79
   2  -7  -1    2.22    0.41
  -2   7   1    2.62    0.36
   1  -7  -1   20.91    1.12
  -1   7   1   22.78    0.92
   0  -7  -1    2.99    0.45
   0   7   1    3.63    0.34
   0   7   1    3.90    0.29
  -1  -7  -1    6.76    0.48
  -1  -7  -1    6.18    0.54
  -1  -7  -1    4.35    0.40
   1   7   1    5.71    0.31
   1   7   1    6.37    0.33
  -2  -7  -1    5.55    0.49
  -2  -7  -1    5.69    0.42
  -2  -7  -1    5.44    0.41
  -2  -7  -1    5.16    0.43
   2   7   1    4.77    0.28
  -3  -7  -1   11.71    0.58
  -3  -7  -1   11.25    0.56
  -3  -7  -1   11.29    0.69
  -3  -7  -1   11.13    0.61
  -4  -7  -1    0.97    0.17
  -4  -7  -1    1.17    0.20
  -4  -7  -1    0.99    0.22
  -4  -7  -1    1.22    0.18
  -4  -7  -1    0.82    0.12
  -4  -7  -1    0.72    0.14
  -4  -7  -1    0.73    0.21
  -5  -7  -1    4.23    0.39
  -5  -7  -1    3.79    0.27
  -5  -7  -1    4.56    0.45
  -5  -7  -1    4.09    0.31
  -5  -7  -1    3.99    0.26
  -5  -7  -1    4.27    0.26
  -5  -7  -1    3.75    0.39
  -6  -7  -1    5.73    0.43
  -6  -7  -1    5.13    0.27
  -6  -7  -1    5.10    0.27
  -6  -7  -1    5.93    0.41
  -6  -7  -1    5.72    0.41
   6   7   1    5.40    0.48
  -7  -7  -1    0.08    0.07
  -7  -7  -1    0.21    0.13
  -7  -7  -1    0.09    0.12
   7   7   1    0.29    0.18
  -8  -7  -1   17.68    0.64
   8   7   1   17.49    0.96
  -9  -7  -1    1.48    0.20
   9   7   1    0.80    0.28
 -10  -7  -1    0.73    0.19
 -10  -7  -1    0.80    0.17
  10   7   1    0.94    0.30
   2  -8  -1   -0.08    0.18
  -2   8   1    0.09    0.16
   1  -8  -1    0.65    0.26
  -1   8   1    0.79    0.22
   0  -8  -1   10.81    0.79
   0   8   1   10.58    0.54
   0   8   1   10.18    0.54
  -1  -8  -1    4.17    0.55
   1   8   1    3.66    0.26
   1   8   1    3.54    0.26
  -2  -8  -1   10.53    0.63
  -2  -8  -1   10.15    0.72
  -3  -8  -1   28.23    1.13
  -3  -8  -1   31.24    1.18
  -3  -8  -1   28.30    1.31
  -3  -8  -1   27.87    1.15
  -4  -8  -1   24.76    1.05
  -4  -8  -1   24.63    0.92
  -4  -8  -1   23.17    1.13
  -4  -8  -1   21.77    1.00
  -4  -8  -1   24.77    0.96
  -4  -8  -1   24.20    0.97
  -5  -8  -1    3.92    0.46
  -5  -8  -1    3.73    0.43
  -5  -8  -1    3.43    0.28
  -5  -8  -1    3.92    0.30
  -5  -8  -1    3.45    0.32
  -5  -8  -1    4.48    0.47
  -6  -8  -1    7.57    0.53
  -6  -8  -1    6.82    0.52
  -6  -8  -1    6.90    0.37
  -6  -8  -1    7.48    0.54
  -6  -8  -1    6.31    0.36
  -7  -8  -1    1.25    0.16
  -7  -8  -1    1.28    0.17
  -7  -8  -1    0.96    0.24
   7   8   1    1.34    0.32
  -8  -8  -1    0.16    0.09
   8   8   1    0.33    0.19
  -9  -8  -1    0.18    0.10
   9   8   1    0.69    0.28
   0  -9  -1    0.72    0.31
   0   9   1    1.09    0.20
  -1  -9  -1    8.31    0.72
   1   9   1    6.68    0.32
   1   9   1    6.97    0.33
  -2  -9  -1    3.10    0.49
  -3  -9  -1    3.84    0.45
  -3  -9  -1    3.05    0.48
  -4  -9  -1   -0.17    0.15
  -4  -9  -1    0.04    0.14
  -4  -9  -1    0.12    0.14
  -5  -9  -1    1.77    0.36
  -5  -9  -1    2.05    0.29
  -5  -9  -1    2.14    0.29
  -5  -9  -1    2.48    0.39
  -6  -9  -1   28.08    1.18
  -6  -9  -1   24.50    0.99
  -6  -9  -1   27.02    1.22
  -6  -9  -1   25.60    0.99
  -7  -9  -1   13.65    0.60
  -7  -9  -1   13.39    0.60
  -7  -9  -1   16.07    0.82
  -8  -9  -1    0.59    0.13
  -8  -9  -1    0.56    0.12
  -2 -10  -1    9.59    0.81
  -3 -10  -1    5.01    0.67
  -4 -10  -1    1.58    0.40
  -4 -10  -1    1.86    0.31
  -5 -10  -1    7.42    0.51
  -5 -10  -1    7.76    0.65
  -5 -10  -1    6.98    0.60
  -5 -10  -1    7.35    0.54
  -6 -10  -1    7.26    0.50
  -6 -10  -1    8.25    0.66
  -6 -10  -1    9.12    0.53
  -6 -10  -1    7.88    0.61
  -7 -10  -1    9.37    0.51
  -7 -10  -1    9.76    0.53
  -7 -10  -1    8.16    0.64
  -6 -10   2    0.26    0.22
  -6 -10   2    0.32    0.16
  -6 -10   2    0.11    0.14
  -5 -10   2    1.22    0.34
  -5 -10   2    0.78    0.29
  -5 -10   2    1.26    0.26
  -4 -10   2   12.05    0.85
  -4 -10   2   11.91    0.81
  -3 -10   2   14.94    0.99
  -3 -10   2   15.82    0.95
  -8  -9   2    0.12    0.12
  -8  -9   2    0.16    0.12
  -7  -9   2    2.13    0.37
  -7  -9   2    2.23    0.29
  -7  -9   2    1.91    0.27
  -6  -9   2    0.62    0.19
  -6  -9   2    1.07    0.28
  -6  -9   2    0.87    0.20
  -5  -9   2   10.39    0.61
  -5  -9   2   10.98    0.72
  -5  -9   2   10.55    0.71
  -5  -9   2    9.68    0.61
  -4  -9   2    0.86    0.24
  -4  -9   2    1.35    0.31
  -4  -9   2    1.50    0.33
  -3  -9   2    9.96    0.74
  -3  -9   2   10.06    0.71
  -2  -9   2    6.63    0.71
   1   9  -2    0.21    0.11
   1   9  -2    0.13    0.10
  -1  -9   2    0.57    0.27
   0   9  -2    1.36    0.24
   0  -9   2    1.03    0.33
   9   8  -2    1.23    0.33
  -9  -8   2    1.00    0.20
   8   8  -2    1.50    0.35
  -8  -8   2    1.95    0.34
  -8  -8   2    2.10    0.22
  -8  -8   2    2.23    0.27
  -7  -8   2   22.07    1.00
  -7  -8   2   21.31    0.76
  -7  -8   2   20.78    0.84
  -7  -8   2   20.85    0.85
  -6  -8   2    4.83    0.35
  -6  -8   2    5.19    0.37
  -6  -8   2    5.41    0.55
  -5  -8   2    1.43    0.23
  -5  -8   2    1.51    0.24
  -5  -8   2    1.45    0.29
  -5  -8   2    1.31    0.21
  -5  -8   2    1.14    0.28
  -4  -8   2    3.22    0.43
  -4  -8   2    2.26    0.32
  -4  -8   2    2.63    0.33
  -4  -8   2    2.94    0.41
  -3  -8   2   -0.12    0.14
  -3  -8   2   -0.04    0.14
  -3  -8   2    0.07    0.13
  -3  -8   2    0.40    0.16
   2   8  -2    1.01    0.12
   2   8  -2    1.05    0.13
  -2  -8   2    1.27    0.32
   1   8  -2    2.45    0.27
   1   8  -2    2.94    0.28
  -1  -8   2    2.57    0.45
   0   8  -2    0.43    0.17
   0  -8   2    0.35    0.25
  -1   8  -2    2.68    0.36
   1  -8   2    2.11    0.43
  -2   8  -2    6.49    0.53
   2  -8   2    5.80    0.71
   9   7  -2   11.45    0.77
  -9  -7   2   10.90    0.58
   8   7  -2    3.99    0.51
  -8  -7   2    4.04    0.32
  -8  -7   2    3.82    0.25
   7   7  -2    1.24    0.29
  -7  -7   2    1.09    0.14
  -7  -7   2    0.70    0.21
  -7  -7   2    0.83    0.16
  -7  -7   2    0.86    0.26
   6   7  -2    3.65    0.46
  -6  -7   2    4.12    0.45
  -6  -7   2    4.19    0.45
  -6  -7   2    4.31    0.31
  -6  -7   2    4.16    0.30
  -6  -7   2    4.61    0.26
  -5  -7   2    0.36    0.13
  -5  -7   2    0.53    0.19
  -5  -7   2    0.62    0.19
  -5  -7   2    0.59    0.12
  -5  -7   2    0.64    0.13
  -5  -7   2    0.67    0.15
  -5  -7   2    0.80    0.21
  -4  -7   2    0.12    0.13
  -4  -7   2    0.08    0.10
  -4  -7   2    0.09    0.11
  -4  -7   2    0.14    0.11
  -4  -7   2    0.23    0.13
  -4  -7   2    0.13    0.15
  -4  -7   2    0.19    0.15
   3   7  -2    1.61    0.21
  -3  -7   2    1.26    0.27
  -3  -7   2    1.70    0.29
  -3  -7   2    1.41    0.28
  -3  -7   2    1.26    0.24
  -3  -7   2    1.13    0.22
  -3  -7   2    1.81    0.26
  -3  -7   2    1.63    0.25
   2   7  -2    0.11    0.07
   2   7  -2   -0.01    0.07
   2   7  -2    0.21    0.11
  -2  -7   2    0.13    0.13
  -2  -7   2    0.05    0.09
  -2  -7   2   -0.12    0.11
  -2  -7   2    0.13    0.16
   1   7  -2   10.28    0.48
  -1  -7   2   10.18    0.49
  -1  -7   2    9.53    0.67
   0  -7   2    1.11    0.30
   0  -7   2    1.54    0.23
   1  -7   2    0.36    0.22
   2  -7   2    0.95    0.30
   3  -7   2    0.11    0.20
  10   6  -2    4.66    0.59
 -10  -6   2    3.79    0.42
   9   6  -2    0.59    0.23
  -9  -6   2    0.56    0.19
   8   6  -2   -0.03    0.15
  -8  -6   2    0.11    0.08
  -8  -6   2    0.17    0.12
  -8  -6   2    0.15    0.18
   7   6  -2    5.43    0.47
  -7  -6   2    6.05    0.45
  -7  -6   2    6.41    0.36
  -7  -6   2    5.46    0.41
  -7  -6   2    5.70    0.29
   6   6  -2   53.55    1.98
  -6  -6   2   56.15    1.59
  -6  -6   2   60.18    1.89
  -6  -6   2   56.96    1.83
  -6  -6   2   57.27    1.74
  -6  -6   2   57.86    1.75
   5   6  -2   35.87    1.40
  -5  -6   2   37.25    1.09
  -5  -6   2   36.64    1.21
  -5  -6   2   36.73    1.21
  -5  -6   2   36.41    1.32
  -5  -6   2   38.29    1.31
  -5  -6   2   36.73    1.31
   4   6  -2    1.45    0.19
   4   6  -2    1.49    0.20
  -4  -6   2    1.53    0.22
  -4  -6   2    1.46    0.19
  -4  -6   2    1.68    0.20
  -4  -6   2    1.20    0.24
  -4  -6   2    1.43    0.20
  -4  -6   2    1.82    0.29
  -4  -6   2    1.86    0.27
  -4  -6   2    1.49    0.19
  -4  -6   2    1.59    0.17
   3   6  -2    5.25    0.32
  -3  -6   2    5.61    0.41
  -3  -6   2    5.65    0.37
  -3  -6   2    5.12    0.36
  -3  -6   2    5.66    0.39
  -3  -6   2    5.44    0.42
  -3  -6   2    5.62    0.36
  -3  -6   2    4.92    0.34
  -3  -6   2    5.59    0.42
   2   6  -2    4.07    0.23
   2   6  -2    3.22    0.30
   2   6  -2    5.04    0.31
  -2  -6   2    4.14    0.34
  -2  -6   2    3.88    0.43
  -2  -6   2    4.53    0.37
  -2  -6   2    4.62    0.34
  -2  -6   2    3.78    0.32
  -2  -6   2    4.43    0.36
   1   6  -2    0.13    0.10
   1   6  -2    0.18    0.09
   1   6  -2    0.06    0.10
  -1  -6   2    0.19    0.11
  -1  -6   2    0.17    0.09
  -1  -6   2    0.12    0.13
  -1  -6   2   -0.08    0.11
  -1  -6   2    0.16    0.14
   0   6  -2   10.51    0.63
   0   6  -2    9.51    0.49
   0   6  -2   10.49    0.60
   0  -6   2    9.81    0.65
   0  -6   2   10.08    0.48
  -1   6  -2    4.12    0.47
   1  -6   2    3.87    0.47
  -2   6  -2    4.14    0.22
   2  -6   2    3.89    0.52
  -3   6  -2    7.38    0.36
   3  -6   2    7.22    0.63
  -4   6  -2    0.76    0.16
   4  -6   2    0.57    0.28
  10   5  -2    8.42    0.68
 -10  -5   2    9.35    0.62
   9   5  -2    0.12    0.17
  -9  -5   2   -0.09    0.13
   8   5  -2    3.64    0.45
  -8  -5   2    3.15    0.38
  -8  -5   2    3.00    0.24
  -8  -5   2    2.91    0.33
  -8  -5   2    3.44    0.27
   7   5  -2    6.32    0.49
  -7  -5   2    5.47    0.41
  -7  -5   2    5.85    0.30
  -7  -5   2    5.60    0.39
  -7  -5   2    6.28    0.37
  -7  -5   2    5.35    0.31
  -7  -5   2    6.24    0.41
   6   5  -2    7.80    0.53
  -6  -5   2    9.19    0.48
  -6  -5   2    8.11    0.32
  -6  -5   2    7.86    0.37
  -6  -5   2    8.41    0.50
  -6  -5   2    8.19    0.38
  -6  -5   2    8.69    0.41
   5   5  -2   13.58    0.53
   5   5  -2   13.37    0.68
  -5  -5   2   13.26    0.53
  -5  -5   2   14.22    0.64
  -5  -5   2   14.26    0.57
  -5  -5   2   13.23    0.44
  -5  -5   2   14.15    0.54
  -5  -5   2   13.25    0.53
  -5  -5   2   12.96    0.63
   4   5  -2    2.42    0.31
   4   5  -2    2.72    0.20
   4   5  -2    2.94    0.23
  -4  -5   2    2.40    0.20
  -4  -5   2    2.79    0.30
  -4  -5   2    2.76    0.28
  -4  -5   2    3.19    0.32
  -4  -5   2    2.98    0.16
  -4  -5   2    2.93    0.21
  -4  -5   2    2.30    0.19
   3   5  -2    0.43    0.12
  -3  -5   2    0.41    0.13
  -3  -5   2    0.32    0.12
  -3  -5   2    0.42    0.12
  -3  -5   2    0.55    0.13
  -3  -5   2    0.51    0.16
  -3  -5   2    0.60    0.14
  -3  -5   2    0.94    0.19
   2   5  -2   47.63    1.47
   2   5  -2   48.37    1.32
   2   5  -2   49.22    1.52
   2   5  -2   49.85    1.62
  -2  -5   2   46.31    1.61
  -2  -5   2   48.03    1.64
  -2  -5   2   48.42    1.31
  -2  -5   2   46.30    1.54
  -2  -5   2   48.69    1.63
  -2  -5   2   46.67    1.52
  -2  -5   2   46.40    1.64
   1   5  -2   14.12    0.53
   1   5  -2   12.93    0.64
   1   5  -2   13.81    0.61
  -1  -5   2   12.99    0.49
  -1  -5   2   12.06    0.60
  -1  -5   2   14.19    0.67
  -1  -5   2   13.47    0.68
  -1  -5   2   12.42    0.65
  -1  -5   2   12.92    0.61
   0   5  -2   25.83    1.04
   0   5  -2   24.48    1.05
   0   5  -2   24.77    0.88
   0  -5   2   23.74    1.05
   0  -5   2   25.73    1.00
   0  -5   2   25.02    1.00
   0  -5   2   25.02    1.08
   0  -5   2   25.71    1.07
   0  -5   2   25.62    0.84
  -1   5  -2   17.45    0.54
  -1   5  -2   15.16    0.81
  -1   5  -2   17.78    0.86
   1  -5   2   16.74    0.85
   1  -5   2   17.17    0.87
   1  -5   2   15.84    0.85
  -2   5  -2    0.09    0.09
  -2   5  -2    0.03    0.13
   2  -5   2    0.24    0.18
  -3   5  -2    0.12    0.10
  -3   5  -2    0.15    0.15
   3  -5   2   -0.03    0.15
  -4   5  -2    2.55    0.28
   4  -5   2    2.84    0.44
  -5   5  -2    0.95    0.20
   5  -5   2    0.78    0.26
  10   4  -2    6.23    0.67
  10   4  -2    6.26    0.67
   9   4  -2    1.74    0.35
   9   4  -2    1.98    0.36
  -9  -4   2    1.63    0.30
   8   4  -2    0.06    0.12
   8   4  -2    0.22    0.17
  -8  -4   2    0.10    0.09
  -8  -4   2    0.01    0.15
  -8  -4   2   -0.03    0.12
  -8  -4   2    0.01    0.13
   7   4  -2   31.16    1.29
  -7  -4   2   30.83    1.22
  -7  -4   2   32.79    1.16
  -7  -4   2   33.27    1.13
  -7  -4   2   32.77    1.21
  -7  -4   2   33.39    1.05
  -7  -4   2   32.56    1.17
   6   4  -2   18.02    0.70
   6   4  -2   17.82    0.83
  -6  -4   2   17.57    0.60
  -6  -4   2   17.36    0.69
  -6  -4   2   17.48    0.68
  -6  -4   2   17.68    0.70
  -6  -4   2   18.24    0.74
  -6  -4   2   16.40    0.74
  -6  -4   2   18.04    0.72
   5   4  -2   11.69    0.60
   5   4  -2   10.35    0.53
   5   4  -2   11.60    0.48
   5   4  -2   10.99    0.48
  -5  -4   2   11.47    0.46
  -5  -4   2   11.32    0.50
  -5  -4   2   10.87    0.48
  -5  -4   2   11.84    0.56
  -5  -4   2   12.30    0.49
  -5  -4   2   11.71    0.39
  -5  -4   2   11.31    0.52
  -5  -4   2   11.57    0.43
   4   4  -2   25.69    0.89
   4   4  -2   25.07    0.96
   4   4  -2   26.81    0.89
  -4  -4   2   26.42    0.92
  -4  -4   2   24.88    0.88
  -4  -4   2   25.38    0.73
  -4  -4   2   26.23    0.87
  -4  -4   2   26.93    0.89
  -4  -4   2   26.39    0.93
  -4  -4   2   25.28    0.84
   3   4  -2    3.90    0.29
   3   4  -2    3.80    0.25
  -3  -4   2    4.42    0.26
  -3  -4   2    4.35    0.28
  -3  -4   2    4.27    0.19
  -3  -4   2    4.22    0.26
  -3  -4   2    4.26    0.30
  -3  -4   2    3.91    0.25
  -3  -4   2    4.00    0.23
  -3  -4   2    3.65    0.28
   2   4  -2    0.25    0.09
   2   4  -2    0.40    0.10
   2   4  -2    0.38    0.08
   2   4  -2    0.30    0.06
  -2  -4   2    0.32    0.10
  -2  -4   2    0.48    0.10
  -2  -4   2    0.42    0.11
  -2  -4   2    0.48    0.13
  -2  -4   2    0.38    0.10
  -2  -4   2    0.42    0.12
  -2  -4   2    0.50    0.06
  -2  -4   2    0.24    0.11
  -2  -4   2    0.26    0.10
   1   4  -2    9.16    0.46
   1   4  -2    9.00    0.37
   1   4  -2    8.74    0.43
  -1  -4   2    8.65    0.47
  -1  -4   2    8.34    0.47
  -1  -4   2    8.34    0.45
  -1  -4   2    8.85    0.43
  -1  -4   2    8.99    0.33
  -1  -4   2    8.29    0.42
   0   4  -2    7.79    0.45
   0   4  -2    7.56    0.37
   0   4  -2    7.16    0.22
   0   4  -2    6.24    0.41
   0  -4   2    7.43    0.42
   0  -4   2    7.24    0.45
   0  -4   2    7.18    0.45
   0  -4   2    7.16    0.45
   0  -4   2    7.48    0.41
   0  -4   2    7.01    0.32
   0  -4   2    7.02    0.39
  -1   4  -2    0.04    0.04
  -1   4  -2    0.12    0.11
  -1   4  -2    0.11    0.07
  -1   4  -2    0.07    0.07
  -1   4  -2    0.02    0.11
   1  -4   2    0.03    0.07
   1  -4   2    0.22    0.11
   1  -4   2    0.06    0.12
   1  -4   2    0.05    0.08
   1  -4   2    0.54    0.15
   1  -4   2    0.04    0.08
   1  -4   2    0.08    0.09
  -2   4  -2    0.52    0.19
  -2   4  -2    0.38    0.12
  -2   4  -2    0.47    0.18
   2  -4   2    0.36    0.15
   2  -4   2    0.58    0.18
   2  -4   2    0.64    0.21
   2  -4   2    0.58    0.16
   2  -4   2    0.42    0.13
  -3   4  -2   19.17    0.97
  -3   4  -2   18.70    0.71
   3  -4   2   18.87    0.93
  -4   4  -2   22.70    0.85
  -4   4  -2   21.44    1.12
   4  -4   2   21.83    1.06
  -5   4  -2   16.81    0.75
   5  -4   2   17.09    0.93
  -6   4  -2    5.12    0.41
   6  -4   2    3.95    0.42
   6  -4   2    4.62    0.56
  10   3  -2    0.25    0.20
  10   3  -2    0.33    0.24
   9   3  -2    3.49    0.48
   9   3  -2    3.38    0.47
   8   3  -2    0.02    0.06
   8   3  -2    0.09    0.14
   8   3  -2   -0.12    0.12
  -8  -3   2   -0.07    0.15
  -8  -3   2    0.02    0.12
  -8  -3   2    0.18    0.14
   7   3  -2   31.85    0.91
   7   3  -2   27.88    1.19
   7   3  -2   27.49    1.20
  -7  -3   2   29.53    1.15
  -7  -3   2   31.13    1.04
  -7  -3   2   31.31    1.06
  -7  -3   2   29.87    1.21
  -7  -3   2   30.93    1.17
  -7  -3   2   30.91    1.15
   6   3  -2   27.16    1.09
   6   3  -2   26.91    1.08
   6   3  -2   28.68    0.82
  -6  -3   2   28.66    0.96
  -6  -3   2   26.91    0.89
  -6  -3   2   26.25    1.01
  -6  -3   2   26.21    1.02
  -6  -3   2   27.41    1.06
  -6  -3   2   28.11    0.99
  -6  -3   2   28.71    1.04
   5   3  -2    0.31    0.11
   5   3  -2    0.19    0.12
   5   3  -2    0.04    0.09
   5   3  -2    0.12    0.05
   5   3  -2    0.48    0.14
  -5  -3   2    0.14    0.08
  -5  -3   2    0.12    0.06
  -5  -3   2    0.27    0.10
  -5  -3   2    0.14    0.09
  -5  -3   2    0.15    0.10
  -5  -3   2    0.24    0.09
  -5  -3   2    0.19    0.10
   4   3  -2    9.89    0.42
   4   3  -2    9.67    0.45
   4   3  -2    9.94    0.32
   4   3  -2    9.81    0.49
   4   3  -2    9.49    0.48
  -4  -3   2    9.59    0.42
  -4  -3   2    9.60    0.39
  -4  -3   2    9.74    0.46
  -4  -3   2    9.44    0.33
  -4  -3   2   10.07    0.43
  -4  -3   2    8.91    0.42
  -4  -3   2    9.57    0.42
  -4  -3   2   10.11    0.35
   3   3  -2   45.17    1.38
   3   3  -2   45.34    1.34
   3   3  -2   42.75    1.39
   3   3  -2   44.11    1.18
   3   3  -2   44.44    1.33
  -3  -3   2   45.14    1.38
  -3  -3   2   43.80    1.18
  -3  -3   2   43.03    1.32
  -3  -3   2   42.64    1.29
  -3  -3   2   42.40    1.37
  -3  -3   2   44.00    1.32
  -3  -3   2   43.40    1.33
   2   3  -2    3.76    0.20
   2   3  -2    4.13    0.27
   2   3  -2    3.86    0.17
   2   3  -2    4.27    0.24
   2   3  -2    4.16    0.20
  -2  -3   2    3.77    0.22
  -2  -3   2    3.91    0.18
  -2  -3   2    3.81    0.24
  -2  -3   2    3.78    0.25
  -2  -3   2    3.68    0.23
  -2  -3   2    3.95    0.24
  -2  -3   2    3.61    0.25
  -2  -3   2    3.80    0.23
   1   3  -2   97.02    2.87
   1   3  -2   97.68    2.89
   1   3  -2  101.49    2.54
  -1  -3   2   95.05    2.83
  -1  -3   2   93.01    2.89
  -1  -3   2   96.38    2.74
  -1  -3   2   92.19    2.73
  -1  -3   2   96.99    2.46
  -1  -3   2   92.95    2.88
  -1  -3   2   92.91    2.55
  -1  -3   2   97.81    2.91
   0   3  -2    5.21    0.33
   0   3  -2    4.91    0.20
   0   3  -2    5.28    0.28
   0   3  -2    5.11    0.33
   0  -3   2    5.06    0.34
   0  -3   2    5.41    0.24
   0  -3   2    5.45    0.34
   0  -3   2    6.07    0.30
   0  -3   2    5.60    0.32
   0  -3   2    5.01    0.30
   0  -3   2    4.87    0.33
  -1   3  -2   92.80    2.45
  -1   3  -2   95.38    2.94
  -1   3  -2   91.53    2.91
  -1   3  -2   88.17    2.73
   1  -3   2   91.86    2.84
   1  -3   2   95.13    2.93
   1  -3   2   92.49    2.48
   1  -3   2   96.74    2.59
   1  -3   2   92.05    2.75
   1  -3   2   92.44    2.54
  -2   3  -2   62.32    2.14
  -2   3  -2   64.21    2.02
  -2   3  -2   61.65    1.76
  -2   3  -2   61.85    2.16
   2  -3   2   64.17    2.03
   2  -3   2   61.85    1.83
   2  -3   2   65.01    2.01
   2  -3   2   61.53    2.07
   2  -3   2   63.37    1.88
   2  -3   2   63.95    2.16
   2  -3   2   65.14    2.16
  -3   3  -2    3.03    0.37
  -3   3  -2    3.13    0.26
  -3   3  -2    3.25    0.39
  -3   3  -2    3.41    0.43
   3  -3   2    3.44    0.28
   3  -3   2    3.24    0.38
   3  -3   2    3.35    0.39
   3  -3   2    3.68    0.30
  -4   3  -2    1.10    0.26
  -4   3  -2    0.96    0.18
   4  -3   2    1.21    0.25
   4  -3   2    1.20    0.22
   4  -3   2    1.40    0.22
  -5   3  -2   -0.24    0.11
  -5   3  -2   -0.01    0.22
   5  -3   2   -0.01    0.13
   5  -3   2    0.31    0.18
   5  -3   2    0.16    0.16
  -6   3  -2    2.03    0.30
   6  -3   2    1.70    0.30
   6  -3   2    2.50    0.31
   6  -3   2    2.39    0.39
  -7   3  -2    0.53    0.21
   7  -3   2    0.85    0.25
   7  -3   2    0.81    0.30
   7  -3   2    0.80    0.31
   7  -3   2    0.59    0.20
   9   2  -2    1.58    0.34
   9   2  -2    1.59    0.22
   9   2  -2    1.75    0.35
   8   2  -2    4.76    0.53
   8   2  -2    5.04    0.54
   8   2  -2    5.59    0.34
  -8  -2   2    5.42    0.46
   7   2  -2    6.54    0.50
   7   2  -2    6.73    0.28
   7   2  -2    6.61    0.50
   7   2  -2    6.51    0.36
  -7  -2   2    6.61    0.49
  -7  -2   2    6.79    0.48
  -7  -2   2    6.88    0.40
  -7  -2   2    6.66    0.48
   6   2  -2    2.03    0.15
   6   2  -2    2.03    0.29
   6   2  -2    1.92    0.27
   6   2  -2    2.74    0.34
   6   2  -2    2.43    0.23
  -6  -2   2    2.52    0.25
  -6  -2   2    2.20    0.29
  -6  -2   2    2.09    0.27
  -6  -2   2    2.10    0.23
  -6  -2   2    2.12    0.27
  -6  -2   2    2.05    0.27
  -6  -2   2    2.33    0.29
   5   2  -2    0.04    0.09
   5   2  -2    0.12    0.08
   5   2  -2    0.06    0.05
   5   2  -2    0.09    0.07
   5   2  -2    0.07    0.08
   5   2  -2   -0.01    0.08
   5   2  -2    0.05    0.10
   5   2  -2    0.03    0.11
  -5  -2   2    0.08    0.08
  -5  -2   2   -0.08    0.07
  -5  -2   2    0.08    0.09
  -5  -2   2    0.03    0.08
  -5  -2   2    0.08    0.09
  -5  -2   2    0.07    0.05
  -5  -2   2    0.11    0.07
  -5  -2   2    0.04    0.08
   4   2  -2   36.29    1.04
   4   2  -2   38.03    1.20
   4   2  -2   38.06    1.27
   4   2  -2   39.41    1.20
   4   2  -2   38.74    1.27
   4   2  -2   39.28    1.10
   4   2  -2   37.97    1.26
  -4  -2   2   37.70    1.21
  -4  -2   2   37.77    1.27
  -4  -2   2   40.31    1.11
  -4  -2   2   38.02    1.29
  -4  -2   2   38.76    1.28
  -4  -2   2   39.40    1.17
  -4  -2   2   38.44    1.20
   3   2  -2  262.99    6.85
   3   2  -2  275.20    7.76
   3   2  -2  273.02    7.02
   3   2  -2  287.61    7.73
   3   2  -2  270.27    7.42
   3   2  -2  264.68    7.19
   3   2  -2  276.79    6.92
  -3  -2   2  254.86    7.02
  -3  -2   2  278.15    7.77
  -3  -2   2  270.80    7.39
  -3  -2   2  278.36    7.02
  -3  -2   2  271.26    7.79
  -3  -2   2  258.38    7.76
  -3  -2   2  274.91    7.03
   2   2  -2  220.04    6.26
   2   2  -2  215.74    5.60
   2   2  -2  224.53    5.68
   2   2  -2  218.65    6.28
   2   2  -2  224.16    5.85
   2   2  -2  223.32    5.55
   2   2  -2  229.50    6.26
  -2  -2   2  218.71    6.09
  -2  -2   2  205.80    5.68
  -2  -2   2  219.42    5.68
  -2  -2   2  221.55    6.28
  -2  -2   2  212.26    6.27
  -2  -2   2  224.56    5.67
  -2  -2   2  217.64    5.61
  -2  -2   2  212.70    5.97
   1   2  -2  155.15    4.07
   1   2  -2  158.45    4.56
   1   2  -2  161.99    4.04
   1   2  -2  162.63    4.09
   1   2  -2  163.07    4.20
   1   2  -2  157.13    4.56
   1   2  -2  160.51    4.22
  -1  -2   2  152.61    4.56
  -1  -2   2  163.13    4.34
  -1  -2   2  154.14    4.13
  -1  -2   2  155.87    4.34
  -1  -2   2  153.75    4.05
  -1  -2   2  158.88    4.58
  -1  -2   2  157.85    3.96
  -1  -2   2  153.39    4.44
  -1  -2   2  153.94    4.56
  -1  -2   2  160.79    4.13
  -1  -2   2  159.93    4.08
  -1  -2   2  152.46    4.12
   0   2  -2   19.43    0.55
   0   2  -2   18.75    0.65
   0   2  -2   19.07    0.71
   0   2  -2   19.19    0.72
   0   2  -2   20.35    0.55
   0   2  -2   19.44    0.55
   0   2  -2   18.76    0.65
   0   2  -2   19.65    0.61
   0  -2   2   19.09    0.71
   0  -2   2   18.72    0.72
   0  -2   2   20.01    0.63
   0  -2   2   19.42    0.57
   0  -2   2   19.25    0.66
   0  -2   2   19.83    0.67
   0  -2   2   18.46    0.69
  -1   2  -2   22.95    0.81
  -1   2  -2   24.49    0.89
  -1   2  -2   23.69    0.82
  -1   2  -2   23.79    0.90
  -1   2  -2   23.29    0.71
   1  -2   2   23.53    0.82
   1  -2   2   24.58    0.78
   1  -2   2   23.14    0.71
   1  -2   2   23.09    0.75
   1  -2   2   24.84    0.90
  -2   2  -2   48.32    1.56
  -2   2  -2   47.85    1.46
  -2   2  -2   49.80    1.71
  -2   2  -2   49.70    1.58
  -2   2  -2   47.54    1.67
  -2   2  -2   48.41    1.39
   2  -2   2   49.71    1.69
   2  -2   2   49.83    1.47
   2  -2   2   48.75    1.55
   2  -2   2   50.55    1.43
   2  -2   2   48.07    1.61
   2  -2   2   50.47    1.59
   2  -2   2   51.07    1.69
  -3   2  -2    2.15    0.29
  -3   2  -2    1.51    0.24
  -3   2  -2    1.66    0.23
  -3   2  -2    1.49    0.18
  -3   2  -2    1.51    0.25
   3  -2   2    1.87    0.27
   3  -2   2    1.55    0.24
   3  -2   2    1.46    0.19
   3  -2   2    1.44    0.23
   3  -2   2    1.43    0.19
   3  -2   2    1.30    0.19
  -4   2  -2    5.56    0.45
  -4   2  -2    5.19    0.44
  -4   2  -2    5.01    0.32
  -4   2  -2    5.35    0.41
  -4   2  -2    4.86    0.41
   4  -2   2    4.76    0.40
   4  -2   2    4.41    0.32
   4  -2   2    5.58    0.41
   4  -2   2    5.17    0.35
  -5   2  -2   46.83    1.50
  -5   2  -2   47.36    1.84
   5  -2   2   48.50    1.58
   5  -2   2   47.13    1.72
   5  -2   2   48.05    1.81
   5  -2   2   49.16    1.51
  -6   2  -2   18.69    0.79
   6  -2   2   17.20    0.96
   6  -2   2   17.65    0.88
   6  -2   2   18.25    0.74
   6  -2   2   17.34    0.80
  -7   2  -2    3.28    0.38
   7  -2   2    3.37    0.42
   7  -2   2    3.31    0.48
   7  -2   2    3.13    0.31
   7  -2   2    2.72    0.35
   7  -2   2    2.97    0.44
  -8   2  -2    3.08    0.38
   8  -2   2    2.86    0.36
   8  -2   2    2.32    0.24
   8  -2   2    2.18    0.41
   8  -2   2    2.14    0.23
   8  -2   2    2.49    0.43
   9   1  -2    2.78    0.21
   9   1  -2    2.30    0.39
   9   1  -2    2.68    0.32
   9   1  -2    2.79    0.22
   9   1  -2    2.64    0.44
   8   1  -2    9.02    0.63
   8   1  -2    8.61    0.42
   8   1  -2    8.02    0.61
   8   1  -2    8.08    0.47
   7   1  -2    1.16    0.27
   7   1  -2    1.12    0.20
   7   1  -2    0.99    0.24
   7   1  -2    0.83    0.16
  -7  -1   2    0.64    0.22
  -7  -1   2    1.39    0.21
  -7  -1   2    1.45    0.28
  -7  -1   2    1.05    0.24
   6   1  -2    1.41    0.21
   6   1  -2    1.58    0.27
   6   1  -2    1.41    0.19
   6   1  -2    1.20    0.22
   6   1  -2    1.38    0.26
  -6  -1   2    1.62    0.27
  -6  -1   2    1.20    0.18
  -6  -1   2    2.08    0.29
  -6  -1   2    1.53    0.27
  -6  -1   2    1.43    0.22
   5   1  -2   11.75    0.58
   5   1  -2   10.62    0.35
   5   1  -2   11.40    0.54
   5   1  -2   11.08    0.57
   5   1  -2   11.06    0.36
   5   1  -2   11.82    0.49
   5   1  -2   11.21    0.58
   5   1  -2   11.24    0.45
   5   1  -2   11.29    0.53
  -5  -1   2   11.54    0.59
  -5  -1   2   11.42    0.49
  -5  -1   2   10.91    0.54
  -5  -1   2   10.89    0.43
  -5  -1   2   11.10    0.59
  -5  -1   2   10.48    0.56
  -5  -1   2   10.99    0.54
  -5  -1   2   11.36    0.48
   4   1  -2   26.79    0.84
   4   1  -2   27.24    0.97
   4   1  -2   28.29    1.01
   4   1  -2   26.87    0.92
   4   1  -2   26.79    0.87
   4   1  -2   27.31    0.98
   4   1  -2   27.29    0.77
   4   1  -2   27.33    1.02
   4   1  -2   30.34    0.99
  -4  -1   2   28.47    1.02
  -4  -1   2   27.39    0.94
  -4  -1   2   27.52    0.89
  -4  -1   2   28.07    0.80
  -4  -1   2   25.93    1.01
  -4  -1   2   26.03    1.00
  -4  -1   2   28.01    0.87
  -4  -1   2   28.01    0.95
   3   1  -2  124.56    3.54
   3   1  -2  125.69    3.73
   3   1  -2  124.74    3.27
   3   1  -2  126.26    3.31
   3   1  -2  130.89    3.73
   3   1  -2  131.96    3.37
   3   1  -2  128.80    3.71
   3   1  -2  124.93    3.22
   3   1  -2  118.36    3.44
  -3  -1   2  125.37    3.19
  -3  -1   2  131.97    3.35
  -3  -1   2  123.58    3.37
  -3  -1   2  130.11    3.73
  -3  -1   2  121.12    3.52
  -3  -1   2  122.68    3.33
  -3  -1   2  123.52    3.72
  -3  -1   2  123.25    3.73
   2   1  -2  508.24   13.00
   2   1  -2  498.06   13.41
   2   1  -2  503.03   13.06
   2   1  -2  519.34   14.61
   2   1  -2  537.28   13.11
   2   1  -2  508.40   13.02
   2   1  -2  513.32   13.87
   2   1  -2  531.21   14.62
   2   1  -2  531.75   14.73
  -2  -1   2  531.22   13.33
  -2  -1   2  531.63   13.08
  -2  -1   2  514.90   13.15
  -2  -1   2  510.37   13.94
  -2  -1   2  498.17   14.75
  -2  -1   2  509.66   14.71
  -2  -1   2  528.06   12.85
  -2  -1   2  512.95   13.11
  -2  -1   2  506.81   14.61
   1   1  -2   35.97    0.98
   1   1  -2   34.85    0.97
   1   1  -2   36.31    0.98
   1   1  -2   36.57    1.02
   1   1  -2   35.84    1.00
   1   1  -2   36.29    1.04
   1   1  -2   36.55    1.12
   1   1  -2   35.34    1.12
   1   1  -2   36.73    1.04
   1   1  -2   37.08    0.98
   1   1  -2   35.51    1.04
   1   1  -2   35.91    1.05
   1   1  -2   33.42    1.03
   1   1  -2   33.46    1.04
  -1  -1   2   35.14    1.02
  -1  -1   2   36.11    1.04
  -1  -1   2   36.62    0.99
  -1  -1   2   36.36    1.05
  -1  -1   2   36.91    1.13
  -1  -1   2   36.83    1.03
  -1  -1   2   34.94    0.98
  -1  -1   2   35.03    1.02
  -1  -1   2   34.85    1.05
  -1  -1   2   35.94    1.00
  -1  -1   2   36.48    0.94
  -1  -1   2   34.75    1.12
   0   1  -2    0.51    0.08
   0   1  -2    0.41    0.09
   0   1  -2    0.35    0.07
   0   1  -2    0.41    0.07
   0   1  -2    0.34    0.07
   0   1  -2    0.41    0.06
   0   1  -2    0.34    0.06
   0   1  -2    0.34    0.08
   0   1  -2    0.39    0.06
   0  -1   2    0.28    0.08
   0  -1   2    0.53    0.08
   0  -1   2    0.50    0.08
   0  -1   2    0.31    0.07
   0  -1   2    0.38    0.08
   0  -1   2    0.46    0.08
   0  -1   2    0.29    0.07
   0  -1   2    0.33    0.07
   0  -1   2    0.46    0.06
   0  -1   2    0.45    0.06
   0  -1   2    0.36    0.08
  -1   1  -2  134.49    3.66
  -1   1  -2  132.41    3.44
  -1   1  -2  127.84    3.41
  -1   1  -2  134.19    3.87
  -1   1  -2  132.95    3.85
  -1   1  -2  129.67    3.34
   1  -1   2  132.59    3.43
   1  -1   2  134.28    3.87
   1  -1   2  129.16    3.74
   1  -1   2  121.91    3.64
   1  -1   2  129.85    3.34
   1  -1   2  132.60    3.66
   1  -1   2  133.52    3.85
   1  -1   2  133.37    3.42
   1  -1   2  128.62    3.39
  -2   1  -2   32.98    1.18
  -2   1  -2   33.70    0.98
  -2   1  -2   33.68    1.12
   2  -1   2   35.35    1.15
   2  -1   2   35.69    1.03
   2  -1   2   35.16    1.01
   2  -1   2   34.81    1.19
   2  -1   2   34.13    1.03
   2  -1   2   33.88    1.10
   2  -1   2   36.00    1.12
   2  -1   2   34.73    1.19
  -3   1  -2   23.05    0.92
  -3   1  -2   24.85    0.88
  -3   1  -2   23.16    0.74
  -3   1  -2   23.79    0.94
  -3   1  -2   23.60    0.87
  -3   1  -2   23.00    0.95
   3  -1   2   23.31    0.77
   3  -1   2   22.68    0.92
   3  -1   2   22.61    0.75
   3  -1   2   23.93    0.87
   3  -1   2   24.03    0.92
   3  -1   2   22.64    0.78
  -4   1  -2    0.35    0.12
  -4   1  -2    0.35    0.13
  -4   1  -2    0.33    0.15
  -4   1  -2    0.18    0.13
  -4   1  -2    0.35    0.14
   4  -1   2    0.28    0.10
   4  -1   2    0.07    0.12
   4  -1   2    0.16    0.12
   4  -1   2    0.44    0.14
   4  -1   2    0.30    0.10
   4  -1   2    0.46    0.13
  -5   1  -2   14.54    0.82
  -5   1  -2   16.33    0.82
  -5   1  -2   16.19    0.63
  -5   1  -2   14.75    0.75
  -5   1  -2   14.74    0.79
   5  -1   2   15.06    0.65
   5  -1   2   15.90    0.73
   5  -1   2   15.95    0.62
   5  -1   2   15.89    0.77
   5  -1   2   17.07    0.61
   5  -1   2   15.16    0.77
  -6   1  -2    5.03    0.34
  -6   1  -2    4.22    0.48
   6  -1   2    3.90    0.46
   6  -1   2    4.17    0.33
   6  -1   2    4.49    0.29
   6  -1   2    4.34    0.45
   6  -1   2    4.45    0.29
   6  -1   2    3.67    0.38
  -7   1  -2    0.47    0.17
   7  -1   2    0.62    0.13
   7  -1   2    0.62    0.21
   7  -1   2    0.69    0.20
   7  -1   2    0.46    0.17
   7  -1   2    0.48    0.12
   7  -1   2    0.54    0.21
  -8   1  -2    0.31    0.16
   8  -1   2    0.27    0.17
   8  -1   2    0.44    0.21
   8  -1   2    0.44    0.20
   8  -1   2    0.30    0.21
   9   0  -2    0.63    0.17
   9   0  -2    0.08    0.21
   9   0  -2    0.33    0.26
   9   0  -2    0.70    0.25
  -9   0   2    0.75    0.23
   8   0  -2   34.45    1.26
   8   0  -2   30.91    1.39
   8   0  -2   31.16    1.14
   8   0  -2   33.02    1.44
  -8   0   2   34.21    1.22
   7   0  -2   26.09    0.82
   7   0  -2   25.86    1.02
   7   0  -2   25.89    1.16
   7   0  -2   26.21    0.96
   7   0  -2   25.44    0.80
   7   0  -2   25.12    1.14
  -7   0   2   28.20    1.00
   6   0  -2    0.75    0.14
   6   0  -2    1.01    0.23
   6   0  -2    0.92    0.21
   6   0  -2    0.90    0.22
   6   0  -2    1.14    0.19
   6   0  -2    1.29    0.16
  -6   0   2    1.26    0.25
  -6   0   2    1.19    0.19
  -6   0   2    1.26    0.26
  -6   0   2    0.95    0.23
   5   0  -2    0.05    0.09
   5   0  -2    0.03    0.09
   5   0  -2    0.13    0.08
   5   0  -2   -0.01    0.07
   5   0  -2    0.13    0.13
   5   0  -2    0.15    0.10
   5   0  -2   -0.05    0.09
   5   0  -2   -0.21    0.08
  -5   0   2   -0.02    0.09
  -5   0   2    0.17    0.12
  -5   0   2    0.04    0.12
  -5   0   2    0.14    0.08
  -5   0   2    0.01    0.07
  -5   0   2    0.23    0.11
   4   0  -2   44.58    1.48
   4   0  -2   45.26    1.56
   4   0  -2   45.06    1.40
   4   0  -2   46.70    1.56
   4   0  -2   45.35    1.58
   4   0  -2   43.82    1.33
   4   0  -2   44.28    1.37
   4   0  -2   44.28    1.45
   4   0  -2   44.88    1.38
   4   0  -2   43.05    1.28
  -4   0   2   47.05    1.49
  -4   0   2   45.02    1.29
  -4   0   2   45.27    1.37
  -4   0   2   43.32    1.55
  -4   0   2   45.78    1.58
  -4   0   2   44.92    1.58
   3   0  -2    6.98    0.24
   3   0  -2    7.30    0.30
   3   0  -2    7.17    0.30
   3   0  -2    7.56    0.38
   3   0  -2    8.52    0.41
   3   0  -2    7.87    0.34
   3   0  -2    7.04    0.35
   3   0  -2    6.59    0.33
   3   0  -2    7.47    0.38
   3   0  -2    6.17    0.38
   3   0  -2    6.86    0.39
  -3   0   2    6.55    0.38
  -3   0   2    6.35    0.36
  -3   0   2    7.26    0.32
  -3   0   2    6.86    0.40
  -3   0   2    7.20    0.34
  -3   0   2    7.22    0.40
  -3   0   2    7.26    0.30
   2   0  -2   31.16    0.92
   2   0  -2   30.58    1.02
   2   0  -2   30.43    0.90
   2   0  -2   29.39    0.93
   2   0  -2   31.45    0.82
   2   0  -2   30.27    0.94
   2   0  -2   32.12    1.03
   2   0  -2   29.66    0.90
   2   0  -2   30.06    0.93
   2   0  -2   29.98    0.86
   2   0  -2   30.02    0.88
  -2   0   2   27.99    0.89
  -2   0   2   29.84    0.90
  -2   0   2   30.15    1.02
  -2   0   2   29.88    0.90
  -2   0   2   30.32    1.02
  -2   0   2   29.03    0.91
  -2   0   2   29.84    1.02
  -2   0   2   30.89    0.84
  -2   0   2   29.55    0.89
  -2   0   2   30.89    0.95
   1   0  -2   25.89    0.74
   1   0  -2   25.40    0.72
   1   0  -2   25.84    0.77
   1   0  -2   25.17    0.68
   1   0  -2   25.26    0.82
   1   0  -2   24.59    0.73
   1   0  -2   24.52    0.70
   1   0  -2   25.25    0.76
   1   0  -2   25.31    0.72
   1   0  -2   24.70    0.74
  -1   0   2   25.28    0.72
  -1   0   2   25.16    0.72
  -1   0   2   25.99    0.82
  -1   0   2   25.55    0.71
  -1   0   2   24.45    0.82
  -1   0   2   25.26    0.69
  -1   0   2   25.57    0.82
  -1   0   2   25.29    0.77
  -1   0   2   25.30    0.76
  -1   0   2   24.83    0.73
  -1   0   2   24.81    0.74
  -1   0  -2   60.47    1.76
  -1   0  -2   59.90    1.56
  -1   0  -2   59.39    1.67
  -1   0  -2   52.40    1.55
  -1   0  -2   59.56    1.66
  -1   0  -2   59.18    1.57
  -1   0  -2   59.09    1.51
  -1   0  -2   60.38    1.77
  -1   0  -2   60.91    1.55
   1   0   2   56.06    1.65
   1   0   2   59.82    1.55
   1   0   2   58.31    1.75
   1   0   2   57.32    1.53
   1   0   2   59.53    1.56
   1   0   2   61.39    1.54
   1   0   2   56.82    1.53
   1   0   2   59.18    1.66
  -2   0  -2  193.52    4.89
  -2   0  -2  193.49    5.33
  -2   0  -2  193.24    5.02
  -2   0  -2  193.21    5.60
  -2   0  -2  193.74    5.63
  -2   0  -2  188.10    5.34
   2   0   2  200.39    4.98
   2   0   2  191.74    4.97
   2   0   2  195.18    4.95
   2   0   2  202.32    5.61
   2   0   2  188.50    4.94
   2   0   2  197.02    5.61
   2   0   2  194.10    5.00
  -3   0  -2   13.22    0.58
  -3   0  -2   14.44    0.61
  -3   0  -2   13.70    0.61
  -3   0  -2   15.22    0.47
  -3   0  -2   14.37    0.56
  -3   0  -2   13.92    0.56
   3   0   2   13.75    0.46
   3   0   2   14.91    0.51
   3   0   2   14.24    0.58
   3   0   2   13.87    0.59
   3   0   2   14.15    0.47
   3   0   2   13.65    0.49
   3   0   2   13.27    0.58
   3   0   2   14.76    0.52
  -4   0  -2    0.14    0.09
  -4   0  -2    0.33    0.13
  -4   0  -2    0.18    0.13
  -4   0  -2    0.14    0.13
  -4   0  -2    0.15    0.10
  -4   0  -2    0.13    0.12
   4   0   2    0.17    0.08
   4   0   2    0.26    0.12
   4   0   2    0.33    0.10
   4   0   2    0.34    0.11
   4   0   2    0.34    0.09
   4   0   2    0.29    0.12
   4   0   2    0.33    0.14
   4   0   2    0.24    0.13
   4   0   2    0.29    0.11
  -5   0  -2   16.82    0.75
  -5   0  -2   16.25    0.82
  -5   0  -2   15.90    0.77
  -5   0  -2   19.10    0.83
  -5   0  -2   16.33    0.61
   5   0   2   17.23    0.74
   5   0   2   17.03    0.67
   5   0   2   17.83    0.68
   5   0   2   16.25    0.78
   5   0   2   17.16    0.57
   5   0   2   17.95    0.75
   5   0   2   17.09    0.56
   5   0   2   17.29    0.64
  -6   0  -2    3.99    0.46
  -6   0  -2    3.83    0.29
  -6   0  -2    3.92    0.42
  -6   0  -2    3.43    0.39
   6   0   2    3.37    0.19
   6   0   2    3.43    0.28
   6   0   2    2.49    0.35
   6   0   2    3.85    0.21
   6   0   2    3.20    0.36
   6   0   2    3.03    0.29
   6   0   2    3.97    0.32
  -7   0  -2   24.81    0.90
   7   0   2   22.02    1.01
   7   0   2   22.98    0.92
   7   0   2   22.88    1.09
   7   0   2   24.40    0.87
   7   0   2   22.28    0.84
  -8   0  -2    8.42    0.51
   8   0   2    8.51    0.52
   8   0   2    8.78    0.62
   8   0   2    8.53    0.66
   8   0   2    8.65    0.46
   8   0   2    7.79    0.44
   9   0   2    4.53    0.32
   9   0   2    4.63    0.56
   9   0   2    3.89    0.44
   9   0   2    4.04    0.54
   9   0   2    4.85    0.32
   8  -1  -2    0.61    0.14
   8  -1  -2    0.88    0.22
   8  -1  -2    1.07    0.16
   8  -1  -2    1.13    0.31
   8  -1  -2    0.63    0.25
   8  -1  -2    0.69    0.25
  -8   1   2    1.07    0.24
   7  -1  -2    2.03    0.32
   7  -1  -2    2.10    0.24
   7  -1  -2    1.71    0.35
   7  -1  -2    1.63    0.27
   7  -1  -2    1.48    0.32
   7  -1  -2    1.31    0.21
  -7   1   2    1.53    0.27
   6  -1  -2    0.21    0.14
   6  -1  -2    0.11    0.12
   6  -1  -2    0.18    0.11
   6  -1  -2    0.11    0.16
   6  -1  -2   -0.11    0.13
   6  -1  -2    0.06    0.11
   6  -1  -2    0.06    0.10
  -6   1   2    0.07    0.11
  -6   1   2    0.17    0.18
   5  -1  -2    8.69    0.50
   5  -1  -2    8.93    0.48
   5  -1  -2    8.72    0.30
   5  -1  -2    8.89    0.47
   5  -1  -2    9.07    0.57
   5  -1  -2    8.98    0.44
   5  -1  -2    9.02    0.56
  -5   1   2    9.71    0.46
  -5   1   2    8.85    0.58
  -5   1   2    9.79    0.61
  -5   1   2    9.94    0.61
  -5   1   2    8.34    0.54
   4  -1  -2   94.83    2.77
   4  -1  -2   98.51    2.68
   4  -1  -2   99.95    2.91
   4  -1  -2   99.42    3.13
   4  -1  -2   95.40    2.72
   4  -1  -2   97.17    3.13
   4  -1  -2   92.53    2.75
   4  -1  -2   96.93    3.11
  -4   1   2  101.03    2.98
  -4   1   2   97.03    3.15
  -4   1   2   99.14    3.13
  -4   1   2  100.59    3.14
  -4   1   2   96.44    2.64
   3  -1  -2   26.73    1.01
   3  -1  -2   24.10    0.87
   3  -1  -2   26.92    0.87
   3  -1  -2   25.00    0.82
   3  -1  -2   25.79    0.89
   3  -1  -2   25.84    1.00
   3  -1  -2   25.86    1.02
   3  -1  -2   26.70    0.89
  -3   1   2   26.64    1.01
  -3   1   2   27.30    0.95
  -3   1   2   25.91    0.85
  -3   1   2   23.82    0.80
  -3   1   2   23.92    0.98
   2  -1  -2   46.03    1.40
   2  -1  -2   44.32    1.28
   2  -1  -2   44.31    1.33
   2  -1  -2   46.98    1.35
   2  -1  -2   48.53    1.53
   2  -1  -2   45.63    1.50
   2  -1  -2   44.33    1.51
   2  -1  -2   46.45    1.40
   2  -1  -2   44.56    1.31
  -2   1   2   45.42    1.29
  -2   1   2   45.66    1.51
  -2   1   2   43.61    1.49
  -2   1   2   43.01    1.41
  -2   1   2   46.30    1.32
  -2   1   2   46.11    1.32
  -2   1   2   45.44    1.26
  -2   1   2   45.75    1.51
   1  -1  -2  115.65    3.04
   1  -1  -2  116.32    3.44
   1  -1  -2  113.68    3.31
   1  -1  -2  116.67    3.10
   1  -1  -2  114.80    3.43
   1  -1  -2  115.82    3.18
   1  -1  -2  119.63    3.03
  -1   1   2  117.71    3.05
  -1   1   2  115.30    2.98
  -1   1   2  120.18    3.27
  -1   1   2  116.26    3.44
  -1   1   2  117.00    3.44
  -1   1   2  118.73    3.09
  -1   1   2  115.65    3.43
   0  -1  -2  122.44    3.35
   0  -1  -2  126.11    3.53
   0  -1  -2  113.95    3.12
   0  -1  -2  120.14    3.11
   0  -1  -2  123.67    3.12
   0  -1  -2  121.60    3.18
   0  -1  -2  121.10    3.52
   0  -1  -2  117.81    3.14
   0  -1  -2  121.42    3.52
   0  -1  -2  120.68    3.27
   0   1   2  124.60    3.52
   0   1   2  125.10    3.52
   0   1   2  120.00    3.11
   0   1   2  122.89    3.52
   0   1   2  128.19    3.23
   0   1   2  117.84    3.12
   0   1   2  121.20    3.05
   0   1   2  121.93    3.34
   0   1   2  123.04    3.17
  -1  -1  -2   54.96    1.61
  -1  -1  -2   55.99    1.52
  -1  -1  -2   54.87    1.55
  -1  -1  -2   55.15    1.61
  -1  -1  -2   54.83    1.44
  -1  -1  -2   55.94    1.52
   1   1   2   55.81    1.56
   1   1   2   56.35    1.61
  -2  -1  -2  143.43    4.12
  -2  -1  -2  142.21    3.80
  -2  -1  -2  145.46    3.92
  -2  -1  -2  143.08    3.91
  -2  -1  -2  144.04    3.68
  -2  -1  -2  146.20    3.66
   2   1   2  143.56    3.66
   2   1   2  146.61    3.80
   2   1   2  138.98    3.97
   2   1   2  145.55    4.12
  -3  -1  -2    0.56    0.11
  -3  -1  -2    0.76    0.11
  -3  -1  -2    0.56    0.09
  -3  -1  -2    0.76    0.12
  -3  -1  -2    0.69    0.12
   3   1   2    0.51    0.08
   3   1   2    0.62    0.11
   3   1   2    0.38    0.11
   3   1   2    0.62    0.12
   3   1   2    0.49    0.07
   3   1   2    0.51    0.07
  -4  -1  -2   20.23    0.77
  -4  -1  -2   20.72    0.73
  -4  -1  -2   19.28    0.79
  -4  -1  -2   20.86    0.74
  -4  -1  -2   21.38    0.79
   4   1   2   20.78    0.77
   4   1   2   20.34    0.66
   4   1   2   21.04    0.75
   4   1   2   20.41    0.67
   4   1   2   19.85    0.61
   4   1   2   19.70    0.79
   4   1   2   20.06    0.65
   4   1   2   20.55    0.62
  -5  -1  -2   53.54    1.78
  -5  -1  -2   51.53    1.76
  -5  -1  -2   49.92    1.80
  -5  -1  -2   54.69    1.69
  -5  -1  -2   51.30    1.68
   5   1   2   55.07    1.54
   5   1   2   52.61    1.67
   5   1   2   50.12    1.46
   5   1   2   52.81    1.52
   5   1   2   53.68    1.48
   5   1   2   55.05    1.56
   5   1   2   53.43    1.67
   5   1   2   53.58    1.76
  -6  -1  -2    0.93    0.20
  -6  -1  -2    0.84    0.14
  -6  -1  -2    1.07    0.22
  -6  -1  -2    1.14    0.24
   6   1   2    0.75    0.21
   6   1   2    0.86    0.16
   6   1   2    0.90    0.20
   6   1   2    0.84    0.13
   6   1   2    1.05    0.14
   6   1   2    1.14    0.18
  -7  -1  -2    1.19    0.26
  -7  -1  -2    0.61    0.21
  -7  -1  -2    0.62    0.22
   7   1   2    1.23    0.27
   7   1   2    1.14    0.19
   7   1   2    1.20    0.24
   7   1   2    1.15    0.16
   7   1   2    1.02    0.14
   8   1   2    0.21    0.13
   8   1   2    0.37    0.20
   8   1   2    0.42    0.19
   8   1   2    0.29    0.11
   8   1   2    0.40    0.11
   9   1   2    0.32    0.20
   9   1   2    0.15    0.18
   9   1   2    0.15    0.13
   8  -2  -2    0.11    0.17
   8  -2  -2   -0.05    0.17
   8  -2  -2    0.07    0.26
   8  -2  -2   -0.01    0.11
  -8   2   2    0.08    0.17
   7  -2  -2    3.90    0.51
   7  -2  -2    3.66    0.49
   7  -2  -2    4.09    0.34
   7  -2  -2    4.57    0.46
   7  -2  -2    3.63    0.44
  -7   2   2    4.06    0.42
   6  -2  -2   21.61    1.04
   6  -2  -2   19.35    0.88
   6  -2  -2   20.55    0.82
   6  -2  -2   20.23    0.88
   6  -2  -2   18.38    0.90
  -6   2   2   21.00    0.84
   5  -2  -2    8.82    0.51
   5  -2  -2    7.57    0.47
   5  -2  -2    8.31    0.52
   5  -2  -2    7.81    0.45
  -5   2   2    8.88    0.65
  -5   2   2    7.65    0.44
  -5   2   2    8.01    0.59
   4  -2  -2   20.22    0.83
   4  -2  -2   20.66    0.83
   4  -2  -2   18.69    0.93
   4  -2  -2   20.88    0.77
   4  -2  -2   19.44    0.79
  -4   2   2   19.68    0.94
  -4   2   2   19.48    0.73
  -4   2   2   17.60    0.91
  -4   2   2   22.25    0.99
   3  -2  -2    1.83    0.21
   3  -2  -2    1.98    0.29
   3  -2  -2    1.62    0.22
   3  -2  -2    1.77    0.23
   3  -2  -2    1.62    0.26
   3  -2  -2    2.07    0.29
   3  -2  -2    1.55    0.23
   3  -2  -2    2.23    0.25
   3  -2  -2    1.43    0.22
  -3   2   2    1.49    0.20
  -3   2   2    1.11    0.23
  -3   2   2    1.72    0.26
  -3   2   2    1.78    0.21
  -3   2   2    1.77    0.27
  -3   2   2    2.04    0.27
  -3   2   2    1.85    0.20
   2  -2  -2   24.18    0.80
   2  -2  -2   23.75    0.97
   2  -2  -2   26.05    0.91
   2  -2  -2   23.74    0.83
   2  -2  -2   24.77    0.89
   2  -2  -2   27.23    0.99
   2  -2  -2   24.59    0.98
  -2   2   2   24.85    0.82
  -2   2   2   24.18    0.97
  -2   2   2   25.47    0.98
  -2   2   2   23.98    0.89
  -2   2   2   24.31    0.77
  -2   2   2   25.42    0.84
   1  -2  -2   23.52    0.89
   1  -2  -2   23.46    0.74
   1  -2  -2   23.70    0.76
   1  -2  -2   24.64    0.84
   1  -2  -2   24.55    0.76
   1  -2  -2   23.89    0.88
   1  -2  -2   23.52    0.75
  -1   2   2   23.31    0.81
  -1   2   2   23.33    0.87
  -1   2   2   23.24    0.88
  -1   2   2   24.03    0.88
  -1   2   2   22.97    0.75
  -1   2   2   23.81    0.74
  -1   2   2   23.26    0.69
  -1   2   2   23.81    0.73
   0  -2  -2  110.71    3.12
   0  -2  -2  109.99    3.22
   0  -2  -2  112.76    3.29
   0  -2  -2  111.38    3.29
   0  -2  -2  113.29    2.91
   0  -2  -2  112.36    2.83
   0  -2  -2  108.55    2.94
   0  -2  -2  110.76    3.01
   0  -2  -2  112.52    3.28
   0   2   2  114.77    3.28
   0   2   2  109.39    3.27
   0   2   2  112.91    3.28
   0   2   2  107.03    2.89
   0   2   2  112.60    2.92
   0   2   2  110.26    2.89
  -1  -2  -2  217.84    6.10
  -1  -2  -2  214.05    6.11
  -1  -2  -2  218.69    5.81
  -1  -2  -2  210.70    6.10
  -1  -2  -2  214.10    5.71
   1   2   2  221.19    6.10
   1   2   2  205.18    5.84
  -2  -2  -2   64.77    1.81
  -2  -2  -2   67.07    1.72
   2   2   2   63.94    1.90
  -3  -2  -2   55.87    1.59
  -3  -2  -2   53.38    1.58
  -3  -2  -2   53.72    1.44
  -3  -2  -2   55.72    1.43
  -3  -2  -2   53.07    1.46
   3   2   2   52.56    1.64
   3   2   2   52.92    1.56
   3   2   2   54.60    1.46
   3   2   2   55.24    1.59
  -4  -2  -2    1.16    0.13
  -4  -2  -2    1.14    0.14
  -4  -2  -2    1.16    0.09
  -4  -2  -2    1.05    0.14
  -4  -2  -2    1.05    0.13
  -4  -2  -2    1.14    0.12
  -4  -2  -2    1.49    0.13
   4   2   2    1.27    0.20
   4   2   2    1.10    0.13
   4   2   2    1.12    0.17
   4   2   2    1.17    0.13
  -5  -2  -2   13.60    0.55
  -5  -2  -2   13.75    0.57
  -5  -2  -2   13.59    0.54
  -5  -2  -2   12.74    0.56
  -5  -2  -2   13.61    0.60
   5   2   2   11.95    0.61
   5   2   2   13.42    0.43
   5   2   2   13.98    0.60
   5   2   2   12.90    0.55
   5   2   2   13.48    0.44
   5   2   2   13.44    0.51
  -6  -2  -2    0.59    0.15
  -6  -2  -2    0.73    0.17
  -6  -2  -2    0.38    0.14
  -6  -2  -2    0.53    0.16
   6   2   2    0.31    0.15
   6   2   2    0.63    0.13
   6   2   2    0.53    0.16
   6   2   2    0.46    0.08
   6   2   2    0.53    0.11
  -7  -2  -2    3.40    0.40
  -7  -2  -2    3.05    0.33
  -7  -2  -2    3.33    0.37
   7   2   2    3.39    0.39
   7   2   2    3.46    0.22
   7   2   2    3.48    0.43
   7   2   2    3.33    0.27
  -8  -2  -2   30.89    1.37
  -8  -2  -2   31.61    1.29
   8   2   2   30.88    1.27
   8   2   2   31.63    1.35
   8   2   2   31.86    0.99
   9   2   2    9.39    0.70
   9   2   2   11.34    0.71
  10   2   2    3.00    0.48
  10   2   2    3.26    0.50
   7  -3  -2    2.29    0.42
   7  -3  -2    1.85    0.28
   7  -3  -2    1.86    0.38
   7  -3  -2    1.25    0.32
  -7   3   2    1.58    0.28
   6  -3  -2    0.71    0.20
   6  -3  -2    0.73    0.23
   6  -3  -2    0.22    0.18
  -6   3   2    0.47    0.18
   5  -3  -2    0.34    0.14
   5  -3  -2    0.16    0.16
   5  -3  -2    0.48    0.19
   5  -3  -2    0.62    0.19
  -5   3   2    0.08    0.20
  -5   3   2    0.48    0.17
   4  -3  -2    1.00    0.22
   4  -3  -2    1.02    0.20
   4  -3  -2    1.40    0.26
   4  -3  -2    1.10    0.22
  -4   3   2    1.16    0.20
  -4   3   2    1.00    0.26
   3  -3  -2    3.86    0.32
   3  -3  -2    4.24    0.46
   3  -3  -2    3.85    0.30
   3  -3  -2    4.77    0.38
   3  -3  -2    3.68    0.42
  -3   3   2    3.72    0.44
  -3   3   2    3.55    0.41
  -3   3   2    3.58    0.26
  -3   3   2    3.64    0.41
   2  -3  -2   62.77    2.06
   2  -3  -2   59.06    1.95
   2  -3  -2   60.50    1.79
   2  -3  -2   62.75    1.75
  -2   3   2   58.75    2.04
  -2   3   2   60.04    1.67
  -2   3   2   58.68    1.73
  -2   3   2   56.28    2.02
  -2   3   2   63.47    2.08
  -2   3   2   56.62    1.90
   1  -3  -2    0.90    0.19
   1  -3  -2    1.10    0.15
   1  -3  -2    1.17    0.17
   1  -3  -2    1.16    0.21
   1  -3  -2    1.29    0.21
   1  -3  -2    0.96    0.16
  -1   3   2    1.36    0.17
  -1   3   2    1.36    0.22
  -1   3   2    0.88    0.15
  -1   3   2    0.99    0.18
  -1   3   2    1.10    0.12
  -1   3   2    1.05    0.19
   0  -3  -2   48.07    1.39
   0  -3  -2   48.87    1.49
   0  -3  -2   46.57    1.56
   0  -3  -2   48.92    1.60
   0  -3  -2   47.52    1.38
   0  -3  -2   47.49    1.39
   0  -3  -2   48.40    1.58
   0  -3  -2   49.18    1.31
   0   3   2   50.83    1.59
   0   3   2   48.74    1.58
   0   3   2   50.98    1.38
   0   3   2   48.02    1.55
   0   3   2   46.63    1.36
  -1  -3  -2   62.77    1.74
  -1  -3  -2   59.30    1.92
  -1  -3  -2   65.93    1.81
  -1  -3  -2   62.80    1.90
  -1  -3  -2   61.91    1.67
  -1  -3  -2   64.19    1.91
   1   3   2   61.72    1.84
   1   3   2   63.25    1.63
   1   3   2   58.76    1.63
   1   3   2   63.28    1.91
  -2  -3  -2    1.13    0.10
  -2  -3  -2    1.36    0.15
   2   3   2    1.13    0.10
   2   3   2    1.03    0.10
   2   3   2    1.20    0.17
  -3  -3  -2   32.68    1.01
  -3  -3  -2   36.84    1.01
   3   3   2   35.02    1.16
  -4  -3  -2   50.92    1.50
  -4  -3  -2   55.61    1.48
   4   3   2   55.05    1.71
   4   3   2   52.29    1.49
  -5  -3  -2    2.64    0.18
  -5  -3  -2    2.98    0.18
  -5  -3  -2    2.83    0.18
  -5  -3  -2    2.65    0.16
  -5  -3  -2    2.70    0.18
  -5  -3  -2    3.16    0.20
  -5  -3  -2    2.84    0.20
   5   3   2    2.85    0.32
   5   3   2    2.81    0.18
   5   3   2    2.90    0.20
   5   3   2    3.09    0.31
  -6  -3  -2    7.76    0.30
  -6  -3  -2    7.05    0.41
  -6  -3  -2    7.70    0.38
  -6  -3  -2    7.75    0.38
  -6  -3  -2    7.95    0.39
  -6  -3  -2    7.77    0.38
  -6  -3  -2    7.28    0.38
   6   3   2    7.76    0.50
   6   3   2    8.61    0.48
   6   3   2    8.19    0.38
  -7  -3  -2    0.38    0.16
  -7  -3  -2    0.77    0.17
  -7  -3  -2    0.91    0.16
   7   3   2    0.87    0.23
   7   3   2    0.82    0.16
   7   3   2    0.86    0.21
  -8  -3  -2   21.13    0.89
  -8  -3  -2   21.39    0.92
  -8  -3  -2   20.06    0.97
   8   3   2   18.38    0.97
   8   3   2   19.73    0.94
  -9  -3  -2   16.20    0.84
   9   3   2   15.61    0.85
   9   3   2   15.57    0.91
  10   3   2    2.66    0.42
  10   3   2    2.55    0.44
   6  -4  -2    3.48    0.49
   6  -4  -2    2.97    0.44
  -6   4   2    4.03    0.40
   5  -4  -2   13.67    0.80
   5  -4  -2   14.59    0.82
  -5   4   2   14.24    0.66
   4  -4  -2    6.99    0.52
   4  -4  -2    6.36    0.50
  -4   4   2    6.74    0.40
  -4   4   2    6.48    0.57
   3  -4  -2    0.12    0.14
  -3   4   2    0.05    0.12
  -3   4   2   -0.15    0.08
  -3   4   2   -0.03    0.15
   2  -4  -2    0.30    0.14
   2  -4  -2    0.21    0.11
   2  -4  -2    0.29    0.14
   2  -4  -2    0.32    0.14
  -2   4   2    0.28    0.14
  -2   4   2    0.25    0.12
  -2   4   2    0.24    0.14
  -2   4   2    0.27    0.09
   1  -4  -2   15.75    0.77
   1  -4  -2   16.14    0.65
   1  -4  -2   16.28    0.76
   1  -4  -2   14.81    0.69
   1  -4  -2   15.24    0.73
   1  -4  -2   14.85    0.61
  -1   4   2   16.15    0.50
  -1   4   2   15.75    0.73
  -1   4   2   15.58    0.75
  -1   4   2   16.07    0.63
  -1   4   2   15.62    0.77
  -1   4   2   15.91    0.63
   0  -4  -2    3.34    0.23
   0  -4  -2    3.69    0.19
   0  -4  -2    3.49    0.31
   0  -4  -2    3.49    0.29
   0  -4  -2    3.34    0.28
   0  -4  -2    3.75    0.32
   0  -4  -2    3.54    0.21
   0   4   2    3.76    0.28
   0   4   2    3.45    0.24
   0   4   2    3.03    0.23
   0   4   2    3.84    0.31
   0   4   2    3.47    0.30
  -1  -4  -2   11.87    0.53
  -1  -4  -2   10.94    0.48
  -1  -4  -2   12.18    0.40
  -1  -4  -2   10.89    0.52
  -1  -4  -2   11.53    0.56
  -1  -4  -2   11.67    0.36
  -1  -4  -2   10.66    0.42
   1   4   2   10.05    0.39
   1   4   2   11.19    0.45
   1   4   2   11.94    0.52
   1   4   2   11.00    0.40
   1   4   2   11.71    0.52
  -2  -4  -2    2.15    0.17
  -2  -4  -2    2.50    0.27
  -2  -4  -2    1.88    0.17
  -2  -4  -2    2.19    0.16
  -2  -4  -2    1.89    0.15
   2   4   2    2.29    0.10
   2   4   2    1.83    0.16
   2   4   2    1.94    0.16
  -3  -4  -2  110.59    3.29
  -3  -4  -2  111.66    2.99
   3   4   2  109.64    3.24
  -4  -4  -2  171.31    4.54
  -4  -4  -2  176.00    4.55
  -4  -4  -2  177.00    4.61
   4   4   2  164.86    4.91
  -5  -4  -2   33.71    1.06
  -5  -4  -2   33.71    1.03
   5   4   2   33.38    1.24
  -6  -4  -2   -0.06    0.06
  -6  -4  -2   -0.08    0.06
  -6  -4  -2    0.16    0.08
  -6  -4  -2   -0.04    0.06
  -6  -4  -2    0.04    0.08
   6   4   2    0.13    0.12
   6   4   2    0.03    0.07
  -7  -4  -2    0.05    0.10
  -7  -4  -2    0.06    0.13
  -7  -4  -2    0.25    0.13
  -7  -4  -2    0.67    0.15
   7   4   2    0.39    0.17
   7   4   2    0.16    0.16
  -8  -4  -2   12.19    0.60
  -8  -4  -2   10.74    0.49
   8   4   2   11.26    0.71
   8   4   2   11.74    0.68
  -9  -4  -2    0.66    0.21
   9   4   2    1.12    0.26
   9   4   2    0.93    0.28
 -10  -4  -2    0.14    0.16
  10   4   2    0.08    0.16
  10   4   2   -0.14    0.14
   5  -5  -2    0.06    0.24
   5  -5  -2    0.63    0.26
  -5   5   2    0.14    0.13
   4  -5  -2   -0.18    0.18
   4  -5  -2   -0.05    0.16
  -4   5   2   -0.39    0.18
  -4   5   2   -0.37    0.11
   3  -5  -2   -0.06    0.12
  -3   5   2   -0.10    0.12
  -3   5   2   -0.14    0.08
  -3   5   2    0.24    0.15
   2  -5  -2    2.00    0.37
   2  -5  -2    2.96    0.40
  -2   5   2    1.84    0.28
  -2   5   2    2.15    0.17
  -2   5   2    2.49    0.38
   1  -5  -2   35.39    1.61
   1  -5  -2   43.05    1.62
   1  -5  -2   47.29    1.67
   1  -5  -2   44.33    1.54
  -1   5   2   43.42    1.59
  -1   5   2   43.88    1.64
  -1   5   2   44.62    1.41
  -1   5   2   44.47    1.39
   0  -5  -2   28.84    1.19
   0  -5  -2   27.84    1.16
   0  -5  -2   31.30    1.12
   0  -5  -2   28.03    0.91
   0  -5  -2   30.22    1.17
   0   5   2   26.96    0.94
   0   5   2   28.74    1.09
   0   5   2   29.75    0.96
   0   5   2   29.69    1.15
  -1  -5  -2    4.25    0.26
  -1  -5  -2    4.57    0.20
  -1  -5  -2    4.59    0.33
  -1  -5  -2    4.37    0.22
  -1  -5  -2    4.11    0.33
  -1  -5  -2    4.39    0.37
  -1  -5  -2    4.52    0.32
   1   5   2    4.33    0.27
   1   5   2    4.06    0.23
   1   5   2    4.08    0.23
   1   5   2    4.75    0.33
  -2  -5  -2   37.06    1.20
  -2  -5  -2   38.33    1.30
  -2  -5  -2   36.28    1.09
  -2  -5  -2   37.29    1.36
  -2  -5  -2   37.79    1.12
  -2  -5  -2   37.96    1.27
   2   5   2   37.95    1.07
   2   5   2   37.85    1.27
  -3  -5  -2   25.52    0.85
  -3  -5  -2   25.52    0.81
  -3  -5  -2   25.06    1.00
  -3  -5  -2   26.12    0.86
  -3  -5  -2   25.08    0.88
   3   5   2   25.85    0.85
   3   5   2   26.05    0.85
  -4  -5  -2   83.69    2.59
  -4  -5  -2   84.21    2.36
   4   5   2   81.23    2.58
  -5  -5  -2    1.61    0.23
  -5  -5  -2    1.64    0.21
  -5  -5  -2    1.63    0.20
   5   5   2    1.62    0.27
  -6  -5  -2   10.10    0.51
  -6  -5  -2    9.52    0.44
  -6  -5  -2    9.10    0.46
   6   5   2    9.48    0.59
  -7  -5  -2   20.56    0.79
  -7  -5  -2   20.54    0.70
  -7  -5  -2   20.18    0.76
   7   5   2   19.73    0.96
  -8  -5  -2   16.24    0.67
   8   5   2   16.40    0.89
  -9  -5  -2    0.67    0.18
   9   5   2    0.71    0.24
 -10  -5  -2    3.71    0.43
  10   5   2    4.19    0.54
   4  -6  -2    8.04    0.65
   4  -6  -2    7.35    0.62
  -4   6   2    7.28    0.38
   3  -6  -2    9.43    0.72
  -3   6   2   10.75    0.64
  -3   6   2   10.81    0.41
   2  -6  -2    1.81    0.35
  -2   6   2    2.17    0.32
   1  -6  -2    3.99    0.47
  -1   6   2    3.76    0.37
   0  -6  -2    2.68    0.39
   0  -6  -2    2.60    0.35
   0  -6  -2    1.99    0.31
   0  -6  -2    2.34    0.35
   0   6   2    2.08    0.28
   0   6   2    2.37    0.32
   0   6   2    2.29    0.26
   0   6   2    2.42    0.27
  -1  -6  -2    1.90    0.29
  -1  -6  -2    1.92    0.27
  -1  -6  -2    2.30    0.29
  -1  -6  -2    1.93    0.19
  -1  -6  -2    2.08    0.28
  -1  -6  -2    1.76    0.31
   1   6   2    1.72    0.21
   1   6   2    1.93    0.19
   1   6   2    1.77    0.25
   1   6   2    1.82    0.18
  -2  -6  -2    1.73    0.13
  -2  -6  -2    1.49    0.27
  -2  -6  -2    1.50    0.19
  -2  -6  -2    1.76    0.24
  -2  -6  -2    1.44    0.22
  -2  -6  -2    1.24    0.23
   2   6   2    1.80    0.14
  -3  -6  -2    0.53    0.12
  -3  -6  -2    0.64    0.11
  -3  -6  -2    0.55    0.09
  -3  -6  -2    0.82    0.21
  -3  -6  -2    0.57    0.13
  -3  -6  -2    0.74    0.15
   3   6   2    0.55    0.12
   3   6   2    0.58    0.07
  -4  -6  -2    6.70    0.41
  -4  -6  -2    6.78    0.31
  -4  -6  -2    7.63    0.39
  -4  -6  -2    7.00    0.35
  -4  -6  -2    7.08    0.48
   4   6   2    7.07    0.29
  -5  -6  -2   11.76    0.56
  -5  -6  -2   11.49    0.61
  -5  -6  -2   11.85    0.56
  -5  -6  -2   10.90    0.42
   5   6   2   11.77    0.67
  -6  -6  -2    8.28    0.49
  -6  -6  -2    7.99    0.45
  -6  -6  -2    8.70    0.46
   6   6   2    7.26    0.53
  -7  -6  -2   11.58    0.42
  -7  -6  -2   12.47    0.58
   7   6   2   11.49    0.71
  -8  -6  -2   20.77    0.75
   8   6   2   22.47    1.09
  -9  -6  -2   -0.02    0.11
   9   6   2    0.04    0.16
 -10  -6  -2   -0.13    0.12
  10   6   2    0.06    0.18
   3  -7  -2    5.35    0.65
   2  -7  -2    1.83    0.38
  -2   7   2    2.17    0.33
   1  -7  -2    3.56    0.51
  -1   7   2    3.19    0.36
   0  -7  -2    6.57    0.57
   0   7   2    7.57    0.42
   0   7   2    6.68    0.41
  -1  -7  -2    7.86    0.61
  -1  -7  -2    8.39    0.55
   1   7   2    8.35    0.38
   1   7   2    7.55    0.37
  -2  -7  -2   19.84    0.84
  -2  -7  -2   18.39    0.90
  -2  -7  -2   18.81    0.84
  -2  -7  -2   18.19    0.95
  -3  -7  -2   11.22    0.55
  -3  -7  -2    9.99    0.45
  -3  -7  -2   10.17    0.52
  -3  -7  -2   10.41    0.58
  -3  -7  -2   10.31    0.66
  -4  -7  -2    1.41    0.25
  -4  -7  -2    1.32    0.14
  -4  -7  -2    1.40    0.19
  -4  -7  -2    1.73    0.23
  -4  -7  -2    1.77    0.16
  -4  -7  -2    1.68    0.32
  -4  -7  -2    1.20    0.18
  -5  -7  -2    4.15    0.44
  -5  -7  -2    3.68    0.40
  -5  -7  -2    3.87    0.31
  -5  -7  -2    3.80    0.26
  -5  -7  -2    3.75    0.24
  -5  -7  -2    3.47    0.23
  -5  -7  -2    3.56    0.37
  -6  -7  -2    0.58    0.09
  -6  -7  -2    0.44    0.17
  -6  -7  -2    0.75    0.19
  -6  -7  -2    0.71    0.10
  -6  -7  -2    0.70    0.18
  -6  -7  -2    0.56    0.12
   6   7   2    0.78    0.24
  -7  -7  -2    0.56    0.18
   7   7   2    0.47    0.20
  -8  -7  -2    0.18    0.08
   8   7   2    0.16    0.16
  -9  -7  -2    0.74    0.14
   9   7   2    0.82    0.26
 -10  -7  -2    0.19    0.12
  10   7   2    0.11    0.15
   2  -8  -2    1.42    0.37
  -2   8   2    1.85    0.31
   1  -8  -2    0.02    0.19
  -1   8   2    0.43    0.18
   0  -8  -2   12.29    0.85
   0   8   2   13.57    0.62
   0   8   2   13.13    0.61
  -1  -8  -2   15.10    0.93
   1   8   2   14.65    0.56
   1   8   2   14.66    0.55
  -2  -8  -2    0.00    0.14
  -2  -8  -2    0.00    0.17
  -2  -8  -2    0.04    0.13
  -3  -8  -2    1.59    0.28
  -3  -8  -2    0.82    0.28
  -3  -8  -2    1.39    0.27
  -4  -8  -2    1.71    0.30
  -4  -8  -2    1.24    0.23
  -4  -8  -2    1.77    0.22
  -4  -8  -2    1.69    0.35
  -4  -8  -2    1.55    0.26
  -4  -8  -2    1.77    0.26
  -5  -8  -2    1.09    0.18
  -5  -8  -2    1.15    0.21
  -5  -8  -2    1.64    0.30
  -5  -8  -2    1.16    0.15
  -5  -8  -2    0.96    0.17
  -5  -8  -2    1.25    0.25
  -5  -8  -2    1.32    0.29
  -6  -8  -2   18.33    0.91
  -6  -8  -2   18.93    0.86
  -6  -8  -2   18.91    0.86
  -6  -8  -2   17.68    0.68
  -6  -8  -2   17.29    0.67
  -7  -8  -2   17.34    0.82
  -7  -8  -2   15.94    0.60
   7   8   2   18.81    1.01
   8   8   2   -0.01    0.15
  -9  -8  -2    0.12    0.09
   9   8   2    0.16    0.18
   0  -9  -2    0.57    0.25
   0   9   2    0.41    0.13
   0   9   2    0.08    0.11
  -1  -9  -2    3.64    0.56
   1   9   2    3.75    0.21
  -2  -9  -2    0.35    0.22
  -3  -9  -2    0.27    0.22
  -3  -9  -2   -0.06    0.13
  -4  -9  -2   12.00    0.66
  -4  -9  -2   12.09    0.65
  -4  -9  -2   11.56    0.80
  -5  -9  -2    6.58    0.43
  -5  -9  -2    6.52    0.58
  -5  -9  -2    6.67    0.45
  -5  -9  -2    6.60    0.55
  -6  -9  -2    1.65    0.23
  -6  -9  -2    1.89    0.25
  -6  -9  -2    2.46    0.38
  -6  -9  -2    2.00    0.36
  -7  -9  -2   10.80    0.50
  -7  -9  -2   11.86    0.70
  -7  -9  -2   11.61    0.52
  -8  -9  -2    0.55    0.12
  -8  -9  -2    0.48    0.11
   8   9   2    0.35    0.23
  -2 -10  -2    0.08    0.26
  -3 -10  -2    2.99    0.52
  -4 -10  -2    0.00    0.15
  -4 -10  -2    0.11    0.21
  -5 -10  -2    0.31    0.21
  -5 -10  -2   -0.09    0.17
  -5 -10  -2    0.11    0.14
  -5 -10  -2   -0.11    0.14
  -6 -10  -2    0.07    0.16
  -6 -10  -2    0.09    0.13
  -6 -10  -2   -0.10    0.17
  -6 -10  -2    0.06    0.14
  -7 -10  -2   -0.08    0.18
  -7 -10  -2    0.19    0.13
  -7 -10  -2   -0.03    0.10
  -6 -10   3    0.29    0.18
  -6 -10   3    0.31    0.24
  -5 -10   3   24.32    1.21
  -4 -10   3    7.14    0.74
  -4 -10   3    4.88    0.62
  -8  -9   3   -0.10    0.17
  -8  -9   3   -0.08    0.12
  -8  -9   3    0.11    0.12
  -7  -9   3    3.19    0.36
  -7  -9   3    2.88    0.35
  -7  -9   3    3.36    0.46
  -6  -9   3    0.24    0.14
  -6  -9   3   -0.08    0.12
  -6  -9   3    0.11    0.19
  -5  -9   3    8.60    0.59
  -5  -9   3    8.73    0.66
  -5  -9   3   10.46    0.61
  -5  -9   3    9.74    0.68
  -4  -9   3    3.98    0.45
  -4  -9   3    3.63    0.49
  -4  -9   3    3.33    0.48
  -3  -9   3    0.07    0.19
  -3  -9   3   -0.05    0.18
  -2  -9   3    0.09    0.20
  -2  -9   3   -0.05    0.20
   1   9  -3   12.55    0.55
   1   9  -3   12.27    0.55
  -1  -9   3   12.23    0.81
  -1  -9   3   13.55    0.93
   0   9  -3    0.04    0.13
   0  -9   3    0.10    0.23
   9   8  -3    1.63    0.38
  -9  -8   3    1.47    0.26
   8   8  -3   -0.02    0.17
  -8  -8   3    0.06    0.17
  -8  -8   3    0.34    0.15
  -7  -8   3    0.31    0.19
  -7  -8   3    0.51    0.16
  -7  -8   3    0.35    0.12
  -7  -8   3    0.35    0.16
  -6  -8   3    1.08    0.22
  -6  -8   3    1.18    0.21
  -6  -8   3    1.70    0.34
  -6  -8   3    1.39    0.21
  -5  -8   3    3.52    0.45
  -5  -8   3    3.93    0.35
  -5  -8   3    3.42    0.37
  -5  -8   3    3.84    0.44
  -4  -8   3   13.89    0.80
  -4  -8   3   14.63    0.73
  -4  -8   3   14.11    0.81
  -4  -8   3   14.75    0.74
  -3  -8   3    6.05    0.47
  -3  -8   3    5.68    0.58
  -3  -8   3    5.54    0.59
   2   8  -3    4.77    0.26
   2   8  -3    5.34    0.27
  -2  -8   3    4.63    0.53
  -2  -8   3    5.58    0.62
   1   8  -3   29.63    1.02
   1   8  -3   27.57    1.00
  -1  -8   3   27.85    1.37
  -1  -8   3   30.43    1.09
   0  -8   3   16.82    1.03
   1  -8   3   -0.16    0.17
   9   7  -3    0.35    0.21
  -9  -7   3    0.46    0.17
   8   7  -3    7.48    0.61
  -8  -7   3    7.28    0.40
  -8  -7   3    7.76    0.47
  -8  -7   3    8.61    0.56
   7   7  -3   12.43    0.75
  -7  -7   3   11.32    0.50
  -7  -7   3   11.93    0.67
  -7  -7   3   10.77    0.55
   6   7  -3   28.92    1.29
  -6  -7   3   29.90    1.09
  -6  -7   3   29.83    1.21
  -6  -7   3   30.12    1.05
  -6  -7   3   30.40    1.23
  -6  -7   3   31.01    1.11
  -6  -7   3   31.27    1.00
  -5  -7   3   16.90    0.84
  -5  -7   3   17.73    0.74
  -5  -7   3   17.61    0.75
  -5  -7   3   18.51    0.77
  -5  -7   3   17.48    0.81
  -5  -7   3   17.33    0.85
   4   7  -3    0.79    0.16
  -4  -7   3    0.38    0.15
  -4  -7   3    0.64    0.17
  -4  -7   3    0.47    0.15
  -4  -7   3    0.91    0.24
  -4  -7   3    0.72    0.19
  -4  -7   3    0.67    0.18
  -4  -7   3    0.84    0.23
   3   7  -3    8.59    0.46
  -3  -7   3    8.67    0.58
  -3  -7   3    8.23    0.51
  -3  -7   3    7.69    0.51
  -3  -7   3    7.08    0.54
  -3  -7   3    8.63    0.52
  -3  -7   3    9.22    0.58
   2   7  -3    1.76    0.24
   2   7  -3    1.29    0.16
  -2  -7   3    1.66    0.28
  -2  -7   3    1.81    0.33
  -2  -7   3    1.13    0.27
  -2  -7   3    1.23    0.27
   1   7  -3    4.61    0.32
  -1  -7   3    3.47    0.46
  -1  -7   3    4.81    0.33
   0  -7   3    0.21    0.13
   0  -7   3    0.03    0.16
   1  -7   3   -0.02    0.16
   2  -7   3   16.43    1.01
   3  -7   3   16.43    1.05
  10   6  -3    1.49    0.34
 -10  -6   3    1.78    0.30
   9   6  -3    0.03    0.17
  -9  -6   3   -0.09    0.13
   8   6  -3   13.18    0.79
  -8  -6   3   13.20    0.64
  -8  -6   3   11.97    0.54
  -8  -6   3   14.54    0.71
   7   6  -3    1.07    0.26
  -7  -6   3    0.67    0.13
  -7  -6   3    1.25    0.20
  -7  -6   3    0.77    0.13
  -7  -6   3    0.86    0.23
  -7  -6   3    0.86    0.22
   6   6  -3   16.12    0.83
  -6  -6   3   15.96    0.77
  -6  -6   3   14.75    0.57
  -6  -6   3   15.70    0.63
  -6  -6   3   15.40    0.76
  -6  -6   3   16.57    0.67
   5   6  -3   16.19    0.82
  -5  -6   3   16.64    0.60
  -5  -6   3   16.48    0.78
  -5  -6   3   17.06    0.79
  -5  -6   3   15.99    0.68
  -5  -6   3   17.41    0.73
  -5  -6   3   17.02    0.68
   4   6  -3   10.54    0.50
  -4  -6   3    9.90    0.51
  -4  -6   3   11.22    0.60
  -4  -6   3    8.74    0.54
  -4  -6   3   11.15    0.57
  -4  -6   3    9.87    0.50
  -4  -6   3   10.73    0.51
   3   6  -3   39.85    1.30
  -3  -6   3   40.13    1.37
  -3  -6   3   39.61    1.40
  -3  -6   3   39.79    1.36
  -3  -6   3   38.19    1.40
  -3  -6   3   39.48    1.46
  -3  -6   3   37.97    1.40
  -3  -6   3   40.59    1.46
   2   6  -3   76.77    2.04
   2   6  -3   63.60    2.39
   2   6  -3   79.73    2.24
  -2  -6   3   75.88    2.50
  -2  -6   3   76.86    2.37
  -2  -6   3   76.11    2.34
  -2  -6   3   63.74    2.02
  -2  -6   3   75.37    2.46
  -2  -6   3   76.56    2.46
  -2  -6   3   75.59    2.32
   1   6  -3   15.55    0.79
   1   6  -3   16.12    0.64
   1   6  -3   17.35    0.77
  -1  -6   3   15.83    0.77
  -1  -6   3   15.19    0.82
  -1  -6   3   17.03    0.78
  -1  -6   3   15.93    0.84
  -1  -6   3   17.10    0.64
   0   6  -3    5.10    0.34
   0   6  -3    4.85    0.42
   0  -6   3    4.79    0.52
   0  -6   3    5.38    0.34
   1  -6   3    5.87    0.62
  -2   6  -3    3.21    0.20
   2  -6   3    3.29    0.47
  -3   6  -3    1.37    0.18
   3  -6   3    0.94    0.30
  -4   6  -3    0.19    0.11
   4  -6   3    0.68    0.25
  10   5  -3    6.89    0.60
 -10  -5   3    5.46    0.48
   9   5  -3    0.30    0.20
  -9  -5   3    0.32    0.17
   8   5  -3    1.27    0.29
  -8  -5   3    1.06    0.22
  -8  -5   3    0.92    0.20
  -8  -5   3    0.74    0.21
  -8  -5   3    0.97    0.26
  -8  -5   3    0.89    0.16
   7   5  -3    5.15    0.45
  -7  -5   3    5.55    0.31
  -7  -5   3    5.02    0.38
  -7  -5   3    5.42    0.34
  -7  -5   3    4.89    0.41
  -7  -5   3    5.30    0.36
   6   5  -3    0.24    0.14
  -6  -5   3    0.22    0.12
  -6  -5   3    0.06    0.10
  -6  -5   3    0.20    0.08
  -6  -5   3    0.09    0.12
  -6  -5   3    0.21    0.09
   5   5  -3    6.78    0.47
   5   5  -3    6.50    0.36
  -5  -5   3    7.30    0.37
  -5  -5   3    7.56    0.46
  -5  -5   3    6.78    0.31
  -5  -5   3    6.48    0.36
  -5  -5   3    7.13    0.38
  -5  -5   3    7.45    0.46
  -5  -5   3    7.64    0.36
   4   5  -3    0.00    0.11
   4   5  -3    0.26    0.10
  -4  -5   3    0.00    0.10
  -4  -5   3    0.02    0.09
  -4  -5   3    0.07    0.08
  -4  -5   3    0.02    0.06
  -4  -5   3    0.02    0.09
  -4  -5   3    0.17    0.09
  -4  -5   3    0.02    0.07
   3   5  -3   22.01    0.80
  -3  -5   3   21.35    0.87
  -3  -5   3   20.36    0.85
  -3  -5   3   21.90    0.86
  -3  -5   3   21.48    0.80
  -3  -5   3   21.62    0.87
  -3  -5   3   21.61    0.85
  -3  -5   3   21.72    0.81
  -3  -5   3   21.53    0.85
   2   5  -3   70.27    1.90
   2   5  -3   72.43    2.07
   2   5  -3   66.27    2.16
   2   5  -3   71.14    2.25
  -2  -5   3   70.28    2.11
  -2  -5   3   66.50    2.27
  -2  -5   3   66.23    2.24
  -2  -5   3   69.80    2.15
  -2  -5   3   71.28    1.88
  -2  -5   3   69.47    2.12
  -2  -5   3   67.67    2.13
  -2  -5   3   68.93    2.24
  -2  -5   3   71.33    2.26
   1   5  -3   42.77    1.51
   1   5  -3   43.69    1.28
   1   5  -3   40.00    1.45
  -1  -5   3   42.27    1.23
  -1  -5   3   40.32    1.41
  -1  -5   3   40.77    1.53
  -1  -5   3   41.04    1.44
  -1  -5   3   43.13    1.53
  -1  -5   3   39.55    1.49
   0   5  -3   10.08    0.49
   0   5  -3   10.67    0.61
   0   5  -3   11.52    0.61
   0  -5   3   10.08    0.57
   0  -5   3   10.79    0.47
   0  -5   3   11.58    0.65
   0  -5   3   11.75    0.60
   0  -5   3   10.67    0.62
   0  -5   3   10.76    0.63
  -1   5  -3    2.28    0.33
  -1   5  -3    2.16    0.33
  -1   5  -3    2.41    0.17
   1  -5   3    2.53    0.35
   1  -5   3    2.57    0.38
   1  -5   3    2.45    0.26
  -2   5  -3   34.89    1.09
  -2   5  -3   36.17    1.50
   2  -5   3   35.31    1.47
  -3   5  -3    4.98    0.56
  -3   5  -3    5.23    0.33
   3  -5   3    4.85    0.56
  -4   5  -3   10.06    0.52
   4  -5   3   10.27    0.73
  -5   5  -3    4.34    0.36
   5  -5   3    4.66    0.60
  10   4  -3    0.84    0.27
  10   4  -3    0.67    0.32
   9   4  -3    4.21    0.52
   9   4  -3    3.85    0.50
  -9  -4   3    3.70    0.44
   8   4  -3   -0.01    0.13
   8   4  -3    0.06    0.15
  -8  -4   3   -0.06    0.15
  -8  -4   3    0.04    0.11
   7   4  -3   34.44    1.35
   7   4  -3   33.76    1.34
  -7  -4   3   33.91    1.24
  -7  -4   3   32.38    1.29
  -7  -4   3   35.28    1.23
  -7  -4   3   33.54    1.11
  -7  -4   3   34.77    1.21
  -7  -4   3   34.09    1.27
   6   4  -3   23.07    0.96
  -6  -4   3   21.73    0.83
  -6  -4   3   20.76    0.84
  -6  -4   3   21.10    0.73
  -6  -4   3   21.52    0.90
  -6  -4   3   21.65    0.88
  -6  -4   3   23.09    0.86
   5   4  -3    3.57    0.25
   5   4  -3    3.57    0.32
  -5  -4   3    3.87    0.31
  -5  -4   3    3.39    0.20
  -5  -4   3    3.55    0.30
  -5  -4   3    3.59    0.25
  -5  -4   3    3.92    0.19
  -5  -4   3    3.87    0.26
  -5  -4   3    3.40    0.25
   4   4  -3    0.38    0.12
   4   4  -3    0.41    0.13
   4   4  -3    0.38    0.14
   4   4  -3    0.31    0.07
  -4  -4   3    0.44    0.11
  -4  -4   3    0.49    0.10
  -4  -4   3    0.34    0.11
  -4  -4   3    0.26    0.10
  -4  -4   3    0.30    0.07
  -4  -4   3    0.13    0.10
  -4  -4   3    0.52    0.15
   3   4  -3   16.14    0.50
   3   4  -3   14.89    0.65
   3   4  -3   15.17    0.60
   3   4  -3   15.72    0.50
  -3  -4   3   13.89    0.62
  -3  -4   3   14.63    0.51
  -3  -4   3   14.83    0.60
  -3  -4   3   14.39    0.57
  -3  -4   3   14.43    0.63
  -3  -4   3   15.15    0.62
  -3  -4   3   14.55    0.61
   2   4  -3    1.79    0.17
   2   4  -3    2.10    0.23
   2   4  -3    2.36    0.20
   2   4  -3    2.04    0.15
  -2  -4   3    1.64    0.20
  -2  -4   3    1.97    0.24
  -2  -4   3    2.05    0.23
  -2  -4   3    2.03    0.24
  -2  -4   3    2.33    0.21
  -2  -4   3    2.23    0.13
  -2  -4   3    2.11    0.24
  -2  -4   3    1.94    0.21
  -2  -4   3    2.36    0.25
   1   4  -3   72.17    1.95
   1   4  -3   68.51    2.24
   1   4  -3   70.62    2.23
  -1  -4   3   69.03    2.12
  -1  -4   3   66.62    2.24
  -1  -4   3   70.29    2.14
  -1  -4   3   70.81    1.89
  -1  -4   3   71.99    2.26
  -1  -4   3   70.88    2.28
  -1  -4   3   67.64    2.20
   0   4  -3    0.51    0.12
   0   4  -3    0.37    0.06
   0   4  -3    0.30    0.13
   0   4  -3    0.41    0.13
   0  -4   3    0.37    0.12
   0  -4   3    0.27    0.13
   0  -4   3    0.33    0.09
   0  -4   3    0.33    0.12
   0  -4   3    0.38    0.15
   0  -4   3    0.42    0.12
   0  -4   3    0.33    0.13
  -1   4  -3   19.62    0.91
  -1   4  -3   19.71    0.90
  -1   4  -3   20.77    0.60
  -1   4  -3   20.98    0.78
  -1   4  -3   20.31    0.66
   1  -4   3   21.25    0.93
   1  -4   3   20.78    0.81
   1  -4   3   19.86    0.76
   1  -4   3   19.79    0.90
   1  -4   3   20.09    0.71
   1  -4   3   19.52    0.84
  -2   4  -3   17.76    0.90
  -2   4  -3   18.85    0.67
  -2   4  -3   19.64    0.94
  -2   4  -3   18.61    0.63
   2  -4   3   18.45    0.90
   2  -4   3   18.25    0.79
   2  -4   3   19.85    0.95
   2  -4   3   19.07    0.93
   2  -4   3   18.72    0.76
  -3   4  -3   29.75    1.33
  -3   4  -3   30.61    1.03
   3  -4   3   31.61    1.31
  -4   4  -3    6.44    0.40
  -4   4  -3    5.60    0.60
   4  -4   3    5.56    0.50
  -5   4  -3    0.54    0.18
   5  -4   3    0.39    0.20
   5  -4   3    0.42    0.18
  -6   4  -3   -0.01    0.13
   6  -4   3    0.00    0.17
   6  -4   3    0.28    0.15
  10   3  -3    4.92    0.59
  10   3  -3    4.38    0.58
   9   3  -3   16.20    0.93
   9   3  -3   17.18    0.94
   8   3  -3    8.28    0.60
   8   3  -3    7.61    0.57
   8   3  -3    8.77    0.38
  -8  -3   3    8.05    0.59
  -8  -3   3    9.73    0.61
  -8  -3   3    7.98    0.54
   7   3  -3    0.52    0.11
   7   3  -3    0.18    0.14
   7   3  -3    0.63    0.20
  -7  -3   3    0.37    0.14
  -7  -3   3    0.73    0.18
  -7  -3   3    0.53    0.18
  -7  -3   3    0.42    0.16
  -7  -3   3    0.38    0.15
  -7  -3   3    0.33    0.12
   6   3  -3    2.31    0.32
   6   3  -3    2.19    0.17
   6   3  -3    2.39    0.31
  -6  -3   3    2.05    0.21
  -6  -3   3    2.25    0.27
  -6  -3   3    1.90    0.26
  -6  -3   3    2.25    0.29
  -6  -3   3    2.25    0.27
  -6  -3   3    2.30    0.27
  -6  -3   3    2.20    0.26
   5   3  -3   13.07    0.60
   5   3  -3   12.70    0.63
   5   3  -3   13.16    0.62
   5   3  -3   13.18    0.46
  -5  -3   3   12.73    0.56
  -5  -3   3   13.61    0.56
  -5  -3   3   12.75    0.59
  -5  -3   3   13.10    0.48
  -5  -3   3   13.59    0.59
  -5  -3   3   12.83    0.60
  -5  -3   3   11.85    0.56
   4   3  -3    2.43    0.27
   4   3  -3    2.22    0.15
   4   3  -3    2.89    0.25
   4   3  -3    2.39    0.25
   4   3  -3    2.20    0.11
   4   3  -3    2.14    0.20
  -4  -3   3    2.05    0.14
  -4  -3   3    2.07    0.18
  -4  -3   3    2.07    0.19
  -4  -3   3    2.46    0.25
  -4  -3   3    2.24    0.20
  -4  -3   3    2.12    0.24
  -4  -3   3    2.21    0.20
   3   3  -3   12.33    0.52
   3   3  -3   12.01    0.51
   3   3  -3   12.20    0.43
   3   3  -3   11.18    0.49
   3   3  -3   11.51    0.43
   3   3  -3   11.34    0.41
   3   3  -3   11.65    0.50
  -3  -3   3   12.18    0.41
  -3  -3   3   11.31    0.50
  -3  -3   3   12.12    0.44
  -3  -3   3   12.41    0.50
  -3  -3   3   11.39    0.51
  -3  -3   3   11.76    0.50
  -3  -3   3   11.54    0.46
   2   3  -3   42.34    1.26
   2   3  -3   41.52    1.14
   2   3  -3   41.95    1.35
   2   3  -3   39.55    1.17
   2   3  -3   41.98    1.31
  -2  -3   3   39.05    1.26
  -2  -3   3   41.68    1.18
  -2  -3   3   41.88    1.30
  -2  -3   3   39.14    1.26
  -2  -3   3   41.63    1.09
  -2  -3   3   41.82    1.27
  -2  -3   3   42.16    1.35
  -2  -3   3   39.72    1.34
   1   3  -3   30.95    1.07
   1   3  -3   31.21    0.89
   1   3  -3   31.74    0.93
   1   3  -3   31.99    1.09
   1   3  -3   31.76    0.96
  -1  -3   3   30.12    1.05
  -1  -3   3   28.74    1.07
  -1  -3   3   31.08    0.88
  -1  -3   3   30.68    1.02
  -1  -3   3   30.21    1.00
  -1  -3   3   31.19    1.02
  -1  -3   3   32.03    1.09
  -1  -3   3   29.33    1.08
   0   3  -3   39.85    1.10
   0   3  -3   40.18    1.21
   0   3  -3   40.36    1.11
   0   3  -3   40.28    1.39
   0   3  -3   39.99    1.39
   0   3  -3   36.95    1.09
   0  -3   3   42.70    1.33
   0  -3   3   39.33    1.36
   0  -3   3   39.59    1.30
   0  -3   3   41.88    1.24
   0  -3   3   41.80    1.41
   0  -3   3   41.90    1.15
   0  -3   3   40.99    1.41
  -1   3  -3   20.22    0.62
  -1   3  -3   19.92    0.85
  -1   3  -3   19.47    0.64
  -1   3  -3   19.01    0.77
  -1   3  -3   20.42    0.86
   1  -3   3   20.97    0.75
   1  -3   3   19.20    0.78
   1  -3   3   20.44    0.83
   1  -3   3   19.49    0.66
   1  -3   3   20.69    0.86
  -2   3  -3   -0.02    0.08
  -2   3  -3    0.21    0.09
  -2   3  -3    0.09    0.11
  -2   3  -3    0.04    0.10
   2  -3   3    0.05    0.08
   2  -3   3   -0.01    0.09
   2  -3   3    0.03    0.10
   2  -3   3   -0.12    0.07
   2  -3   3    0.00    0.08
   2  -3   3   -0.11    0.10
   2  -3   3   -0.02    0.08
   2  -3   3    0.03    0.07
  -3   3  -3   19.97    0.95
  -3   3  -3   18.79    0.91
  -3   3  -3   18.39    0.93
  -3   3  -3   17.97    0.69
   3  -3   3   18.64    0.74
   3  -3   3   19.26    0.88
   3  -3   3   18.36    0.90
   3  -3   3   17.75    0.77
  -4   3  -3    1.69    0.31
  -4   3  -3    1.52    0.22
   4  -3   3    1.72    0.27
   4  -3   3    1.62    0.29
   4  -3   3    1.85    0.25
  -5   3  -3   39.76    1.75
  -5   3  -3   44.46    1.44
   5  -3   3   42.34    1.68
   5  -3   3   43.84    1.53
   5  -3   3   45.53    1.46
  -6   3  -3   10.92    0.59
   6  -3   3   10.88    0.58
   6  -3   3   10.52    0.63
   6  -3   3    9.86    0.70
  -7   3  -3    0.99    0.25
   7  -3   3    1.22    0.24
   7  -3   3    1.21    0.29
   7  -3   3    1.10    0.34
   9   2  -3    1.03    0.27
   9   2  -3    0.82    0.17
   9   2  -3    0.54    0.22
   8   2  -3    0.50    0.09
   8   2  -3    0.64    0.16
   8   2  -3    0.60    0.23
   8   2  -3    0.38    0.20
   7   2  -3    8.74    0.43
   7   2  -3    8.33    0.57
   7   2  -3    8.36    0.35
   7   2  -3    8.30    0.55
  -7  -2   3    8.00    0.54
  -7  -2   3    7.48    0.52
  -7  -2   3    8.74    0.57
  -7  -2   3    8.53    0.47
   6   2  -3    3.61    0.22
   6   2  -3    3.35    0.31
   6   2  -3    5.02    0.39
   6   2  -3    4.41    0.28
   6   2  -3    4.50    0.38
  -6  -2   3    4.51    0.36
  -6  -2   3    5.05    0.31
  -6  -2   3    3.66    0.33
  -6  -2   3    4.18    0.35
  -6  -2   3    3.73    0.31
  -6  -2   3    4.34    0.35
   5   2  -3   24.30    0.76
   5   2  -3   24.44    0.96
   5   2  -3   25.06    0.92
   5   2  -3   25.10    0.88
   5   2  -3   25.12    0.97
   5   2  -3   25.10    0.81
   5   2  -3   25.63    0.95
  -5  -2   3   26.40    0.84
  -5  -2   3   24.40    0.96
  -5  -2   3   23.91    0.90
  -5  -2   3   26.17    0.76
  -5  -2   3   25.33    0.88
  -5  -2   3   23.36    0.96
  -5  -2   3   22.24    0.90
  -5  -2   3   25.69    0.97
   4   2  -3   29.28    0.87
   4   2  -3   30.04    1.06
   4   2  -3   31.26    1.01
   4   2  -3   30.35    0.92
   4   2  -3   30.61    1.02
   4   2  -3   30.43    1.04
   4   2  -3   30.99    1.08
   4   2  -3   31.38    1.07
  -4  -2   3   29.00    1.07
  -4  -2   3   29.94    0.98
  -4  -2   3   30.14    1.00
  -4  -2   3   28.59    1.02
  -4  -2   3   28.48    1.05
  -4  -2   3   31.94    1.08
  -4  -2   3   29.91    0.92
  -4  -2   3   29.99    0.84
   3   2  -3    1.28    0.19
   3   2  -3    1.29    0.17
   3   2  -3    1.14    0.16
   3   2  -3    1.07    0.13
   3   2  -3    1.02    0.16
   3   2  -3    1.37    0.17
   3   2  -3    1.32    0.12
   3   2  -3    1.73    0.15
  -3  -2   3    1.47    0.13
  -3  -2   3    1.47    0.18
  -3  -2   3    1.64    0.18
  -3  -2   3    1.25    0.16
  -3  -2   3    1.31    0.17
  -3  -2   3    1.14    0.14
  -3  -2   3    1.50    0.18
  -3  -2   3    1.47    0.09
   2   2  -3    1.41    0.17
   2   2  -3    1.33    0.14
   2   2  -3    1.23    0.16
   2   2  -3    1.32    0.16
   2   2  -3    1.77    0.15
   2   2  -3    1.54    0.16
   2   2  -3    1.19    0.12
   2   2  -3    1.26    0.13
   2   2  -3    1.33    0.16
   2   2  -3    1.76    0.14
  -2  -2   3    1.96    0.13
  -2  -2   3    1.58    0.17
  -2  -2   3    1.61    0.14
  -2  -2   3    1.41    0.17
  -2  -2   3    1.11    0.14
  -2  -2   3    1.54    0.17
  -2  -2   3    1.34    0.09
  -2  -2   3    1.15    0.16
   1   2  -3    4.39    0.25
   1   2  -3    4.35    0.22
   1   2  -3    4.52    0.19
   1   2  -3    4.38    0.21
   1   2  -3    4.19    0.26
   1   2  -3    4.30    0.23
   1   2  -3    4.25    0.26
   1   2  -3    4.46    0.23
  -1  -2   3    4.52    0.19
  -1  -2   3    4.10    0.24
  -1  -2   3    4.18    0.24
  -1  -2   3    4.11    0.25
  -1  -2   3    3.96    0.25
  -1  -2   3    4.28    0.24
  -1  -2   3    4.49    0.24
  -1  -2   3    4.20    0.22
  -1  -2   3    4.56    0.25
   0   2  -3   76.63    2.22
   0   2  -3   76.72    2.00
   0   2  -3   76.66    2.08
   0   2  -3   71.83    2.09
   0   2  -3   77.82    2.37
   0   2  -3   73.35    2.21
   0   2  -3   75.13    2.35
   0  -2   3   78.13    2.36
   0  -2   3   77.87    2.30
   0  -2   3   76.25    2.02
   0  -2   3   79.55    2.25
   0  -2   3   78.08    2.09
   0  -2   3   77.36    2.23
   0  -2   3   79.13    2.38
  -1   2  -3  162.79    4.46
  -1   2  -3  160.08    4.46
  -1   2  -3  156.64    4.06
  -1   2  -3  157.61    4.25
  -1   2  -3  155.85    4.70
  -1   2  -3  160.42    4.74
   1  -2   3  156.21    4.16
   1  -2   3  158.95    4.46
   1  -2   3  160.76    4.17
   1  -2   3  155.37    4.57
   1  -2   3  156.83    4.07
   1  -2   3  158.24    4.70
  -2   2  -3   15.85    0.67
  -2   2  -3   16.04    0.57
  -2   2  -3   15.85    0.74
  -2   2  -3   15.81    0.62
  -2   2  -3   16.16    0.73
   2  -2   3   16.56    0.66
   2  -2   3   16.58    0.63
   2  -2   3   15.86    0.67
   2  -2   3   17.33    0.74
   2  -2   3   16.18    0.72
   2  -2   3   15.81    0.59
   2  -2   3   16.30    0.70
  -3   2  -3   21.03    0.97
  -3   2  -3   20.90    0.74
  -3   2  -3   19.51    0.92
  -3   2  -3   22.76    0.90
   3  -2   3   22.80    0.78
   3  -2   3   22.05    0.90
   3  -2   3   23.00    0.96
   3  -2   3   21.79    0.81
   3  -2   3   22.22    0.94
  -4   2  -3   24.14    1.03
  -4   2  -3   21.11    0.98
  -4   2  -3   19.91    0.76
  -4   2  -3   21.49    1.02
   4  -2   3   21.69    0.83
   4  -2   3   19.54    0.78
   4  -2   3   20.54    0.77
   4  -2   3   21.78    0.97
   4  -2   3   20.22    0.91
  -5   2  -3   20.73    0.80
  -5   2  -3   20.36    1.02
   5  -2   3   20.98    0.99
   5  -2   3   19.91    0.85
   5  -2   3   20.68    0.94
   5  -2   3   20.14    0.79
  -6   2  -3   12.68    0.63
   6  -2   3   12.49    0.65
   6  -2   3   12.62    0.58
   6  -2   3   11.25    0.75
  -7   2  -3    2.62    0.34
   7  -2   3    3.09    0.44
   7  -2   3    2.39    0.34
   7  -2   3    1.95    0.26
   7  -2   3    2.25    0.27
   7  -2   3    1.76    0.37
   7  -2   3    2.43    0.37
  -8   2  -3    3.48    0.42
   8  -2   3    2.77    0.45
   8  -2   3    2.77    0.48
   8  -2   3    3.01    0.24
   8  -2   3    3.23    0.24
   8  -2   3    2.91    0.37
   9   1  -3    2.82    0.23
   9   1  -3    3.03    0.46
   9   1  -3    2.62    0.25
   9   1  -3    2.48    0.32
   9   1  -3    2.55    0.43
   8   1  -3    7.08    0.57
   8   1  -3    7.08    0.46
   8   1  -3    7.28    0.57
   8   1  -3    7.90    0.41
   7   1  -3    0.40    0.19
   7   1  -3    0.42    0.13
   7   1  -3    0.27    0.13
   7   1  -3    0.37    0.17
  -7  -1   3    0.24    0.19
  -7  -1   3    0.58    0.14
   6   1  -3    8.90    0.30
   6   1  -3    9.31    0.47
   6   1  -3    8.71    0.56
   6   1  -3    8.91    0.43
   6   1  -3    7.56    0.53
   6   1  -3   10.60    0.58
  -6  -1   3    9.18    0.58
  -6  -1   3   10.90    0.59
  -6  -1   3   10.22    0.45
  -6  -1   3    9.88    0.58
  -6  -1   3    9.79    0.49
   5   1  -3    5.16    0.37
   5   1  -3    4.31    0.27
   5   1  -3    4.30    0.21
   5   1  -3    4.63    0.35
   5   1  -3    4.60    0.32
   5   1  -3    4.41    0.34
   5   1  -3    4.53    0.29
   5   1  -3    3.95    0.33
  -5  -1   3    4.23    0.31
  -5  -1   3    4.75    0.34
  -5  -1   3    4.70    0.36
  -5  -1   3    4.96    0.37
  -5  -1   3    4.66    0.34
  -5  -1   3    4.16    0.28
  -5  -1   3    4.58    0.36
  -5  -1   3    4.45    0.26
   4   1  -3    1.92    0.24
   4   1  -3    2.03    0.20
   4   1  -3    1.79    0.14
   4   1  -3    1.72    0.18
   4   1  -3    1.92    0.23
   4   1  -3    1.51    0.21
   4   1  -3    2.31    0.26
   4   1  -3    1.85    0.21
   4   1  -3    2.30    0.25
  -4  -1   3    2.05    0.24
  -4  -1   3    1.89    0.23
  -4  -1   3    2.25    0.23
  -4  -1   3    1.93    0.15
  -4  -1   3    2.26    0.26
  -4  -1   3    2.63    0.22
  -4  -1   3    2.16    0.18
  -4  -1   3    1.78    0.22
   3   1  -3   48.38    1.39
   3   1  -3   51.45    1.48
   3   1  -3   47.14    1.50
   3   1  -3   51.09    1.61
   3   1  -3   48.31    1.35
   3   1  -3   48.95    1.51
   3   1  -3   51.62    1.62
   3   1  -3   49.22    1.42
   3   1  -3   52.91    1.61
  -3  -1   3   48.32    1.61
  -3  -1   3   49.48    1.34
  -3  -1   3   48.99    1.61
  -3  -1   3   48.60    1.45
  -3  -1   3   50.78    1.52
  -3  -1   3   51.80    1.62
  -3  -1   3   52.22    1.42
  -3  -1   3   48.02    1.47
   2   1  -3   23.34    0.84
   2   1  -3   25.35    0.85
   2   1  -3   25.23    0.83
   2   1  -3   24.82    0.79
   2   1  -3   25.72    0.73
   2   1  -3   24.01    0.78
   2   1  -3   26.38    0.71
   2   1  -3   24.66    0.70
   2   1  -3   23.15    0.80
   2   1  -3   24.81    0.73
   2   1  -3   24.89    0.75
   2   1  -3   24.48    0.77
  -2  -1   3   24.12    0.79
  -2  -1   3   23.00    0.84
  -2  -1   3   25.22    0.85
  -2  -1   3   21.94    0.83
  -2  -1   3   25.28    0.73
  -2  -1   3   24.30    0.78
  -2  -1   3   24.33    0.68
  -2  -1   3   22.08    0.73
   1   1  -3    2.24    0.15
   1   1  -3    1.97    0.15
   1   1  -3    2.13    0.11
   1   1  -3    2.02    0.15
   1   1  -3    2.09    0.17
   1   1  -3    2.02    0.13
   1   1  -3    1.80    0.15
   1   1  -3    2.21    0.13
   1   1  -3    2.21    0.11
   1   1  -3    2.21    0.14
   1   1  -3    2.10    0.14
   1   1  -3    2.11    0.15
   1   1  -3    2.40    0.16
   1   1  -3    2.24    0.13
   1   1  -3    2.17    0.17
  -1  -1   3    2.07    0.12
  -1  -1   3    2.09    0.15
  -1  -1   3    2.33    0.18
  -1  -1   3    2.15    0.16
  -1  -1   3    2.29    0.15
  -1  -1   3    2.30    0.16
  -1  -1   3    1.90    0.15
  -1  -1   3    1.70    0.13
  -1  -1   3    2.15    0.15
  -1  -1   3    2.09    0.13
  -1  -1   3    1.76    0.16
   0   1  -3   17.55    0.52
   0   1  -3   18.32    0.60
   0   1  -3   17.62    0.64
   0   1  -3   17.66    0.57
   0   1  -3   18.08    0.56
   0   1  -3   18.11    0.65
   0   1  -3   17.28    0.59
   0   1  -3   18.00    0.65
   0   1  -3   17.47    0.56
   0   1  -3   18.27    0.57
   0  -1   3   18.03    0.52
   0  -1   3   17.90    0.57
   0  -1   3   18.22    0.62
   0  -1   3   17.22    0.59
   0  -1   3   18.03    0.56
   0  -1   3   17.79    0.57
   0  -1   3   18.18    0.65
   0  -1   3   18.06    0.57
   0  -1   3   18.71    0.66
   0  -1   3   17.53    0.55
   0  -1   3   17.34    0.56
  -1   1  -3  261.24    6.53
  -1   1  -3  249.93    6.78
  -1   1  -3  249.99    6.42
  -1   1  -3  257.04    6.99
  -1   1  -3  257.75    6.53
  -1   1  -3  249.53    7.37
  -1   1  -3  252.16    6.57
  -1   1  -3  251.80    7.34
   1  -1   3  261.53    7.00
   1  -1   3  257.42    7.37
   1  -1   3  251.37    7.34
   1  -1   3  249.35    7.15
   1  -1   3  262.67    6.56
   1  -1   3  254.24    6.42
   1  -1   3  261.48    6.53
   1  -1   3  250.40    6.98
  -2   1  -3   68.34    1.81
  -2   1  -3   65.45    2.01
  -2   1  -3   69.16    2.02
  -2   1  -3   66.74    2.15
  -2   1  -3   65.34    2.12
   2  -1   3   66.59    2.00
   2  -1   3   68.47    1.85
   2  -1   3   67.55    1.87
   2  -1   3   68.79    2.13
   2  -1   3   64.42    1.83
   2  -1   3   67.31    2.12
   2  -1   3   66.64    1.99
   2  -1   3   68.27    2.06
  -3   1  -3   33.38    1.24
  -3   1  -3   36.04    1.30
  -3   1  -3   34.45    1.02
  -3   1  -3   33.42    1.17
  -3   1  -3   34.32    1.18
   3  -1   3   33.98    1.03
   3  -1   3   34.69    1.24
   3  -1   3   36.39    1.26
   3  -1   3   31.55    0.95
   3  -1   3   33.56    1.07
   3  -1   3   35.21    1.20
   3  -1   3   35.12    1.06
  -4   1  -3    0.19    0.12
  -4   1  -3    0.26    0.14
  -4   1  -3    0.40    0.17
  -4   1  -3    0.04    0.08
  -4   1  -3    0.24    0.12
  -4   1  -3    0.11    0.09
   4  -1   3    0.29    0.13
   4  -1   3    0.27    0.10
   4  -1   3    0.42    0.14
   4  -1   3    0.24    0.10
   4  -1   3    0.35    0.11
  -5   1  -3   15.13    0.79
  -5   1  -3   15.39    0.75
  -5   1  -3   15.06    0.83
  -5   1  -3   15.10    0.63
  -5   1  -3   15.93    0.82
   5  -1   3   15.40    0.59
   5  -1   3   15.81    0.68
   5  -1   3   15.50    0.66
   5  -1   3   14.78    0.78
   5  -1   3   15.74    0.61
   5  -1   3   14.76    0.66
   5  -1   3   15.84    0.77
  -6   1  -3    1.47    0.22
  -6   1  -3    1.19    0.28
   6  -1   3    1.17    0.17
   6  -1   3    1.46    0.23
   6  -1   3    1.16    0.18
   6  -1   3    1.83    0.34
   6  -1   3    1.72    0.28
  -7   1  -3    3.13    0.34
   7  -1   3    2.39    0.22
   7  -1   3    2.68    0.35
   7  -1   3    2.47    0.30
   7  -1   3    2.55    0.21
   7  -1   3    1.98    0.37
   7  -1   3    3.19    0.41
   8  -1   3    2.54    0.44
   8  -1   3    2.37    0.31
   8  -1   3    2.21    0.35
   8  -1   3    2.20    0.37
   9   0  -3    1.45    0.23
   9   0  -3    1.11    0.34
   9   0  -3    1.15    0.32
  -9   0   3    1.40    0.27
   8   0  -3    0.42    0.21
   8   0  -3    0.02    0.17
   8   0  -3    0.16    0.16
   8   0  -3    0.61    0.22
  -8   0   3    0.40    0.17
   7   0  -3    4.77    0.36
   7   0  -3    3.91    0.40
   7   0  -3    4.67    0.27
   7   0  -3    4.23    0.26
   7   0  -3    5.21    0.46
   7   0  -3    3.98    0.47
  -7   0   3    5.08    0.37
   6   0  -3   20.93    0.72
   6   0  -3   20.71    0.85
   6   0  -3   21.64    0.81
   6   0  -3   21.95    0.74
   6   0  -3   19.87    0.93
   6   0  -3   20.03    0.93
   6   0  -3   20.63    0.99
  -6   0   3   21.71    0.80
  -6   0   3   20.51    0.98
  -6   0   3   20.45    1.01
   5   0  -3    0.91    0.20
   5   0  -3    0.62    0.12
   5   0  -3    0.62    0.17
   5   0  -3    0.81    0.15
   5   0  -3    0.62    0.16
   5   0  -3    0.61    0.18
   5   0  -3    0.81    0.12
   5   0  -3    0.89    0.19
  -5   0   3    0.91    0.20
  -5   0   3    0.80    0.15
  -5   0   3    0.49    0.16
  -5   0   3    0.89    0.19
  -5   0   3    0.75    0.15
   4   0  -3   56.53    1.91
   4   0  -3   57.24    1.92
   4   0  -3   56.39    1.65
   4   0  -3   57.15    1.80
   4   0  -3   56.17    1.60
   4   0  -3   55.81    1.72
   4   0  -3   58.97    1.94
   4   0  -3   53.10    1.76
   4   0  -3   55.75    1.69
   4   0  -3   58.76    1.70
  -4   0   3   57.35    1.61
  -4   0   3   55.78    1.93
  -4   0   3   57.86    1.70
  -4   0   3   57.63    1.82
  -4   0   3   56.64    1.68
  -4   0   3   60.32    1.95
  -4   0   3   56.34    1.92
  -4   0   3   57.07    1.69
   3   0  -3   29.61    0.88
   3   0  -3   27.61    1.02
   3   0  -3   28.23    0.85
   3   0  -3   28.29    0.78
   3   0  -3   27.85    0.96
   3   0  -3   28.99    0.89
   3   0  -3   28.61    1.04
   3   0  -3   27.76    0.95
   3   0  -3   27.55    1.04
   3   0  -3   28.33    0.91
   3   0  -3   29.57    0.94
  -3   0   3   27.79    1.03
  -3   0   3   26.76    0.96
  -3   0   3   27.81    0.84
  -3   0   3   28.63    0.91
  -3   0   3   27.69    1.03
  -3   0   3   28.00    0.89
  -3   0   3   26.81    0.93
  -3   0   3   28.06    0.92
   2   0  -3   61.92    1.72
   2   0  -3   60.24    1.62
   2   0  -3   62.13    1.88
   2   0  -3   60.72    1.88
   2   0  -3   58.65    1.66
   2   0  -3   59.43    1.73
   2   0  -3   61.47    1.69
   2   0  -3   60.36    1.65
   2   0  -3   59.03    1.75
   2   0  -3   60.00    1.72
   2   0  -3   61.47    1.77
   2   0  -3   60.61    1.57
   2   0  -3   60.31    1.88
   2   0  -3   58.36    1.64
  -2   0   3   59.46    1.59
  -2   0   3   58.99    1.69
  -2   0   3   59.92    1.65
  -2   0   3   59.22    1.87
  -2   0   3   57.80    1.76
  -2   0   3   55.68    1.67
  -2   0   3   60.35    1.88
  -2   0   3   61.52    1.88
   1   0  -3   75.78    2.11
   1   0  -3   80.51    2.38
   1   0  -3   78.81    2.12
   1   0  -3   79.04    2.12
   1   0  -3   80.50    2.10
   1   0  -3   75.98    2.08
   1   0  -3   80.50    2.19
   1   0  -3   77.80    2.14
   1   0  -3   79.57    2.37
   1   0  -3   79.73    2.17
   1   0  -3   78.96    2.24
   1   0  -3   81.50    2.37
   1   0  -3   79.27    2.21
  -1   0   3   78.57    2.37
  -1   0   3   81.66    2.10
  -1   0   3   79.09    2.13
  -1   0   3   77.86    2.11
  -1   0   3   78.84    2.10
  -1   0   3   78.08    2.37
  -1   0   3   82.65    2.38
  -1   0   3   79.69    2.09
  -1   0   3   79.72    2.12
  -1   0   3   75.06    2.24
  -1   0   3   81.39    2.19
  -1   0   3   81.33    2.05
   0   0  -3   -0.11    0.03
   0   0  -3   -0.05    0.06
   0   0  -3   -0.24    0.05
   0   0  -3   -0.07    0.07
   0   0  -3    0.00    0.06
   0   0  -3   -0.07    0.07
   0   0  -3   -0.03    0.06
   0   0  -3   -0.13    0.05
   0   0  -3   -0.01    0.05
   0   0  -3   -0.04    0.05
   0   0  -3    0.00    0.05
   0   0  -3   -0.01    0.06
   0   0   3    0.04    0.06
   0   0   3   -0.09    0.07
   0   0   3   -0.03    0.06
   0   0   3   -0.01    0.06
   0   0   3   -0.07    0.04
   0   0   3   -0.13    0.05
   0   0   3   -0.07    0.06
   0   0   3   -0.04    0.05
   0   0   3   -0.03    0.07
   0   0   3   -0.04    0.06
  -1   0  -3   10.87    0.40
  -1   0  -3   11.38    0.39
  -1   0  -3   10.64    0.40
  -1   0  -3   10.81    0.35
  -1   0  -3   11.67    0.38
  -1   0  -3   11.39    0.37
  -1   0  -3   11.20    0.40
  -1   0  -3   11.40    0.44
  -1   0  -3   11.18    0.35
   1   0   3   11.71    0.39
   1   0   3   11.42    0.36
   1   0   3   11.18    0.35
   1   0   3   11.07    0.37
   1   0   3   11.26    0.38
   1   0   3   10.80    0.40
   1   0   3   11.15    0.43
   1   0   3   12.02    0.45
   1   0   3   10.36    0.39
  -2   0  -3   11.39    0.49
  -2   0  -3   11.70    0.46
  -2   0  -3   11.83    0.44
  -2   0  -3   12.19    0.38
  -2   0  -3   12.24    0.46
  -2   0  -3   11.95    0.49
   2   0   3   12.27    0.37
   2   0   3   11.74    0.39
   2   0   3   12.49    0.42
   2   0   3   11.55    0.39
   2   0   3   12.27    0.42
   2   0   3   11.85    0.43
   2   0   3   11.98    0.49
  -3   0  -3  111.36    3.36
  -3   0  -3  104.85    3.15
  -3   0  -3  108.45    2.85
  -3   0  -3  106.45    3.32
  -3   0  -3  110.86    3.15
   3   0   3  108.88    2.87
   3   0   3  106.58    2.91
   3   0   3  110.88    2.92
   3   0   3  112.69    3.31
   3   0   3  110.89    2.88
   3   0   3  112.52    2.95
   3   0   3  116.14    3.33
  -4   0  -3  115.59    3.44
  -4   0  -3  113.47    3.61
  -4   0  -3  122.63    3.63
  -4   0  -3  117.99    3.67
  -4   0  -3  118.02    3.09
  -4   0  -3  118.24    3.43
   4   0   3  118.75    3.09
   4   0   3  123.63    3.18
   4   0   3  120.45    3.58
   4   0   3  112.80    3.45
   4   0   3  113.45    3.15
   4   0   3  119.08    3.09
   4   0   3  119.20    3.62
   4   0   3  118.32    3.20
   4   0   3  118.23    3.16
  -5   0  -3   24.88    1.04
  -5   0  -3   25.47    0.83
  -5   0  -3   24.35    1.08
  -5   0  -3   27.57    1.08
  -5   0  -3   24.32    0.98
  -5   0  -3   25.46    1.00
   5   0   3   24.76    0.77
   5   0   3   25.30    0.99
   5   0   3   24.93    1.03
   5   0   3   26.37    0.88
   5   0   3   25.53    0.96
   5   0   3   23.76    0.84
   5   0   3   25.58    0.86
   5   0   3   24.74    0.76
  -6   0  -3   12.58    0.56
  -6   0  -3   13.74    0.71
  -6   0  -3   13.53    0.77
  -6   0  -3   11.85    0.69
   6   0   3   13.72    0.67
   6   0   3   13.27    0.56
   6   0   3   13.40    0.44
   6   0   3   12.88    0.43
   6   0   3   12.39    0.56
   6   0   3   13.68    0.61
   6   0   3   12.57    0.71
   6   0   3   12.81    0.60
  -7   0  -3    0.10    0.12
   7   0   3    0.11    0.12
   7   0   3    0.19    0.12
   7   0   3    0.12    0.17
   7   0   3    0.55    0.19
   7   0   3    0.02    0.13
   8   0   3    0.34    0.14
   8   0   3    0.34    0.21
   8   0   3    0.27    0.14
   8   0   3    0.38    0.18
   8   0   3    0.19    0.18
   9   0   3    0.94    0.17
   9   0   3    1.09    0.29
   9   0   3    1.09    0.18
   9   0   3    1.16    0.30
   9   0   3    0.71    0.27
   8  -1  -3    0.64    0.14
   8  -1  -3    0.66    0.26
   8  -1  -3    0.63    0.14
   8  -1  -3    0.55    0.20
   8  -1  -3    0.63    0.23
   8  -1  -3    0.55    0.25
  -8   1   3    0.66    0.21
   7  -1  -3    6.24    0.52
   7  -1  -3    6.97    0.40
   7  -1  -3    5.97    0.60
   7  -1  -3    6.34    0.37
   7  -1  -3    6.14    0.43
   7  -1  -3    6.37    0.48
  -7   1   3    5.73    0.42
   6  -1  -3   17.83    0.81
   6  -1  -3   17.39    0.88
   6  -1  -3   17.22    0.88
   6  -1  -3   18.13    0.70
   6  -1  -3   17.95    0.77
  -6   1   3   18.81    0.75
  -6   1   3   16.65    0.93
   5  -1  -3    6.80    0.48
   5  -1  -3    6.98    0.38
   5  -1  -3    6.60    0.26
   5  -1  -3    6.40    0.40
   5  -1  -3    6.61    0.47
   5  -1  -3    5.81    0.49
   5  -1  -3    6.65    0.43
   5  -1  -3    6.79    0.39
   5  -1  -3    7.73    0.51
  -5   1   3    7.14    0.52
  -5   1   3    6.56    0.49
  -5   1   3    7.02    0.39
  -5   1   3    6.55    0.51
   4  -1  -3    6.78    0.46
   4  -1  -3    6.65    0.47
   4  -1  -3    6.26    0.37
   4  -1  -3    6.95    0.41
   4  -1  -3    6.45    0.35
   4  -1  -3    7.11    0.37
  -4   1   3    6.49    0.45
  -4   1   3    6.98    0.47
  -4   1   3    6.17    0.42
  -4   1   3    6.22    0.45
  -4   1   3    6.61    0.35
  -4   1   3    7.04    0.40
   3  -1  -3   26.85    0.91
   3  -1  -3   25.75    1.03
   3  -1  -3   25.17    0.87
   3  -1  -3   27.32    0.92
   3  -1  -3   26.63    0.90
   3  -1  -3   26.52    0.85
   3  -1  -3   25.94    1.03
   3  -1  -3   26.26    1.04
  -3   1   3   25.61    0.82
  -3   1   3   26.24    1.03
  -3   1   3   26.54    1.03
  -3   1   3   26.65    0.97
  -3   1   3   26.64    0.90
  -3   1   3   25.78    1.03
  -3   1   3   25.60    0.87
   2  -1  -3    2.86    0.25
   2  -1  -3    2.81    0.22
   2  -1  -3    3.01    0.26
   2  -1  -3    2.65    0.19
   2  -1  -3    3.17    0.22
   2  -1  -3    2.79    0.20
   2  -1  -3    2.73    0.20
   2  -1  -3    2.97    0.23
   2  -1  -3    3.11    0.21
   2  -1  -3    3.09    0.25
   2  -1  -3    3.15    0.23
  -2   1   3    3.01    0.22
  -2   1   3    2.79    0.24
  -2   1   3    3.02    0.18
  -2   1   3    2.82    0.20
  -2   1   3    2.73    0.19
  -2   1   3    2.73    0.24
  -2   1   3    2.74    0.22
  -2   1   3    2.85    0.25
  -2   1   3    2.90    0.21
   1  -1  -3   47.43    1.52
   1  -1  -3   48.61    1.41
   1  -1  -3   47.60    1.35
   1  -1  -3   47.38    1.44
   1  -1  -3   45.97    1.35
   1  -1  -3   48.65    1.34
   1  -1  -3   47.65    1.32
   1  -1  -3   45.78    1.35
   1  -1  -3   48.08    1.34
  -1   1   3   50.20    1.44
  -1   1   3   49.46    1.53
  -1   1   3   50.25    1.35
  -1   1   3   46.85    1.52
  -1   1   3   47.59    1.52
  -1   1   3   48.21    1.29
  -1   1   3   47.72    1.35
  -1   1   3   46.40    1.34
  -1   1   3   48.84    1.37
   0  -1  -3    1.84    0.14
   0  -1  -3    1.59    0.13
   0  -1  -3    1.82    0.12
   0  -1  -3    1.87    0.12
   0  -1  -3    1.81    0.15
   0  -1  -3    1.75    0.14
   0  -1  -3    1.64    0.15
   0  -1  -3    1.87    0.12
   0  -1  -3    1.80    0.13
   0  -1  -3    1.63    0.12
   0  -1  -3    1.71    0.12
   0   1   3    1.69    0.16
   0   1   3    1.88    0.13
   0   1   3    1.72    0.15
   0   1   3    1.94    0.12
   0   1   3    1.89    0.09
   0   1   3    1.73    0.12
   0   1   3    1.54    0.13
   0   1   3    1.98    0.12
   0   1   3    1.78    0.14
   0   1   3    2.02    0.13
   0   1   3    1.77    0.13
  -1  -1  -3  115.74    2.99
  -1  -1  -3  116.10    3.34
  -1  -1  -3  113.87    2.94
  -1  -1  -3  116.64    3.35
  -1  -1  -3  112.90    3.17
  -1  -1  -3  113.32    3.15
  -1  -1  -3  114.41    3.17
   1   1   3  114.03    2.99
   1   1   3  119.06    3.34
   1   1   3  119.19    2.95
   1   1   3  118.84    2.96
   1   1   3  114.48    3.17
  -2  -1  -3  163.97    4.75
  -2  -1  -3  162.28    4.25
  -2  -1  -3  168.16    4.52
  -2  -1  -3  162.65    4.34
  -2  -1  -3  164.95    4.52
   2   1   3  161.39    4.55
   2   1   3  162.86    4.18
   2   1   3  170.32    4.34
   2   1   3  168.16    4.75
   2   1   3  169.59    4.19
  -3  -1  -3   27.32    0.94
  -3  -1  -3   29.10    0.86
  -3  -1  -3   29.35    0.90
  -3  -1  -3   27.74    0.96
  -3  -1  -3   28.88    0.89
   3   1   3   27.78    0.88
   3   1   3   28.81    0.79
   3   1   3   30.72    0.96
   3   1   3   28.18    0.80
   3   1   3   26.45    0.78
   3   1   3   26.70    0.95
  -4  -1  -3   40.04    1.31
  -4  -1  -3   38.50    1.24
  -4  -1  -3   36.77    1.29
  -4  -1  -3   39.79    1.34
  -4  -1  -3   39.63    1.23
  -4  -1  -3   39.44    1.04
   4   1   3   37.83    1.08
   4   1   3   36.99    1.29
   4   1   3   38.03    1.12
   4   1   3   38.71    1.30
   4   1   3   39.13    1.12
   4   1   3   38.30    1.08
   4   1   3   39.24    1.22
  -5  -1  -3    3.36    0.30
  -5  -1  -3    3.23    0.28
  -5  -1  -3    3.82    0.30
  -5  -1  -3    3.06    0.29
  -5  -1  -3    3.24    0.19
  -5  -1  -3    3.16    0.27
   5   1   3    2.93    0.19
   5   1   3    3.38    0.27
   5   1   3    2.91    0.21
   5   1   3    3.34    0.22
   5   1   3    3.04    0.20
   5   1   3    3.88    0.33
   5   1   3    3.07    0.23
  -6  -1  -3    1.10    0.22
  -6  -1  -3    0.74    0.21
  -6  -1  -3    0.54    0.19
  -6  -1  -3    0.81    0.19
   6   1   3    1.02    0.18
   6   1   3    1.11    0.14
   6   1   3    1.05    0.21
   6   1   3    1.14    0.24
   6   1   3    0.78    0.14
   6   1   3    0.92    0.14
  -7  -1  -3    5.99    0.48
  -7  -1  -3    5.75    0.46
  -7  -1  -3    6.04    0.50
   7   1   3    5.96    0.29
   7   1   3    5.99    0.48
   7   1   3    5.75    0.44
   7   1   3    5.62    0.35
   7   1   3    5.72    0.28
   8   1   3   17.93    0.99
   8   1   3   19.68    0.64
   8   1   3   20.64    0.80
   8   1   3   20.53    0.97
   8   1   3   20.56    0.65
   9   1   3    3.78    0.31
   9   1   3    3.16    0.44
   9   1   3    2.53    0.44
   8  -2  -3    1.05    0.34
   8  -2  -3    1.35    0.33
   8  -2  -3    0.60    0.21
   8  -2  -3    0.92    0.19
  -8   2   3    1.29    0.28
   7  -2  -3   -0.37    0.09
   7  -2  -3    0.00    0.16
   7  -2  -3   -0.06    0.13
   7  -2  -3   -0.18    0.15
   7  -2  -3   -0.01    0.15
  -7   2   3    0.19    0.15
   6  -2  -3    1.51    0.25
   6  -2  -3    1.01    0.24
   6  -2  -3    0.91    0.21
   6  -2  -3    1.17    0.29
   6  -2  -3    1.04    0.24
   6  -2  -3    1.79    0.32
   6  -2  -3    1.41    0.12
  -6   2   3    1.02    0.22
   5  -2  -3    0.08    0.12
   5  -2  -3   -0.04    0.10
   5  -2  -3   -0.07    0.10
   5  -2  -3    0.00    0.13
  -5   2   3    0.07    0.14
  -5   2   3    0.08    0.12
   4  -2  -3   33.12    1.18
   4  -2  -3   33.06    1.14
   4  -2  -3   31.12    1.33
   4  -2  -3   30.97    1.15
   4  -2  -3   32.78    1.09
  -4   2   3   31.93    1.32
  -4   2   3   31.13    1.14
  -4   2   3   32.22    1.34
  -4   2   3   34.39    1.36
  -4   2   3   32.34    1.06
   3  -2  -3   51.23    1.75
   3  -2  -3   53.33    1.68
   3  -2  -3   57.15    1.77
   3  -2  -3   56.40    1.62
   3  -2  -3   57.07    1.91
   3  -2  -3   55.08    1.93
   3  -2  -3   52.51    1.64
   3  -2  -3   55.49    1.92
   3  -2  -3   56.22    1.71
  -3   2   3   55.41    1.67
  -3   2   3   51.57    1.78
  -3   2   3   56.41    1.65
  -3   2   3   55.13    1.91
  -3   2   3   54.38    1.91
  -3   2   3   53.89    1.91
  -3   2   3   51.61    1.55
   2  -2  -3   14.55    0.57
   2  -2  -3   15.39    0.68
   2  -2  -3   12.87    0.59
   2  -2  -3   15.13    0.56
   2  -2  -3   15.40    0.69
   2  -2  -3   15.15    0.62
   2  -2  -3   14.73    0.69
   2  -2  -3   13.63    0.58
  -2   2   3   14.56    0.52
  -2   2   3   14.77    0.55
  -2   2   3   14.40    0.67
  -2   2   3   15.52    0.63
  -2   2   3   14.37    0.67
  -2   2   3   14.47    0.58
  -2   2   3   15.67    0.58
  -2   2   3   14.28    0.66
   1  -2  -3    2.01    0.23
   1  -2  -3    2.42    0.18
   1  -2  -3    2.09    0.18
   1  -2  -3    2.25    0.17
   1  -2  -3    2.27    0.25
   1  -2  -3    2.35    0.23
   1  -2  -3    2.15    0.20
   1  -2  -3    2.16    0.21
  -1   2   3    1.67    0.16
  -1   2   3    2.04    0.23
  -1   2   3    2.02    0.14
  -1   2   3    2.33    0.19
  -1   2   3    2.39    0.20
  -1   2   3    2.36    0.25
  -1   2   3    2.04    0.19
  -1   2   3    1.92    0.16
   0  -2  -3   17.63    0.56
   0  -2  -3   17.00    0.57
   0  -2  -3   16.64    0.65
   0  -2  -3   17.17    0.64
   0  -2  -3   16.92    0.55
   0  -2  -3   17.89    0.65
   0  -2  -3   17.45    0.64
   0  -2  -3   17.28    0.60
   0  -2  -3   16.42    0.56
   0   2   3   17.25    0.52
   0   2   3   16.79    0.64
   0   2   3   17.59    0.62
   0   2   3   18.31    0.65
   0   2   3   17.13    0.52
   0   2   3   16.33    0.54
   0   2   3   17.69    0.55
  -1  -2  -3   29.36    0.91
  -1  -2  -3   29.29    0.93
  -1  -2  -3   30.84    0.87
   1   2   3   31.16    0.82
   1   2   3   32.29    0.98
   1   2   3   32.92    0.96
   1   2   3   31.16    0.82
  -3  -2  -3    0.78    0.07
  -3  -2  -3    0.96    0.08
  -3  -2  -3    1.12    0.08
  -3  -2  -3    1.07    0.10
  -3  -2  -3    1.15    0.10
  -3  -2  -3    1.05    0.08
   3   2   3    1.02    0.11
   3   2   3    1.13    0.10
   3   2   3    1.16    0.14
   3   2   3    1.25    0.17
  -4  -2  -3    3.50    0.21
  -4  -2  -3    3.32    0.21
  -4  -2  -3    3.24    0.17
  -4  -2  -3    3.54    0.20
  -4  -2  -3    3.46    0.20
  -4  -2  -3    3.31    0.21
   4   2   3    3.52    0.28
   4   2   3    3.14    0.17
   4   2   3    3.19    0.20
   4   2   3    3.82    0.25
  -5  -2  -3   16.17    0.63
  -5  -2  -3   14.00    0.59
  -5  -2  -3   13.97    0.64
  -5  -2  -3   15.00    0.59
  -5  -2  -3   14.46    0.61
   5   2   3   15.05    0.47
   5   2   3   15.55    0.64
   5   2   3   15.63    0.53
   5   2   3   15.40    0.48
   5   2   3   15.65    0.62
   5   2   3   13.69    0.67
  -6  -2  -3   21.01    0.83
  -6  -2  -3   19.82    0.89
  -6  -2  -3   21.64    0.83
  -6  -2  -3   20.59    0.84
  -6  -2  -3   21.92    0.86
   6   2   3   20.44    0.91
   6   2   3   21.64    0.73
   6   2   3   20.96    0.85
   6   2   3   20.10    0.65
   6   2   3   21.46    0.67
  -7  -2  -3   13.24    0.66
  -7  -2  -3   11.54    0.68
  -7  -2  -3   13.38    0.67
   7   2   3   11.43    0.69
   7   2   3   13.92    0.49
   7   2   3   12.92    0.67
  -8  -2  -3    5.72    0.46
  -8  -2  -3    5.58    0.52
   8   2   3    5.48    0.58
   8   2   3    4.61    0.48
   8   2   3    4.72    0.28
   9   2   3    2.40    0.38
   9   2   3    2.31    0.41
  10   2   3    0.55    0.25
   7  -3  -3    4.61    0.39
   7  -3  -3    4.23    0.57
   7  -3  -3    4.82    0.56
   7  -3  -3    4.25    0.57
  -7   3   3    5.35    0.43
   6  -3  -3    0.40    0.17
   6  -3  -3    0.22    0.17
   6  -3  -3    0.32    0.17
  -6   3   3    0.14    0.15
   5  -3  -3    3.78    0.38
   5  -3  -3    4.07    0.45
   5  -3  -3    4.61    0.47
  -5   3   3    3.37    0.48
  -5   3   3    3.68    0.35
   4  -3  -3    4.99    0.36
   4  -3  -3    4.69    0.40
   4  -3  -3    4.85    0.38
   4  -3  -3    4.46    0.44
  -4   3   3    4.54    0.43
  -4   3   3    4.33    0.31
   3  -3  -3   54.98    1.69
   3  -3  -3   56.12    2.01
   3  -3  -3   54.46    1.77
   3  -3  -3   57.02    1.89
   3  -3  -3   57.83    2.05
   3  -3  -3   55.38    1.74
  -3   3   3   55.31    2.01
  -3   3   3   55.01    1.62
  -3   3   3   56.75    1.75
  -3   3   3   54.11    1.99
   2  -3  -3   46.05    1.61
   2  -3  -3   44.43    1.62
   2  -3  -3   45.46    1.36
   2  -3  -3   44.04    1.39
   2  -3  -3   44.75    1.52
  -2   3   3   42.37    1.38
  -2   3   3   43.33    1.60
  -2   3   3   44.39    1.50
  -2   3   3   44.50    1.61
  -2   3   3   43.89    1.28
  -2   3   3   42.68    1.58
  -2   3   3   43.87    1.34
   1  -3  -3   61.43    1.77
   1  -3  -3   60.69    2.02
   1  -3  -3   59.85    1.77
   1  -3  -3   60.12    2.03
   1  -3  -3   61.22    1.96
   1  -3  -3   61.09    1.79
   1  -3  -3   63.18    1.74
   1  -3  -3   62.35    1.90
   1  -3  -3   61.76    2.02
  -1   3   3   62.14    2.03
  -1   3   3   59.79    1.63
  -1   3   3   62.14    1.72
  -1   3   3   59.65    2.01
  -1   3   3   62.70    1.76
  -1   3   3   59.05    1.75
  -1   3   3   61.69    2.00
   0  -3  -3   68.43    2.13
   0  -3  -3   66.61    2.13
   0  -3  -3   66.32    1.91
   0  -3  -3   66.75    2.10
   0  -3  -3   66.98    1.88
   0  -3  -3   67.10    2.01
   0  -3  -3   68.41    2.15
   0  -3  -3   65.37    1.87
   0   3   3   68.91    2.13
   0   3   3   67.06    1.85
   0   3   3   68.91    2.13
   0   3   3   69.94    1.86
   0   3   3   67.47    2.09
  -1  -3  -3   33.65    1.11
  -1  -3  -3   33.99    0.96
  -1  -3  -3   35.20    1.12
  -1  -3  -3   34.66    1.03
  -1  -3  -3   33.92    1.05
  -1  -3  -3   33.35    1.16
  -1  -3  -3   33.21    1.11
   1   3   3   34.38    1.11
   1   3   3   34.49    0.93
   1   3   3   32.75    0.92
  -2  -3  -3    0.71    0.12
  -2  -3  -3    0.60    0.08
  -2  -3  -3    0.57    0.06
  -2  -3  -3    0.50    0.08
   2   3   3    0.66    0.09
   2   3   3    0.70    0.13
   2   3   3    0.58    0.09
  -3  -3  -3   26.58    0.78
   3   3   3   25.41    0.91
  -4  -3  -3   21.36    0.68
  -4  -3  -3   23.04    0.63
  -4  -3  -3   22.50    0.66
   4   3   3   21.71    0.85
  -5  -3  -3    3.42    0.20
  -5  -3  -3    3.39    0.20
  -5  -3  -3    3.22    0.20
  -5  -3  -3    2.77    0.19
  -5  -3  -3    3.05    0.20
  -5  -3  -3    3.67    0.22
   5   3   3    2.64    0.31
   5   3   3    3.59    0.28
   5   3   3    3.17    0.20
   5   3   3    3.66    0.21
  -6  -3  -3    4.31    0.29
  -6  -3  -3    4.47    0.28
  -6  -3  -3    4.13    0.31
  -6  -3  -3    4.72    0.29
  -6  -3  -3    4.66    0.28
   6   3   3    4.63    0.38
   6   3   3    4.87    0.35
   6   3   3    4.83    0.26
  -7  -3  -3    6.03    0.42
  -7  -3  -3    6.03    0.36
  -7  -3  -3    5.79    0.39
   7   3   3    5.89    0.47
   7   3   3    6.25    0.45
  -8  -3  -3    0.58    0.20
  -8  -3  -3    0.56    0.23
  -8  -3  -3    0.40    0.17
   8   3   3    0.69    0.24
   8   3   3    0.81    0.22
  -9  -3  -3    5.00    0.52
   9   3   3    5.98    0.49
   9   3   3    5.90    0.63
  10   3   3    2.94    0.43
  10   3   3    2.80    0.45
   6  -4  -3    1.47    0.35
  -6   4   3    1.59    0.26
   5  -4  -3    0.90    0.26
   5  -4  -3    0.61    0.24
  -5   4   3    0.59    0.17
   4  -4  -3    2.82    0.39
   4  -4  -3    2.34    0.37
  -4   4   3    2.18    0.26
  -4   4   3    1.75    0.36
   3  -4  -3    3.83    0.42
   3  -4  -3    3.76    0.41
  -3   4   3    3.54    0.26
  -3   4   3    3.62    0.45
  -3   4   3    3.97    0.41
   2  -4  -3    0.84    0.21
   2  -4  -3    1.11    0.23
  -2   4   3    1.28    0.15
  -2   4   3    0.91    0.20
  -2   4   3    1.15    0.24
  -2   4   3    0.96    0.19
   1  -4  -3    0.77    0.17
   1  -4  -3    0.57    0.14
   1  -4  -3    0.67    0.14
   1  -4  -3    0.30    0.14
   1  -4  -3    0.37    0.14
   1  -4  -3    0.76    0.18
  -1   4   3    0.20    0.14
  -1   4   3    0.52    0.15
  -1   4   3    0.49    0.12
   0  -4  -3   20.70    0.86
   0  -4  -3   22.11    0.83
   0  -4  -3   20.40    0.87
   0  -4  -3   23.10    0.91
   0  -4  -3   19.77    0.73
   0  -4  -3   20.30    0.70
   0   4   3   22.86    0.89
   0   4   3   21.79    0.72
   0   4   3   21.06    0.86
   0   4   3   20.80    0.72
   0   4   3   20.72    0.81
  -1  -4  -3   81.60    2.34
  -1  -4  -3   79.25    2.18
  -1  -4  -3   77.28    2.23
  -1  -4  -3   82.53    2.47
  -1  -4  -3   80.34    2.05
  -1  -4  -3   76.23    2.48
  -1  -4  -3   81.76    2.48
   1   4   3   79.26    2.45
   1   4   3   81.53    2.11
   1   4   3   78.97    2.38
   1   4   3   77.31    2.10
   1   4   3   79.00    2.46
  -2  -4  -3    4.72    0.26
  -2  -4  -3    5.37    0.27
  -2  -4  -3    5.45    0.25
  -2  -4  -3    4.84    0.34
  -2  -4  -3    4.99    0.26
   2   4   3    5.09    0.27
   2   4   3    4.72    0.25
  -3  -4  -3   20.37    0.73
   3   4   3   19.86    0.79
  -4  -4  -3   14.81    0.48
  -4  -4  -3   13.86    0.52
   4   4   3   13.52    0.63
  -5  -4  -3   19.41    0.63
  -5  -4  -3   17.69    0.64
   5   4   3   19.12    0.83
  -6  -4  -3    6.33    0.27
  -6  -4  -3    6.23    0.28
  -6  -4  -3    6.10    0.31
  -6  -4  -3    6.58    0.33
  -6  -4  -3    5.33    0.27
   6   4   3    5.92    0.44
  -7  -4  -3   90.56    2.57
  -7  -4  -3   87.92    2.45
  -7  -4  -3   84.47    2.56
  -7  -4  -3   83.78    2.72
   7   4   3   85.80    2.81
   7   4   3   90.65    2.69
  -8  -4  -3   29.62    1.11
  -8  -4  -3   29.40    1.02
   8   4   3   29.23    1.29
   8   4   3   31.84    1.23
  -9  -4  -3   -0.03    0.16
   9   4   3    0.12    0.16
   9   4   3    0.00    0.17
 -10  -4  -3    0.30    0.16
  10   4   3    0.21    0.20
  10   4   3    0.47    0.23
   5  -5  -3    7.94    0.65
   5  -5  -3    6.39    0.59
  -5   5   3    7.15    0.43
   4  -5  -3   25.79    1.21
   4  -5  -3   24.80    1.15
  -4   5   3   25.06    0.90
  -4   5   3   25.25    1.30
   3  -5  -3    2.96    0.39
   3  -5  -3    3.95    0.48
  -3   5   3    3.51    0.39
  -3   5   3    2.61    0.42
  -3   5   3    3.18    0.24
   2  -5  -3    1.24    0.27
   2  -5  -3    1.32    0.31
  -2   5   3    1.23    0.27
  -2   5   3    1.31    0.24
  -2   5   3    1.39    0.15
   1  -5  -3    4.16    0.45
   1  -5  -3    5.70    0.45
   1  -5  -3    4.03    0.46
  -1   5   3    5.19    0.35
  -1   5   3    4.72    0.34
  -1   5   3    4.50    0.40
  -1   5   3    4.39    0.37
   0  -5  -3    3.93    0.33
   0  -5  -3    3.59    0.39
   0  -5  -3    4.47    0.24
   0  -5  -3    3.75    0.41
   0  -5  -3    4.12    0.37
   0  -5  -3    4.21    0.30
   0   5   3    3.84    0.27
   0   5   3    3.76    0.28
   0   5   3    3.63    0.34
   0   5   3    4.61    0.33
  -1  -5  -3    5.17    0.36
  -1  -5  -3    4.30    0.22
  -1  -5  -3    5.18    0.40
  -1  -5  -3    4.76    0.24
  -1  -5  -3    4.79    0.33
  -1  -5  -3    4.50    0.28
  -1  -5  -3    5.37    0.36
   1   5   3    4.43    0.24
   1   5   3    4.74    0.24
   1   5   3    4.71    0.27
   1   5   3    4.57    0.33
  -2  -5  -3   13.21    0.56
  -2  -5  -3   12.81    0.45
  -2  -5  -3   14.44    0.67
  -2  -5  -3   12.48    0.53
  -2  -5  -3   12.95    0.49
  -2  -5  -3   12.46    0.57
   2   5   3   12.27    0.55
  -3  -5  -3    0.53    0.12
  -3  -5  -3    0.46    0.09
  -3  -5  -3    0.37    0.10
  -3  -5  -3    0.47    0.09
  -3  -5  -3    0.54    0.16
   3   5   3    0.40    0.09
   3   5   3    0.53    0.09
  -4  -5  -3   16.76    0.66
  -4  -5  -3   19.00    0.79
  -4  -5  -3   18.44    0.72
   4   5   3   17.33    0.79
  -5  -5  -3   48.25    1.43
  -5  -5  -3   46.04    1.42
   5   5   3   47.15    1.65
  -6  -5  -3   17.58    0.63
  -6  -5  -3   17.92    0.67
   6   5   3   16.20    0.82
  -7  -5  -3    2.59    0.18
  -7  -5  -3    2.31    0.21
  -7  -5  -3    2.29    0.18
   7   5   3    1.98    0.34
  -8  -5  -3    2.34    0.25
   8   5   3    1.86    0.35
  -9  -5  -3    0.05    0.14
   9   5   3    0.14    0.19
 -10  -5  -3    3.54    0.42
  10   5   3    4.68    0.59
   4  -6  -3    2.41    0.42
   4  -6  -3    2.12    0.40
  -4   6   3    2.29    0.23
   3  -6  -3    3.28    0.45
   3  -6  -3    2.86    0.44
  -3   6   3    3.12    0.40
  -3   6   3    2.52    0.17
   2  -6  -3    3.27    0.47
  -2   6   3    3.97    0.42
   1  -6  -3   21.13    1.06
  -1   6   3   22.64    0.88
   0  -6  -3   60.93    2.03
   0  -6  -3   57.63    2.11
   0   6   3   52.50    2.05
   0   6   3   61.55    1.77
   0   6   3   61.95    2.01
   0   6   3   60.38    1.77
  -1  -6  -3    1.70    0.25
  -1  -6  -3    1.46    0.17
  -1  -6  -3    1.55    0.25
  -1  -6  -3    1.57    0.21
  -1  -6  -3    1.96    0.32
   1   6   3    1.24    0.22
   1   6   3    1.53    0.16
   1   6   3    1.45    0.16
  -2  -6  -3    9.35    0.50
  -2  -6  -3    9.06    0.59
  -2  -6  -3    9.78    0.55
  -2  -6  -3    9.21    0.43
  -2  -6  -3   10.04    0.52
  -2  -6  -3   10.00    0.40
   2   6   3   10.25    0.35
  -3  -6  -3    0.26    0.07
  -3  -6  -3    0.48    0.11
  -3  -6  -3    0.68    0.15
  -3  -6  -3    0.44    0.17
  -3  -6  -3    0.37    0.12
  -3  -6  -3    0.40    0.12
   3   6   3    0.33    0.10
  -4  -6  -3    0.50    0.14
  -4  -6  -3    0.54    0.18
  -4  -6  -3    0.60    0.11
  -4  -6  -3    0.74    0.16
  -4  -6  -3    0.59    0.11
   4   6   3    0.56    0.18
  -5  -6  -3   14.22    0.61
  -5  -6  -3   12.81    0.62
  -5  -6  -3   13.36    0.68
  -5  -6  -3   13.23    0.59
   5   6   3   13.26    0.73
  -6  -6  -3    0.97    0.17
  -6  -6  -3    1.03    0.21
  -6  -6  -3    0.76    0.17
   6   6   3    0.79    0.23
  -7  -6  -3    6.84    0.44
   7   6   3    6.03    0.51
   8   6   3   19.49    1.01
  -9  -6  -3    8.46    0.46
   9   6   3    9.75    0.71
 -10  -6  -3    1.22    0.22
  10   6   3    1.46    0.34
   3  -7  -3    2.84    0.49
   3  -7  -3    3.78    0.52
   2  -7  -3    5.25    0.61
  -2   7   3    5.87    0.45
   1  -7  -3    0.24    0.17
  -1   7   3    0.16    0.14
   0  -7  -3   17.71    0.99
   0   7   3   18.96    0.75
   0   7   3   18.88    0.74
  -1  -7  -3   24.47    1.03
  -1  -7  -3   23.01    1.13
   1   7   3   23.82    0.78
   1   7   3   22.04    0.76
  -2  -7  -3   12.84    0.57
  -2  -7  -3   11.44    0.74
  -2  -7  -3   13.74    0.73
  -2  -7  -3   12.66    0.66
  -3  -7  -3   38.41    1.22
  -3  -7  -3   39.85    1.57
  -3  -7  -3   40.00    1.37
  -3  -7  -3   40.82    1.47
  -4  -7  -3   47.30    1.44
  -4  -7  -3   45.93    1.46
  -4  -7  -3   48.77    1.46
  -4  -7  -3   42.78    1.29
  -4  -7  -3   44.53    1.56
  -4  -7  -3   46.61    1.73
  -5  -7  -3    3.96    0.32
  -5  -7  -3    2.93    0.21
  -5  -7  -3    3.65    0.36
  -5  -7  -3    3.06    0.23
  -5  -7  -3    3.92    0.45
  -6  -7  -3   23.97    0.94
  -6  -7  -3   24.61    0.94
  -6  -7  -3   24.37    0.99
  -6  -7  -3   22.20    1.01
   6   7   3   22.84    1.09
  -7  -7  -3    0.48    0.17
   7   7   3    0.46    0.21
   8   7   3   16.62    0.94
  -9  -7  -3    0.04    0.08
   9   7   3   -0.19    0.16
 -10  -7  -3    0.06    0.12
  10   7   3   -0.03    0.17
   2  -8  -3    0.70    0.31
  -2   8   3    0.64    0.21
   1  -8  -3    0.47    0.24
  -1   8   3    0.80    0.21
   0  -8  -3    0.10    0.18
   0   8   3   -0.07    0.10
   0   8   3    0.04    0.13
  -1  -8  -3    2.77    0.44
   1   8   3    2.29    0.19
   1   8   3    2.63    0.20
  -2  -8  -3    0.09    0.14
  -2  -8  -3    0.15    0.18
  -2  -8  -3    0.38    0.17
  -3  -8  -3   16.26    0.79
  -3  -8  -3   15.85    0.92
  -3  -8  -3   16.16    0.77
  -4  -8  -3   56.20    1.71
  -4  -8  -3   58.10    1.85
  -4  -8  -3   59.04    1.89
  -4  -8  -3   56.50    2.14
  -4  -8  -3   58.49    1.87
  -4  -8  -3   58.74    2.01
  -5  -8  -3   10.30    0.49
  -5  -8  -3    9.49    0.67
  -5  -8  -3   10.74    0.50
  -5  -8  -3   11.04    0.61
  -5  -8  -3   10.14    0.39
  -6  -8  -3    4.27    0.26
  -6  -8  -3    4.64    0.46
  -6  -8  -3    4.53    0.27
  -6  -8  -3    4.96    0.52
  -7  -8  -3    6.78    0.52
  -7  -8  -3    7.07    0.51
   7   8   3    6.05    0.65
  -8  -8  -3    9.89    0.67
   8   8   3   10.38    0.76
   9   8   3   -0.14    0.17
   0  -9  -3    1.98    0.42
   0   9   3    2.87    0.28
   0   9   3    2.72    0.27
  -1  -9  -3    0.31    0.24
  -2  -9  -3    0.00    0.19
  -3  -9  -3    0.57    0.20
  -3  -9  -3    0.83    0.24
  -3  -9  -3    0.44    0.25
  -4  -9  -3    0.15    0.20
  -4  -9  -3    0.24    0.16
  -4  -9  -3    0.07    0.16
  -5  -9  -3    0.02    0.12
  -5  -9  -3    0.20    0.12
  -5  -9  -3   -0.06    0.17
  -6  -9  -3    0.98    0.14
  -6  -9  -3    0.87    0.26
  -6  -9  -3    1.57    0.33
  -6  -9  -3    1.32    0.20
  -6  -9  -3    1.20    0.20
  -7  -9  -3   17.29    0.66
  -7  -9  -3   16.92    0.64
   8   9   3    9.42    0.75
  -2 -10  -3    9.04    0.78
  -3 -10  -3    7.34    0.81
  -4 -10  -3    1.44    0.39
  -4 -10  -3    1.70    0.31
  -5 -10  -3    1.12    0.26
  -5 -10  -3    1.98    0.42
  -5 -10  -3    1.41    0.26
  -6 -10  -3    0.08    0.12
  -6 -10  -3   -0.03    0.11
  -6 -10  -3    0.10    0.19
  -6 -10  -3   -0.11    0.17
  -7 -10  -3    0.33    0.14
  -7 -10  -3    0.29    0.13
  -8  -9   4    0.38    0.17
  -8  -9   4    0.14    0.14
  -8  -9   4    0.56    0.26
  -7  -9   4    0.28    0.22
  -7  -9   4    0.37    0.18
  -7  -9   4    0.36    0.18
  -6  -9   4    0.34    0.24
  -6  -9   4    0.83    0.23
  -6  -9   4    0.40    0.16
  -5  -9   4    1.32    0.34
  -5  -9   4    1.48    0.29
  -4  -9   4    4.48    0.55
  -4  -9   4    4.27    0.53
  -3  -9   4    5.62    0.64
  -3  -9   4    4.46    0.56
   2   9  -4   -0.01    0.07
  -2  -9   4    0.34    0.19
  -2  -9   4    0.17    0.23
   1   9  -4    0.86    0.16
   1   9  -4    0.69    0.17
  -1  -9   4    0.74    0.22
  -1  -9   4    0.45    0.29
  -1  -9   4    0.54    0.25
   9   8  -4    6.97    0.74
  -9  -8   4    8.15    0.52
   8   8  -4    8.85    0.68
  -8  -8   4    8.49    0.53
  -8  -8   4    9.29    0.64
  -8  -8   4    9.74    0.55
  -7  -8   4    0.33    0.13
  -7  -8   4    0.41    0.17
  -7  -8   4    0.09    0.19
  -6  -8   4   11.33    0.63
  -6  -8   4   12.37    0.76
  -6  -8   4   12.28    0.63
  -5  -8   4    0.88    0.21
  -5  -8   4    0.59    0.21
  -5  -8   4    0.76    0.21
  -5  -8   4    0.35    0.21
  -4  -8   4   -0.17    0.11
  -4  -8   4    0.04    0.15
  -4  -8   4    0.03    0.17
  -4  -8   4   -0.08    0.10
  -3  -8   4    0.02    0.14
  -3  -8   4   -0.03    0.14
  -3  -8   4    0.13    0.18
   2   8  -4    0.73    0.13
   2   8  -4    0.76    0.19
   2   8  -4    0.85    0.15
  -2  -8   4    0.89    0.27
  -2  -8   4    1.15    0.31
   1   8  -4    6.20    0.39
  -1  -8   4    5.24    0.63
  -1  -8   4    6.32    0.62
  -1  -8   4    6.17    0.42
   0  -8   4   17.95    1.10
   0  -8   4   21.57    0.89
   1  -8   4    1.82    0.41
   9   7  -4   18.34    1.04
  -9  -7   4   20.52    0.91
   8   7  -4   21.04    1.09
  -8  -7   4   22.83    0.93
  -8  -7   4   20.56    0.98
   7   7  -4    3.00    0.43
  -7  -7   4    2.28    0.25
  -7  -7   4    2.42    0.26
  -7  -7   4    2.99    0.33
  -7  -7   4    2.73    0.39
  -6  -7   4    0.05    0.10
  -6  -7   4    0.25    0.17
  -6  -7   4    0.03    0.10
  -6  -7   4    0.48    0.16
  -6  -7   4    0.26    0.11
   5   7  -4   16.83    0.76
  -5  -7   4   16.52    0.77
  -5  -7   4   18.22    0.88
  -5  -7   4   17.66    0.77
  -5  -7   4   17.06    0.77
  -5  -7   4   17.27    0.88
  -5  -7   4   19.02    0.82
   4   7  -4    4.35    0.33
  -4  -7   4    4.28    0.47
  -4  -7   4    4.37    0.35
  -4  -7   4    4.11    0.36
  -4  -7   4    3.87    0.46
  -4  -7   4    3.97    0.43
  -4  -7   4    4.21    0.36
   3   7  -4   10.42    0.55
  -3  -7   4   12.07    0.69
  -3  -7   4   11.08    0.62
  -3  -7   4   10.16    0.61
  -3  -7   4   10.83    0.66
  -3  -7   4   10.19    0.64
  -3  -7   4   11.23    0.61
   2   7  -4   25.75    0.84
   2   7  -4   26.08    1.00
  -2  -7   4   20.28    1.06
  -2  -7   4   24.94    1.09
  -2  -7   4   25.32    1.15
  -2  -7   4   26.44    1.08
  -2  -7   4   26.15    1.12
   1   7  -4    1.86    0.24
  -1  -7   4    1.66    0.32
  -1  -7   4    2.25    0.27
  -1  -7   4    1.70    0.34
   0  -7   4    1.50    0.24
   0  -7   4    0.89    0.28
   1  -7   4    3.46    0.50
   2  -7   4    0.63    0.26
   3  -7   4    0.76    0.29
   9   6  -4    9.65    0.70
  -9  -6   4   10.55    0.61
   8   6  -4    0.22    0.16
  -8  -6   4    0.49    0.20
  -8  -6   4    0.34    0.15
   7   6  -4    6.74    0.53
  -7  -6   4    6.73    0.40
  -7  -6   4    6.62    0.53
  -7  -6   4    7.00    0.50
  -7  -6   4    6.63    0.43
  -7  -6   4    6.70    0.37
   6   6  -4    0.33    0.17
  -6  -6   4    0.56    0.15
  -6  -6   4    0.57    0.15
  -6  -6   4    0.32    0.18
  -6  -6   4    0.45    0.12
  -6  -6   4    0.07    0.14
   5   6  -4   37.43    1.33
   5   6  -4   38.33    1.46
  -5  -6   4   40.16    1.33
  -5  -6   4   35.41    1.33
  -5  -6   4   38.80    1.31
  -5  -6   4   38.88    1.21
  -5  -6   4   37.52    1.39
  -5  -6   4   38.34    1.32
  -5  -6   4   38.00    1.39
   4   6  -4   26.69    1.00
  -4  -6   4   25.73    1.03
  -4  -6   4   27.23    1.01
  -4  -6   4   25.92    1.07
  -4  -6   4   27.70    1.06
  -4  -6   4   26.37    1.08
  -4  -6   4   28.14    1.03
   3   6  -4    4.31    0.32
   3   6  -4    5.18    0.22
  -3  -6   4    5.09    0.41
  -3  -6   4    4.43    0.37
  -3  -6   4    5.11    0.36
  -3  -6   4    4.79    0.37
  -3  -6   4    4.67    0.38
  -3  -6   4    5.42    0.43
  -3  -6   4    5.00    0.37
   2   6  -4    4.23    0.35
   2   6  -4    4.59    0.27
   2   6  -4    4.49    0.34
  -2  -6   4    3.68    0.41
  -2  -6   4    3.57    0.39
  -2  -6   4    4.48    0.41
  -2  -6   4    4.48    0.28
  -2  -6   4    4.19    0.38
  -2  -6   4    4.22    0.37
  -2  -6   4    4.47    0.35
  -2  -6   4    3.66    0.38
   1   6  -4    1.27    0.24
   1   6  -4    1.06    0.18
   1   6  -4    0.90    0.21
  -1  -6   4    1.54    0.26
  -1  -6   4    1.25    0.18
  -1  -6   4    1.08    0.22
  -1  -6   4    1.09    0.23
  -1  -6   4    1.56    0.30
   0   6  -4    7.58    0.54
   0  -6   4    7.87    0.43
   0  -6   4    7.09    0.57
   1  -6   4   35.89    1.53
  -2   6  -4    6.90    0.31
   2  -6   4    6.44    0.58
  -3   6  -4    0.53    0.13
   3  -6   4    0.00    0.18
  -4   6  -4    3.36    0.28
   4  -6   4    2.89    0.48
  10   5  -4    9.38    0.71
   9   5  -4   26.86    1.27
  -9  -5   4   28.96    1.19
   8   5  -4    0.25    0.16
  -8  -5   4    0.10    0.13
  -8  -5   4   -0.09    0.12
   7   5  -4   21.52    0.98
  -7  -5   4   20.89    0.95
  -7  -5   4   20.80    0.86
  -7  -5   4   21.45    0.78
  -7  -5   4   20.20    0.86
  -7  -5   4   20.98    0.89
   6   5  -4    2.53    0.34
  -6  -5   4    2.22    0.22
  -6  -5   4    2.65    0.28
  -6  -5   4    2.86    0.34
  -6  -5   4    2.55    0.27
  -6  -5   4    2.29    0.32
   5   5  -4   26.88    1.09
  -5  -5   4   27.24    0.89
  -5  -5   4   28.86    0.94
  -5  -5   4   26.99    1.02
  -5  -5   4   27.77    1.07
  -5  -5   4   27.26    0.98
  -5  -5   4   27.32    1.05
   4   5  -4    2.87    0.30
   4   5  -4    3.57    0.37
  -4  -5   4    4.04    0.29
  -4  -5   4    3.52    0.37
  -4  -5   4    3.77    0.24
  -4  -5   4    3.68    0.28
  -4  -5   4    3.61    0.28
  -4  -5   4    3.75    0.38
  -4  -5   4    3.38    0.27
   3   5  -4    2.25    0.25
   3   5  -4    2.25    0.26
   3   5  -4    2.64    0.16
   3   5  -4    2.31    0.19
  -3  -5   4    2.12    0.26
  -3  -5   4    2.08    0.26
  -3  -5   4    2.04    0.24
  -3  -5   4    2.49    0.27
  -3  -5   4    1.89    0.28
  -3  -5   4    2.21    0.26
  -3  -5   4    2.24    0.29
  -3  -5   4    2.46    0.16
   2   5  -4   41.79    1.35
   2   5  -4   41.66    1.39
   2   5  -4   40.64    1.45
   2   5  -4   40.87    1.21
  -2  -5   4   38.99    1.43
  -2  -5   4   41.33    1.40
  -2  -5   4   40.92    1.19
  -2  -5   4   40.18    1.49
  -2  -5   4   39.54    1.39
  -2  -5   4   40.04    1.38
  -2  -5   4   40.86    1.38
  -2  -5   4   41.97    1.47
  -2  -5   4   38.37    1.45
   1   5  -4   22.94    0.80
   1   5  -4   22.11    0.92
   1   5  -4   22.37    0.96
  -1  -5   4   22.60    0.91
  -1  -5   4   21.69    0.96
  -1  -5   4   21.34    0.95
  -1  -5   4   22.28    0.98
  -1  -5   4   23.65    0.77
  -1  -5   4   23.54    0.92
  -1  -5   4   21.33    0.91
  -1  -5   4   23.87    0.98
   0   5  -4    0.29    0.14
   0   5  -4    0.12    0.09
   0   5  -4    0.14    0.12
   0  -5   4    0.16    0.13
   0  -5   4    0.29    0.13
   0  -5   4    0.04    0.14
   0  -5   4    0.15    0.10
   0  -5   4    0.19    0.10
  -1   5  -4   33.90    1.37
  -1   5  -4   32.88    0.96
   1  -5   4   32.47    1.09
   1  -5   4   29.95    1.32
   1  -5   4   33.50    1.39
  -2   5  -4   11.73    0.74
  -2   5  -4   11.37    0.48
   2  -5   4   12.42    0.76
  -3   5  -4    1.39    0.20
  -3   5  -4    1.30    0.30
   3  -5   4    1.98    0.37
  -4   5  -4    0.81    0.18
   4  -5   4    0.74    0.27
  -5   5  -4    2.65    0.32
   5  -5   4    3.03    0.50
  10   4  -4    1.81    0.42
  10   4  -4    2.33    0.42
   9   4  -4    7.66    0.60
   9   4  -4    7.20    0.59
   8   4  -4    0.16    0.16
   8   4  -4    0.28    0.16
  -8  -4   4    0.14    0.14
  -8  -4   4    0.08    0.17
  -8  -4   4    0.36    0.15
   7   4  -4    3.28    0.41
   7   4  -4    3.10    0.16
   7   4  -4    2.96    0.38
  -7  -4   4    2.91    0.25
  -7  -4   4    2.74    0.33
  -7  -4   4    2.51    0.33
  -7  -4   4    2.80    0.36
  -7  -4   4    3.04    0.32
  -7  -4   4    2.70    0.33
   6   4  -4   13.98    0.70
   6   4  -4   13.62    0.46
  -6  -4   4   14.12    0.63
  -6  -4   4   14.25    0.66
  -6  -4   4   12.65    0.62
  -6  -4   4   13.76    0.69
  -6  -4   4   14.62    0.56
   5   4  -4   17.47    0.55
   5   4  -4   17.37    0.75
  -5  -4   4   16.67    0.67
  -5  -4   4   16.32    0.74
  -5  -4   4   16.72    0.72
  -5  -4   4   16.63    0.70
  -5  -4   4   16.93    0.60
  -5  -4   4   15.40    0.69
   4   4  -4    9.06    0.48
   4   4  -4    9.62    0.51
   4   4  -4    9.40    0.37
  -4  -4   4   10.58    0.51
  -4  -4   4    9.56    0.47
  -4  -4   4   10.10    0.48
  -4  -4   4    9.18    0.50
  -4  -4   4    9.17    0.39
  -4  -4   4   10.06    0.41
  -4  -4   4    9.18    0.44
   3   4  -4  138.87    3.51
   3   4  -4  137.58    3.96
   3   4  -4  140.49    3.81
   3   4  -4  132.98    3.98
   3   4  -4  132.28    4.06
   3   4  -4  133.78    3.59
  -3  -4   4  137.33    3.76
  -3  -4   4  134.08    3.93
  -3  -4   4  137.95    3.47
  -3  -4   4  137.50    4.07
  -3  -4   4  135.68    3.66
  -3  -4   4  133.31    3.86
  -3  -4   4  133.73    3.75
  -3  -4   4  134.19    4.07
   2   4  -4    3.51    0.24
   2   4  -4    3.25    0.21
   2   4  -4    3.36    0.27
   2   4  -4    3.99    0.27
   2   4  -4    3.37    0.26
  -2  -4   4    3.20    0.32
  -2  -4   4    3.75    0.29
  -2  -4   4    3.59    0.29
  -2  -4   4    3.15    0.19
  -2  -4   4    3.20    0.27
  -2  -4   4    4.02    0.30
  -2  -4   4    3.34    0.25
  -2  -4   4    3.98    0.27
  -2  -4   4    2.96    0.26
   1   4  -4  109.87    3.36
   1   4  -4  110.48    3.38
   1   4  -4  110.46    2.95
  -1  -4   4  108.32    3.21
  -1  -4   4  105.16    3.29
  -1  -4   4  103.67    3.37
  -1  -4   4  114.83    3.39
  -1  -4   4  108.15    3.40
  -1  -4   4  108.49    3.08
  -1  -4   4  107.94    3.20
  -1  -4   4  110.28    2.88
   0   4  -4    4.12    0.19
   0   4  -4    4.16    0.34
   0   4  -4    4.15    0.28
   0   4  -4    4.07    0.34
   0  -4   4    4.72    0.34
   0  -4   4    4.57    0.27
   0  -4   4    4.57    0.33
   0  -4   4    3.51    0.38
   0  -4   4    4.25    0.35
   0  -4   4    4.32    0.35
   0  -4   4    4.17    0.31
  -1   4  -4    9.44    0.57
  -1   4  -4    8.57    0.37
  -1   4  -4    9.09    0.57
  -1   4  -4    9.37    0.33
   1  -4   4    8.89    0.48
   1  -4   4    9.85    0.58
   1  -4   4    9.05    0.42
   1  -4   4    9.00    0.56
   1  -4   4    9.80    0.53
  -2   4  -4   17.15    0.64
  -2   4  -4   18.12    0.89
  -2   4  -4   17.14    0.60
   2  -4   4   17.35    0.90
   2  -4   4   17.49    0.89
   2  -4   4   17.40    0.87
  -3   4  -4   23.66    0.87
  -3   4  -4   25.18    1.17
   3  -4   4   24.91    1.13
  -4   4  -4    2.04    0.39
  -4   4  -4    1.98    0.26
   4  -4   4    1.70    0.34
  -5   4  -4   19.85    0.84
   5  -4   4   17.70    1.00
   5  -4   4   20.45    0.88
  -6   4  -4    2.82    0.35
   6  -4   4    2.20    0.41
   6  -4   4    2.69    0.34
   9   3  -4    1.74    0.33
   9   3  -4    0.89    0.26
   8   3  -4    9.63    0.43
   8   3  -4    9.48    0.65
   8   3  -4    9.26    0.62
  -8  -3   4    9.62    0.61
  -8  -3   4    8.78    0.63
  -8  -3   4    9.47    0.55
   7   3  -4    4.00    0.46
   7   3  -4    4.55    0.41
   7   3  -4    5.27    0.29
  -7  -3   4    5.45    0.41
  -7  -3   4    4.81    0.40
  -7  -3   4    4.73    0.40
  -7  -3   4    5.07    0.38
  -7  -3   4    4.97    0.41
   6   3  -4  119.57    3.55
   6   3  -4  123.04    3.23
   6   3  -4  119.58    3.60
  -6  -3   4  116.71    3.45
  -6  -3   4  117.62    3.75
  -6  -3   4  117.28    3.71
  -6  -3   4  126.98    3.41
  -6  -3   4  119.92    3.55
  -6  -3   4  120.53    3.33
   5   3  -4   50.58    1.71
   5   3  -4   50.51    1.38
   5   3  -4   52.45    1.59
   5   3  -4   52.54    1.74
   5   3  -4   53.84    1.50
   5   3  -4   52.91    1.71
  -5  -3   4   51.47    1.53
  -5  -3   4   51.09    1.65
  -5  -3   4   50.61    1.66
  -5  -3   4   49.68    1.75
  -5  -3   4   52.16    1.74
  -5  -3   4   55.65    1.76
  -5  -3   4   51.79    1.62
   4   3  -4    2.23    0.26
   4   3  -4    1.84    0.23
   4   3  -4    1.93    0.16
   4   3  -4    1.62    0.15
   4   3  -4    1.83    0.15
   4   3  -4    1.72    0.25
   4   3  -4    1.58    0.21
   4   3  -4    1.92    0.22
  -4  -3   4    2.01    0.21
  -4  -3   4    1.56    0.20
  -4  -3   4    1.56    0.12
  -4  -3   4    1.61    0.16
  -4  -3   4    2.03    0.24
  -4  -3   4    1.58    0.20
  -4  -3   4    1.72    0.23
   3   3  -4    6.36    0.36
   3   3  -4    6.25    0.31
   3   3  -4    6.39    0.30
   3   3  -4    6.52    0.35
   3   3  -4    6.42    0.27
   3   3  -4    6.47    0.35
   3   3  -4    5.90    0.34
   3   3  -4    6.53    0.36
   3   3  -4    6.40    0.30
  -3  -3   4    6.03    0.35
  -3  -3   4    6.43    0.36
  -3  -3   4    6.21    0.29
  -3  -3   4    6.34    0.35
  -3  -3   4    6.13    0.28
  -3  -3   4    5.73    0.34
  -3  -3   4    5.94    0.32
  -3  -3   4    5.98    0.23
   2   3  -4    0.13    0.08
   2   3  -4    0.02    0.06
   2   3  -4    0.08    0.06
   2   3  -4   -0.07    0.07
   2   3  -4    0.00    0.07
   2   3  -4    0.13    0.08
  -2  -3   4    0.05    0.06
  -2  -3   4   -0.08    0.07
  -2  -3   4    0.15    0.09
  -2  -3   4   -0.03    0.06
  -2  -3   4    0.00    0.06
  -2  -3   4    0.19    0.10
  -2  -3   4   -0.03    0.07
  -2  -3   4   -0.04    0.08
  -2  -3   4    0.16    0.06
   1   3  -4    9.97    0.36
   1   3  -4    9.89    0.37
   1   3  -4    9.34    0.42
   1   3  -4   10.26    0.48
   1   3  -4   10.21    0.49
   1   3  -4   10.13    0.41
  -1  -3   4   10.20    0.50
  -1  -3   4    9.83    0.46
  -1  -3   4    9.96    0.45
  -1  -3   4    9.44    0.46
  -1  -3   4    9.99    0.49
  -1  -3   4    9.91    0.43
  -1  -3   4   10.31    0.46
  -1  -3   4    9.83    0.49
  -1  -3   4    9.75    0.48
  -1  -3   4   10.55    0.37
   0   3  -4    1.19    0.12
   0   3  -4    1.29    0.17
   0   3  -4    1.28    0.10
   0   3  -4    1.07    0.18
   0   3  -4    1.19    0.19
   0   3  -4    1.15    0.17
   0  -3   4    1.14    0.19
   0  -3   4    1.46    0.20
   0  -3   4    1.22    0.18
   0  -3   4    0.85    0.17
   0  -3   4    1.51    0.22
   0  -3   4    1.23    0.20
   0  -3   4    1.29    0.15
   0  -3   4    1.30    0.19
   0  -3   4    1.15    0.16
  -1   3  -4   12.25    0.43
  -1   3  -4   12.92    0.63
  -1   3  -4   12.34    0.64
  -1   3  -4   11.80    0.45
  -1   3  -4   12.13    0.56
   1  -3   4   13.19    0.56
   1  -3   4   12.80    0.62
   1  -3   4   12.84    0.63
   1  -3   4   11.98    0.47
   1  -3   4   11.71    0.56
  -2   3  -4   17.37    0.77
  -2   3  -4   16.96    0.63
  -2   3  -4   17.81    0.63
  -2   3  -4   17.51    0.77
  -2   3  -4   18.09    0.84
  -2   3  -4   18.12    0.87
   2  -3   4   17.63    0.78
   2  -3   4   17.97    0.77
   2  -3   4   18.40    0.70
   2  -3   4   19.29    0.87
   2  -3   4   17.89    0.73
   2  -3   4   17.88    0.82
   2  -3   4   17.03    0.83
  -3   3  -4   58.59    2.15
  -3   3  -4   59.89    1.77
  -3   3  -4   61.10    2.21
   3  -3   4   60.74    2.16
   3  -3   4   59.55    2.08
   3  -3   4   63.69    1.85
   3  -3   4   61.32    1.90
  -4   3  -4    6.93    0.55
  -4   3  -4    7.50    0.43
   4  -3   4    7.73    0.46
   4  -3   4    8.27    0.56
   4  -3   4    7.83    0.49
  -5   3  -4    2.19    0.29
   5  -3   4    2.37    0.30
   5  -3   4    2.48    0.39
   5  -3   4    2.34    0.32
  -6   3  -4    0.92    0.24
   6  -3   4    0.99    0.25
   6  -3   4    1.32    0.24
  -7   3  -4   13.00    0.70
   7  -3   4   10.26    0.83
   7  -3   4   13.60    0.65
   7  -3   4   12.41    0.72
   9   2  -4    3.47    0.47
   9   2  -4    3.70    0.30
   9   2  -4    3.97    0.52
   8   2  -4   10.25    0.50
   8   2  -4   10.40    0.65
   8   2  -4    9.94    0.67
   8   2  -4    9.19    0.38
   7   2  -4    4.49    0.40
   7   2  -4    4.22    0.30
   7   2  -4    4.67    0.27
   7   2  -4    4.69    0.49
  -7  -2   4    4.92    0.43
  -7  -2   4    4.72    0.47
  -7  -2   4    4.39    0.41
  -7  -2   4    4.04    0.34
  -7  -2   4    5.87    0.46
   6   2  -4   31.08    1.39
   6   2  -4   39.40    1.16
   6   2  -4   42.33    1.42
   6   2  -4   37.84    1.41
   6   2  -4   40.46    1.23
  -6  -2   4   34.12    1.16
  -6  -2   4   39.21    1.27
  -6  -2   4   40.33    1.46
  -6  -2   4   39.64    1.48
  -6  -2   4   39.17    1.39
  -6  -2   4   39.84    1.31
  -6  -2   4   42.34    1.41
   5   2  -4    3.38    0.29
   5   2  -4    3.36    0.22
   5   2  -4    2.74    0.24
   5   2  -4    3.56    0.30
   5   2  -4    3.68    0.25
   5   2  -4    3.00    0.34
  -5  -2   4    3.71    0.22
  -5  -2   4    3.98    0.30
  -5  -2   4    3.00    0.27
  -5  -2   4    3.45    0.30
  -5  -2   4    3.71    0.31
  -5  -2   4    3.32    0.29
  -5  -2   4    3.53    0.30
  -5  -2   4    3.38    0.24
   4   2  -4    6.63    0.41
   4   2  -4    7.22    0.34
   4   2  -4    8.19    0.41
   4   2  -4    7.24    0.37
   4   2  -4    7.65    0.42
   4   2  -4    7.13    0.40
   4   2  -4    7.42    0.41
   4   2  -4    7.19    0.32
  -4  -2   4    6.89    0.40
  -4  -2   4    6.87    0.40
  -4  -2   4    8.07    0.43
  -4  -2   4    7.09    0.29
  -4  -2   4    7.04    0.41
  -4  -2   4    7.20    0.38
  -4  -2   4    6.89    0.39
  -4  -2   4    7.42    0.34
   3   2  -4  143.38    4.16
   3   2  -4  135.88    3.58
   3   2  -4  137.54    3.65
   3   2  -4  140.12    3.90
   3   2  -4  140.63    3.93
   3   2  -4  136.69    3.85
   3   2  -4  141.98    4.13
   3   2  -4  136.46    4.15
   3   2  -4  140.75    3.70
   3   2  -4  144.94    3.79
   3   2  -4  143.87    3.65
  -3  -2   4  133.36    4.15
  -3  -2   4  137.38    3.78
  -3  -2   4  142.52    3.58
  -3  -2   4  144.26    4.17
  -3  -2   4  136.65    3.77
  -3  -2   4  144.93    3.74
  -3  -2   4  139.17    3.94
   2   2  -4  348.51    8.68
   2   2  -4  336.98    9.18
   2   2  -4  341.39    9.06
   2   2  -4  337.65    9.71
   2   2  -4  342.52    8.62
   2   2  -4  347.29    8.75
   2   2  -4  338.26    8.59
   2   2  -4  341.31    9.72
   2   2  -4  342.20    9.72
   2   2  -4  333.69    8.63
   2   2  -4  343.05    9.01
   2   2  -4  337.10    8.73
  -2  -2   4  341.79    9.39
  -2  -2   4  326.58    8.73
  -2  -2   4  338.83    8.50
  -2  -2   4  342.32    9.72
  -2  -2   4  323.07    9.71
  -2  -2   4  338.40    8.77
  -2  -2   4  329.33    9.24
  -2  -2   4  346.48    8.82
   1   2  -4   50.22    1.49
   1   2  -4   49.89    1.44
   1   2  -4   50.53    1.41
   1   2  -4   50.00    1.60
   1   2  -4   47.50    1.42
   1   2  -4   51.68    1.62
   1   2  -4   51.23    1.31
   1   2  -4   49.58    1.38
   1   2  -4   50.30    1.39
   1   2  -4   50.04    1.60
  -1  -2   4   50.61    1.61
  -1  -2   4   51.24    1.62
  -1  -2   4   51.65    1.52
  -1  -2   4   49.88    1.46
  -1  -2   4   48.84    1.41
  -1  -2   4   50.37    1.35
  -1  -2   4   48.74    1.50
  -1  -2   4   47.48    1.45
  -1  -2   4   49.75    1.53
   0   2  -4    2.55    0.20
   0   2  -4    2.58    0.23
   0   2  -4    2.49    0.22
   0   2  -4    2.36    0.19
   0   2  -4    2.48    0.15
   0   2  -4    2.82    0.16
   0   2  -4    2.78    0.20
   0  -2   4    2.95    0.21
   0  -2   4    2.43    0.19
   0  -2   4    2.32    0.20
   0  -2   4    2.47    0.22
   0  -2   4    2.61    0.17
   0  -2   4    2.12    0.24
   0  -2   4    2.58    0.23
  -1   2  -4    0.02    0.08
  -1   2  -4    0.01    0.09
  -1   2  -4   -0.05    0.06
  -1   2  -4    0.01    0.07
  -1   2  -4    0.12    0.10
  -1   2  -4    0.09    0.06
  -1   2  -4    0.07    0.07
  -1   2  -4    0.16    0.07
   1  -2   4   -0.11    0.05
   1  -2   4    0.04    0.09
   1  -2   4    0.10    0.07
   1  -2   4   -0.08    0.08
   1  -2   4    0.29    0.09
   1  -2   4   -0.13    0.06
   1  -2   4   -0.08    0.08
   1  -2   4    0.03    0.08
  -2   2  -4    8.80    0.37
  -2   2  -4    8.36    0.38
  -2   2  -4    8.89    0.52
  -2   2  -4    8.47    0.45
  -2   2  -4    7.74    0.47
   2  -2   4    8.46    0.49
   2  -2   4    7.94    0.41
   2  -2   4    8.98    0.48
   2  -2   4    8.71    0.44
   2  -2   4    8.54    0.49
   2  -2   4    7.89    0.39
   2  -2   4    8.76    0.46
  -3   2  -4    0.05    0.08
  -3   2  -4    0.01    0.10
  -3   2  -4   -0.05    0.10
  -3   2  -4    0.00    0.08
   3  -2   4    0.09    0.08
   3  -2   4   -0.03    0.06
   3  -2   4   -0.02    0.09
   3  -2   4    0.03    0.08
   3  -2   4   -0.02    0.09
   3  -2   4   -0.08    0.11
  -4   2  -4   36.00    1.52
  -4   2  -4   37.32    1.49
  -4   2  -4   36.45    1.20
   4  -2   4   38.37    1.24
   4  -2   4   38.63    1.47
   4  -2   4   38.44    1.22
   4  -2   4   37.60    1.28
   4  -2   4   37.36    1.41
  -5   2  -4    2.25    0.36
  -5   2  -4    2.01    0.26
   5  -2   4    1.75    0.27
   5  -2   4    2.25    0.34
   5  -2   4    1.91    0.25
   5  -2   4    2.29    0.36
  -6   2  -4    5.62    0.40
   6  -2   4    4.53    0.55
   6  -2   4    5.31    0.37
   6  -2   4    4.59    0.39
  -7   2  -4   26.97    1.08
   7  -2   4   26.47    0.95
   7  -2   4   27.76    1.17
   7  -2   4   26.03    1.29
   7  -2   4   25.32    1.19
   7  -2   4   26.52    1.09
   7  -2   4   28.03    0.97
  -8   2  -4    2.24    0.34
   8  -2   4    2.23    0.21
   8  -2   4    1.60    0.39
   8  -2   4    2.12    0.21
   8  -2   4    2.32    0.40
   9   1  -4    1.11    0.24
   9   1  -4    1.06    0.18
   9   1  -4    1.55    0.35
   9   1  -4    1.26    0.33
   8   1  -4    0.19    0.16
   8   1  -4    0.00    0.10
   8   1  -4   -0.16    0.10
   8   1  -4    0.08    0.16
   7   1  -4   20.95    0.80
   7   1  -4   19.93    0.99
   7   1  -4   21.46    0.87
   7   1  -4   21.95    0.99
  -7  -1   4   23.65    0.85
   6   1  -4   38.92    1.25
   6   1  -4   41.74    1.13
   6   1  -4   37.45    1.44
   6   1  -4   38.85    1.11
   6   1  -4   40.17    1.44
   6   1  -4   38.78    1.31
  -6  -1   4   39.74    1.24
  -6  -1   4   40.63    1.35
  -6  -1   4   41.30    1.47
  -6  -1   4   38.08    1.51
  -6  -1   4   39.49    1.54
   5   1  -4   33.15    1.08
   5   1  -4   34.32    1.31
   5   1  -4   33.99    1.00
   5   1  -4   35.01    1.25
   5   1  -4   34.03    1.22
   5   1  -4   33.83    1.25
   5   1  -4   36.41    1.14
  -5  -1   4   34.32    1.16
  -5  -1   4   34.38    1.31
  -5  -1   4   34.45    1.05
  -5  -1   4   32.46    1.30
  -5  -1   4   33.71    1.23
  -5  -1   4   34.10    1.21
  -5  -1   4   35.27    1.31
  -5  -1   4   33.48    1.12
   4   1  -4   47.44    1.40
   4   1  -4   48.03    1.44
   4   1  -4   48.09    1.53
   4   1  -4   47.28    1.34
   4   1  -4   50.02    1.62
   4   1  -4   47.83    1.65
   4   1  -4   48.74    1.55
   4   1  -4   49.69    1.64
   4   1  -4   49.70    1.51
  -4  -1   4   46.31    1.63
  -4  -1   4   49.58    1.49
  -4  -1   4   45.30    1.50
  -4  -1   4   46.43    1.64
  -4  -1   4   47.99    1.35
  -4  -1   4   48.41    1.64
  -4  -1   4   46.60    1.54
  -4  -1   4   48.75    1.44
   3   1  -4   43.03    1.25
   3   1  -4   43.66    1.33
   3   1  -4   42.31    1.44
   3   1  -4   43.14    1.33
   3   1  -4   43.38    1.46
   3   1  -4   43.41    1.22
   3   1  -4   44.77    1.44
   3   1  -4   41.93    1.34
   3   1  -4   42.90    1.28
  -3  -1   4   42.70    1.45
  -3  -1   4   42.76    1.45
  -3  -1   4   43.71    1.36
  -3  -1   4   43.97    1.45
  -3  -1   4   43.83    1.28
  -3  -1   4   42.14    1.19
  -3  -1   4   41.31    1.30
  -3  -1   4   41.30    1.33
  -3  -1   4   45.62    1.27
   2   1  -4  360.45    9.10
   2   1  -4  351.59   10.14
   2   1  -4  351.60    8.99
   2   1  -4  355.13    9.55
   2   1  -4  364.72    9.49
   2   1  -4  354.68    9.41
   2   1  -4  360.88   10.16
   2   1  -4  353.81    9.06
   2   1  -4  350.30    8.84
   2   1  -4  357.78   10.14
   2   1  -4  346.58    9.01
   2   1  -4  343.08    9.01
   2   1  -4  356.49    9.77
   2   1  -4  360.37    9.18
   2   1  -4  336.69    9.28
  -2  -1   4  355.56    9.66
  -2  -1   4  374.55    9.22
  -2  -1   4  358.36   10.15
  -2  -1   4  343.04   10.14
  -2  -1   4  352.14    9.02
  -2  -1   4  356.89    8.90
  -2  -1   4  350.84    9.13
   1   1  -4    8.07    0.33
   1   1  -4    7.92    0.28
   1   1  -4    7.36    0.36
   1   1  -4    6.99    0.29
   1   1  -4    7.01    0.26
   1   1  -4    7.66    0.29
   1   1  -4    7.72    0.37
   1   1  -4    7.30    0.32
   1   1  -4    7.25    0.32
   1   1  -4    7.80    0.32
   1   1  -4    7.10    0.32
   1   1  -4    7.04    0.33
  -1  -1   4    7.43    0.36
  -1  -1   4    6.99    0.32
  -1  -1   4    7.25    0.32
  -1  -1   4    7.46    0.32
  -1  -1   4    7.39    0.33
  -1  -1   4    7.16    0.31
  -1  -1   4    6.91    0.30
  -1  -1   4    7.49    0.27
  -1  -1   4    7.23    0.36
   0   1  -4    4.39    0.23
   0   1  -4    5.01    0.25
   0   1  -4    5.27    0.26
   0   1  -4    4.53    0.25
   0   1  -4    4.49    0.28
   0   1  -4    4.62    0.21
   0   1  -4    4.99    0.26
   0   1  -4    4.53    0.28
   0   1  -4    4.67    0.23
   0  -1   4    4.45    0.23
   0  -1   4    4.98    0.25
   0  -1   4    4.61    0.24
   0  -1   4    4.61    0.25
   0  -1   4    4.95    0.25
   0  -1   4    4.78    0.21
   0  -1   4    5.05    0.29
   0  -1   4    4.80    0.28
   0  -1   4    5.10    0.24
   0  -1   4    4.81    0.25
  -1   1  -4  317.31    9.11
  -1   1  -4  312.93    7.98
  -1   1  -4  320.31    8.43
  -1   1  -4  316.47    8.15
  -1   1  -4  311.84    9.14
  -1   1  -4  323.14    8.11
  -1   1  -4  321.42    8.68
  -1   1  -4  324.34    8.11
   1  -1   4  318.69    9.12
   1  -1   4  314.36    7.97
   1  -1   4  314.18    8.68
   1  -1   4  318.30    8.14
   1  -1   4  318.28    9.11
   1  -1   4  319.13    8.10
   1  -1   4  306.45    8.13
   1  -1   4  317.48    8.88
   1  -1   4  313.91    8.66
  -2   1  -4  132.43    3.83
  -2   1  -4  138.91    3.83
  -2   1  -4  134.59    3.60
  -2   1  -4  133.41    4.03
  -2   1  -4  130.41    3.47
  -2   1  -4  132.24    4.06
   2  -1   4  137.75    4.04
   2  -1   4  132.92    3.92
   2  -1   4  132.64    3.53
   2  -1   4  135.81    3.57
   2  -1   4  138.14    4.04
   2  -1   4  130.16    3.52
   2  -1   4  133.53    3.80
  -3   1  -4   15.01    0.63
  -3   1  -4   14.26    0.70
  -3   1  -4   14.06    0.62
  -3   1  -4   14.39    0.67
  -3   1  -4   13.60    0.52
   3  -1   4   14.76    0.54
   3  -1   4   13.68    0.56
   3  -1   4   14.28    0.57
   3  -1   4   14.74    0.66
   3  -1   4   13.41    0.52
   3  -1   4   14.01    0.65
   3  -1   4   14.56    0.67
  -4   1  -4   43.52    1.47
  -4   1  -4   42.20    1.60
  -4   1  -4   41.91    1.56
  -4   1  -4   40.97    1.27
  -4   1  -4   42.74    1.48
   4  -1   4   43.17    1.29
   4  -1   4   43.64    1.54
   4  -1   4   42.39    1.34
   4  -1   4   42.08    1.27
   4  -1   4   41.65    1.33
  -5   1  -4   23.60    1.00
  -5   1  -4   24.30    1.08
  -5   1  -4   22.55    1.04
  -5   1  -4   23.32    0.84
  -5   1  -4   21.31    1.07
   5  -1   4   24.20    0.88
   5  -1   4   23.01    0.87
   5  -1   4   22.20    0.79
   5  -1   4   22.42    0.99
   5  -1   4   21.52    1.00
   5  -1   4   23.66    0.88
   5  -1   4   22.34    0.79
  -6   1  -4    0.08    0.17
  -6   1  -4    0.64    0.18
   6  -1   4    0.50    0.21
   6  -1   4    0.28    0.13
   6  -1   4    0.46    0.17
   6  -1   4    0.21    0.11
   6  -1   4    0.19    0.10
  -7   1  -4    0.49    0.16
   7  -1   4    0.18    0.16
   7  -1   4    0.21    0.21
   7  -1   4    0.22    0.11
   7  -1   4    0.34    0.11
   7  -1   4    0.48    0.19
   7  -1   4    0.47    0.16
  -8   1  -4    4.73    0.46
   8  -1   4    3.96    0.54
   8  -1   4    4.43    0.37
   8  -1   4    4.60    0.54
   8  -1   4    4.51    0.48
   9   0  -4    2.47    0.43
   9   0  -4    2.09    0.28
   9   0  -4    2.61    0.48
  -9   0   4    2.26    0.33
   8   0  -4    3.94    0.42
   8   0  -4    3.80    0.37
   8   0  -4    3.29    0.47
   8   0  -4    3.80    0.50
  -8   0   4    4.25    0.43
   7   0  -4   19.05    0.69
   7   0  -4   19.84    0.86
   7   0  -4   18.27    0.67
   7   0  -4   20.90    0.98
   7   0  -4   19.02    0.80
   7   0  -4   18.85    0.96
  -7   0   4   20.88    0.83
   6   0  -4   33.96    1.41
   6   0  -4   33.70    1.07
   6   0  -4   34.31    1.33
   6   0  -4   33.35    1.21
   6   0  -4   33.24    1.16
   6   0  -4   32.51    1.29
  -6   0   4   33.45    1.41
  -6   0   4   34.98    1.14
   5   0  -4    0.48    0.17
   5   0  -4    0.36    0.16
   5   0  -4    0.22    0.10
   5   0  -4    0.33    0.15
   5   0  -4    0.26    0.11
   5   0  -4    0.31    0.09
   5   0  -4    0.15    0.10
   5   0  -4    0.49    0.16
  -5   0   4    0.24    0.14
  -5   0   4    0.59    0.13
  -5   0   4    0.31    0.15
  -5   0   4    0.36    0.15
  -5   0   4    0.40    0.15
   4   0  -4    1.16    0.20
   4   0  -4    0.83    0.15
   4   0  -4    1.08    0.19
   4   0  -4    1.09    0.21
   4   0  -4    0.79    0.16
   4   0  -4    0.86    0.08
   4   0  -4    0.98    0.14
   4   0  -4    0.61    0.16
   4   0  -4    1.09    0.13
   4   0  -4    0.92    0.21
   4   0  -4    1.16    0.20
  -4   0   4    0.40    0.14
  -4   0   4    1.07    0.21
  -4   0   4    0.72    0.13
  -4   0   4    1.10    0.21
  -4   0   4    0.72    0.17
  -4   0   4    0.88    0.17
  -4   0   4    1.13    0.19
   3   0  -4   44.43    1.37
   3   0  -4   42.71    1.33
   3   0  -4   44.05    1.20
   3   0  -4   42.67    1.19
   3   0  -4   43.88    1.27
   3   0  -4   42.93    1.30
   3   0  -4   43.39    1.36
   3   0  -4   43.87    1.51
   3   0  -4   44.40    1.53
   3   0  -4   44.89    1.39
   3   0  -4   45.00    1.52
   3   0  -4   46.00    1.32
  -3   0   4   44.92    1.42
  -3   0   4   43.35    1.51
  -3   0   4   43.02    1.51
  -3   0   4   43.43    1.35
  -3   0   4   45.65    1.26
  -3   0   4   45.46    1.33
  -3   0   4   45.06    1.52
  -3   0   4   43.15    1.37
   2   0  -4   39.54    1.13
   2   0  -4   40.44    1.15
   2   0  -4   38.55    1.08
   2   0  -4   39.83    1.32
   2   0  -4   38.51    1.20
   2   0  -4   38.96    1.19
   2   0  -4   38.40    1.24
   2   0  -4   39.08    1.22
   2   0  -4   40.02    1.16
   2   0  -4   40.90    1.33
   2   0  -4   38.35    1.17
   2   0  -4   41.02    1.18
  -2   0   4   40.77    1.20
  -2   0   4   39.25    1.24
  -2   0   4   39.48    1.33
  -2   0   4   38.37    1.20
  -2   0   4   38.52    1.33
  -2   0   4   38.25    1.10
  -2   0   4   39.60    1.16
  -2   0   4   40.98    1.33
   1   0  -4   68.66    2.05
   1   0  -4   68.92    1.83
   1   0  -4   65.19    1.82
   1   0  -4   67.62    1.89
   1   0  -4   65.48    1.75
   1   0  -4   63.40    1.90
   1   0  -4   67.90    2.05
   1   0  -4   65.13    1.83
   1   0  -4   63.24    1.92
   1   0  -4   63.50    1.80
   1   0  -4   65.59    2.05
   1   0  -4   67.80    1.83
   1   0  -4   68.17    1.83
   1   0  -4   66.54    1.79
  -1   0   4   66.89    1.84
  -1   0   4   63.50    1.80
  -1   0   4   65.23    1.75
  -1   0   4   68.82    1.80
  -1   0   4   66.44    2.05
  -1   0   4   66.02    1.93
  -1   0   4   68.97    1.81
  -1   0   4   67.94    2.05
  -1   0   4   67.68    1.83
  -1   0   4   68.91    1.83
   0   0  -4  740.26   19.31
   0   0  -4  750.65   21.36
   0   0  -4  710.50   19.77
   0   0  -4  750.15   18.99
   0   0  -4  754.15   18.75
   0   0  -4  744.65   18.87
   0   0  -4  743.81   18.82
   0   0  -4  736.08   18.98
   0   0  -4  734.57   18.81
   0   0  -4  746.82   21.24
   0   0  -4  757.93   19.87
   0   0  -4  744.12   19.36
   0   0   4  748.98   21.23
   0   0   4  769.65   18.73
   0   0   4  744.80   19.00
   0   0   4  759.57   19.29
   0   0   4  756.63   20.29
   0   0   4  735.52   18.95
   0   0   4  737.96   21.35
   0   0   4  741.34   19.11
   0   0   4  787.20   18.89
   0   0   4  745.13   20.27
  -1   0  -4   20.30    0.73
  -1   0  -4   20.65    0.74
  -1   0  -4   20.78    0.68
  -1   0  -4   20.46    0.68
  -1   0  -4   21.22    0.63
  -1   0  -4   20.00    0.65
  -1   0  -4   19.94    0.67
  -1   0  -4   20.44    0.64
  -1   0  -4   20.89    0.60
   1   0   4   20.67    0.73
   1   0   4   20.09    0.73
   1   0   4   19.71    0.66
   1   0   4   20.45    0.61
   1   0   4   21.52    0.65
   1   0   4   20.86    0.59
   1   0   4   20.74    0.68
   1   0   4   21.04    0.62
   1   0   4   20.12    0.63
   1   0   4   20.31    0.63
   1   0   4   20.62    0.57
  -2   0  -4  164.39    4.38
  -2   0  -4  159.56    4.91
  -2   0  -4  165.21    4.26
  -2   0  -4  168.15    4.67
  -2   0  -4  168.70    4.57
  -2   0  -4  170.40    4.66
  -2   0  -4  169.22    4.37
  -2   0  -4  163.26    4.89
   2   0   4  169.48    4.90
   2   0   4  167.24    4.30
   2   0   4  170.72    4.31
   2   0   4  169.36    4.37
   2   0   4  170.06    4.34
   2   0   4  169.46    4.30
   2   0   4  167.24    4.34
  -3   0  -4    6.49    0.38
  -3   0  -4    5.97    0.33
  -3   0  -4    6.25    0.34
  -3   0  -4    6.64    0.28
  -3   0  -4    6.38    0.34
  -3   0  -4    6.56    0.37
   3   0   4    6.44    0.30
   3   0   4    6.74    0.28
   3   0   4    6.66    0.24
   3   0   4    6.94    0.38
   3   0   4    6.62    0.37
   3   0   4    5.61    0.26
   3   0   4    6.36    0.32
   3   0   4    6.33    0.30
  -4   0  -4    1.83    0.24
  -4   0  -4    1.42    0.23
  -4   0  -4    1.35    0.15
  -4   0  -4    1.37    0.21
  -4   0  -4    1.59    0.21
   4   0   4    1.02    0.15
   4   0   4    1.32    0.14
   4   0   4    1.76    0.20
   4   0   4    1.26    0.16
   4   0   4    1.13    0.20
   4   0   4    1.16    0.21
   4   0   4    1.17    0.16
   4   0   4    1.31    0.14
  -5   0  -4   47.66    1.74
  -5   0  -4   51.34    1.78
  -5   0  -4   49.02    1.67
  -5   0  -4   50.05    1.67
  -5   0  -4   48.50    1.81
  -5   0  -4   50.53    1.45
   5   0   4   49.11    1.37
   5   0   4   50.71    1.49
   5   0   4   48.22    1.70
   5   0   4   48.98    1.38
   5   0   4   50.74    1.59
   5   0   4   49.32    1.48
   5   0   4   48.07    1.47
  -6   0  -4   13.96    0.60
  -6   0  -4   14.66    0.77
  -6   0  -4   14.52    0.74
  -6   0  -4   13.83    0.80
  -6   0  -4   13.68    0.72
   6   0   4   14.12    0.60
   6   0   4   14.79    0.78
   6   0   4   14.88    0.70
   6   0   4   14.72    0.60
   6   0   4   14.24    0.45
   6   0   4   15.84    0.64
  -7   0  -4    3.53    0.35
   7   0   4    4.27    0.35
   7   0   4    3.42    0.46
   7   0   4    3.69    0.28
   7   0   4    4.15    0.30
   7   0   4    3.55    0.41
   8   0   4   28.95    1.09
   8   0   4   29.33    0.98
   8   0   4   27.75    1.21
   8   0   4   26.67    1.30
   8   0   4   26.17    0.95
   9   0   4    4.99    0.31
   9   0   4    5.11    0.31
   9   0   4    4.07    0.56
   9   0   4    5.39    0.51
   8  -1  -4    0.25    0.16
   8  -1  -4    0.00    0.10
   8  -1  -4   -0.15    0.15
   8  -1  -4    0.08    0.17
   8  -1  -4    0.07    0.10
   8  -1  -4    0.00    0.17
  -8   1   4    0.17    0.15
   7  -1  -4    0.05    0.13
   7  -1  -4    0.47    0.18
   7  -1  -4    0.14    0.11
   7  -1  -4    0.30    0.18
   7  -1  -4    0.25    0.13
   7  -1  -4    0.67    0.24
  -7   1   4    0.42    0.17
   6  -1  -4    4.02    0.46
   6  -1  -4    4.20    0.46
   6  -1  -4    4.19    0.42
   6  -1  -4    3.55    0.36
   6  -1  -4    4.08    0.31
  -6   1   4    3.23    0.45
  -6   1   4    4.91    0.35
   5  -1  -4   11.13    0.59
   5  -1  -4   11.92    0.64
   5  -1  -4   11.40    0.67
   5  -1  -4   11.61    0.53
   5  -1  -4   11.24    0.64
   5  -1  -4   11.73    0.41
   5  -1  -4   11.73    0.54
   5  -1  -4   11.78    0.57
   5  -1  -4   12.00    0.71
  -5   1   4   11.78    0.70
  -5   1   4   10.45    0.67
  -5   1   4   11.69    0.70
  -5   1   4   12.66    0.55
   4  -1  -4    5.24    0.34
   4  -1  -4    5.44    0.43
   4  -1  -4    5.28    0.32
   4  -1  -4    5.94    0.33
   4  -1  -4    5.37    0.36
   4  -1  -4    5.51    0.42
  -4   1   4    5.58    0.36
  -4   1   4    5.62    0.34
  -4   1   4    5.50    0.42
  -4   1   4    5.32    0.31
  -4   1   4    5.53    0.42
  -4   1   4    5.36    0.42
  -4   1   4    5.98    0.41
   3  -1  -4  220.37    6.14
   3  -1  -4  221.29    6.45
   3  -1  -4  213.96    5.74
   3  -1  -4  217.18    5.70
   3  -1  -4  214.22    5.76
   3  -1  -4  223.03    6.47
   3  -1  -4  218.08    5.66
   3  -1  -4  217.39    6.47
  -3   1   4  216.61    5.71
  -3   1   4  219.48    5.80
  -3   1   4  214.24    6.12
  -3   1   4  216.52    6.45
  -3   1   4  223.69    6.46
  -3   1   4  210.18    5.58
  -3   1   4  212.93    6.45
   2  -1  -4   73.79    2.13
   2  -1  -4   75.63    2.12
   2  -1  -4   72.76    2.13
   2  -1  -4   76.77    2.24
   2  -1  -4   76.21    2.11
   2  -1  -4   77.60    2.40
   2  -1  -4   75.38    2.41
   2  -1  -4   79.09    2.42
   2  -1  -4   75.35    2.24
   2  -1  -4   74.60    2.07
   2  -1  -4   76.79    2.23
  -2   1   4   75.24    2.12
  -2   1   4   75.78    2.40
  -2   1   4   78.00    2.40
  -2   1   4   76.30    2.11
  -2   1   4   76.29    2.15
  -2   1   4   73.84    2.39
  -2   1   4   77.61    2.11
  -2   1   4   76.84    2.27
  -2   1   4   75.85    2.03
  -2   1   4   74.57    2.08
   1  -1  -4    0.12    0.08
   1  -1  -4    0.05    0.07
   1  -1  -4    0.04    0.05
   1  -1  -4    0.06    0.05
   1  -1  -4    0.11    0.07
   1  -1  -4    0.11    0.09
   1  -1  -4   -0.02    0.06
   1  -1  -4    0.02    0.07
   1  -1  -4    0.04    0.07
  -1   1   4   -0.05    0.07
  -1   1   4    0.05    0.07
  -1   1   4    0.01    0.06
  -1   1   4    0.04    0.08
  -1   1   4    0.00    0.05
  -1   1   4   -0.05    0.07
  -1   1   4   -0.02    0.05
  -1   1   4   -0.02    0.07
  -1   1   4   -0.01    0.05
   0  -1  -4   27.27    0.79
   0  -1  -4   25.78    0.78
   0  -1  -4   26.11    0.89
   0  -1  -4   26.58    0.80
   0  -1  -4   25.87    0.90
   0  -1  -4   26.54    0.78
   0  -1  -4   26.27    0.80
   0  -1  -4   27.22    0.85
   0  -1  -4   26.55    0.77
   0  -1  -4   27.25    0.84
   0   1   4   26.42    0.90
   0   1   4   27.15    0.80
   0   1   4   26.96    0.76
   0   1   4   27.84    0.91
   0   1   4   26.66    0.72
   0   1   4   25.19    0.80
   0   1   4   27.28    0.78
   0   1   4   27.03    0.83
   0   1   4   26.10    0.78
   0   1   4   26.62    0.77
   0   1   4   26.16    0.79
  -1  -1  -4    6.40    0.26
  -1  -1  -4    6.02    0.26
  -1  -1  -4    6.31    0.27
  -1  -1  -4    6.09    0.30
  -1  -1  -4    6.63    0.27
  -1  -1  -4    5.30    0.29
  -1  -1  -4    5.96    0.21
  -1  -1  -4    6.41    0.30
   1   1   4    5.93    0.25
   1   1   4    6.30    0.24
   1   1   4    6.06    0.29
   1   1   4    6.28    0.25
   1   1   4    6.45    0.25
   1   1   4    6.01    0.29
   1   1   4    5.80    0.21
   1   1   4    6.05    0.24
  -2  -1  -4   21.80    0.76
  -2  -1  -4   21.66    0.71
  -2  -1  -4   22.78    0.69
  -2  -1  -4   21.15    0.75
  -2  -1  -4   21.73    0.71
   2   1   4   22.31    0.64
   2   1   4   22.39    0.76
   2   1   4   23.50    0.65
   2   1   4   22.23    0.74
   2   1   4   23.07    0.77
   2   1   4   22.44    0.62
   2   1   4   23.16    0.67
   2   1   4   22.56    0.65
  -3  -1  -4   55.65    1.78
  -3  -1  -4   57.58    1.67
  -3  -1  -4   56.06    1.59
  -3  -1  -4   56.74    1.68
  -3  -1  -4   57.21    1.77
   3   1   4   55.70    1.73
   3   1   4   57.22    1.77
   3   1   4   57.70    1.52
   3   1   4   57.30    1.49
   3   1   4   57.60    1.60
   3   1   4   56.38    1.55
   3   1   4   55.13    1.51
  -4  -1  -4   30.01    0.82
  -4  -1  -4   28.33    0.99
  -4  -1  -4   29.36    0.99
  -4  -1  -4   29.24    1.07
  -4  -1  -4   28.20    1.04
   4   1   4   29.00    0.95
   4   1   4   29.49    0.86
   4   1   4   29.97    1.06
   4   1   4   27.82    0.84
   4   1   4   30.23    1.05
   4   1   4   28.87    0.89
   4   1   4   30.01    0.86
  -5  -1  -4   65.17    1.93
  -5  -1  -4   57.89    2.05
  -5  -1  -4   58.41    1.99
  -5  -1  -4   61.19    1.66
  -5  -1  -4   59.03    1.91
  -5  -1  -4   62.47    2.02
   5   1   4   61.47    1.73
   5   1   4   59.21    1.98
   5   1   4   61.56    1.71
   5   1   4   60.58    1.67
   5   1   4   58.66    1.66
   5   1   4   63.92    1.86
  -6  -1  -4   72.92    2.28
  -6  -1  -4   71.80    2.37
  -6  -1  -4   69.75    2.27
  -6  -1  -4   70.83    2.45
   6   1   4   71.02    2.04
   6   1   4   71.24    2.20
   6   1   4   74.77    2.04
   6   1   4   69.45    2.34
   6   1   4   67.90    1.94
   6   1   4   72.05    1.95
  -7  -1  -4    0.38    0.19
  -7  -1  -4    1.13    0.24
  -7  -1  -4    0.75    0.23
   7   1   4    0.34    0.14
   7   1   4    1.00    0.23
   7   1   4    0.85    0.13
   7   1   4    0.81    0.12
   7   1   4    0.66    0.23
   8   1   4    1.88    0.14
   8   1   4    2.33    0.27
   8   1   4    1.69    0.30
   8   1   4    2.36    0.39
   9   1   4    0.41    0.23
   9   1   4   -0.04    0.12
   9   1   4    0.09    0.16
   8  -2  -4    2.38    0.43
   8  -2  -4    2.13    0.27
  -8   2   4    2.43    0.36
   7  -2  -4    1.98    0.38
   7  -2  -4    2.72    0.39
   7  -2  -4    3.37    0.34
   7  -2  -4    2.96    0.44
   7  -2  -4    2.92    0.37
  -7   2   4    3.69    0.40
   6  -2  -4   18.08    0.83
   6  -2  -4   17.63    0.93
   6  -2  -4   18.48    0.57
   6  -2  -4   18.27    0.78
   6  -2  -4   18.56    0.95
   6  -2  -4   17.57    0.87
  -6   2   4   18.51    0.79
   5  -2  -4   25.49    1.01
   5  -2  -4   26.05    1.05
   5  -2  -4   26.32    0.96
   5  -2  -4   25.60    1.01
  -5   2   4   26.12    0.94
  -5   2   4   25.15    1.19
   4  -2  -4    2.60    0.37
   4  -2  -4    2.92    0.36
   4  -2  -4    2.84    0.29
   4  -2  -4    2.98    0.31
   4  -2  -4    2.95    0.31
   4  -2  -4    2.05    0.28
  -4   2   4    2.67    0.39
  -4   2   4    2.63    0.26
  -4   2   4    2.68    0.36
  -4   2   4    3.32    0.39
   3  -2  -4   10.05    0.53
   3  -2  -4    9.85    0.49
   3  -2  -4    9.71    0.51
   3  -2  -4   11.11    0.61
   3  -2  -4   10.33    0.61
   3  -2  -4   11.06    0.61
   3  -2  -4    9.89    0.50
   3  -2  -4   10.63    0.48
  -3   2   4   10.89    0.56
  -3   2   4   10.15    0.50
  -3   2   4   10.52    0.61
  -3   2   4   10.69    0.52
  -3   2   4   10.12    0.58
  -3   2   4   10.22    0.45
  -3   2   4   10.44    0.48
  -3   2   4   10.05    0.58
   2  -2  -4    0.68    0.15
   2  -2  -4    0.88    0.16
   2  -2  -4    0.95    0.16
   2  -2  -4    1.12    0.18
   2  -2  -4    0.88    0.14
   2  -2  -4    0.82    0.18
   2  -2  -4    0.96    0.16
   2  -2  -4    0.99    0.19
   2  -2  -4    1.15    0.16
   2  -2  -4    1.12    0.21
  -2   2   4    1.18    0.14
  -2   2   4    0.99    0.14
  -2   2   4    1.07    0.19
  -2   2   4    1.02    0.19
  -2   2   4    1.00    0.20
  -2   2   4    0.87    0.15
  -2   2   4    0.78    0.15
   1  -2  -4    3.63    0.25
   1  -2  -4    3.69    0.23
   1  -2  -4    3.50    0.24
   1  -2  -4    4.24    0.31
   1  -2  -4    3.97    0.27
   1  -2  -4    3.86    0.24
   1  -2  -4    3.83    0.29
   1  -2  -4    4.10    0.23
   1  -2  -4    3.17    0.24
  -1   2   4    3.76    0.22
  -1   2   4    3.85    0.28
  -1   2   4    3.62    0.26
  -1   2   4    3.43    0.21
  -1   2   4    3.85    0.29
  -1   2   4    3.84    0.27
  -1   2   4    3.35    0.19
  -1   2   4    3.38    0.23
   0  -2  -4  129.72    3.82
   0  -2  -4  127.69    3.54
   0  -2  -4  137.33    3.63
   0  -2  -4  125.51    3.81
   0  -2  -4  131.55    3.81
   0  -2  -4  127.25    3.43
   0  -2  -4  125.87    3.40
   0  -2  -4  128.31    3.38
   0   2   4  126.68    3.81
   0   2   4  132.06    3.23
   0   2   4  129.23    3.36
   0   2   4  130.20    3.40
   0   2   4  131.17    3.46
   0   2   4  127.53    3.81
   0   2   4  128.87    3.33
   0   2   4  123.89    3.36
  -1  -2  -4  954.97   26.02
  -1  -2  -4  921.49   25.58
  -1  -2  -4  959.60   24.45
  -1  -2  -4  955.23   27.18
  -1  -2  -4  976.06   25.13
  -1  -2  -4  974.13   27.38
   1   2   4  969.35   27.26
   1   2   4 1000.00   27.26
   1   2   4  946.80   25.96
   1   2   4  974.09   24.22
   1   2   4  942.27   24.25
  -2  -2  -4   53.01    1.43
  -2  -2  -4   51.97    1.48
  -2  -2  -4   52.83    1.61
  -2  -2  -4   53.79    1.59
  -2  -2  -4   53.74    1.50
  -2  -2  -4   53.90    1.61
  -2  -2  -4   53.68    1.51
   2   2   4   53.74    1.59
   2   2   4   54.38    1.39
   2   2   4   53.84    1.60
  -3  -2  -4   34.01    1.10
  -3  -2  -4   35.24    1.03
  -3  -2  -4   35.20    0.94
  -3  -2  -4   33.59    1.02
  -3  -2  -4   33.38    1.04
  -3  -2  -4   36.24    0.99
   3   2   4   36.56    1.10
   3   2   4   35.49    1.15
   3   2   4   36.68    1.11
  -4  -2  -4    0.61    0.10
  -4  -2  -4    0.61    0.10
  -4  -2  -4    0.44    0.10
  -4  -2  -4    0.74    0.11
  -4  -2  -4    0.62    0.11
   4   2   4    0.63    0.07
   4   2   4    0.63    0.15
   4   2   4    0.33    0.10
   4   2   4    0.71    0.07
   4   2   4    0.57    0.10
   4   2   4    0.55    0.07
  -5  -2  -4   26.52    0.92
  -5  -2  -4   27.60    0.96
  -5  -2  -4   27.09    0.91
  -5  -2  -4   25.49    0.98
  -5  -2  -4   25.56    0.94
   5   2   4   26.42    0.93
   5   2   4   27.48    1.03
   5   2   4   26.10    0.76
   5   2   4   26.20    0.76
   5   2   4   25.33    0.78
   5   2   4   24.80    0.93
  -6  -2  -4    9.27    0.50
  -6  -2  -4    9.94    0.50
  -6  -2  -4    9.78    0.55
  -6  -2  -4   10.74    0.51
  -6  -2  -4    8.97    0.49
   6   2   4    9.70    0.37
   6   2   4    9.11    0.50
   6   2   4    8.92    0.39
   6   2   4    9.51    0.58
  -7  -2  -4    5.86    0.46
  -7  -2  -4    6.91    0.45
  -7  -2  -4    6.12    0.45
  -7  -2  -4    6.81    0.45
   7   2   4    6.74    0.45
   7   2   4    6.24    0.50
   7   2   4    6.73    0.31
  -8  -2  -4    1.45    0.34
  -8  -2  -4    1.63    0.29
   8   2   4    1.42    0.31
   8   2   4    1.21    0.16
   8   2   4    1.25    0.26
   9   2   4    9.56    0.71
   9   2   4   11.01    0.69
   7  -3  -4    5.06    0.61
   7  -3  -4    5.33    0.62
   7  -3  -4    4.28    0.42
  -7   3   4    4.94    0.47
   6  -3  -4    0.00    0.14
   6  -3  -4   -0.01    0.18
   6  -3  -4    0.02    0.16
  -6   3   4   -0.13    0.12
   5  -3  -4    0.10    0.14
   5  -3  -4    0.45    0.18
   5  -3  -4    0.88    0.21
  -5   3   4    0.58    0.26
  -5   3   4    0.71    0.17
   4  -3  -4   24.17    1.00
   4  -3  -4   23.17    0.95
   4  -3  -4   23.35    0.91
   4  -3  -4   24.55    1.01
  -4   3   4   23.27    1.12
  -4   3   4   23.20    0.85
   3  -3  -4    6.66    0.52
   3  -3  -4    8.30    0.50
   3  -3  -4    8.78    0.58
   3  -3  -4    8.89    0.46
   3  -3  -4    8.33    0.47
   3  -3  -4    8.41    0.50
   3  -3  -4    8.07    0.57
  -3   3   4    8.25    0.54
  -3   3   4    7.81    0.46
  -3   3   4    8.37    0.56
  -3   3   4    8.27    0.40
   2  -3  -4   84.61    2.65
   2  -3  -4   88.35    2.78
   2  -3  -4   85.63    2.43
   2  -3  -4   85.96    2.39
   2  -3  -4   81.43    2.45
   2  -3  -4   85.28    2.79
  -2   3   4   83.59    2.77
  -2   3   4   85.62    2.75
  -2   3   4   85.55    2.77
  -2   3   4   86.80    2.38
  -2   3   4   81.40    2.28
  -2   3   4   83.19    2.42
   1  -3  -4   70.97    2.09
   1  -3  -4   73.12    2.29
   1  -3  -4   72.01    2.03
   1  -3  -4   70.64    2.37
   1  -3  -4   73.23    2.22
   1  -3  -4   73.09    2.07
   1  -3  -4   76.08    2.37
   1  -3  -4   73.88    2.39
   1  -3  -4   73.21    2.13
   1  -3  -4   72.59    2.08
  -1   3   4   73.17    2.36
  -1   3   4   73.65    2.34
  -1   3   4   73.73    2.01
  -1   3   4   70.83    2.35
  -1   3   4   70.28    2.05
  -1   3   4   73.54    2.06
  -1   3   4   73.05    1.92
   0  -3  -4    3.10    0.26
   0  -3  -4    3.19    0.26
   0  -3  -4    2.94    0.30
   0  -3  -4    3.68    0.23
   0  -3  -4    3.32    0.24
   0  -3  -4    3.24    0.26
   0  -3  -4    3.25    0.23
   0  -3  -4    3.27    0.21
   0   3   4    3.32    0.23
   0   3   4    3.72    0.28
   0   3   4    3.01    0.25
   0   3   4    3.04    0.21
   0   3   4    3.64    0.21
  -1  -3  -4  302.46    8.07
  -1  -3  -4  290.53    7.90
  -1  -3  -4  285.71    8.47
  -1  -3  -4  288.82    7.57
  -1  -3  -4  289.28    7.66
  -1  -3  -4  295.95    8.46
  -1  -3  -4  294.98    8.49
   1   3   4  299.79    8.46
   1   3   4  303.02    7.48
   1   3   4  282.78    7.47
   1   3   4  308.19    7.72
   1   3   4  301.96    8.47
  -2  -3  -4  159.36    4.57
  -2  -3  -4  156.52    4.57
  -2  -3  -4  158.29    4.09
  -2  -3  -4  156.28    4.35
  -2  -3  -4  157.27    4.34
   2   3   4  162.42    4.57
   2   3   4  158.03    4.44
   2   3   4  161.94    4.57
  -3  -3  -4    0.85    0.16
  -3  -3  -4    0.90    0.08
  -3  -3  -4    0.88    0.10
   3   3   4    1.36    0.19
   3   3   4    0.82    0.09
   3   3   4    0.99    0.08
  -4  -3  -4   68.88    1.98
  -4  -3  -4   70.87    1.90
  -4  -3  -4   73.80    1.90
  -4  -3  -4   72.17    1.90
  -4  -3  -4   67.99    1.98
  -4  -3  -4   70.83    2.08
   4   3   4   71.81    2.20
   4   3   4   74.31    2.09
   4   3   4   75.24    2.09
  -5  -3  -4  107.39    2.88
  -5  -3  -4  107.24    3.20
  -5  -3  -4  107.30    3.26
  -5  -3  -4  111.19    3.21
  -5  -3  -4  107.44    3.08
  -5  -3  -4  110.96    3.07
   5   3   4  111.66    3.21
   5   3   4  112.91    3.21
   5   3   4  108.65    3.28
   5   3   4  110.91    3.09
  -6  -3  -4   14.42    0.60
  -6  -3  -4   14.55    0.65
  -6  -3  -4   15.07    0.59
  -6  -3  -4   14.79    0.60
  -6  -3  -4   14.85    0.60
   6   3   4   15.81    0.68
   6   3   4   15.38    0.74
   6   3   4   14.42    0.52
  -7  -3  -4   18.38    0.73
  -7  -3  -4   16.45    0.72
  -7  -3  -4   16.37    0.78
  -7  -3  -4   16.71    0.70
   7   3   4   16.10    0.83
   7   3   4   16.38    0.76
  -8  -3  -4    0.03    0.15
  -8  -3  -4    0.11    0.12
   8   3   4    0.13    0.13
   8   3   4    0.27    0.17
  -9  -3  -4   20.03    0.95
   9   3   4   19.85    0.96
   9   3   4   18.58    1.02
  10   3   4    0.41    0.24
   6  -4  -4    9.67    0.72
  -6   4   4   11.75    0.61
   5  -4  -4    5.17    0.55
   5  -4  -4    4.67    0.51
  -5   4   4    4.61    0.34
   4  -4  -4   27.99    1.20
   4  -4  -4   26.55    1.15
  -4   4   4   29.64    1.35
  -4   4   4   27.01    0.97
   3  -4  -4   38.37    1.39
   3  -4  -4   37.09    1.45
  -3   4   4   38.60    1.34
  -3   4   4   38.20    1.18
  -3   4   4   36.53    1.54
   2  -4  -4    0.03    0.11
   2  -4  -4   -0.05    0.12
   2  -4  -4    0.20    0.12
  -2   4   4    0.04    0.07
  -2   4   4   -0.10    0.09
  -2   4   4    0.05    0.10
  -2   4   4    0.16    0.13
   1  -4  -4   -0.02    0.09
   1  -4  -4    0.28    0.10
   1  -4  -4   -0.07    0.07
   1  -4  -4    0.19    0.10
   1  -4  -4    0.20    0.12
   1  -4  -4    0.11    0.10
   1  -4  -4    0.11    0.09
   1  -4  -4    0.14    0.11
   1  -4  -4    0.11    0.11
  -1   4   4    0.10    0.11
  -1   4   4    0.06    0.08
  -1   4   4    0.20    0.10
  -1   4   4    0.10    0.05
  -1   4   4    0.00    0.07
   0  -4  -4   26.96    0.99
   0  -4  -4   23.62    0.98
   0  -4  -4   24.30    0.98
   0  -4  -4   24.33    0.82
   0  -4  -4   23.44    0.96
   0  -4  -4   23.78    0.90
   0  -4  -4   24.25    0.83
   0   4   4   23.76    0.80
   0   4   4   24.82    0.97
   0   4   4   24.40    0.92
   0   4   4   24.87    0.81
   0   4   4   24.31    0.97
  -1  -4  -4    5.21    0.21
  -1  -4  -4    5.37    0.33
  -1  -4  -4    5.05    0.26
  -1  -4  -4    5.33    0.28
  -1  -4  -4    5.41    0.33
  -1  -4  -4    4.98    0.36
  -1  -4  -4    5.79    0.31
  -1  -4  -4    5.49    0.33
   1   4   4    5.01    0.23
   1   4   4    4.85    0.23
   1   4   4    5.25    0.33
   1   4   4    5.22    0.32
  -2  -4  -4    3.00    0.21
  -2  -4  -4    3.39    0.34
  -2  -4  -4    2.85    0.13
  -2  -4  -4    2.60    0.19
  -2  -4  -4    2.91    0.20
  -2  -4  -4    2.32    0.18
  -2  -4  -4    2.31    0.18
   2   4   4    3.08    0.20
  -3  -4  -4   13.19    0.54
  -3  -4  -4   12.35    0.42
  -3  -4  -4   12.92    0.40
   3   4   4   12.27    0.42
   3   4   4   11.97    0.56
   3   4   4   12.51    0.43
  -4  -4  -4   41.71    1.22
  -4  -4  -4   43.96    1.21
   4   4   4   41.62    1.44
  -5  -4  -4   76.30    2.11
  -5  -4  -4   80.27    2.04
  -5  -4  -4   79.05    2.10
   5   4   4   74.17    2.43
  -6  -4  -4   11.83    0.45
  -6  -4  -4   11.52    0.45
  -6  -4  -4   11.50    0.44
  -6  -4  -4   12.08    0.49
   6   4   4   11.89    0.65
  -7  -4  -4    0.36    0.12
  -7  -4  -4   -0.13    0.08
  -7  -4  -4    0.30    0.13
   7   4   4    0.15    0.16
  -8  -4  -4    7.37    0.48
  -8  -4  -4    9.23    0.41
   8   4   4    9.10    0.63
   8   4   4    9.82    0.58
  -9  -4  -4   16.18    0.80
   9   4   4   16.45    0.94
   9   4   4   17.10    0.86
 -10  -4  -4    0.12    0.15
  10   4   4    0.08    0.19
   5  -5  -4    2.40    0.41
   5  -5  -4    2.57    0.44
  -5   5   4    2.01    0.26
   4  -5  -4    0.74    0.26
   4  -5  -4    0.40    0.24
  -4   5   4    0.68    0.29
  -4   5   4    0.39    0.14
   3  -5  -4    5.81    0.55
   3  -5  -4    5.05    0.55
  -3   5   4    5.48    0.51
  -3   5   4    5.16    0.42
  -3   5   4    5.12    0.30
   2  -5  -4    1.79    0.33
   2  -5  -4    1.47    0.28
  -2   5   4    1.61    0.30
  -2   5   4    1.79    0.27
  -2   5   4    1.84    0.15
   1  -5  -4   23.81    1.08
   1  -5  -4   25.97    1.11
   1  -5  -4   21.31    1.08
  -1   5   4   25.15    0.92
  -1   5   4   27.42    0.94
  -1   5   4   25.56    1.05
  -1   5   4   25.63    1.11
   0  -5  -4  112.42    3.40
   0  -5  -4  120.96    3.60
   0  -5  -4  116.87    3.19
   0  -5  -4  112.26    3.19
   0  -5  -4  109.81    3.55
   0  -5  -4  108.40    3.62
   0   5   4  110.37    3.09
   0   5   4  116.90    3.51
   0   5   4  113.04    3.57
   0   5   4  116.36    3.11
  -1  -5  -4    0.13    0.05
  -1  -5  -4    0.13    0.10
  -1  -5  -4    0.14    0.09
  -1  -5  -4    0.01    0.11
  -1  -5  -4    0.17    0.11
  -1  -5  -4    0.21    0.09
  -1  -5  -4    0.07    0.08
   1   5   4   -0.06    0.06
   1   5   4    0.05    0.09
   1   5   4    0.02    0.06
  -2  -5  -4   16.91    0.66
  -2  -5  -4   15.78    0.76
  -2  -5  -4   15.46    0.54
  -2  -5  -4   16.27    0.63
  -2  -5  -4   16.37    0.61
  -2  -5  -4   16.49    0.68
   2   5   4   15.52    0.65
  -3  -5  -4    0.83    0.11
  -3  -5  -4    0.59    0.17
  -3  -5  -4    0.65    0.11
  -3  -5  -4    0.59    0.10
  -3  -5  -4    0.77    0.15
   3   5   4    0.62    0.10
   3   5   4    0.71    0.10
  -4  -5  -4    7.06    0.41
  -4  -5  -4    6.94    0.35
   4   5   4    7.59    0.47
  -5  -5  -4    0.21    0.09
  -5  -5  -4    0.20    0.08
   5   5   4    0.18    0.12
  -6  -5  -4    2.90    0.22
  -6  -5  -4    3.18    0.22
   6   5   4    2.75    0.37
  -7  -5  -4    2.00    0.17
  -7  -5  -4    1.81    0.16
  -7  -5  -4    1.76    0.19
   7   5   4    2.19    0.36
  -8  -5  -4   15.80    0.66
   8   5   4   16.57    0.90
  -9  -5  -4   22.38    0.92
   9   5   4   21.42    1.12
 -10  -5  -4   -0.13    0.10
  10   5   4    0.23    0.17
   4  -6  -4   -0.01    0.17
   4  -6  -4    0.05    0.18
  -4   6   4    0.02    0.08
   3  -6  -4   17.11    0.90
   3  -6  -4   14.67    0.90
  -3   6   4   15.12    0.79
   2  -6  -4   30.60    1.38
   2  -6  -4   32.51    1.29
  -2   6   4   30.22    1.16
   1  -6  -4    1.13    0.27
  -1   6   4    0.63    0.19
   0  -6  -4   20.63    1.01
   0  -6  -4   21.78    0.95
   0   6   4   21.40    0.79
   0   6   4   21.71    0.79
   0   6   4   21.38    0.90
   0   6   4   18.63    0.94
  -1  -6  -4    1.65    0.30
  -1  -6  -4    1.33    0.16
  -1  -6  -4    1.06    0.22
  -1  -6  -4    1.37    0.20
  -1  -6  -4    1.55    0.17
  -1  -6  -4    0.87    0.19
   1   6   4    1.28    0.15
   1   6   4    1.20    0.15
   1   6   4    1.32    0.22
  -2  -6  -4   30.43    0.97
  -2  -6  -4   28.14    0.95
  -2  -6  -4   30.31    1.08
  -2  -6  -4   27.60    1.20
  -2  -6  -4   30.85    1.11
  -2  -6  -4   27.43    1.13
  -3  -6  -4   11.76    0.67
  -3  -6  -4   12.74    0.53
  -3  -6  -4   12.29    0.53
  -3  -6  -4   11.61    0.43
  -3  -6  -4   11.50    0.56
  -3  -6  -4   12.62    0.53
   3   6   4   12.72    0.52
  -4  -6  -4  104.28    2.88
  -4  -6  -4  103.92    2.98
  -4  -6  -4  105.26    3.25
  -4  -6  -4  102.76    2.89
  -4  -6  -4   99.63    3.06
   4   6   4   99.49    3.17
  -5  -6  -4   -0.01    0.10
  -5  -6  -4    0.12    0.13
  -5  -6  -4    0.42    0.13
   5   6   4    0.33    0.16
  -6  -6  -4   22.92    0.98
  -6  -6  -4   23.63    0.82
  -6  -6  -4   20.89    0.80
   6   6   4   21.91    1.01
   7   6   4    0.04    0.15
  -8  -6  -4    1.08    0.15
   8   6   4    0.62    0.25
  -9  -6  -4    1.71    0.23
   9   6   4    1.54    0.34
 -10  -6  -4    0.32    0.15
  10   6   4    0.23    0.22
   3  -7  -4    1.88    0.38
   3  -7  -4    1.85    0.39
  -3   7   4    1.41    0.32
   2  -7  -4    1.70    0.36
   2  -7  -4    2.31    0.39
  -2   7   4    2.72    0.36
   1  -7  -4    0.68    0.24
  -1   7   4    0.80    0.21
   0  -7  -4    1.12    0.29
   0   7   4    0.54    0.16
   0   7   4    0.47    0.15
  -1  -7  -4   25.53    1.23
   1   7   4   28.08    0.87
   1   7   4   26.43    0.85
  -2  -7  -4   22.96    0.97
  -2  -7  -4   23.83    1.06
  -2  -7  -4   23.39    0.88
  -2  -7  -4   23.90    1.13
  -3  -7  -4   -0.17    0.09
  -3  -7  -4   -0.07    0.13
  -3  -7  -4   -0.19    0.08
  -3  -7  -4    0.00    0.11
  -4  -7  -4   43.27    1.67
  -4  -7  -4   41.22    1.23
  -4  -7  -4   44.69    1.42
  -4  -7  -4   43.99    1.50
  -4  -7  -4   44.68    1.41
  -5  -7  -4   17.11    0.74
  -5  -7  -4   17.21    0.88
  -5  -7  -4   16.92    0.67
  -5  -7  -4   16.79    0.61
  -5  -7  -4   19.03    0.77
  -6  -7  -4    2.86    0.32
  -6  -7  -4    2.72    0.38
  -6  -7  -4    2.91    0.37
   6   7   4    2.84    0.41
  -7  -7  -4   14.92    0.75
  -7  -7  -4   13.08    0.74
   7   7   4   13.04    0.81
   8   7   4   13.43    0.83
  -9  -7  -4    1.18    0.16
   9   7   4    1.40    0.33
 -10  -7  -4   10.15    0.52
  10   7   4   10.14    0.77
   2  -8  -4    0.91    0.30
  -2   8   4    1.30    0.27
   1  -8  -4    1.37    0.34
  -1   8   4    1.42    0.26
   0  -8  -4    0.62    0.23
   0   8   4    0.54    0.16
   0   8   4    0.40    0.14
  -1  -8  -4    3.06    0.46
   1   8   4    3.37    0.22
   1   8   4    3.31    0.21
  -2  -8  -4    3.43    0.49
  -2  -8  -4    3.76    0.44
  -2  -8  -4    4.23    0.44
  -3  -8  -4    0.66    0.25
  -3  -8  -4    0.68    0.18
  -3  -8  -4    0.61    0.20
  -4  -8  -4    1.84    0.22
  -4  -8  -4    1.40    0.27
  -4  -8  -4    1.65    0.26
  -4  -8  -4    1.59    0.21
  -4  -8  -4    2.14    0.38
  -5  -8  -4    3.94    0.22
  -5  -8  -4    5.00    0.55
  -5  -8  -4    4.98    0.38
  -5  -8  -4    3.63    0.29
  -6  -8  -4    0.63    0.19
  -6  -8  -4    0.49    0.21
  -6  -8  -4    0.46    0.11
  -7  -8  -4   24.69    1.04
  -7  -8  -4   23.05    1.08
   7   8   4   21.87    1.15
  -8  -8  -4   38.30    1.49
   8   8   4   33.36    1.56
  -9  -8  -4    5.31    0.60
   9   8   4    4.28    0.58
   0  -9  -4    3.06    0.50
   0   9   4    2.19    0.25
   0   9   4    2.90    0.28
  -1  -9  -4    0.24    0.22
  -2  -9  -4   14.21    0.94
  -3  -9  -4   19.71    0.97
  -3  -9  -4   21.70    1.17
  -3  -9  -4   21.43    0.97
  -4  -9  -4    0.13    0.15
  -4  -9  -4   -0.02    0.14
  -4  -9  -4   -0.22    0.15
  -5  -9  -4   12.87    0.62
  -5  -9  -4   12.62    0.54
  -5  -9  -4   11.90    0.81
  -5  -9  -4   12.29    0.62
  -6  -9  -4    8.51    0.58
  -6  -9  -4    7.76    0.43
  -6  -9  -4    7.86    0.35
  -6  -9  -4    8.10    0.43
  -6  -9  -4    8.42    0.65
  -7  -9  -4    1.42    0.32
  -7  -9  -4    1.00    0.16
  -7  -9  -4    0.95    0.15
   8   9   4    1.79    0.41
  -2 -10  -4    0.05    0.22
  -3 -10  -4    9.71    0.80
  -4 -10  -4    0.26    0.24
  -4 -10  -4    0.15    0.16
  -5 -10  -4   -0.01    0.12
  -5 -10  -4   -0.08    0.14
  -5 -10  -4    0.01    0.19
  -6 -10  -4    1.92    0.28
  -6 -10  -4    2.04    0.37
  -6 -10  -4    2.52    0.42
  -6 -10  -4    2.26    0.28
  -7 -10  -4    2.70    0.29
  -7 -10  -4    3.59    0.27
  -7  -9   5    0.89    0.28
  -7  -9   5    0.11    0.15
  -7  -9   5    0.32    0.18
  -6  -9   5   15.83    0.80
  -6  -9   5   13.94    0.88
  -5  -9   5    0.67    0.28
  -4  -9   5    4.21    0.54
  -4  -9   5    5.20    0.60
  -3  -9   5    0.52    0.24
  -3  -9   5    0.54    0.28
   2   9  -5    0.19    0.09
   2   9  -5    0.08    0.08
  -2  -9   5    0.11    0.16
  -2  -9   5   -0.17    0.19
   1   9  -5    2.10    0.26
  -1  -9   5    2.91    0.37
  -1  -9   5    2.36    0.46
  -1  -9   5    1.66    0.37
  -8  -8   5   11.09    0.64
  -8  -8   5   11.93    0.76
  -8  -8   5   12.50    0.67
  -7  -8   5    1.66    0.27
  -7  -8   5    1.72    0.28
  -7  -8   5    1.55    0.33
  -6  -8   5    1.64    0.34
  -6  -8   5    1.33    0.26
  -6  -8   5    1.28    0.24
  -5  -8   5    7.22    0.59
  -5  -8   5    7.94    0.53
  -5  -8   5    7.39    0.51
  -4  -8   5    6.89    0.50
  -4  -8   5    5.48    0.50
  -4  -8   5    5.85    0.61
   3   8  -5    0.04    0.11
  -3  -8   5    0.13    0.18
  -3  -8   5   -0.12    0.14
   2   8  -5    6.76    0.36
   2   8  -5    7.11    0.48
  -2  -8   5    6.35    0.59
  -2  -8   5    6.94    0.57
  -1  -8   5   -0.20    0.17
  -1  -8   5    0.08    0.13
  -1  -8   5    0.08    0.19
   0  -8   5   12.05    0.64
   0  -8   5   11.46    0.85
   0  -8   5   10.73    0.75
   1  -8   5    0.93    0.28
   1  -8   5    0.17    0.22
   9   7  -5   -0.16    0.18
  -9  -7   5    0.13    0.15
   8   7  -5   -0.02    0.14
  -8  -7   5    0.27    0.16
  -8  -7   5    0.09    0.18
   7   7  -5    0.21    0.18
  -7  -7   5    0.31    0.19
  -7  -7   5    0.68    0.17
  -6  -7   5    3.64    0.33
  -6  -7   5    3.96    0.30
  -6  -7   5    3.69    0.39
  -6  -7   5    4.45    0.50
   5   7  -5   55.26    1.85
  -5  -7   5   57.48    1.97
  -5  -7   5   58.25    1.92
  -5  -7   5   53.54    1.93
  -5  -7   5   57.09    1.88
   4   7  -5   41.39    1.44
  -4  -7   5   39.14    1.52
  -4  -7   5   43.60    1.49
  -4  -7   5   38.00    1.51
  -4  -7   5   41.68    1.51
  -4  -7   5   40.24    1.53
   3   7  -5    2.06    0.28
   3   7  -5    2.17    0.15
  -3  -7   5    1.12    0.27
  -3  -7   5    2.12    0.35
  -3  -7   5    2.06    0.30
   2   7  -5    5.06    0.31
   2   7  -5    4.84    0.39
  -2  -7   5    5.26    0.56
  -2  -7   5    5.04    0.52
  -1  -7   5    1.66    0.35
  -1  -7   5    2.10    0.27
  -1  -7   5    2.36    0.37
   0  -7   5    4.23    0.56
   0  -7   5    5.32    0.55
   0  -7   5    4.75    0.37
   1  -7   5    0.35    0.22
   2  -7   5    2.78    0.47
   3  -7   5    0.10    0.20
   9   6  -5   15.47    0.90
  -9  -6   5   15.46    0.81
   8   6  -5    0.70    0.23
  -8  -6   5    0.88    0.24
  -8  -6   5    0.62    0.19
   7   6  -5    7.85    0.58
  -7  -6   5    9.16    0.52
  -7  -6   5    9.15    0.58
  -7  -6   5    8.42    0.45
   6   6  -5    1.25    0.25
  -6  -6   5    1.06    0.26
  -6  -6   5    1.63    0.21
  -6  -6   5    1.29    0.23
  -6  -6   5    1.26    0.22
  -6  -6   5    0.95    0.25
   5   6  -5    5.28    0.39
  -5  -6   5    4.56    0.36
  -5  -6   5    5.77    0.46
  -5  -6   5    4.98    0.37
  -5  -6   5    5.36    0.44
  -5  -6   5    5.43    0.34
  -5  -6   5    5.56    0.37
  -5  -6   5    5.72    0.39
   4   6  -5    3.48    0.35
  -4  -6   5    3.72    0.41
  -4  -6   5    3.07    0.34
  -4  -6   5    3.00    0.33
  -4  -6   5    3.63    0.31
  -4  -6   5    3.40    0.41
  -4  -6   5    3.71    0.33
   3   6  -5    2.20    0.17
   3   6  -5    2.00    0.26
  -3  -6   5    2.43    0.33
  -3  -6   5    2.02    0.28
  -3  -6   5    2.23    0.30
  -3  -6   5    1.63    0.25
  -3  -6   5    1.19    0.25
  -3  -6   5    2.08    0.30
   2   6  -5   20.07    0.85
   2   6  -5   20.16    0.73
  -2  -6   5   21.26    0.75
  -2  -6   5   19.95    0.90
  -2  -6   5   20.81    0.89
  -2  -6   5   19.19    0.92
  -2  -6   5   21.18    0.98
  -2  -6   5   21.16    0.96
  -2  -6   5   20.21    0.90
  -2  -6   5   19.42    0.90
   1   6  -5   61.25    2.16
   1   6  -5   65.23    1.88
  -1  -6   5   62.47    1.84
  -1  -6   5   59.59    2.04
  -1  -6   5   66.06    2.24
  -1  -6   5   60.16    2.22
   0  -6   5   37.00    1.55
   0  -6   5   38.33    1.25
   0  -6   5   37.51    1.54
   0  -6   5   36.47    1.40
   1  -6   5    4.36    0.34
   1  -6   5    4.58    0.54
  -2   6  -5    0.89    0.13
   2  -6   5    0.31    0.20
  -3   6  -5    0.65    0.14
   3  -6   5    0.82    0.28
  -4   6  -5    1.78    0.23
   4  -6   5    2.13    0.44
   9   5  -5   11.39    0.73
  -9  -5   5    9.37    0.64
   8   5  -5    7.93    0.58
  -8  -5   5    8.86    0.56
  -8  -5   5    9.69    0.59
   7   5  -5    0.75    0.21
  -7  -5   5    0.67    0.21
  -7  -5   5    0.53    0.14
  -7  -5   5    0.64    0.21
  -7  -5   5    0.43    0.22
  -7  -5   5    0.71    0.19
   6   5  -5   16.53    0.81
  -6  -5   5   17.42    0.68
  -6  -5   5   15.71    0.81
  -6  -5   5   17.31    0.80
  -6  -5   5   16.98    0.76
  -6  -5   5   18.71    0.76
   5   5  -5   24.17    0.98
   5   5  -5   23.11    0.72
  -5  -5   5   21.99    0.94
  -5  -5   5   22.78    0.81
  -5  -5   5   22.33    0.95
  -5  -5   5   23.73    0.90
  -5  -5   5   22.19    0.92
   4   5  -5    1.66    0.18
   4   5  -5    1.81    0.25
   4   5  -5    1.75    0.23
  -4  -5   5    1.73    0.24
  -4  -5   5    2.09    0.29
  -4  -5   5    1.77    0.23
  -4  -5   5    1.36    0.25
  -4  -5   5    1.78    0.24
  -4  -5   5    1.83    0.25
  -4  -5   5    1.79    0.23
  -4  -5   5    1.98    0.22
   3   5  -5   69.31    2.15
   3   5  -5   71.94    2.31
   3   5  -5   70.38    1.92
   3   5  -5   68.99    2.20
  -3  -5   5   72.15    1.93
  -3  -5   5   72.69    2.25
  -3  -5   5   69.31    2.18
  -3  -5   5   69.26    2.18
  -3  -5   5   67.39    2.18
  -3  -5   5   75.06    2.33
  -3  -5   5   70.04    2.20
  -3  -5   5   69.33    2.32
   2   5  -5    2.84    0.22
   2   5  -5    2.72    0.29
   2   5  -5    2.42    0.30
   2   5  -5    2.55    0.28
  -2  -5   5    2.63    0.32
  -2  -5   5    2.38    0.28
  -2  -5   5    2.15    0.30
  -2  -5   5    2.32    0.30
  -2  -5   5    2.56    0.31
  -2  -5   5    2.44    0.30
  -2  -5   5    2.48    0.20
  -2  -5   5    2.17    0.27
   1   5  -5   17.01    0.66
   1   5  -5   17.32    0.79
   1   5  -5   17.41    0.81
  -1  -5   5   17.63    0.78
  -1  -5   5   15.39    0.81
  -1  -5   5   17.89    0.83
  -1  -5   5   16.74    0.63
  -1  -5   5   16.77    0.76
  -1  -5   5   16.39    0.77
  -1  -5   5   15.56    0.79
  -1  -5   5   16.22    0.81
   0   5  -5    1.60    0.22
   0   5  -5    1.06    0.23
   0   5  -5    1.10    0.23
   0  -5   5    1.30    0.19
   0  -5   5    1.17    0.25
   0  -5   5    1.52    0.28
   0  -5   5    1.25    0.24
   0  -5   5    0.64    0.19
   0  -5   5    1.26    0.26
   0  -5   5    1.13    0.22
  -1   5  -5    1.76    0.31
  -1   5  -5    2.12    0.17
   1  -5   5    1.59    0.31
   1  -5   5    1.94    0.36
   1  -5   5    1.84    0.24
  -2   5  -5   23.91    0.83
  -2   5  -5   23.75    1.17
   2  -5   5   25.45    1.17
  -3   5  -5   16.33    0.67
  -3   5  -5   16.54    0.96
   3  -5   5   15.82    0.92
  -4   5  -5    0.13    0.12
   4  -5   5   -0.11    0.15
  -5   5  -5    1.62    0.26
   5  -5   5    1.54    0.37
   9   4  -5    7.99    0.61
   9   4  -5    7.60    0.62
   8   4  -5    6.67    0.55
   8   4  -5    7.16    0.55
  -8  -4   5    8.14    0.54
  -8  -4   5    7.89    0.53
   7   4  -5    2.97    0.20
   7   4  -5    3.10    0.41
   7   4  -5    3.17    0.40
  -7  -4   5    3.20    0.38
  -7  -4   5    3.38    0.27
  -7  -4   5    2.69    0.34
  -7  -4   5    3.26    0.36
  -7  -4   5    3.31    0.40
   6   4  -5    3.95    0.36
   6   4  -5    4.51    0.25
  -6  -4   5    4.24    0.34
  -6  -4   5    4.56    0.35
  -6  -4   5    3.69    0.39
  -6  -4   5    4.66    0.39
  -6  -4   5    4.80    0.30
   5   4  -5   19.53    0.65
   5   4  -5   19.15    0.81
  -5  -4   5   18.17    0.80
  -5  -4   5   19.37    0.84
  -5  -4   5   19.50    0.70
  -5  -4   5   17.65    0.80
  -5  -4   5   18.89    0.77
  -5  -4   5   19.83    0.82
   4   4  -5   30.98    0.97
   4   4  -5   30.35    1.11
   4   4  -5   32.25    1.15
   4   4  -5   31.16    1.11
   4   4  -5   30.73    1.02
  -4  -4   5   30.53    1.15
  -4  -4   5   28.77    1.10
  -4  -4   5   31.46    1.12
  -4  -4   5   30.16    1.07
  -4  -4   5   29.65    0.99
  -4  -4   5   31.77    1.15
  -4  -4   5   33.23    1.02
   3   4  -5    6.51    0.33
   3   4  -5    6.57    0.30
   3   4  -5    6.71    0.34
   3   4  -5    5.83    0.38
   3   4  -5    7.02    0.36
   3   4  -5    6.54    0.39
  -3  -4   5    6.81    0.41
  -3  -4   5    6.46    0.33
  -3  -4   5    6.18    0.36
  -3  -4   5    6.09    0.36
  -3  -4   5    6.62    0.37
  -3  -4   5    6.35    0.28
  -3  -4   5    5.65    0.39
  -3  -4   5    5.83    0.38
  -3  -4   5    5.79    0.39
   2   4  -5    2.76    0.28
   2   4  -5    2.37    0.24
   2   4  -5    3.15    0.27
   2   4  -5    2.78    0.25
   2   4  -5    3.26    0.22
  -2  -4   5    2.66    0.30
  -2  -4   5    3.15    0.31
  -2  -4   5    2.85    0.30
  -2  -4   5    3.22    0.26
  -2  -4   5    2.95    0.31
  -2  -4   5    2.96    0.27
  -2  -4   5    3.18    0.19
  -2  -4   5    2.91    0.24
   1   4  -5   10.97    0.58
   1   4  -5   12.01    0.59
   1   4  -5   11.26    0.40
   1   4  -5   10.78    0.51
   1   4  -5   11.55    0.49
  -1  -4   5   11.82    0.60
  -1  -4   5   10.89    0.59
  -1  -4   5   10.86    0.55
  -1  -4   5   11.14    0.55
  -1  -4   5   11.06    0.53
  -1  -4   5   11.71    0.59
  -1  -4   5   12.32    0.57
  -1  -4   5   11.23    0.55
  -1  -4   5   11.56    0.60
  -1  -4   5   11.93    0.46
   0   4  -5   13.00    0.67
   0   4  -5   12.31    0.67
   0   4  -5   13.09    0.43
   0   4  -5   14.11    0.58
   0   4  -5   14.47    0.45
   0  -4   5   13.05    0.62
   0  -4   5   12.97    0.64
   0  -4   5   13.60    0.69
   0  -4   5   13.08    0.63
   0  -4   5   14.22    0.71
   0  -4   5   12.89    0.52
   0  -4   5   12.30    0.67
   0  -4   5   12.45    0.66
   0  -4   5   14.38    0.61
  -1   4  -5   73.20    1.95
  -1   4  -5   67.54    1.92
  -1   4  -5   68.59    2.38
  -1   4  -5   69.70    2.41
   1  -4   5   72.75    2.42
   1  -4   5   66.88    2.32
   1  -4   5   66.40    2.23
   1  -4   5   71.62    1.99
   1  -4   5   69.76    2.12
  -2   4  -5    0.20    0.07
  -2   4  -5    0.67    0.19
  -2   4  -5    0.38    0.12
   2  -4   5    0.31    0.17
  -3   4  -5   56.26    1.68
  -3   4  -5   56.32    2.11
   3  -4   5   53.87    2.03
  -4   4  -5    1.88    0.26
  -4   4  -5    1.74    0.37
   4  -4   5    2.04    0.37
  -5   4  -5    0.32    0.15
   5  -4   5    0.16    0.20
   5  -4   5    0.32    0.15
  -6   4  -5    3.52    0.39
   6  -4   5    3.57    0.40
   9   3  -5    2.11    0.39
   9   3  -5    2.90    0.42
   8   3  -5   16.60    0.65
   8   3  -5   16.14    0.85
   8   3  -5   15.51    0.88
  -8  -3   5   17.95    0.81
   7   3  -5   10.80    0.47
   7   3  -5   10.16    0.60
   7   3  -5    9.23    0.61
  -7  -3   5    8.97    0.59
  -7  -3   5    9.81    0.61
  -7  -3   5   10.92    0.58
  -7  -3   5    9.40    0.60
  -7  -3   5    9.82    0.59
   6   3  -5    6.65    0.46
   6   3  -5    6.91    0.48
   6   3  -5    6.65    0.29
   6   3  -5    7.60    0.37
  -6  -3   5    7.58    0.47
  -6  -3   5    7.37    0.47
  -6  -3   5    6.97    0.38
  -6  -3   5    6.82    0.47
  -6  -3   5    6.30    0.46
  -6  -3   5    7.27    0.45
   5   3  -5   41.44    1.39
   5   3  -5   39.16    1.41
   5   3  -5   42.51    1.24
   5   3  -5   40.42    1.44
   5   3  -5   38.91    1.15
  -5  -3   5   40.97    1.37
  -5  -3   5   38.66    1.38
  -5  -3   5   43.03    1.46
  -5  -3   5   39.05    1.44
  -5  -3   5   40.12    1.26
  -5  -3   5   39.16    1.34
  -5  -3   5   39.80    1.16
   4   3  -5   17.59    0.63
   4   3  -5   17.93    0.74
   4   3  -5   18.02    0.68
   4   3  -5   17.93    0.71
   4   3  -5   17.57    0.74
   4   3  -5   17.77    0.67
   4   3  -5   16.91    0.74
   4   3  -5   16.47    0.58
  -4  -3   5   17.59    0.72
  -4  -3   5   16.51    0.74
  -4  -3   5   17.96    0.70
  -4  -3   5   17.30    0.63
  -4  -3   5   18.13    0.76
  -4  -3   5   17.72    0.57
  -4  -3   5   17.15    0.73
   3   3  -5   15.66    0.54
   3   3  -5   16.41    0.63
   3   3  -5   15.90    0.66
   3   3  -5   15.46    0.58
   3   3  -5   15.92    0.64
   3   3  -5   15.70    0.68
   3   3  -5   16.77    0.64
   3   3  -5   15.00    0.67
  -3  -3   5   15.74    0.57
  -3  -3   5   15.93    0.57
  -3  -3   5   16.48    0.69
  -3  -3   5   15.22    0.65
  -3  -3   5   14.87    0.67
  -3  -3   5   16.14    0.63
  -3  -3   5   15.78    0.66
  -3  -3   5   15.41    0.51
   2   3  -5  141.90    3.65
   2   3  -5  141.58    3.86
   2   3  -5  141.80    4.14
   2   3  -5  130.89    4.14
   2   3  -5  140.29    4.16
   2   3  -5  139.97    3.82
   2   3  -5  137.62    3.69
  -2  -3   5  138.10    3.99
  -2  -3   5  132.74    3.77
  -2  -3   5  136.12    3.73
  -2  -3   5  138.66    4.16
  -2  -3   5  143.51    4.17
  -2  -3   5  131.44    3.76
  -2  -3   5  140.22    3.95
  -2  -3   5  138.65    3.57
  -2  -3   5  138.91    3.93
   1   3  -5  102.33    2.70
   1   3  -5  102.15    2.69
   1   3  -5  100.93    2.74
   1   3  -5   95.62    2.72
   1   3  -5   98.74    3.06
   1   3  -5  100.53    2.52
   1   3  -5   97.54    3.06
   1   3  -5   98.25    2.82
  -1  -3   5   97.35    2.71
  -1  -3   5   96.45    2.76
  -1  -3   5   97.63    2.61
  -1  -3   5   95.47    2.95
  -1  -3   5  102.10    3.07
  -1  -3   5   99.49    3.07
  -1  -3   5   96.84    2.89
  -1  -3   5   99.66    2.91
  -1  -3   5  100.18    2.78
   0   3  -5   11.56    0.42
   0   3  -5   11.65    0.58
   0   3  -5   11.78    0.49
   0   3  -5   10.98    0.50
   0   3  -5   11.66    0.41
   0   3  -5   11.83    0.59
   0  -3   5   12.66    0.61
   0  -3   5   11.98    0.55
   0  -3   5   11.41    0.52
   0  -3   5   11.27    0.44
   0  -3   5   10.98    0.58
   0  -3   5   10.68    0.49
   0  -3   5   11.07    0.52
   0  -3   5   11.08    0.56
   0  -3   5   12.13    0.59
  -1   3  -5    0.35    0.14
  -1   3  -5    0.36    0.08
  -1   3  -5    0.28    0.13
  -1   3  -5    0.39    0.15
  -1   3  -5    0.49    0.10
   1  -3   5    0.65    0.13
   1  -3   5    0.39    0.12
   1  -3   5    0.40    0.14
   1  -3   5    0.55    0.16
   1  -3   5    0.44    0.13
   1  -3   5    0.33    0.12
  -2   3  -5    4.15    0.37
  -2   3  -5    3.32    0.39
  -2   3  -5    3.07    0.24
  -2   3  -5    3.40    0.23
   2  -3   5    4.01    0.29
   2  -3   5    3.99    0.41
   2  -3   5    3.59    0.40
   2  -3   5    3.59    0.30
   2  -3   5    4.07    0.44
  -3   3  -5   16.03    0.64
  -3   3  -5   15.41    0.82
  -3   3  -5   14.59    0.62
   3  -3   5   15.65    0.67
   3  -3   5   14.50    0.78
   3  -3   5   15.74    0.82
   3  -3   5   16.82    0.73
  -4   3  -5    6.60    0.40
  -4   3  -5    6.64    0.41
  -4   3  -5    6.61    0.53
   4  -3   5    5.56    0.43
   4  -3   5    6.88    0.43
   4  -3   5    6.68    0.52
  -5   3  -5    0.65    0.18
   5  -3   5    0.62    0.19
   5  -3   5    0.37    0.21
   5  -3   5    0.74    0.21
  -6   3  -5    3.36    0.39
   6  -3   5    4.75    0.48
   6  -3   5    4.07    0.40
  -7   3  -5    9.09    0.59
   7  -3   5   10.74    0.81
   7  -3   5    9.77    0.54
   7  -3   5    8.02    0.58
   9   2  -5    1.77    0.36
   9   2  -5    1.68    0.35
   9   2  -5    1.85    0.26
   8   2  -5    0.78    0.14
   8   2  -5    0.96    0.26
   8   2  -5    1.03    0.26
   8   2  -5    0.88    0.18
  -8  -2   5    0.91    0.22
   7   2  -5   13.30    0.53
   7   2  -5   12.21    0.57
   7   2  -5   13.56    0.72
   7   2  -5   14.04    0.76
  -7  -2   5   12.89    0.66
  -7  -2   5   13.51    0.74
  -7  -2   5   12.65    0.74
  -7  -2   5   13.12    0.72
   6   2  -5   29.35    1.10
   6   2  -5   28.32    0.97
   6   2  -5   27.62    0.90
   6   2  -5   26.65    1.11
  -6  -2   5   27.97    1.10
  -6  -2   5   27.00    1.04
  -6  -2   5   25.89    1.12
  -6  -2   5   28.13    0.92
  -6  -2   5   26.23    1.15
  -6  -2   5   27.94    1.10
   5   2  -5   15.73    0.75
   5   2  -5   17.02    0.72
   5   2  -5   17.14    0.78
   5   2  -5   17.54    0.73
   5   2  -5   16.20    0.61
   5   2  -5   16.87    0.65
  -5  -2   5   17.10    0.77
  -5  -2   5   15.43    0.73
  -5  -2   5   16.24    0.76
  -5  -2   5   16.32    0.71
  -5  -2   5   17.51    0.66
  -5  -2   5   16.54    0.77
  -5  -2   5   17.62    0.74
  -5  -2   5   17.36    0.60
   4   2  -5   77.03    2.45
   4   2  -5   79.45    2.28
   4   2  -5   74.07    2.10
   4   2  -5   77.98    2.25
   4   2  -5   76.23    2.43
   4   2  -5   79.52    2.40
   4   2  -5   74.45    2.28
   4   2  -5   72.15    2.00
   4   2  -5   74.54    2.14
  -4  -2   5   80.55    2.45
  -4  -2   5   79.06    2.23
  -4  -2   5   74.83    2.30
  -4  -2   5   77.55    2.05
  -4  -2   5   75.97    2.45
  -4  -2   5   76.61    2.16
  -4  -2   5   72.31    2.43
  -4  -2   5   71.82    2.24
   3   2  -5    2.42    0.22
   3   2  -5    2.07    0.15
   3   2  -5    2.19    0.24
   3   2  -5    1.97    0.23
   3   2  -5    2.39    0.18
   3   2  -5    2.21    0.18
   3   2  -5    2.26    0.20
   3   2  -5    2.34    0.25
   3   2  -5    2.05    0.24
   3   2  -5    1.97    0.18
   3   2  -5    1.92    0.20
  -3  -2   5    1.69    0.22
  -3  -2   5    1.87    0.21
  -3  -2   5    2.48    0.26
  -3  -2   5    1.97    0.17
  -3  -2   5    2.10    0.24
  -3  -2   5    2.37    0.15
  -3  -2   5    2.19    0.25
   2   2  -5    0.49    0.13
   2   2  -5    0.26    0.09
   2   2  -5    0.26    0.08
   2   2  -5    0.22    0.09
   2   2  -5    0.46    0.13
   2   2  -5    0.29    0.10
  -2  -2   5    0.12    0.10
  -2  -2   5    0.47    0.13
  -2  -2   5    0.30    0.11
  -2  -2   5    0.43    0.13
  -2  -2   5    0.15    0.09
   1   2  -5   19.25    0.63
   1   2  -5   19.27    0.57
   1   2  -5   18.69    0.76
   1   2  -5   20.37    0.67
   1   2  -5   19.09    0.77
   1   2  -5   19.80    0.66
   1   2  -5   19.48    0.67
   1   2  -5   19.28    0.71
   1   2  -5   18.86    0.76
   1   2  -5   18.38    0.64
   1   2  -5   20.05    0.58
   1   2  -5   18.86    0.68
  -1  -2   5   19.55    0.67
  -1  -2   5   19.62    0.69
  -1  -2   5   19.03    0.70
  -1  -2   5   19.21    0.77
  -1  -2   5   19.64    0.77
  -1  -2   5   20.20    0.62
  -1  -2   5   20.08    0.70
  -1  -2   5   19.92    0.72
  -1  -2   5   19.06    0.71
   0   2  -5    0.54    0.11
   0   2  -5    0.36    0.10
   0   2  -5    0.43    0.12
   0   2  -5    0.37    0.08
   0   2  -5    0.29    0.11
   0   2  -5    0.31    0.10
   0   2  -5    0.27    0.08
   0   2  -5    0.30    0.11
   0  -2   5    0.28    0.10
   0  -2   5    0.30    0.10
   0  -2   5    0.44    0.10
   0  -2   5    0.22    0.09
   0  -2   5    0.37    0.12
   0  -2   5    0.30    0.12
   0  -2   5    0.51    0.09
   0  -2   5    0.43    0.12
  -1   2  -5   57.75    1.81
  -1   2  -5   56.59    1.94
  -1   2  -5   57.99    1.73
  -1   2  -5   58.99    1.69
  -1   2  -5   59.96    1.82
  -1   2  -5   58.38    1.68
  -1   2  -5   59.58    1.94
  -1   2  -5   57.65    1.61
   1  -2   5   58.49    1.70
   1  -2   5   57.24    1.82
   1  -2   5   57.38    1.60
   1  -2   5   57.03    1.87
   1  -2   5   58.59    1.71
   1  -2   5   59.76    1.94
   1  -2   5   59.54    1.69
   1  -2   5   58.49    1.94
   1  -2   5   57.77    1.68
   1  -2   5   57.93    1.93
   1  -2   5   57.04    1.80
  -2   2  -5   99.26    2.85
  -2   2  -5   99.37    2.82
  -2   2  -5  103.54    3.23
  -2   2  -5   96.70    3.16
  -2   2  -5  101.88    3.01
  -2   2  -5   96.83    2.69
   2  -2   5  105.52    2.77
   2  -2   5  101.85    2.98
   2  -2   5   99.20    2.79
   2  -2   5   98.60    3.17
   2  -2   5   99.44    3.08
   2  -2   5  100.77    3.00
   2  -2   5  100.86    2.76
   2  -2   5  101.63    3.18
  -3   2  -5   29.37    1.13
  -3   2  -5   30.76    1.03
  -3   2  -5   29.03    1.20
  -3   2  -5   28.69    1.23
  -3   2  -5   27.73    0.95
   3  -2   5   28.65    1.03
   3  -2   5   30.02    1.20
   3  -2   5   29.89    0.99
   3  -2   5   30.59    1.01
   3  -2   5   31.00    1.17
  -4   2  -5    6.35    0.39
  -4   2  -5    7.53    0.56
  -4   2  -5    6.83    0.51
   4  -2   5    6.61    0.49
   4  -2   5    7.03    0.40
   4  -2   5    7.37    0.44
   4  -2   5    7.42    0.51
  -5   2  -5    2.51    0.38
  -5   2  -5    2.51    0.29
   5  -2   5    2.81    0.30
   5  -2   5    2.54    0.32
  -6   2  -5    3.74    0.38
   6  -2   5    3.10    0.45
   6  -2   5    4.22    0.41
   6  -2   5    3.22    0.31
  -7   2  -5    1.97    0.31
   7  -2   5    1.81    0.24
   7  -2   5    1.90    0.31
   7  -2   5    2.13    0.37
   7  -2   5    1.72    0.39
   7  -2   5    1.81    0.25
   9   1  -5   15.91    0.77
   9   1  -5   15.41    0.95
   9   1  -5   15.05    0.64
   9   1  -5   16.68    0.93
   8   1  -5    9.94    0.70
   8   1  -5   10.76    0.53
   8   1  -5   11.18    0.69
   8   1  -5   11.02    0.59
  -8  -1   5   11.29    0.60
   7   1  -5    0.42    0.16
   7   1  -5    0.62    0.17
   7   1  -5    0.67    0.21
   7   1  -5    0.49    0.19
  -7  -1   5    0.75    0.17
   6   1  -5   26.90    0.99
   6   1  -5   27.83    1.09
   6   1  -5   26.68    0.94
   6   1  -5   26.73    0.83
   6   1  -5   26.88    1.12
  -6  -1   5   26.14    1.11
  -6  -1   5   27.72    1.05
  -6  -1   5   26.23    1.17
  -6  -1   5   27.65    0.94
  -6  -1   5   26.16    1.15
   5   1  -5   33.94    1.25
   5   1  -5   32.00    1.26
   5   1  -5   34.98    1.21
   5   1  -5   33.14    1.13
   5   1  -5   35.11    1.34
   5   1  -5   33.93    1.10
   5   1  -5   33.54    1.02
  -5  -1   5   34.31    1.19
  -5  -1   5   34.50    1.07
  -5  -1   5   32.56    1.31
  -5  -1   5   34.09    1.24
  -5  -1   5   34.48    1.14
  -5  -1   5   35.13    1.33
  -5  -1   5   32.83    1.23
  -5  -1   5   33.81    1.31
   4   1  -5    2.25    0.18
   4   1  -5    2.02    0.21
   4   1  -5    2.00    0.26
   4   1  -5    2.08    0.23
   4   1  -5    2.38    0.28
   4   1  -5    2.02    0.25
   4   1  -5    2.23    0.24
   4   1  -5    2.05    0.26
   4   1  -5    2.24    0.28
  -4  -1   5    2.29    0.27
  -4  -1   5    2.39    0.28
  -4  -1   5    2.06    0.21
  -4  -1   5    2.32    0.18
  -4  -1   5    2.16    0.26
  -4  -1   5    2.30    0.26
  -4  -1   5    2.11    0.25
  -4  -1   5    1.92    0.25
   3   1  -5   38.52    1.14
   3   1  -5   37.01    1.14
   3   1  -5   37.54    1.32
   3   1  -5   37.94    1.34
   3   1  -5   37.85    1.22
   3   1  -5   37.70    1.31
   3   1  -5   37.49    1.11
   3   1  -5   38.01    1.27
   3   1  -5   37.56    1.17
   3   1  -5   37.40    0.98
   3   1  -5   39.07    1.11
   3   1  -5   37.03    1.16
   3   1  -5   39.46    1.21
  -3  -1   5   37.97    1.33
  -3  -1   5   38.45    1.24
  -3  -1   5   35.49    1.19
  -3  -1   5   37.23    1.32
  -3  -1   5   37.27    1.16
  -3  -1   5   37.43    1.15
  -3  -1   5   38.84    1.09
  -3  -1   5   36.06    1.21
  -3  -1   5   39.66    1.34
   2   1  -5   21.72    0.77
   2   1  -5   21.22    0.62
   2   1  -5   21.28    0.68
   2   1  -5   21.98    0.81
   2   1  -5   21.35    0.69
   2   1  -5   21.25    0.83
   2   1  -5   22.71    0.76
   2   1  -5   22.56    0.71
   2   1  -5   21.43    0.74
   2   1  -5   21.18    0.77
   2   1  -5   20.70    0.72
   2   1  -5   21.02    0.62
   2   1  -5   21.11    0.68
   2   1  -5   20.96    0.71
   2   1  -5   21.72    0.82
  -2  -1   5   21.01    0.82
  -2  -1   5   20.03    0.74
  -2  -1   5   21.37    0.71
  -2  -1   5   22.00    0.76
  -2  -1   5   21.25    0.82
  -2  -1   5   21.92    0.75
  -2  -1   5   21.22    0.66
   1   1  -5   43.63    1.22
   1   1  -5   45.90    1.36
   1   1  -5   46.17    1.36
   1   1  -5   45.17    1.48
   1   1  -5   46.39    1.32
   1   1  -5   46.04    1.37
   1   1  -5   43.93    1.27
   1   1  -5   46.19    1.32
   1   1  -5   44.31    1.47
   1   1  -5   44.96    1.30
   1   1  -5   44.10    1.29
  -1  -1   5   44.71    1.33
  -1  -1   5   44.55    1.23
  -1  -1   5   42.60    1.47
  -1  -1   5   45.02    1.38
  -1  -1   5   44.42    1.29
  -1  -1   5   44.54    1.31
  -1  -1   5   45.80    1.30
  -1  -1   5   45.88    1.48
   0   1  -5   26.23    0.82
   0   1  -5   25.32    0.82
   0   1  -5   25.67    0.93
   0   1  -5   25.50    0.74
   0   1  -5   25.12    0.79
   0   1  -5   25.61    0.79
   0   1  -5   24.77    0.84
   0   1  -5   24.49    0.80
   0   1  -5   25.21    0.91
   0  -1   5   25.09    0.80
   0  -1   5   24.99    0.91
   0  -1   5   25.25    0.79
   0  -1   5   25.32    0.80
   0  -1   5   24.91    0.74
   0  -1   5   25.34    0.78
   0  -1   5   23.87    0.83
   0  -1   5   25.38    0.92
   0  -1   5   25.65    0.80
  -1   1  -5   18.67    0.74
  -1   1  -5   18.93    0.66
  -1   1  -5   17.74    0.66
  -1   1  -5   18.46    0.75
  -1   1  -5   18.39    0.59
  -1   1  -5   18.20    0.68
  -1   1  -5   18.34    0.63
  -1   1  -5   18.51    0.64
   1  -1   5   18.20    0.62
   1  -1   5   18.52    0.64
   1  -1   5   18.58    0.74
   1  -1   5   18.28    0.57
   1  -1   5   18.86    0.75
   1  -1   5   18.13    0.67
   1  -1   5   18.70    0.69
  -2   1  -5   84.54    2.41
  -2   1  -5   88.36    2.38
  -2   1  -5   87.47    2.55
  -2   1  -5   86.85    2.29
  -2   1  -5   82.87    2.68
  -2   1  -5   84.34    2.71
  -2   1  -5   87.81    2.45
  -2   1  -5   85.68    2.55
   2  -1   5   84.47    2.37
   2  -1   5   85.80    2.34
   2  -1   5   83.12    2.32
   2  -1   5   85.12    2.32
   2  -1   5   84.94    2.36
   2  -1   5   87.60    2.70
  -3   1  -5   10.81    0.44
  -3   1  -5   10.56    0.52
  -3   1  -5   10.78    0.52
  -3   1  -5   10.18    0.58
  -3   1  -5   10.27    0.55
   3  -1   5   12.07    0.59
   3  -1   5   10.38    0.41
   3  -1   5   10.08    0.47
   3  -1   5   10.06    0.44
   3  -1   5   10.11    0.44
   3  -1   5   10.34    0.47
  -4   1  -5    0.79    0.19
  -4   1  -5    0.89    0.19
  -4   1  -5    0.21    0.10
  -4   1  -5    0.57    0.14
  -4   1  -5    0.51    0.18
   4  -1   5    0.78    0.15
   4  -1   5    0.64    0.13
   4  -1   5    0.30    0.13
   4  -1   5    0.32    0.12
   4  -1   5    0.50    0.12
  -5   1  -5    8.48    0.57
  -5   1  -5    9.38    0.47
  -5   1  -5    9.78    0.65
   5  -1   5    8.97    0.59
   5  -1   5    9.67    0.57
   5  -1   5    8.26    0.42
   5  -1   5    9.83    0.50
   5  -1   5    8.87    0.43
   5  -1   5    9.15    0.48
  -6   1  -5   17.82    0.76
   6  -1   5   18.11    0.83
   6  -1   5   18.59    0.68
   6  -1   5   17.58    0.66
   6  -1   5   18.94    0.95
   6  -1   5   18.09    0.77
  -7   1  -5    0.87    0.21
   7  -1   5    1.05    0.31
   7  -1   5    0.86    0.14
   7  -1   5    1.02    0.14
   7  -1   5    0.87    0.20
   7  -1   5    1.06    0.25
  -8   1  -5    0.19    0.17
   8  -1   5    0.09    0.15
   8  -1   5    0.01    0.19
   8  -1   5    0.50    0.27
   8   0  -5    3.14    0.45
   8   0  -5    2.92    0.34
   8   0  -5    3.07    0.39
   8   0  -5    3.19    0.46
  -8   0   5    2.93    0.36
   7   0  -5    1.17    0.17
   7   0  -5    0.97    0.23
   7   0  -5    1.36    0.29
   7   0  -5    1.18    0.29
   7   0  -5    1.00    0.21
   7   0  -5    1.04    0.16
  -7   0   5    1.28    0.23
   6   0  -5   27.88    1.16
   6   0  -5   27.54    1.02
   6   0  -5   28.39    0.94
   6   0  -5   26.27    1.04
   6   0  -5   29.00    1.15
  -6   0   5   26.37    1.22
  -6   0   5   28.36    1.00
   5   0  -5    4.37    0.37
   5   0  -5    4.44    0.29
   5   0  -5    5.28    0.37
   5   0  -5    4.14    0.33
   5   0  -5    4.46    0.38
   5   0  -5    4.57    0.40
   5   0  -5    4.59    0.24
   5   0  -5    4.55    0.32
  -5   0   5    5.26    0.42
  -5   0   5    4.44    0.38
  -5   0   5    3.96    0.34
  -5   0   5    4.66    0.30
  -5   0   5    4.31    0.39
  -5   0   5    4.57    0.39
   4   0  -5    1.29    0.24
   4   0  -5    1.45    0.13
   4   0  -5    1.43    0.17
   4   0  -5    1.13    0.20
   4   0  -5    1.45    0.20
   4   0  -5    1.58    0.24
   4   0  -5    1.33    0.12
   4   0  -5    1.11    0.19
   4   0  -5    1.28    0.18
  -4   0   5    1.45    0.25
  -4   0   5    1.47    0.24
  -4   0   5    1.35    0.23
  -4   0   5    1.42    0.20
  -4   0   5    1.52    0.18
  -4   0   5    1.17    0.20
  -4   0   5    1.20    0.21
  -4   0   5    1.47    0.22
   3   0  -5    8.67    0.40
   3   0  -5    9.12    0.38
   3   0  -5    8.46    0.34
   3   0  -5    8.56    0.48
   3   0  -5    7.88    0.42
   3   0  -5    9.41    0.49
   3   0  -5    9.59    0.49
   3   0  -5    8.22    0.41
   3   0  -5    8.58    0.47
   3   0  -5    9.00    0.44
   3   0  -5    8.94    0.38
   3   0  -5    8.62    0.39
   3   0  -5    8.35    0.32
  -3   0   5    8.10    0.46
  -3   0   5    7.93    0.43
  -3   0   5    8.45    0.48
  -3   0   5    8.39    0.36
  -3   0   5    8.04    0.43
  -3   0   5    8.41    0.43
  -3   0   5    7.55    0.40
  -3   0   5    9.44    0.49
   2   0  -5   22.99    0.79
   2   0  -5   23.69    0.78
   2   0  -5   24.20    0.76
   2   0  -5   23.89    0.81
   2   0  -5   23.37    0.81
   2   0  -5   22.65    0.74
   2   0  -5   23.41    0.79
   2   0  -5   22.83    0.71
   2   0  -5   24.46    0.90
   2   0  -5   24.04    0.75
   2   0  -5   22.22    0.83
   2   0  -5   24.15    0.89
  -2   0   5   23.96    0.82
  -2   0   5   24.01    0.73
  -2   0   5   23.98    0.77
  -2   0   5   22.65    0.80
  -2   0   5   23.81    0.78
  -2   0   5   23.35    0.89
  -2   0   5   24.37    0.90
  -2   0   5   23.83    0.83
  -2   0   5   22.94    0.90
   1   0  -5    4.14    0.16
   1   0  -5    4.80    0.25
   1   0  -5    4.91    0.24
   1   0  -5    4.82    0.26
   1   0  -5    4.27    0.21
   1   0  -5    4.61    0.25
   1   0  -5    4.48    0.23
   1   0  -5    4.64    0.26
   1   0  -5    4.54    0.25
   1   0  -5    3.96    0.28
   1   0  -5    4.99    0.26
   1   0  -5    4.54    0.28
   1   0  -5    4.40    0.27
   1   0  -5    3.94    0.22
   1   0  -5    4.36    0.28
  -1   0   5    4.53    0.21
  -1   0   5    4.06    0.23
  -1   0   5    4.26    0.25
  -1   0   5    4.56    0.23
  -1   0   5    4.05    0.25
  -1   0   5    4.20    0.25
  -1   0   5    4.25    0.28
  -1   0   5    4.35    0.24
  -1   0   5    4.39    0.24
  -1   0   5    4.44    0.29
   0   0  -5    7.27    0.31
   0   0  -5    7.40    0.30
   0   0  -5    7.30    0.32
   0   0  -5    7.23    0.34
   0   0  -5    7.31    0.31
   0   0  -5    7.60    0.34
   0   0  -5    7.49    0.38
   0   0  -5    6.79    0.37
   0   0  -5    6.98    0.26
   0   0  -5    6.75    0.34
   0   0  -5    7.64    0.33
   0   0  -5    8.09    0.33
   0   0   5    7.09    0.37
   0   0   5    7.29    0.32
   0   0   5    7.53    0.34
   0   0   5    7.15    0.31
   0   0   5    7.49    0.34
   0   0   5    7.60    0.26
   0   0   5    7.54    0.38
   0   0   5    7.04    0.32
   0   0   5    7.24    0.28
   0   0   5    7.14    0.33
  -1   0  -5   39.21    1.19
  -1   0  -5   39.04    1.30
  -1   0  -5   38.46    1.08
  -1   0  -5   37.93    1.14
  -1   0  -5   38.91    1.21
  -1   0  -5   39.07    1.21
  -1   0  -5   39.21    1.15
  -1   0  -5   39.60    1.13
  -1   0  -5   38.00    1.28
   1   0   5   39.25    1.11
   1   0   5   38.57    1.29
   1   0   5   39.70    1.29
   1   0   5   39.04    1.08
   1   0   5   39.83    1.11
   1   0   5   39.21    1.05
   1   0   5   37.12    1.19
   1   0   5   41.00    1.15
   1   0   5   39.39    1.15
   1   0   5   40.26    1.13
   1   0   5   40.16    1.14
  -2   0  -5   48.93    1.50
  -2   0  -5   47.81    1.59
  -2   0  -5   48.04    1.48
  -2   0  -5   46.89    1.42
  -2   0  -5   48.34    1.51
  -2   0  -5   49.05    1.61
  -2   0  -5   49.37    1.34
  -2   0  -5   50.10    1.42
   2   0   5   48.92    1.60
   2   0   5   49.85    1.41
   2   0   5   50.89    1.39
   2   0   5   48.83    1.33
   2   0   5   49.10    1.39
   2   0   5   47.83    1.47
   2   0   5   49.75    1.35
   2   0   5   47.89    1.58
   2   0   5   48.79    1.35
  -3   0  -5    5.66    0.32
  -3   0  -5    5.01    0.35
  -3   0  -5    5.64    0.32
  -3   0  -5    5.29    0.34
  -3   0  -5    5.89    0.34
  -3   0  -5    4.96    0.25
   3   0   5    5.26    0.28
   3   0   5    5.60    0.35
   3   0   5    5.43    0.30
   3   0   5    5.11    0.25
   3   0   5    5.49    0.25
   3   0   5    5.50    0.28
   3   0   5    5.32    0.22
   3   0   5    5.88    0.34
  -4   0  -5   19.26    0.79
  -4   0  -5   20.07    0.66
  -4   0  -5   17.71    0.81
  -4   0  -5   19.14    0.86
  -4   0  -5   19.88    0.78
   4   0   5   19.97    0.63
   4   0   5   19.26    0.62
   4   0   5   19.51    0.69
   4   0   5   20.09    0.72
   4   0   5   19.29    0.69
   4   0   5   18.83    0.57
   4   0   5   19.52    0.81
   4   0   5   18.91    0.71
  -5   0  -5    0.85    0.15
  -5   0  -5    0.99    0.20
  -5   0  -5    1.01    0.24
  -5   0  -5    0.75    0.20
  -5   0  -5    0.95    0.20
  -5   0  -5    0.79    0.18
   5   0   5    0.74    0.16
   5   0   5    0.67    0.11
   5   0   5    0.83    0.11
   5   0   5    0.85    0.15
   5   0   5    1.08    0.23
   5   0   5    1.06    0.17
   5   0   5    0.89    0.09
   5   0   5    1.02    0.15
  -6   0  -5   32.63    1.07
  -6   0  -5   31.89    1.26
  -6   0  -5   31.19    1.37
  -6   0  -5   29.90    1.28
   6   0   5   30.74    1.15
   6   0   5   30.82    0.86
   6   0   5   31.74    1.05
   6   0   5   30.62    1.04
   6   0   5   31.62    1.28
  -7   0  -5    1.86    0.26
   7   0   5    1.79    0.27
   7   0   5    1.87    0.35
   7   0   5    2.14    0.25
   7   0   5    2.17    0.25
   7   0   5    1.88    0.29
   8   0   5    1.23    0.24
   8   0   5    1.95    0.34
   8   0   5    2.04    0.39
   8   0   5    1.93    0.23
   8   0   5    1.97    0.24
   9   0   5    0.31    0.23
   9   0   5    0.07    0.23
   9   0   5    0.33    0.12
   9   0   5    0.24    0.11
   8  -1  -5    3.44    0.50
   8  -1  -5    4.01    0.29
   8  -1  -5    3.80    0.41
   8  -1  -5    4.06    0.48
   8  -1  -5    3.39    0.28
   8  -1  -5    3.59    0.49
  -8   1   5    3.72    0.41
   7  -1  -5    2.73    0.29
   7  -1  -5    2.52    0.39
   7  -1  -5    2.89    0.35
   7  -1  -5    3.06    0.43
   7  -1  -5    2.65    0.36
  -7   1   5    2.41    0.32
   6  -1  -5   10.90    0.64
   6  -1  -5   10.41    0.60
   6  -1  -5   11.21    0.58
   6  -1  -5    9.60    0.64
   6  -1  -5   11.20    0.53
  -6   1   5   11.24    0.56
  -6   1   5    9.31    0.69
   5  -1  -5   44.88    1.51
   5  -1  -5   47.68    1.64
   5  -1  -5   46.64    1.31
   5  -1  -5   47.10    1.57
   5  -1  -5   47.65    1.52
   5  -1  -5   48.71    1.47
   5  -1  -5   47.72    1.83
   5  -1  -5   44.35    1.75
   5  -1  -5   45.24    1.64
  -5   1   5   46.26    1.46
  -5   1   5   50.18    1.83
  -5   1   5   47.05    1.80
   4  -1  -5   18.22    0.88
   4  -1  -5   18.14    0.73
   4  -1  -5   19.17    0.71
   4  -1  -5   16.96    0.85
   4  -1  -5   18.05    0.69
   4  -1  -5   17.55    0.75
   4  -1  -5   17.64    0.78
   4  -1  -5   19.55    0.79
  -4   1   5   18.06    0.87
  -4   1   5   17.89    0.68
  -4   1   5   17.47    0.71
  -4   1   5   18.99    0.88
  -4   1   5   18.30    0.75
  -4   1   5   17.74    0.80
  -4   1   5   17.75    0.86
   3  -1  -5    2.96    0.23
   3  -1  -5    3.32    0.23
   3  -1  -5    2.85    0.29
   3  -1  -5    2.54    0.27
   3  -1  -5    3.17    0.34
   3  -1  -5    3.20    0.30
   3  -1  -5    2.55    0.31
   3  -1  -5    2.57    0.26
   3  -1  -5    2.52    0.29
  -3   1   5    2.67    0.21
  -3   1   5    3.04    0.31
  -3   1   5    3.14    0.25
  -3   1   5    2.74    0.32
  -3   1   5    3.06    0.34
  -3   1   5    3.13    0.32
  -3   1   5    3.18    0.23
  -3   1   5    2.82    0.32
   2  -1  -5   45.87    1.41
   2  -1  -5   43.78    1.41
   2  -1  -5   45.39    1.33
   2  -1  -5   45.35    1.52
   2  -1  -5   41.87    1.52
   2  -1  -5   44.81    1.30
   2  -1  -5   42.41    1.35
   2  -1  -5   43.72    1.35
   2  -1  -5   43.49    1.32
   2  -1  -5   45.27    1.39
   2  -1  -5   43.37    1.31
  -2   1   5   45.22    1.53
  -2   1   5   43.35    1.25
  -2   1   5   44.43    1.33
  -2   1   5   46.34    1.33
  -2   1   5   39.71    1.31
  -2   1   5   44.92    1.52
  -2   1   5   43.31    1.30
  -2   1   5   44.39    1.42
  -2   1   5   44.66    1.37
   1  -1  -5   41.58    1.19
   1  -1  -5   39.92    1.21
   1  -1  -5   41.44    1.22
   1  -1  -5   41.07    1.28
   1  -1  -5   38.90    1.22
   1  -1  -5   41.78    1.21
   1  -1  -5   41.44    1.21
   1  -1  -5   41.18    1.38
   1  -1  -5   40.13    1.39
  -1   1   5   39.95    1.20
  -1   1   5   42.13    1.25
  -1   1   5   41.20    1.38
  -1   1   5   40.48    1.14
  -1   1   5   40.10    1.23
  -1   1   5   43.00    1.21
  -1   1   5   40.99    1.29
  -1   1   5   42.84    1.40
   0  -1  -5    1.31    0.14
   0  -1  -5    1.64    0.18
   0  -1  -5    1.43    0.15
   0  -1  -5    1.14    0.17
   0  -1  -5    1.31    0.15
   0  -1  -5    1.10    0.15
   0  -1  -5    1.57    0.15
   0  -1  -5    1.46    0.14
   0  -1  -5    1.59    0.14
   0  -1  -5    1.41    0.14
   0   1   5    1.29    0.17
   0   1   5    1.13    0.14
   0   1   5    1.29    0.13
   0   1   5    1.36    0.18
   0   1   5    1.65    0.15
   0   1   5    1.32    0.14
   0   1   5    1.34    0.10
   0   1   5    1.41    0.15
   0   1   5    1.42    0.13
   0   1   5    1.32    0.15
   0   1   5    1.23    0.14
  -1  -1  -5   11.96    0.48
  -1  -1  -5   12.10    0.50
  -1  -1  -5   11.93    0.45
  -1  -1  -5   12.33    0.46
  -1  -1  -5   12.13    0.44
  -1  -1  -5   11.80    0.38
  -1  -1  -5   11.96    0.50
  -1  -1  -5   11.79    0.43
   1   1   5   12.39    0.50
   1   1   5   12.66    0.39
   1   1   5   12.71    0.44
   1   1   5   11.99    0.41
   1   1   5   12.23    0.42
   1   1   5   12.50    0.43
   1   1   5   12.26    0.49
   1   1   5   12.04    0.42
   1   1   5   12.27    0.38
  -2  -1  -5   10.75    0.46
  -2  -1  -5   11.00    0.41
  -2  -1  -5   10.75    0.42
  -2  -1  -5   10.78    0.42
  -2  -1  -5   10.74    0.46
   2   1   5   10.63    0.33
   2   1   5   11.53    0.38
   2   1   5   10.49    0.39
   2   1   5   10.81    0.32
   2   1   5   10.59    0.42
   2   1   5   11.28    0.47
   2   1   5   10.30    0.32
   2   1   5   10.91    0.46
   2   1   5   10.81    0.38
   2   1   5   10.68    0.35
  -3  -1  -5   25.70    0.85
  -3  -1  -5   25.43    0.90
  -3  -1  -5   24.39    0.91
  -3  -1  -5   23.44    0.89
  -3  -1  -5   25.16    0.70
  -3  -1  -5   25.50    0.86
  -3  -1  -5   24.72    0.81
   3   1   5   24.10    0.87
   3   1   5   26.62    0.91
   3   1   5   25.32    0.78
   3   1   5   25.07    0.90
   3   1   5   25.60    0.75
   3   1   5   25.70    0.77
   3   1   5   24.85    0.74
  -4  -1  -5    1.70    0.22
  -4  -1  -5    1.88    0.21
  -4  -1  -5    2.15    0.21
  -4  -1  -5    1.80    0.13
  -4  -1  -5    1.62    0.21
  -4  -1  -5    1.73    0.21
   4   1   5    1.72    0.24
   4   1   5    1.43    0.21
   4   1   5    1.95    0.16
   4   1   5    1.50    0.11
   4   1   5    1.60    0.18
   4   1   5    1.68    0.14
   4   1   5    1.21    0.13
  -5  -1  -5    5.96    0.40
  -5  -1  -5    5.53    0.38
  -5  -1  -5    6.61    0.42
  -5  -1  -5    6.47    0.39
  -5  -1  -5    5.97    0.42
  -5  -1  -5    6.35    0.30
   5   1   5    5.75    0.35
   5   1   5    6.13    0.43
   5   1   5    6.01    0.28
   5   1   5    6.07    0.28
   5   1   5    6.01    0.28
  -6  -1  -5    0.23    0.14
  -6  -1  -5    0.27    0.14
  -6  -1  -5    0.08    0.12
  -6  -1  -5    0.09    0.11
   6   1   5    0.04    0.11
   6   1   5    0.13    0.15
   6   1   5    0.13    0.09
   6   1   5    0.01    0.07
  -7  -1  -5    0.06    0.14
  -7  -1  -5    0.27    0.16
   7   1   5    0.35    0.19
   7   1   5    0.27    0.09
   7   1   5    0.06    0.08
   7   1   5    0.15    0.12
   7   1   5    0.48    0.17
   8   1   5    0.50    0.15
   8   1   5    0.76    0.09
   8   1   5    0.46    0.24
   8   1   5    0.83    0.21
   9   1   5   11.78    0.82
   9   1   5   12.81    0.59
   7  -2  -5   -0.02    0.16
   7  -2  -5   -0.19    0.11
   7  -2  -5    0.28    0.16
   7  -2  -5    0.23    0.17
   7  -2  -5    0.02    0.15
  -7   2   5    0.12    0.14
   6  -2  -5    5.97    0.52
   6  -2  -5    6.65    0.50
   6  -2  -5    6.90    0.29
   6  -2  -5    5.37    0.58
   6  -2  -5    5.78    0.44
   6  -2  -5    6.67    0.44
  -6   2   5    6.32    0.43
   5  -2  -5    2.72    0.38
   5  -2  -5    2.69    0.31
   5  -2  -5    2.84    0.31
   5  -2  -5    2.15    0.37
   5  -2  -5    2.37    0.31
   5  -2  -5    2.45    0.34
  -5   2   5    1.97    0.35
  -5   2   5    2.65    0.30
   4  -2  -5    2.13    0.26
   4  -2  -5    2.59    0.37
   4  -2  -5    2.51    0.27
   4  -2  -5    2.29    0.30
   4  -2  -5    2.10    0.32
   4  -2  -5    2.36    0.29
  -4   2   5    2.26    0.34
  -4   2   5    1.86    0.30
  -4   2   5    2.53    0.38
  -4   2   5    2.34    0.25
   3  -2  -5    4.31    0.38
   3  -2  -5    4.22    0.32
   3  -2  -5    3.69    0.40
   3  -2  -5    4.37    0.31
   3  -2  -5    3.89    0.31
   3  -2  -5    3.67    0.28
   3  -2  -5    4.38    0.31
   3  -2  -5    4.74    0.38
  -3   2   5    4.12    0.29
  -3   2   5    4.31    0.36
  -3   2   5    4.42    0.35
  -3   2   5    4.30    0.38
  -3   2   5    4.15    0.32
  -3   2   5    3.75    0.35
  -3   2   5    3.96    0.26
  -3   2   5    4.30    0.31
   2  -2  -5   22.18    0.78
   2  -2  -5   22.22    0.82
   2  -2  -5   21.49    0.81
   2  -2  -5   20.63    0.79
   2  -2  -5   20.48    0.90
   2  -2  -5   22.33    0.91
   2  -2  -5   21.52    0.74
   2  -2  -5   21.46    0.91
   2  -2  -5   20.67    0.79
   2  -2  -5   21.20    0.76
  -2   2   5   21.62    0.83
  -2   2   5   20.48    0.89
  -2   2   5   17.37    0.72
  -2   2   5   20.62    0.69
  -2   2   5   20.86    0.77
  -2   2   5   22.64    0.90
  -2   2   5   22.03    0.91
   1  -2  -5   96.44    2.63
   1  -2  -5   96.57    2.66
   1  -2  -5   97.47    2.91
   1  -2  -5   98.02    2.79
   1  -2  -5   97.28    2.70
   1  -2  -5   98.26    3.04
   1  -2  -5   97.58    2.85
   1  -2  -5  101.71    2.71
   1  -2  -5   96.63    3.02
   1  -2  -5   96.65    2.69
  -1   2   5  103.51    3.04
  -1   2   5  100.30    2.68
  -1   2   5   94.88    3.00
  -1   2   5   98.07    2.85
  -1   2   5   95.22    2.54
  -1   2   5   99.67    3.03
  -1   2   5   94.05    2.65
  -1   2   5   96.92    2.62
   0  -2  -5   31.17    0.93
   0  -2  -5   26.93    0.89
   0  -2  -5   31.34    1.06
   0  -2  -5   30.77    0.92
   0  -2  -5   31.66    0.95
   0  -2  -5   29.73    0.93
   0  -2  -5   29.66    0.98
   0  -2  -5   30.20    1.07
   0  -2  -5   28.67    0.98
   0  -2  -5   29.76    1.05
   0   2   5   30.23    0.91
   0   2   5   30.52    0.88
   0   2   5   31.26    0.80
   0   2   5   29.98    1.06
   0   2   5   29.00    0.91
   0   2   5   29.88    0.93
   0   2   5   30.96    1.06
   0   2   5   32.83    0.92
  -1  -2  -5   14.56    0.57
  -1  -2  -5   15.34    0.50
  -1  -2  -5   15.45    0.54
  -1  -2  -5   13.56    0.58
  -1  -2  -5   14.88    0.49
   1   2   5   15.14    0.53
   1   2   5   16.48    0.43
   1   2   5   15.12    0.49
  -2  -2  -5    0.46    0.09
  -2  -2  -5    0.42    0.09
  -3  -2  -5   15.05    0.58
  -3  -2  -5   15.59    0.52
  -3  -2  -5   15.91    0.54
  -3  -2  -5   15.45    0.63
  -3  -2  -5   15.56    0.54
  -3  -2  -5   15.21    0.46
  -3  -2  -5   15.83    0.53
   3   2   5   16.08    0.62
   3   2   5   15.87    0.58
   3   2   5   15.80    0.47
  -4  -2  -5   26.61    0.81
  -4  -2  -5   24.37    0.84
  -4  -2  -5   24.10    0.90
  -4  -2  -5   24.98    0.84
  -4  -2  -5   24.81    0.88
   4   2   5   27.12    0.89
   4   2   5   24.82    0.93
   4   2   5   25.85    0.73
   4   2   5   24.82    0.82
  -5  -2  -5   64.04    1.96
  -5  -2  -5   59.80    1.86
  -5  -2  -5   59.00    1.86
  -5  -2  -5   62.85    1.78
  -5  -2  -5   60.38    2.00
  -5  -2  -5   60.60    1.95
   5   2   5   62.38    1.66
   5   2   5   61.69    1.65
   5   2   5   59.36    1.97
   5   2   5   60.39    1.63
   5   2   5   60.68    1.82
  -6  -2  -5    1.65    0.22
  -6  -2  -5    1.41    0.24
  -6  -2  -5    1.42    0.22
  -6  -2  -5    1.48    0.22
   6   2   5    1.62    0.13
   6   2   5    1.31    0.26
   6   2   5    1.76    0.16
   6   2   5    1.51    0.24
  -7  -2  -5   13.73    0.67
  -7  -2  -5   12.21    0.65
  -7  -2  -5   12.72    0.66
  -7  -2  -5   12.39    0.71
   7   2   5   12.99    0.49
   7   2   5   13.45    0.75
   7   2   5   13.94    0.67
  -8  -2  -5    0.04    0.20
  -8  -2  -5    0.15    0.15
   8   2   5    0.35    0.15
   8   2   5    0.05    0.08
   8   2   5    0.07    0.16
   9   2   5    2.55    0.37
   9   2   5    1.51    0.36
   7  -3  -5    6.81    0.61
   7  -3  -5    7.94    0.68
   7  -3  -5    6.95    0.48
  -7   3   5    6.63    0.48
   6  -3  -5   18.53    0.93
   6  -3  -5   16.72    0.95
   6  -3  -5   16.97    0.80
   6  -3  -5   17.43    0.96
   5  -3  -5    4.99    0.38
   5  -3  -5    4.51    0.48
   5  -3  -5    4.10    0.38
  -5   3   5    4.42    0.34
  -5   3   5    4.55    0.56
   4  -3  -5    0.72    0.20
   4  -3  -5    0.59    0.17
   4  -3  -5    0.85    0.27
   4  -3  -5    0.79    0.20
  -4   3   5    0.64    0.22
  -4   3   5    0.91    0.17
   3  -3  -5    2.06    0.33
   3  -3  -5    2.42    0.29
   3  -3  -5    2.21    0.30
   3  -3  -5    2.14    0.33
   3  -3  -5    2.34    0.30
   3  -3  -5    2.39    0.27
  -3   3   5    1.92    0.27
  -3   3   5    2.35    0.24
  -3   3   5    2.08    0.31
  -3   3   5    2.40    0.35
   2  -3  -5    0.56    0.15
   2  -3  -5    1.14    0.17
   2  -3  -5    0.78    0.18
   2  -3  -5    0.44    0.15
   2  -3  -5    0.99    0.22
   2  -3  -5    0.96    0.17
   2  -3  -5    0.96    0.21
   2  -3  -5    0.95    0.16
  -2   3   5    0.76    0.12
  -2   3   5    0.77    0.22
  -2   3   5    1.16    0.17
  -2   3   5    0.83    0.20
  -2   3   5    0.69    0.16
  -2   3   5    0.94    0.19
   1  -3  -5    3.40    0.28
   1  -3  -5    3.28    0.26
   1  -3  -5    3.51    0.25
   1  -3  -5    3.18    0.27
   1  -3  -5    4.23    0.34
   1  -3  -5    3.04    0.33
   1  -3  -5    2.94    0.23
   1  -3  -5    3.67    0.31
   1  -3  -5    2.69    0.23
   1  -3  -5    3.05    0.33
  -1   3   5    4.34    0.28
  -1   3   5    3.27    0.30
  -1   3   5    3.30    0.28
  -1   3   5    3.70    0.24
  -1   3   5    2.97    0.25
  -1   3   5    3.58    0.19
  -1   3   5    3.43    0.31
   0  -3  -5    0.55    0.12
   0  -3  -5    0.69    0.14
   0  -3  -5    0.54    0.12
   0  -3  -5    0.66    0.14
   0  -3  -5    0.54    0.12
   0  -3  -5    0.48    0.10
   0  -3  -5    0.40    0.13
   0   3   5    0.63    0.09
   0   3   5    0.42    0.09
   0   3   5    0.64    0.11
  -1  -3  -5   64.82    1.80
  -1  -3  -5   61.98    2.02
  -1  -3  -5   65.34    1.91
  -1  -3  -5   65.37    2.02
  -1  -3  -5   65.29    2.02
  -1  -3  -5   63.65    1.79
  -1  -3  -5   64.31    1.90
   1   3   5   61.92    1.73
   1   3   5   65.89    1.73
   1   3   5   65.62    1.76
   1   3   5   67.23    2.02
   1   3   5   64.95    2.01
  -2  -3  -5   42.98    1.27
  -2  -3  -5   41.86    1.20
  -2  -3  -5   43.30    1.35
  -2  -3  -5   42.70    1.36
  -2  -3  -5   44.05    1.35
  -2  -3  -5   43.23    1.16
   2   3   5   42.18    1.34
   2   3   5   43.63    1.35
  -3  -3  -5   19.63    0.74
  -3  -3  -5   18.53    0.60
  -3  -3  -5   18.77    0.56
  -3  -3  -5   19.67    0.65
  -3  -3  -5   19.40    0.58
  -3  -3  -5   18.26    0.59
  -3  -3  -5   18.54    0.64
   3   3   5   19.48    0.73
   3   3   5   19.56    0.65
   3   3   5   19.50    0.64
  -4  -3  -5    2.43    0.15
  -4  -3  -5    2.19    0.15
  -4  -3  -5    2.27    0.10
  -4  -3  -5    2.30    0.15
  -4  -3  -5    2.26    0.14
   4   3   5    2.61    0.28
   4   3   5    2.40    0.16
   4   3   5    2.44    0.15
  -5  -3  -5   66.23    2.01
  -5  -3  -5   64.88    2.05
  -5  -3  -5   67.61    1.83
  -5  -3  -5   68.01    1.93
  -5  -3  -5   64.00    1.99
  -5  -3  -5   65.21    1.93
   5   3   5   64.93    2.11
   5   3   5   66.06    2.01
   5   3   5   67.61    2.01
  -6  -3  -5   42.33    1.33
  -6  -3  -5   39.18    1.33
  -6  -3  -5   41.48    1.34
  -6  -3  -5   39.54    1.42
  -6  -3  -5   40.40    1.35
   6   3   5   39.58    1.48
   6   3   5   42.91    1.37
   6   3   5   41.88    1.35
   6   3   5   39.84    1.14
  -7  -3  -5    0.19    0.13
  -7  -3  -5    0.05    0.09
  -7  -3  -5    0.09    0.11
  -7  -3  -5    0.15    0.12
   7   3   5    0.08    0.11
   7   3   5    0.19    0.17
  -8  -3  -5    0.37    0.17
  -8  -3  -5    0.66    0.19
   8   3   5    0.95    0.22
   8   3   5    0.40    0.21
  -9  -3  -5    9.53    0.60
   9   3   5    7.64    0.55
   9   3   5    7.77    0.64
  10   3   5    0.45    0.26
   6  -4  -5    5.16    0.60
  -6   4   5    5.32    0.40
   5  -4  -5    2.35    0.39
   5  -4  -5    2.28    0.35
  -5   4   5    2.16    0.28
   4  -4  -5    0.31    0.18
   4  -4  -5    0.18    0.15
  -4   4   5   -0.02    0.15
  -4   4   5    0.25    0.13
   3  -4  -5   33.11    1.32
   3  -4  -5   32.99    1.26
  -3   4   5   32.36    1.42
  -3   4   5   33.02    1.21
  -3   4   5   32.37    1.05
   2  -4  -5    7.77    0.51
   2  -4  -5    6.73    0.46
   2  -4  -5    7.56    0.54
   2  -4  -5    7.26    0.55
  -2   4   5    7.87    0.34
  -2   4   5    8.18    0.46
  -2   4   5    7.62    0.54
  -2   4   5    7.93    0.52
   1  -4  -5    9.14    0.54
   1  -4  -5    8.76    0.49
   1  -4  -5    8.71    0.45
   1  -4  -5    7.93    0.53
   1  -4  -5    9.05    0.55
   1  -4  -5    9.09    0.56
   1  -4  -5    8.26    0.44
   1  -4  -5    9.34    0.49
  -1   4   5    9.21    0.46
  -1   4   5    8.97    0.44
  -1   4   5    9.28    0.30
  -1   4   5    8.50    0.53
  -1   4   5    8.92    0.51
   0  -4  -5   22.40    0.93
   0  -4  -5   21.91    0.78
   0  -4  -5   21.72    0.91
   0  -4  -5   21.42    0.92
   0  -4  -5   22.69    0.82
   0  -4  -5   22.39    0.86
   0  -4  -5   21.96    0.94
   0  -4  -5   23.16    0.81
   0   4   5   22.51    0.92
   0   4   5   23.30    0.93
   0   4   5   22.76    0.87
   0   4   5   22.65    0.77
   0   4   5   22.16    0.76
  -1  -4  -5    3.55    0.27
  -1  -4  -5    4.24    0.30
  -1  -4  -5    4.16    0.26
  -1  -4  -5    3.86    0.28
  -1  -4  -5    3.92    0.26
  -1  -4  -5    3.53    0.22
  -1  -4  -5    3.79    0.18
  -1  -4  -5    3.95    0.33
  -1  -4  -5    3.61    0.25
   1   4   5    3.42    0.20
   1   4   5    3.55    0.27
   1   4   5    3.62    0.18
   1   4   5    3.47    0.19
   1   4   5    3.55    0.27
  -2  -4  -5    0.37    0.09
  -2  -4  -5    0.35    0.11
  -2  -4  -5    0.32    0.10
  -2  -4  -5    0.31    0.08
  -2  -4  -5    0.38    0.07
  -2  -4  -5    0.24    0.09
  -2  -4  -5    0.26    0.08
   2   4   5    0.29    0.09
  -3  -4  -5    2.77    0.17
  -3  -4  -5    2.86    0.24
  -3  -4  -5    2.88    0.16
  -3  -4  -5    2.71    0.17
  -3  -4  -5    3.22    0.17
   3   4   5    2.90    0.17
   3   4   5    2.88    0.17
   3   4   5    3.02    0.30
  -4  -4  -5    3.59    0.19
  -4  -4  -5    3.55    0.29
  -4  -4  -5    3.87    0.17
   4   4   5    3.68    0.31
  -5  -4  -5    8.49    0.32
  -5  -4  -5    7.59    0.30
  -5  -4  -5    8.07    0.30
  -5  -4  -5    8.77    0.32
  -5  -4  -5    8.41    0.31
   5   4   5    8.86    0.52
  -6  -4  -5    1.87    0.14
  -6  -4  -5    1.65    0.17
  -6  -4  -5    1.75    0.19
  -6  -4  -5    1.87    0.17
   6   4   5    1.60    0.28
  -7  -4  -5    6.57    0.38
  -7  -4  -5    6.34    0.41
  -7  -4  -5    7.80    0.40
   7   4   5    6.45    0.51
  -8  -4  -5    4.71    0.28
  -8  -4  -5    5.11    0.36
  -8  -4  -5    4.17    0.35
   8   4   5    4.71    0.53
  -9  -4  -5   15.95    0.79
   9   4   5   16.03    0.93
   9   4   5   15.98    0.82
 -10  -4  -5    2.84    0.40
  10   4   5    2.78    0.48
   5  -5  -5    1.97    0.37
   5  -5  -5    2.29    0.42
  -5   5   5    1.86    0.26
   4  -5  -5    2.73    0.42
   4  -5  -5    2.16    0.37
  -4   5   5    2.08    0.24
   3  -5  -5   13.00    0.78
   3  -5  -5   14.32    0.78
  -3   5   5   13.65    0.53
  -3   5   5   14.33    0.73
  -3   5   5   14.50    0.86
   2  -5  -5   56.70    2.12
   2  -5  -5   60.79    1.99
  -2   5   5   62.05    2.23
  -2   5   5   60.60    1.61
  -2   5   5   59.68    1.90
   1  -5  -5   12.66    0.63
   1  -5  -5   10.69    0.71
   1  -5  -5   14.03    0.76
   1  -5  -5   14.33    0.61
   1  -5  -5   14.12    0.69
   1  -5  -5   15.40    0.79
  -1   5   5   14.56    0.76
  -1   5   5   13.90    0.62
  -1   5   5   14.58    0.63
  -1   5   5   14.58    0.71
   0  -5  -5    0.03    0.12
   0  -5  -5    0.09    0.13
   0  -5  -5    0.14    0.11
   0  -5  -5    0.01    0.08
   0  -5  -5    0.46    0.15
   0  -5  -5    0.17    0.11
   0  -5  -5    0.13    0.12
   0   5   5   -0.07    0.08
   0   5   5    0.02    0.11
   0   5   5    0.13    0.10
   0   5   5    0.02    0.09
  -1  -5  -5    8.45    0.53
  -1  -5  -5    8.19    0.42
  -1  -5  -5    7.00    0.44
  -1  -5  -5    8.08    0.46
  -1  -5  -5    6.39    0.41
  -1  -5  -5    7.64    0.38
  -1  -5  -5    7.02    0.46
  -1  -5  -5    8.14    0.39
   1   5   5    8.53    0.46
   1   5   5    7.83    0.33
   1   5   5    7.76    0.31
   1   5   5    7.09    0.32
  -2  -5  -5    3.32    0.24
  -2  -5  -5    3.43    0.26
  -2  -5  -5    3.62    0.25
  -2  -5  -5    3.33    0.27
  -2  -5  -5    2.86    0.37
  -2  -5  -5    3.25    0.25
  -2  -5  -5    2.89    0.19
   2   5   5    3.23    0.26
  -3  -5  -5   54.87    1.51
  -3  -5  -5   54.08    1.67
  -3  -5  -5   51.64    1.69
  -3  -5  -5   54.69    1.66
  -3  -5  -5   54.78    1.85
  -3  -5  -5   53.35    1.60
   3   5   5   54.59    1.66
   3   5   5   52.95    1.66
  -4  -5  -5    5.41    0.36
  -4  -5  -5    4.94    0.21
  -4  -5  -5    5.55    0.29
  -4  -5  -5    5.30    0.22
   4   5   5    5.53    0.40
  -5  -5  -5   10.23    0.42
  -5  -5  -5   10.56    0.56
   5   5   5    9.56    0.56
  -6  -5  -5   31.52    0.94
   6   5   5   28.30    1.20
  -7  -5  -5    0.24    0.09
  -7  -5  -5    0.50    0.11
   7   5   5    0.07    0.16
  -8  -5  -5    0.20    0.11
  -8  -5  -5    0.11    0.09
   8   5   5    0.31    0.19
  -9  -5  -5    0.15    0.15
   9   5   5    0.51    0.25
 -10  -5  -5    0.18    0.15
  10   5   5   -0.11    0.18
   4  -6  -5    1.13    0.30
   4  -6  -5    0.74    0.26
   3  -6  -5    1.25    0.29
   3  -6  -5    0.50    0.23
  -3   6   5    0.78    0.22
   2  -6  -5    0.14    0.18
   2  -6  -5    0.94    0.24
  -2   6   5    0.47    0.19
   1  -6  -5    8.01    0.54
   1  -6  -5    7.32    0.58
  -1   6   5    8.36    0.48
   0  -6  -5   17.26    0.64
   0  -6  -5   15.53    0.73
   0  -6  -5   16.03    0.71
   0  -6  -5   14.04    0.74
   0  -6  -5   15.63    0.85
   0   6   5   15.17    0.73
   0   6   5   15.45    0.64
   0   6   5   14.83    0.62
  -1  -6  -5   33.87    1.40
  -1  -6  -5   36.94    1.14
  -1  -6  -5   35.62    1.39
  -1  -6  -5   35.17    1.28
  -1  -6  -5   35.71    1.17
   1   6   5   30.02    1.28
   1   6   5   35.97    1.05
   1   6   5   34.01    1.04
  -2  -6  -5   74.82    2.65
  -2  -6  -5   82.21    2.47
  -2  -6  -5   82.15    2.35
  -2  -6  -5   77.85    2.27
  -2  -6  -5   81.74    2.63
  -2  -6  -5   83.16    2.57
  -3  -6  -5    0.18    0.09
  -3  -6  -5    0.11    0.10
  -3  -6  -5    0.13    0.09
  -3  -6  -5    0.21    0.14
  -3  -6  -5    0.22    0.08
  -3  -6  -5    0.12    0.09
   3   6   5    0.16    0.09
  -4  -6  -5    0.80    0.13
  -4  -6  -5    0.92    0.23
  -4  -6  -5    0.89    0.14
  -4  -6  -5    0.65    0.17
   4   6   5    0.97    0.22
  -5  -6  -5    4.89    0.37
  -5  -6  -5    5.46    0.44
  -5  -6  -5    4.99    0.31
   5   6   5    4.52    0.41
  -6  -6  -5   10.51    0.48
  -6  -6  -5   10.23    0.61
   6   6   5    9.22    0.61
   7   6   5    4.15    0.49
  -8  -6  -5    3.19    0.23
  -8  -6  -5    3.86    0.23
   8   6   5    3.59    0.49
  -9  -6  -5    7.05    0.41
   9   6   5    7.98    0.65
 -10  -6  -5    5.75    0.41
  10   6   5    6.64    0.72
   3  -7  -5    4.63    0.63
   3  -7  -5    5.20    0.60
  -3   7   5    5.24    0.53
   2  -7  -5    2.26    0.41
   2  -7  -5    2.92    0.44
  -2   7   5    2.48    0.35
   1  -7  -5   10.04    0.73
  -1   7   5    9.58    0.54
   0  -7  -5    2.17    0.38
   0   7   5    2.21    0.26
   0   7   5    2.09    0.25
  -1  -7  -5    1.22    0.30
  -1  -7  -5    1.40    0.23
   1   7   5    1.02    0.15
   1   7   5    1.17    0.16
  -2  -7  -5   11.75    0.60
  -2  -7  -5    8.78    0.48
  -2  -7  -5    9.07    0.66
  -3  -7  -5   19.50    0.79
  -3  -7  -5   17.81    0.68
  -3  -7  -5   19.11    0.85
  -3  -7  -5   18.04    0.95
  -3  -7  -5   18.55    0.73
  -4  -7  -5   28.59    1.09
  -4  -7  -5   31.52    1.08
  -4  -7  -5   30.83    1.29
  -4  -7  -5   27.87    0.89
  -4  -7  -5   29.49    1.03
  -5  -7  -5   27.15    1.03
  -5  -7  -5   27.24    1.17
  -5  -7  -5   23.79    0.85
  -5  -7  -5   27.35    0.97
  -5  -7  -5   24.65    0.91
  -6  -7  -5   11.74    0.65
  -6  -7  -5   12.22    0.58
  -6  -7  -5   12.59    0.72
   6   7   5   11.19    0.72
  -7  -7  -5   -0.01    0.16
  -7  -7  -5   -0.05    0.12
   7   7   5    0.06    0.17
  -8  -7  -5    3.61    0.48
   8   7   5    3.74    0.50
  -9  -7  -5    0.08    0.08
   9   7   5   -0.04    0.17
 -10  -7  -5    0.61    0.15
  10   7   5    0.87    0.29
   2  -8  -5    2.80    0.51
  -2   8   5    3.37    0.40
   1  -8  -5    1.50    0.37
  -1   8   5    1.32    0.24
   0  -8  -5   10.64    0.79
   0   8   5   10.46    0.51
   0   8   5   10.48    0.51
  -1  -8  -5    2.08    0.41
   1   8   5    2.21    0.17
   1   8   5    2.09    0.16
  -2  -8  -5    2.21    0.32
  -2  -8  -5    1.96    0.39
  -2  -8  -5    2.07    0.29
  -3  -8  -5    0.59    0.19
  -3  -8  -5    0.75    0.26
  -3  -8  -5    0.60    0.16
  -4  -8  -5    3.21    0.37
  -4  -8  -5    3.09    0.24
  -4  -8  -5    3.09    0.34
  -4  -8  -5    3.58    0.49
  -5  -8  -5    5.14    0.25
  -5  -8  -5    5.48    0.59
  -5  -8  -5    5.61    0.35
  -6  -8  -5    0.85    0.14
  -6  -8  -5    0.80    0.24
  -6  -8  -5    0.80    0.21
  -7  -8  -5    1.14    0.28
  -7  -8  -5    1.08    0.25
   7   8   5    1.17    0.31
  -8  -8  -5    6.54    0.54
   8   8   5    7.29    0.74
  -9  -8  -5    6.02    0.63
   9   8   5    7.06    0.75
   0  -9  -5   13.41    0.95
   0   9   5   13.39    0.57
   0   9   5   13.97    0.58
  -1  -9  -5   10.32    0.82
  -2  -9  -5    0.81    0.29
  -3  -9  -5    0.58    0.22
  -3  -9  -5    0.71    0.23
  -3  -9  -5    1.65    0.40
  -4  -9  -5    3.81    0.42
  -4  -9  -5    4.19    0.33
  -4  -9  -5    4.86    0.60
  -5  -9  -5    0.44    0.22
  -5  -9  -5    0.13    0.13
  -5  -9  -5    0.15    0.10
  -6  -9  -5   11.41    0.75
  -6  -9  -5    7.54    0.44
  -6  -9  -5    8.92    0.37
  -7  -9  -5    0.66    0.22
  -7  -9  -5    0.58    0.12
  -7  -9  -5    0.60    0.11
   8   9   5    0.94    0.30
  -3 -10  -5    1.54    0.39
  -4 -10  -5    7.94    0.73
  -4 -10  -5    8.32    0.57
  -5 -10  -5    6.72    0.73
  -5 -10  -5    5.02    0.44
  -5 -10  -5    7.37    0.48
  -6 -10  -5    1.94    0.27
  -6 -10  -5    1.94    0.26
  -6 -10  -5    2.06    0.37
  -6 -10  -5    2.00    0.40
  -7 -10  -5    0.14    0.12
  -7 -10  -5    0.17    0.12
  -7 -10  -5    0.24    0.21
  -7  -9   6    0.14    0.21
  -6  -9   6    3.71    0.52
  -5  -9   6    6.17    0.68
  -4  -9   6    0.34    0.24
  -4  -9   6    0.49    0.25
  -3  -9   6    8.51    0.68
  -3  -9   6    7.97    0.65
   2   9  -6    1.78    0.20
   2   9  -6    2.25    0.21
  -2  -9   6    2.35    0.46
  -2  -9   6    1.70    0.35
  -8  -8   6   14.31    0.87
  -8  -8   6   16.28    0.81
  -7  -8   6   18.82    1.00
  -7  -8   6   18.72    0.91
  -7  -8   6   19.76    0.91
  -6  -8   6    0.14    0.12
  -6  -8   6    0.11    0.14
  -6  -8   6   -0.06    0.17
  -5  -8   6    0.03    0.13
  -5  -8   6    0.13    0.18
   4   8  -6    0.66    0.19
  -4  -8   6    1.16    0.28
  -4  -8   6    0.73    0.25
   3   8  -6    2.85    0.36
  -3  -8   6    3.29    0.45
  -3  -8   6    2.82    0.43
   2   8  -6    7.92    0.41
   2   8  -6    7.47    0.52
  -2  -8   6    6.87    0.61
  -2  -8   6    6.89    0.57
   1   8  -6    1.19    0.25
  -1  -8   6    0.62    0.25
  -1  -8   6    1.10    0.23
  -1  -8   6    0.73    0.29
   0  -8   6    1.05    0.23
   0  -8   6    0.69    0.30
   0  -8   6    0.83    0.27
   1  -8   6    0.18    0.23
   1  -8   6    0.12    0.19
   9   7  -6    0.73    0.27
  -9  -7   6    0.36    0.18
   8   7  -6    0.19    0.20
  -8  -7   6    0.01    0.13
  -8  -7   6    0.22    0.19
   7   7  -6    6.27    0.52
  -7  -7   6    5.48    0.43
  -7  -7   6    5.90    0.59
  -6  -7   6    1.04    0.28
  -6  -7   6    0.78    0.19
  -6  -7   6    0.69    0.20
   5   7  -6    8.79    0.55
  -5  -7   6    9.41    0.57
  -5  -7   6    9.09    0.63
  -5  -7   6    9.34    0.57
   4   7  -6   13.74    0.71
  -4  -7   6   14.30    0.73
  -4  -7   6   14.58    0.81
  -4  -7   6   13.39    0.73
  -4  -7   6   14.56    0.77
   3   7  -6    0.12    0.08
   3   7  -6   -0.09    0.10
  -3  -7   6    0.04    0.15
  -3  -7   6    0.25    0.15
  -3  -7   6    0.15    0.15
   2   7  -6   16.32    0.79
   2   7  -6   16.58    0.66
  -2  -7   6   17.58    0.71
  -2  -7   6   15.98    0.85
  -2  -7   6   15.34    0.88
   1   7  -6   14.09    0.74
  -1  -7   6   13.72    0.86
  -1  -7   6   14.45    0.82
  -1  -7   6   14.98    0.67
   0  -7   6    0.65    0.18
   0  -7   6    0.67    0.28
   0  -7   6    0.82    0.25
   1  -7   6    0.55    0.27
   1  -7   6   -0.10    0.16
   2  -7   6    6.36    0.64
   2  -7   6    6.14    0.71
   9   6  -6    1.36    0.32
  -9  -6   6    2.76    0.39
   8   6  -6    0.53    0.22
  -8  -6   6    0.26    0.16
  -8  -6   6    0.29    0.19
   7   6  -6    1.79    0.32
  -7  -6   6    1.77    0.29
  -7  -6   6    1.18    0.27
   6   6  -6   11.63    0.69
  -6  -6   6   12.41    0.58
  -6  -6   6   13.34    0.65
  -6  -6   6   12.57    0.72
  -6  -6   6   12.84    0.67
   5   6  -6    2.43    0.31
  -5  -6   6    2.63    0.37
  -5  -6   6    2.02    0.28
  -5  -6   6    1.88    0.28
  -5  -6   6    1.62    0.30
  -5  -6   6    2.26    0.26
  -5  -6   6    2.15    0.30
   4   6  -6   12.33    0.64
  -4  -6   6   14.46    0.68
  -4  -6   6   12.49    0.70
  -4  -6   6   13.42    0.72
  -4  -6   6   13.57    0.66
  -4  -6   6   11.84    0.66
  -4  -6   6   13.12    0.66
   3   6  -6    0.14    0.09
   3   6  -6    0.02    0.10
  -3  -6   6    0.16    0.14
  -3  -6   6    0.27    0.15
  -3  -6   6    0.10    0.10
  -3  -6   6    0.43    0.18
  -3  -6   6    0.36    0.16
  -3  -6   6    0.16    0.14
   2   6  -6    6.04    0.35
   2   6  -6    5.15    0.39
  -2  -6   6    5.16    0.43
  -2  -6   6    6.19    0.44
  -2  -6   6    5.14    0.44
  -2  -6   6    5.72    0.47
  -2  -6   6    5.71    0.35
  -2  -6   6    5.41    0.44
  -1  -6   6    0.29    0.19
  -1  -6   6    0.33    0.13
  -1  -6   6    0.30    0.15
  -1  -6   6    0.25    0.18
  -1  -6   6    0.01    0.13
   0  -6   6    3.64    0.30
   0  -6   6    2.47    0.41
   0  -6   6    2.60    0.41
   0  -6   6    3.05    0.40
   1  -6   6    1.13    0.21
   1  -6   6    0.76    0.27
   1  -6   6    0.92    0.25
  -2   6  -6   11.90    0.47
   2  -6   6   12.49    0.83
   2  -6   6   12.86    0.74
  -3   6  -6   10.63    0.48
   3  -6   6   10.36    0.67
   3  -6   6    9.85    0.77
  -4   6  -6    0.17    0.12
   4  -6   6    0.14    0.21
   9   5  -6   21.82    1.09
   8   5  -6   13.86    0.78
  -8  -5   6   13.15    0.73
  -8  -5   6   13.35    0.73
   7   5  -6    0.06    0.12
  -7  -5   6   -0.01    0.12
  -7  -5   6    0.12    0.15
   6   5  -6    0.22    0.08
   6   5  -6    0.30    0.15
  -6  -5   6    0.29    0.14
  -6  -5   6    0.42    0.18
  -6  -5   6    0.35    0.11
  -6  -5   6    0.21    0.15
  -6  -5   6    0.47    0.20
   5   5  -6    0.53    0.17
   5   5  -6    0.47    0.11
   5   5  -6    0.33    0.14
  -5  -5   6    0.44    0.18
  -5  -5   6    0.39    0.12
  -5  -5   6    0.16    0.14
  -5  -5   6    0.24    0.13
  -5  -5   6    0.35    0.14
   4   5  -6    0.44    0.09
   4   5  -6    0.50    0.15
   4   5  -6    0.44    0.12
   4   5  -6    0.16    0.10
  -4  -5   6    0.54    0.18
  -4  -5   6    0.51    0.14
  -4  -5   6    0.37    0.14
  -4  -5   6    0.27    0.13
  -4  -5   6    0.45    0.17
  -4  -5   6    0.35    0.12
  -4  -5   6    0.46    0.12
   3   5  -6    0.23    0.12
   3   5  -6    0.19    0.12
   3   5  -6    0.15    0.10
   3   5  -6    0.35    0.10
   3   5  -6    0.03    0.10
  -3  -5   6    0.49    0.16
  -3  -5   6    0.25    0.11
  -3  -5   6    0.54    0.17
  -3  -5   6    0.18    0.10
  -3  -5   6    0.24    0.13
  -3  -5   6    0.52    0.16
  -3  -5   6    0.39    0.15
  -3  -5   6    0.22    0.12
   2   5  -6    0.48    0.12
   2   5  -6    0.42    0.16
   2   5  -6    0.47    0.13
   2   5  -6    0.49    0.16
  -2  -5   6    0.62    0.16
  -2  -5   6    0.69    0.16
  -2  -5   6    0.40    0.14
  -2  -5   6    0.76    0.19
  -2  -5   6    0.67    0.13
  -2  -5   6    0.55    0.18
  -2  -5   6    0.44    0.16
  -2  -5   6    0.56    0.18
   1   5  -6    0.19    0.12
   1   5  -6    0.06    0.11
   1   5  -6   -0.04    0.07
  -1  -5   6    0.10    0.14
  -1  -5   6    0.12    0.14
  -1  -5   6    0.13    0.12
  -1  -5   6    0.10    0.11
  -1  -5   6    0.01    0.10
  -1  -5   6    0.12    0.10
  -1  -5   6    0.13    0.11
   0   5  -6   20.81    0.99
   0   5  -6   21.34    0.59
   0  -5   6   20.72    0.90
   0  -5   6   19.95    0.99
   0  -5   6   20.04    0.77
   0  -5   6   19.91    0.97
   0  -5   6   21.28    1.00
  -1   5  -6    0.17    0.14
  -1   5  -6    0.14    0.08
   1  -5   6    0.09    0.15
   1  -5   6    0.02    0.12
   1  -5   6    0.15    0.11
   1  -5   6    0.12    0.16
  -2   5  -6    6.38    0.35
  -2   5  -6    5.37    0.51
   2  -5   6    5.95    0.53
   2  -5   6    6.32    0.47
  -3   5  -6    1.81    0.39
  -3   5  -6    1.99    0.24
   3  -5   6    1.67    0.34
  -4   5  -6   -0.16    0.10
   4  -5   6    0.07    0.16
   4  -5   6    0.03    0.15
  -5   5  -6    0.50    0.17
   5  -5   6    0.82    0.30
   9   4  -6    6.01    0.53
   9   4  -6    6.31    0.66
   8   4  -6    5.32    0.57
   8   4  -6    5.43    0.28
   8   4  -6    5.06    0.53
  -8  -4   6    4.92    0.45
  -8  -4   6    4.62    0.49
   7   4  -6    1.16    0.27
   7   4  -6    1.51    0.18
   7   4  -6    1.39    0.27
  -7  -4   6    1.36    0.26
  -7  -4   6    1.19    0.28
  -7  -4   6    1.37    0.27
   6   4  -6    5.26    0.30
   6   4  -6    4.60    0.38
  -6  -4   6    5.20    0.33
  -6  -4   6    5.34    0.42
  -6  -4   6    4.63    0.38
  -6  -4   6    5.96    0.42
  -6  -4   6    4.02    0.44
   5   4  -6   52.94    1.75
   5   4  -6   47.58    1.80
   5   4  -6   55.32    1.57
  -5  -4   6   52.75    1.74
  -5  -4   6   54.92    1.75
  -5  -4   6   53.39    1.85
  -5  -4   6   53.24    1.78
  -5  -4   6   54.35    1.63
   4   4  -6   14.87    0.66
   4   4  -6   15.61    0.61
   4   4  -6   14.27    0.51
   4   4  -6   14.83    0.57
   4   4  -6   13.78    0.67
   4   4  -6   13.61    0.66
  -4  -4   6   14.09    0.67
  -4  -4   6   14.80    0.64
  -4  -4   6   13.46    0.68
  -4  -4   6   14.70    0.69
  -4  -4   6   13.43    0.67
  -4  -4   6   13.89    0.52
  -4  -4   6   14.82    0.59
   3   4  -6    5.64    0.34
   3   4  -6    5.50    0.32
   3   4  -6    5.01    0.36
   3   4  -6    5.83    0.35
   3   4  -6    4.71    0.35
   3   4  -6    5.34    0.29
  -3  -4   6    4.47    0.35
  -3  -4   6    4.95    0.27
  -3  -4   6    5.90    0.40
  -3  -4   6    5.69    0.37
  -3  -4   6    5.61    0.34
  -3  -4   6    4.98    0.37
  -3  -4   6    5.12    0.38
  -3  -4   6    5.29    0.35
  -3  -4   6    4.98    0.30
   2   4  -6   31.83    1.01
   2   4  -6   30.30    1.05
   2   4  -6   32.90    1.13
   2   4  -6   32.68    1.18
   2   4  -6   31.37    1.02
   2   4  -6   31.58    1.20
  -2  -4   6   30.95    1.13
  -2  -4   6   32.75    1.22
  -2  -4   6   30.76    1.20
  -2  -4   6   29.96    1.11
  -2  -4   6   30.73    1.14
  -2  -4   6   31.30    1.13
  -2  -4   6   30.69    0.97
  -2  -4   6   32.98    1.14
   1   4  -6   10.39    0.49
   1   4  -6    9.27    0.38
   1   4  -6    8.96    0.53
   1   4  -6    9.47    0.50
   1   4  -6    9.53    0.45
   1   4  -6    9.63    0.54
  -1  -4   6    9.65    0.55
  -1  -4   6    9.68    0.52
  -1  -4   6    9.22    0.50
  -1  -4   6    9.30    0.51
  -1  -4   6    9.19    0.49
  -1  -4   6    9.28    0.41
  -1  -4   6    9.28    0.53
  -1  -4   6    8.99    0.49
  -1  -4   6    9.15    0.55
   0   4  -6    0.23    0.10
   0   4  -6    0.25    0.07
   0   4  -6    0.39    0.14
   0   4  -6    0.26    0.14
   0   4  -6    0.35    0.08
   0  -4   6    0.08    0.13
   0  -4   6    0.46    0.16
   0  -4   6    0.45    0.12
   0  -4   6    0.29    0.15
   0  -4   6    0.39    0.13
   0  -4   6    0.52    0.16
   0  -4   6    0.55    0.18
  -1   4  -6    0.05    0.05
  -1   4  -6    0.12    0.13
  -1   4  -6    0.16    0.09
  -1   4  -6   -0.05    0.10
   1  -4   6    0.18    0.15
   1  -4   6    0.15    0.13
   1  -4   6    0.26    0.11
   1  -4   6    0.10    0.12
   1  -4   6    0.22    0.15
  -2   4  -6    1.09    0.17
  -2   4  -6    0.64    0.11
  -2   4  -6    0.65    0.20
   2  -4   6    0.72    0.18
   2  -4   6    0.78    0.22
  -3   4  -6   11.98    0.54
  -3   4  -6   11.28    0.74
   3  -4   6   10.20    0.70
  -4   4  -6    7.14    0.44
   4  -4   6    6.92    0.58
  -5   4  -6    0.60    0.18
   5  -4   6    0.65    0.25
   5  -4   6    0.97    0.23
  -6   4  -6    9.76    0.60
   6  -4   6   10.91    0.62
   9   3  -6    7.92    0.60
   9   3  -6    7.82    0.42
   9   3  -6    8.43    0.66
   8   3  -6    0.29    0.18
   8   3  -6    0.06    0.17
   8   3  -6    0.44    0.14
  -8  -3   6    0.45    0.18
   7   3  -6    8.17    0.54
   7   3  -6    8.72    0.35
   7   3  -6    8.97    0.60
   7   3  -6    8.73    0.45
  -7  -3   6    8.54    0.60
  -7  -3   6    9.62    0.59
  -7  -3   6    8.64    0.55
  -7  -3   6    8.35    0.58
   6   3  -6    5.87    0.42
   6   3  -6    5.74    0.29
   6   3  -6    6.51    0.36
   6   3  -6    5.67    0.45
  -6  -3   6    5.75    0.43
  -6  -3   6    6.55    0.45
  -6  -3   6    4.53    0.33
  -6  -3   6    6.32    0.45
  -6  -3   6    6.42    0.44
   5   3  -6   35.04    1.27
   5   3  -6   36.72    1.34
   5   3  -6   34.25    1.35
   5   3  -6   36.11    1.10
   5   3  -6   37.03    1.17
  -5  -3   6   36.28    1.37
  -5  -3   6   36.13    1.31
  -5  -3   6   37.05    1.20
  -5  -3   6   37.16    1.11
  -5  -3   6   37.49    1.29
  -5  -3   6   37.76    1.30
  -5  -3   6   37.52    1.37
   4   3  -6   59.83    1.81
   4   3  -6   58.02    1.95
   4   3  -6   56.86    1.65
   4   3  -6   59.47    1.88
   4   3  -6   57.50    1.70
   4   3  -6   54.79    1.84
  -4  -3   6   57.01    1.80
  -4  -3   6   58.41    1.61
  -4  -3   6   57.83    1.72
  -4  -3   6   61.37    1.96
  -4  -3   6   58.44    1.84
  -4  -3   6   58.68    1.84
  -4  -3   6   54.52    1.94
   3   3  -6    0.06    0.07
   3   3  -6    0.01    0.07
   3   3  -6    0.04    0.08
   3   3  -6   -0.07    0.06
   3   3  -6   -0.15    0.08
   3   3  -6   -0.11    0.07
   3   3  -6    0.04    0.09
   3   3  -6   -0.02    0.07
   3   3  -6   -0.10    0.06
   3   3  -6    0.10    0.10
  -3  -3   6   -0.16    0.07
  -3  -3   6    0.03    0.10
  -3  -3   6    0.01    0.07
  -3  -3   6    0.03    0.08
  -3  -3   6    0.05    0.09
  -3  -3   6   -0.03    0.09
  -3  -3   6   -0.04    0.05
   2   3  -6   39.08    1.16
   2   3  -6   39.52    1.38
   2   3  -6   38.21    1.33
   2   3  -6   36.78    1.19
   2   3  -6   37.57    1.36
   2   3  -6   39.08    1.22
   2   3  -6   37.22    1.26
  -2  -3   6   37.42    1.36
  -2  -3   6   36.79    1.20
  -2  -3   6   38.33    1.27
  -2  -3   6   38.39    1.28
  -2  -3   6   37.60    1.11
  -2  -3   6   37.38    1.25
  -2  -3   6   40.19    1.38
  -2  -3   6   36.24    1.24
  -2  -3   6   37.97    1.25
   1   3  -6  148.78    3.87
   1   3  -6  141.02    3.89
   1   3  -6  145.16    3.67
   1   3  -6  144.92    3.84
   1   3  -6  143.95    4.03
   1   3  -6  147.34    3.95
   1   3  -6  145.26    4.37
   1   3  -6  147.05    4.37
  -1  -3   6  137.65    3.86
  -1  -3   6  139.42    3.92
  -1  -3   6  147.11    4.22
  -1  -3   6  145.02    4.37
  -1  -3   6  146.09    4.14
  -1  -3   6  136.59    3.93
  -1  -3   6  144.46    4.38
  -1  -3   6  143.86    3.76
  -1  -3   6  142.13    4.15
   0   3  -6    0.00    0.07
   0   3  -6   -0.02    0.08
   0   3  -6    0.13    0.10
   0   3  -6   -0.05    0.09
   0   3  -6    0.08    0.06
   0   3  -6    0.05    0.07
   0  -3   6    0.00    0.09
   0  -3   6    0.01    0.06
   0  -3   6   -0.01    0.06
   0  -3   6   -0.02    0.09
   0  -3   6   -0.03    0.08
   0  -3   6   -0.04    0.09
   0  -3   6   -0.04    0.08
   0  -3   6   -0.05    0.07
  -1   3  -6   39.78    1.20
  -1   3  -6   37.90    1.34
  -1   3  -6   40.98    1.54
  -1   3  -6   40.86    1.40
  -1   3  -6   40.66    1.51
  -1   3  -6   42.02    1.24
   1  -3   6   40.35    1.32
   1  -3   6   41.24    1.40
   1  -3   6   40.56    1.51
   1  -3   6   40.24    1.52
   1  -3   6   42.95    1.54
   1  -3   6   41.92    1.34
   1  -3   6   39.81    1.22
   1  -3   6   39.87    1.46
  -2   3  -6    4.71    0.40
  -2   3  -6    5.07    0.30
  -2   3  -6    4.98    0.29
  -2   3  -6    4.52    0.42
   2  -3   6    5.01    0.35
   2  -3   6    4.07    0.32
   2  -3   6    6.00    0.47
   2  -3   6    5.11    0.35
   2  -3   6    4.93    0.41
   2  -3   6    4.30    0.39
  -3   3  -6   18.46    0.73
  -3   3  -6   19.99    0.75
  -3   3  -6   18.69    0.95
   3  -3   6   19.47    0.83
   3  -3   6   18.39    0.91
   3  -3   6   19.65    0.79
   3  -3   6   19.04    0.77
  -4   3  -6    5.12    0.36
  -4   3  -6    4.13    0.50
  -4   3  -6    4.34    0.34
   4  -3   6    4.72    0.51
   4  -3   6    4.80    0.36
   4  -3   6    5.01    0.40
  -5   3  -6    0.59    0.17
  -5   3  -6    1.05    0.21
   5  -3   6    1.00    0.20
   5  -3   6    1.37    0.25
  -6   3  -6    1.42    0.26
   6  -3   6    1.90    0.28
   6  -3   6    1.80    0.31
  -7   3  -6    0.27    0.19
   7  -3   6    0.12    0.27
   7  -3   6    0.51    0.21
   7  -3   6    0.37    0.17
   9   2  -6    5.06    0.38
   9   2  -6    3.80    0.54
   9   2  -6    4.45    0.53
   9   2  -6    4.74    0.24
   8   2  -6    5.42    0.48
   8   2  -6    5.54    0.59
   8   2  -6    5.87    0.39
   8   2  -6    5.61    0.32
  -8  -2   6    5.35    0.46
   7   2  -6    0.51    0.18
   7   2  -6    0.71    0.22
   7   2  -6    0.64    0.14
   7   2  -6    0.57    0.16
  -7  -2   6    0.88    0.26
  -7  -2   6    1.06    0.24
   6   2  -6   13.89    0.73
   6   2  -6   14.09    0.62
   6   2  -6   13.18    0.56
   6   2  -6   14.85    0.69
  -6  -2   6   13.46    0.57
  -6  -2   6   14.49    0.73
  -6  -2   6   13.84    0.74
  -6  -2   6   13.03    0.70
  -6  -2   6   12.49    0.71
  -6  -2   6   13.39    0.68
   5   2  -6   30.68    1.03
   5   2  -6   31.50    1.09
   5   2  -6   29.85    0.98
   5   2  -6   28.59    1.19
   5   2  -6   29.48    0.86
   5   2  -6   29.32    1.14
  -5  -2   6   30.41    1.03
  -5  -2   6   30.01    1.19
  -5  -2   6   30.79    1.20
  -5  -2   6   27.62    1.18
  -5  -2   6   29.79    0.96
  -5  -2   6   30.87    1.13
  -5  -2   6   30.10    1.11
  -5  -2   6   29.80    1.14
   4   2  -6    1.94    0.22
   4   2  -6    1.95    0.21
   4   2  -6    2.34    0.17
   4   2  -6    1.90    0.26
   4   2  -6    2.24    0.25
   4   2  -6    2.08    0.23
   4   2  -6    2.16    0.27
  -4  -2   6    2.21    0.18
  -4  -2   6    2.82    0.30
  -4  -2   6    2.31    0.26
  -4  -2   6    1.97    0.26
  -4  -2   6    2.52    0.30
  -4  -2   6    2.54    0.29
  -4  -2   6    1.78    0.20
   3   2  -6    6.34    0.30
   3   2  -6    6.21    0.34
   3   2  -6    6.99    0.41
   3   2  -6    6.59    0.38
   3   2  -6    6.23    0.39
   3   2  -6    6.32    0.38
   3   2  -6    5.90    0.39
   3   2  -6    6.00    0.32
   3   2  -6    6.49    0.32
   3   2  -6    7.05    0.38
   3   2  -6    6.83    0.33
   3   2  -6    6.69    0.39
  -3  -2   6    6.89    0.41
  -3  -2   6    5.86    0.37
  -3  -2   6    6.37    0.40
  -3  -2   6    6.50    0.36
  -3  -2   6    6.56    0.33
  -3  -2   6    6.40    0.30
  -3  -2   6    5.97    0.37
   2   2  -6    7.10    0.33
   2   2  -6    7.32    0.34
   2   2  -6    7.17    0.40
   2   2  -6    7.89    0.40
   2   2  -6    7.04    0.35
   2   2  -6    6.97    0.36
   2   2  -6    7.12    0.38
   2   2  -6    7.72    0.36
   2   2  -6    7.31    0.25
   2   2  -6    7.31    0.43
   2   2  -6    7.53    0.32
   2   2  -6    7.15    0.42
  -2  -2   6    7.24    0.38
  -2  -2   6    7.27    0.31
  -2  -2   6    7.64    0.35
  -2  -2   6    7.82    0.38
  -2  -2   6    8.85    0.45
  -2  -2   6    7.98    0.41
  -2  -2   6    7.06    0.42
  -2  -2   6    7.24    0.39
   1   2  -6  153.42    4.51
   1   2  -6  146.98    4.01
   1   2  -6  146.23    3.98
   1   2  -6  148.57    3.96
   1   2  -6  155.33    4.50
   1   2  -6  156.45    4.13
   1   2  -6  152.35    4.50
   1   2  -6  148.31    3.95
   1   2  -6  151.48    4.15
   1   2  -6  155.50    4.02
   1   2  -6  145.22    3.83
  -1  -2   6  147.45    4.26
  -1  -2   6  150.96    4.50
  -1  -2   6  149.79    4.02
  -1  -2   6  147.01    4.49
  -1  -2   6  144.94    3.87
  -1  -2   6  149.69    4.03
  -1  -2   6  146.92    3.98
  -1  -2   6  150.06    4.25
   0   2  -6   24.73    0.79
   0   2  -6   27.12    1.02
   0   2  -6   28.67    0.89
   0   2  -6   26.53    0.91
   0   2  -6   26.41    1.01
   0   2  -6   24.18    0.92
   0   2  -6   26.44    0.86
   0   2  -6   26.81    0.94
   0  -2   6   26.40    0.97
   0  -2   6   26.60    1.02
   0  -2   6   27.57    0.82
   0  -2   6   25.34    0.88
   0  -2   6   26.07    1.02
   0  -2   6   25.86    0.93
   0  -2   6   27.16    0.90
   0  -2   6   27.57    0.91
  -1   2  -6    0.03    0.07
  -1   2  -6    0.00    0.09
  -1   2  -6    0.00    0.07
  -1   2  -6   -0.01    0.06
  -1   2  -6    0.01    0.07
  -1   2  -6    0.12    0.08
  -1   2  -6    0.23    0.11
  -1   2  -6    0.18    0.11
   1  -2   6    0.03    0.07
   1  -2   6    0.06    0.09
   1  -2   6    0.10    0.08
   1  -2   6    0.06    0.09
   1  -2   6    0.12    0.09
   1  -2   6    0.18    0.11
   1  -2   6    0.13    0.08
   1  -2   6    0.04    0.07
   1  -2   6    0.09    0.09
  -2   2  -6    0.00    0.09
  -2   2  -6    0.06    0.08
  -2   2  -6   -0.01    0.09
  -2   2  -6    0.08    0.08
  -2   2  -6    0.03    0.09
  -2   2  -6    0.05    0.08
   2  -2   6    0.04    0.08
   2  -2   6    0.04    0.11
   2  -2   6    0.10    0.11
   2  -2   6    0.01    0.07
   2  -2   6    0.00    0.10
   2  -2   6    0.02    0.10
   2  -2   6    0.15    0.10
  -3   2  -6    1.41    0.20
  -3   2  -6    1.92    0.29
  -3   2  -6    1.57    0.24
  -3   2  -6    1.54    0.21
  -3   2  -6    1.20    0.25
   3  -2   6    1.14    0.20
   3  -2   6    1.76    0.28
   3  -2   6    1.27    0.19
   3  -2   6    1.61    0.20
  -4   2  -6   15.49    0.83
  -4   2  -6   16.16    0.66
  -4   2  -6   15.54    0.69
   4  -2   6   15.44    0.79
   4  -2   6   15.46    0.71
   4  -2   6   15.13    0.61
   4  -2   6   15.03    0.65
  -5   2  -6   25.51    0.95
  -5   2  -6   23.08    1.15
   5  -2   6   25.16    0.91
   5  -2   6   23.70    0.97
  -6   2  -6    5.48    0.41
   6  -2   6    4.76    0.40
   6  -2   6    4.77    0.35
   6  -2   6    5.82    0.62
  -7   2  -6    8.88    0.56
   7  -2   6    8.23    0.54
   7  -2   6    7.85    0.42
   7  -2   6    7.74    0.42
   7  -2   6    7.79    0.67
   7  -2   6    7.30    0.56
   9   1  -6    0.33    0.26
   9   1  -6    0.66    0.23
   9   1  -6    0.56    0.23
   9   1  -6    0.42    0.16
   8   1  -6    1.84    0.33
   8   1  -6    1.38    0.32
   8   1  -6    1.02    0.22
   8   1  -6    1.50    0.23
  -8  -1   6    1.55    0.26
   7   1  -6    6.17    0.40
   7   1  -6    6.53    0.48
   7   1  -6    6.27    0.51
   7   1  -6    7.05    0.45
   7   1  -6    6.15    0.26
  -7  -1   6    7.35    0.51
  -7  -1   6    7.17    0.43
   6   1  -6   36.76    1.41
   6   1  -6   39.85    1.37
   6   1  -6   35.99    1.10
   6   1  -6   37.09    1.22
   6   1  -6   37.65    1.28
  -6  -1   6   37.96    1.21
  -6  -1   6   38.96    1.36
  -6  -1   6   37.30    1.49
  -6  -1   6   35.22    1.38
  -6  -1   6   31.13    1.44
   5   1  -6   31.82    1.07
   5   1  -6   31.28    1.24
   5   1  -6   31.64    0.99
   5   1  -6   30.11    1.18
   5   1  -6   31.39    1.28
   5   1  -6   33.32    1.15
   5   1  -6   30.23    1.09
  -5  -1   6   32.07    1.21
  -5  -1   6   32.81    1.28
  -5  -1   6   31.05    1.19
  -5  -1   6   30.79    1.15
  -5  -1   6   32.45    1.28
  -5  -1   6   32.05    1.03
  -5  -1   6   31.95    1.28
   4   1  -6    0.32    0.11
   4   1  -6    0.06    0.11
   4   1  -6    0.27    0.10
   4   1  -6    0.25    0.13
   4   1  -6    0.31    0.12
   4   1  -6    0.28    0.11
   4   1  -6    0.28    0.10
  -4  -1   6    0.31    0.12
  -4  -1   6    0.07    0.07
  -4  -1   6    0.17    0.11
  -4  -1   6    0.61    0.15
  -4  -1   6    0.10    0.08
  -4  -1   6    0.23    0.12
  -4  -1   6    0.41    0.13
  -4  -1   6    0.18    0.10
  -4  -1   6    0.34    0.13
   3   1  -6    3.00    0.23
   3   1  -6    2.96    0.21
   3   1  -6    3.23    0.27
   3   1  -6    3.09    0.26
   3   1  -6    2.82    0.22
   3   1  -6    3.04    0.25
   3   1  -6    2.76    0.14
   3   1  -6    3.14    0.22
   3   1  -6    3.21    0.27
   3   1  -6    3.35    0.29
   3   1  -6    2.96    0.21
   3   1  -6    2.72    0.22
   3   1  -6    3.23    0.27
  -3  -1   6    2.78    0.28
  -3  -1   6    2.78    0.21
  -3  -1   6    3.28    0.24
  -3  -1   6    2.93    0.21
  -3  -1   6    2.85    0.27
  -3  -1   6    2.69    0.30
  -3  -1   6    2.76    0.28
  -3  -1   6    2.74    0.24
   2   1  -6   11.90    0.53
   2   1  -6   10.88    0.47
   2   1  -6   10.56    0.53
   2   1  -6   11.94    0.50
   2   1  -6   11.92    0.52
   2   1  -6   11.21    0.43
   2   1  -6   11.19    0.47
   2   1  -6   11.24    0.40
   2   1  -6   11.44    0.56
   2   1  -6   10.84    0.38
   2   1  -6   11.14    0.44
   2   1  -6   11.76    0.47
   2   1  -6   11.41    0.48
   2   1  -6   11.93    0.52
  -2  -1   6   11.71    0.56
  -2  -1   6   10.62    0.54
  -2  -1   6   11.47    0.47
  -2  -1   6   11.12    0.49
  -2  -1   6   10.90    0.49
  -2  -1   6   11.14    0.42
  -2  -1   6   10.91    0.49
   1   1  -6    0.00    0.07
   1   1  -6   -0.05    0.06
   1   1  -6   -0.06    0.08
   1   1  -6   -0.04    0.06
   1   1  -6   -0.11    0.06
   1   1  -6   -0.04    0.05
   1   1  -6    0.01    0.09
   1   1  -6   -0.07    0.07
   1   1  -6    0.00    0.08
   1   1  -6    0.07    0.07
   1   1  -6   -0.05    0.06
  -1  -1   6    0.04    0.09
  -1  -1   6    0.00    0.08
  -1  -1   6    0.13    0.08
  -1  -1   6    0.05    0.08
  -1  -1   6   -0.04    0.06
  -1  -1   6   -0.04    0.08
  -1  -1   6    0.08    0.08
   0   1  -6    1.83    0.16
   0   1  -6    1.77    0.19
   0   1  -6    2.04    0.22
   0   1  -6    1.95    0.21
   0   1  -6    1.98    0.17
   0   1  -6    1.52    0.21
   0   1  -6    1.77    0.20
   0   1  -6    1.94    0.19
   0   1  -6    2.04    0.24
   0   1  -6    1.79    0.20
   0   1  -6    2.21    0.19
   0  -1   6    2.04    0.21
   0  -1   6    2.13    0.21
   0  -1   6    1.92    0.16
   0  -1   6    2.04    0.20
   0  -1   6    1.98    0.18
   0  -1   6    2.39    0.23
   0  -1   6    2.11    0.14
   0  -1   6    2.05    0.20
   0  -1   6    1.99    0.15
   0  -1   6    2.00    0.23
   0  -1   6    1.62    0.17
  -1   1  -6   15.21    0.59
  -1   1  -6   15.36    0.67
  -1   1  -6   15.35    0.60
  -1   1  -6   15.43    0.57
  -1   1  -6   15.03    0.67
  -1   1  -6   15.35    0.58
  -1   1  -6   14.92    0.52
  -1   1  -6   14.95    0.61
   1  -1   6   14.30    0.54
   1  -1   6   14.67    0.66
   1  -1   6   15.19    0.58
   1  -1   6   15.06    0.54
   1  -1   6   15.39    0.50
   1  -1   6   15.48    0.67
   1  -1   6   15.10    0.60
   1  -1   6   15.46    0.62
  -2   1  -6   70.13    1.96
  -2   1  -6   71.98    2.05
  -2   1  -6   74.42    2.21
  -2   1  -6   69.01    2.31
  -2   1  -6   69.73    2.34
  -2   1  -6   71.26    2.10
  -2   1  -6   74.26    2.20
  -2   1  -6   70.86    2.08
   2  -1   6   71.96    2.04
   2  -1   6   72.94    2.32
   2  -1   6   70.79    2.00
   2  -1   6   72.85    2.34
   2  -1   6   71.96    1.99
  -3   1  -6   84.64    2.49
  -3   1  -6   87.16    2.64
  -3   1  -6   86.96    2.63
  -3   1  -6   83.78    2.77
  -3   1  -6   88.93    2.54
  -3   1  -6   85.28    2.82
  -3   1  -6   85.80    2.35
   3  -1   6   86.45    2.43
   3  -1   6   85.70    2.77
   3  -1   6   87.08    2.44
   3  -1   6   85.07    2.37
   3  -1   6   84.24    2.37
   3  -1   6   86.62    2.35
  -4   1  -6    5.94    0.40
  -4   1  -6    5.84    0.41
  -4   1  -6    5.52    0.34
  -4   1  -6    6.28    0.45
  -4   1  -6    6.37    0.49
   4  -1   6    6.24    0.34
   4  -1   6    6.27    0.38
   4  -1   6    6.08    0.34
   4  -1   6    5.76    0.29
   4  -1   6    6.12    0.37
  -5   1  -6   28.03    1.22
  -5   1  -6   25.83    1.25
  -5   1  -6   28.55    0.99
   5  -1   6   29.32    0.94
   5  -1   6   29.14    0.95
   5  -1   6   29.34    1.03
   5  -1   6   28.54    1.02
   5  -1   6   26.41    1.16
  -6   1  -6    3.38    0.35
   6  -1   6    3.69    0.36
   6  -1   6    3.45    0.26
   6  -1   6    3.65    0.40
   6  -1   6    3.00    0.25
   6  -1   6    3.86    0.47
  -7   1  -6    1.28    0.24
   7  -1   6    1.24    0.32
   7  -1   6    1.26    0.14
   7  -1   6    1.11    0.22
   7  -1   6    1.00    0.23
   7  -1   6    1.08    0.14
  -8   1  -6   -0.01    0.14
   8  -1   6   -0.05    0.19
   8  -1   6    0.06    0.15
   8  -1   6   -0.02    0.22
   8   0  -6   14.66    0.77
   8   0  -6   14.14    0.50
   8   0  -6   15.54    0.86
   8   0  -6   15.09    0.72
   8   0  -6   14.26    0.88
  -8   0   6   14.24    0.74
   7   0  -6    1.01    0.17
   7   0  -6    0.51    0.21
   7   0  -6    1.24    0.23
   7   0  -6    0.59    0.20
   7   0  -6    1.32    0.28
  -7   0   6    0.62    0.19
   6   0  -6   14.34    0.67
   6   0  -6   14.39    0.72
   6   0  -6   14.68    0.60
   6   0  -6   14.46    0.70
   6   0  -6   14.05    0.77
  -6   0   6   13.79    0.82
  -6   0   6   15.00    0.65
   5   0  -6    8.47    0.42
   5   0  -6    8.12    0.48
   5   0  -6    8.41    0.53
   5   0  -6    8.03    0.45
   5   0  -6    8.15    0.56
   5   0  -6    8.45    0.55
   5   0  -6    9.53    0.50
  -5   0   6    7.74    0.54
  -5   0   6    7.23    0.48
  -5   0   6    8.00    0.55
  -5   0   6    8.19    0.43
  -5   0   6    9.09    0.57
   4   0  -6    0.86    0.15
   4   0  -6    1.20    0.21
   4   0  -6    0.82    0.11
   4   0  -6    0.84    0.19
   4   0  -6    1.14    0.13
   4   0  -6    0.70    0.16
   4   0  -6    0.99    0.18
   4   0  -6    0.59    0.14
   4   0  -6    1.08    0.21
  -4   0   6    0.50    0.14
  -4   0   6    1.34    0.18
  -4   0   6    1.15    0.21
  -4   0   6    1.05    0.21
  -4   0   6    0.84    0.18
  -4   0   6    1.19    0.22
  -4   0   6    0.86    0.19
  -4   0   6    0.78    0.20
   3   0  -6   27.10    1.03
   3   0  -6   27.42    0.96
   3   0  -6   27.92    0.91
   3   0  -6   26.85    0.89
   3   0  -6   26.80    0.90
   3   0  -6   27.88    0.83
   3   0  -6   27.26    0.93
   3   0  -6   27.88    1.08
   3   0  -6   29.14    0.99
   3   0  -6   27.55    0.92
   3   0  -6   28.00    1.09
   3   0  -6   28.21    1.11
   3   0  -6   26.47    0.97
  -3   0   6   27.14    1.09
  -3   0   6   28.60    1.10
  -3   0   6   27.30    0.98
  -3   0   6   28.50    0.94
  -3   0   6   28.91    0.95
  -3   0   6   29.49    1.03
  -3   0   6   28.48    1.09
  -3   0   6   27.76    0.88
  -3   0   6   26.96    0.99
   2   0  -6   73.85    2.40
   2   0  -6   76.64    2.11
   2   0  -6   76.21    2.24
   2   0  -6   72.80    2.22
   2   0  -6   73.81    2.14
   2   0  -6   76.51    2.08
   2   0  -6   74.54    2.01
   2   0  -6   73.66    2.12
   2   0  -6   71.56    2.09
   2   0  -6   75.32    2.11
   2   0  -6   77.50    2.39
   2   0  -6   76.20    2.39
   2   0  -6   74.31    2.14
  -2   0   6   77.90    2.13
  -2   0   6   75.23    2.16
  -2   0   6   76.34    2.25
  -2   0   6   72.43    2.39
  -2   0   6   75.26    2.03
  -2   0   6   72.64    2.14
  -2   0   6   76.58    2.11
  -2   0   6   75.24    2.40
   1   0  -6    0.13    0.08
   1   0  -6    0.19    0.08
   1   0  -6    0.06    0.06
   1   0  -6    0.16    0.08
   1   0  -6    0.30    0.08
   1   0  -6    0.10    0.09
   1   0  -6    0.06    0.08
   1   0  -6    0.13    0.10
   1   0  -6    0.11    0.07
   1   0  -6    0.21    0.08
   1   0  -6    0.11    0.07
   1   0  -6    0.20    0.09
   1   0  -6    0.04    0.08
   1   0  -6    0.21    0.08
  -1   0   6    0.14    0.10
  -1   0   6    0.20    0.09
  -1   0   6    0.25    0.08
  -1   0   6    0.12    0.08
  -1   0   6    0.01    0.06
  -1   0   6    0.19    0.07
  -1   0   6    0.08    0.07
  -1   0   6    0.21    0.08
  -1   0   6    0.29    0.11
  -1   0   6    0.12    0.09
   0   0  -6  164.42    4.20
   0   0  -6  160.06    4.36
   0   0  -6  167.15    4.22
   0   0  -6  156.84    4.74
   0   0  -6  158.13    4.12
   0   0  -6  159.09    4.24
   0   0  -6  162.08    4.19
   0   0  -6  156.46    4.41
   0   0  -6  161.00    4.28
   0   0  -6  161.78    4.75
   0   0   6  159.51    4.19
   0   0   6  162.84    4.21
   0   0   6  153.00    4.48
   0   0   6  163.61    4.50
   0   0   6  163.92    4.20
   0   0   6  160.81    4.24
   0   0   6  162.23    4.23
   0   0   6  157.27    4.10
   0   0   6  160.44    4.74
   0   0   6  161.00    4.75
  -1   0  -6    2.64    0.20
  -1   0  -6    2.72    0.21
  -1   0  -6    2.94    0.21
  -1   0  -6    2.62    0.21
  -1   0  -6    2.56    0.18
  -1   0  -6    2.56    0.20
  -1   0  -6    2.68    0.24
  -1   0  -6    2.71    0.21
  -1   0  -6    2.87    0.24
   1   0   6    2.15    0.19
   1   0   6    2.80    0.15
   1   0   6    2.36    0.16
   1   0   6    2.68    0.19
   1   0   6    3.02    0.21
   1   0   6    2.97    0.24
   1   0   6    2.54    0.16
   1   0   6    2.68    0.10
   1   0   6    2.51    0.18
   1   0   6    2.84    0.21
   1   0   6    2.94    0.24
   1   0   6    2.65    0.19
  -2   0  -6   24.46    0.85
  -2   0  -6   25.48    0.83
  -2   0  -6   25.01    0.95
  -2   0  -6   25.37    0.89
  -2   0  -6   24.48    0.95
  -2   0  -6   25.77    0.77
  -2   0  -6   26.32    0.85
  -2   0  -6   25.85    0.89
  -2   0  -6   25.09    0.89
   2   0   6   25.30    0.94
   2   0   6   25.43    0.85
   2   0   6   26.22    0.97
   2   0   6   26.23    0.79
   2   0   6   25.52    0.76
   2   0   6   24.71    0.81
   2   0   6   26.11    0.84
   2   0   6   25.62    0.82
   2   0   6   23.99    0.74
  -3   0  -6   14.45    0.67
  -3   0  -6   15.79    0.55
  -3   0  -6   15.32    0.65
  -3   0  -6   16.10    0.63
  -3   0  -6   15.14    0.70
  -3   0  -6   15.19    0.64
  -3   0  -6   15.66    0.65
   3   0   6   14.87    0.69
   3   0   6   15.17    0.53
   3   0   6   15.35    0.57
   3   0   6   15.55    0.58
   3   0   6   15.86    0.69
   3   0   6   15.90    0.53
   3   0   6   16.41    0.60
   3   0   6   15.97    0.64
   3   0   6   14.63    0.49
  -4   0  -6    5.75    0.39
  -4   0  -6    5.34    0.36
  -4   0  -6    5.99    0.31
  -4   0  -6    6.07    0.43
  -4   0  -6    5.28    0.37
  -4   0  -6    5.52    0.37
   4   0   6    6.08    0.40
   4   0   6    5.18    0.31
   4   0   6    5.39    0.31
   4   0   6    5.69    0.27
   4   0   6    5.42    0.22
   4   0   6    5.21    0.33
   4   0   6    5.41    0.27
   4   0   6    6.43    0.33
  -5   0  -6    0.31    0.12
  -5   0  -6    0.37    0.14
  -5   0  -6    0.34    0.14
  -5   0  -6    0.50    0.15
  -5   0  -6    0.56    0.14
   5   0   6    0.30    0.10
   5   0   6    0.29    0.12
   5   0   6    0.12    0.08
   5   0   6    0.16    0.11
   5   0   6    0.15    0.14
   5   0   6    0.38    0.10
   5   0   6    0.33    0.08
  -6   0  -6   22.10    1.14
  -6   0  -6   23.08    1.09
  -6   0  -6   24.96    0.90
  -6   0  -6   24.85    1.07
   6   0   6   25.22    0.97
   6   0   6   24.40    0.88
   6   0   6   27.51    0.90
   6   0   6   23.37    1.06
  -7   0  -6   11.34    0.57
   7   0   6    9.87    0.69
   7   0   6   10.99    0.62
   7   0   6   10.94    0.51
   7   0   6   10.51    0.51
   8   0   6    0.47    0.19
   8   0   6    0.59    0.15
   8   0   6    0.68    0.27
   8   0   6    0.67    0.21
   8   0   6    0.68    0.16
   8  -1  -6    0.03    0.12
   8  -1  -6    0.42    0.14
   8  -1  -6    0.63    0.24
   8  -1  -6    0.44    0.18
   8  -1  -6    0.52    0.23
  -8   1   6    0.39    0.18
   7  -1  -6    0.41    0.20
   7  -1  -6    0.36    0.18
   7  -1  -6    0.49    0.21
   7  -1  -6    0.39    0.15
   7  -1  -6    0.30    0.17
  -7   1   6    0.15    0.15
   6  -1  -6    0.09    0.11
   6  -1  -6   -0.03    0.12
   6  -1  -6    0.26    0.17
   6  -1  -6   -0.02    0.12
   6  -1  -6   -0.16    0.10
  -6   1   6   -0.01    0.11
   5  -1  -6   12.30    0.53
   5  -1  -6   11.14    0.54
   5  -1  -6   10.52    0.63
   5  -1  -6   11.93    0.62
   5  -1  -6   11.97    0.62
   5  -1  -6   11.20    0.69
   5  -1  -6   12.43    0.44
   5  -1  -6   11.39    0.58
   5  -1  -6   10.38    0.70
  -5   1   6   10.75    0.71
  -5   1   6   10.61    0.69
  -5   1   6   11.26    0.54
   4  -1  -6   35.90    1.17
   4  -1  -6   35.49    1.24
   4  -1  -6   36.98    1.20
   4  -1  -6   36.95    1.26
   4  -1  -6   34.84    1.41
   4  -1  -6   35.24    1.29
   4  -1  -6   35.61    1.21
   4  -1  -6   37.36    1.46
  -4   1   6   34.34    1.41
  -4   1   6   38.20    1.45
  -4   1   6   34.08    1.40
  -4   1   6   35.53    1.14
   3  -1  -6   13.06    0.63
   3  -1  -6   13.14    0.54
   3  -1  -6   13.19    0.59
   3  -1  -6   14.01    0.58
   3  -1  -6   12.46    0.67
   3  -1  -6   13.19    0.69
   3  -1  -6   13.73    0.69
   3  -1  -6   13.16    0.60
   3  -1  -6   13.72    0.55
   3  -1  -6   12.95    0.54
   3  -1  -6   13.75    0.62
  -3   1   6   12.76    0.62
  -3   1   6   12.26    0.59
  -3   1   6   12.68    0.55
  -3   1   6   12.49    0.51
  -3   1   6   14.61    0.71
  -3   1   6   13.12    0.58
  -3   1   6   13.35    0.68
  -3   1   6   13.49    0.67
   2  -1  -6  123.34    3.77
   2  -1  -6  126.73    3.38
   2  -1  -6  118.46    3.51
   2  -1  -6  125.21    3.34
   2  -1  -6  122.50    3.78
   2  -1  -6  122.79    3.29
   2  -1  -6  123.60    3.54
   2  -1  -6  122.19    3.36
   2  -1  -6  124.53    3.57
   2  -1  -6  122.50    3.36
   2  -1  -6  119.97    3.78
   2  -1  -6  121.30    3.32
  -2   1   6  122.77    3.40
  -2   1   6  122.18    3.33
  -2   1   6  124.36    3.57
  -2   1   6  121.45    3.23
  -2   1   6  124.95    3.37
  -2   1   6  126.24    3.78
  -2   1   6  120.04    3.32
  -2   1   6  121.90    3.78
  -2   1   6  123.34    3.77
   1  -1  -6  176.99    4.64
   1  -1  -6  177.82    5.26
   1  -1  -6  172.68    4.91
   1  -1  -6  174.81    4.70
   1  -1  -6  183.42    4.68
   1  -1  -6  174.78    5.28
   1  -1  -6  181.57    4.75
   1  -1  -6  186.11    4.70
  -1   1   6  171.22    4.73
  -1   1   6  179.16    4.74
  -1   1   6  167.31    4.69
  -1   1   6  179.88    5.28
  -1   1   6  183.82    5.28
  -1   1   6  177.32    4.55
  -1   1   6  184.50    5.00
  -1   1   6  178.01    4.66
   0  -1  -6    2.25    0.17
   0  -1  -6    2.13    0.24
   0  -1  -6    2.11    0.17
   0  -1  -6    2.13    0.22
   0  -1  -6    2.32    0.18
   0  -1  -6    1.97    0.17
   0  -1  -6    1.89    0.22
   0  -1  -6    2.12    0.17
   0  -1  -6    2.20    0.19
   0  -1  -6    1.69    0.18
   0   1   6    2.46    0.19
   0   1   6    2.44    0.19
   0   1   6    2.05    0.16
   0   1   6    2.17    0.18
   0   1   6    2.07    0.23
   0   1   6    2.56    0.23
   0   1   6    2.04    0.19
   0   1   6    2.22    0.17
   0   1   6    2.04    0.16
   0   1   6    1.88    0.13
  -1  -1  -6    0.53    0.08
  -1  -1  -6    0.30    0.11
  -1  -1  -6    0.19    0.10
  -1  -1  -6    0.31    0.12
  -1  -1  -6    0.46    0.11
  -1  -1  -6    0.42    0.11
  -1  -1  -6    0.19    0.10
  -1  -1  -6    0.60    0.11
   1   1   6    0.30    0.09
   1   1   6    0.25    0.08
   1   1   6    0.35    0.07
   1   1   6    0.32    0.09
   1   1   6    0.27    0.08
   1   1   6    0.32    0.11
   1   1   6    0.41    0.09
   1   1   6    0.23    0.07
   1   1   6    0.51    0.13
  -2  -1  -6   89.80    2.81
  -2  -1  -6   91.32    2.52
  -2  -1  -6   92.99    2.67
  -2  -1  -6   94.45    2.83
  -2  -1  -6   89.13    2.66
  -2  -1  -6   92.02    2.67
   2   1   6   91.31    2.62
   2   1   6   94.62    2.38
   2   1   6   90.66    2.40
   2   1   6   95.60    2.47
   2   1   6   95.88    2.82
   2   1   6   93.10    2.46
   2   1   6   94.42    2.82
   2   1   6   93.15    2.49
   2   1   6   92.92    2.40
   2   1   6   93.49    2.45
  -3  -1  -6    0.53    0.12
  -3  -1  -6    0.55    0.13
  -3  -1  -6    0.23    0.07
  -3  -1  -6    0.49    0.12
   3   1   6    0.45    0.10
   3   1   6    0.65    0.10
   3   1   6    0.36    0.12
   3   1   6    0.50    0.12
   3   1   6    0.51    0.09
   3   1   6    0.61    0.13
   3   1   6    0.31    0.07
   3   1   6    0.17    0.06
  -4  -1  -6   13.02    0.58
  -4  -1  -6   12.93    0.55
  -4  -1  -6   12.55    0.60
  -4  -1  -6   13.39    0.46
  -4  -1  -6   13.11    0.63
  -4  -1  -6   14.22    0.59
   4   1   6   13.26    0.61
   4   1   6   12.82    0.50
   4   1   6   12.81    0.46
   4   1   6   13.42    0.47
   4   1   6   13.59    0.62
   4   1   6   13.09    0.41
   4   1   6   12.97    0.60
   4   1   6   13.03    0.50
  -5  -1  -6    0.06    0.08
  -5  -1  -6    0.14    0.08
  -5  -1  -6   -0.10    0.09
  -5  -1  -6   -0.02    0.08
  -5  -1  -6    0.03    0.09
   5   1   6    0.04    0.05
   5   1   6   -0.06    0.06
   5   1   6    0.30    0.15
   5   1   6    0.05    0.06
   5   1   6   -0.02    0.08
  -6  -1  -6   30.68    1.17
  -6  -1  -6   30.15    1.17
  -6  -1  -6   29.62    1.27
  -6  -1  -6   29.11    1.19
   6   1   6   28.45    1.20
   6   1   6   30.71    1.09
   6   1   6   30.85    0.93
   6   1   6   30.04    0.92
  -7  -1  -6   16.04    0.90
  -7  -1  -6   15.67    0.81
   7   1   6   17.06    0.68
   7   1   6   16.69    0.76
   7   1   6   15.45    0.55
   7   1   6   14.82    0.83
   7   1   6   16.71    0.56
   8   1   6    0.09    0.19
   8   1   6    0.59    0.19
   8   1   6    0.34    0.15
   9   1   6    0.40    0.15
   9   1   6    0.37    0.23
   7  -2  -6   18.99    0.99
   7  -2  -6   19.27    0.82
   7  -2  -6   17.27    0.92
   7  -2  -6   17.72    0.87
  -7   2   6   18.44    0.84
   6  -2  -6    9.34    0.61
   6  -2  -6   10.48    0.60
   6  -2  -6    9.14    0.37
   6  -2  -6    9.61    0.53
   6  -2  -6    9.36    0.66
   6  -2  -6   10.06    0.64
  -6   2   6    8.68    0.52
   5  -2  -6    0.47    0.15
   5  -2  -6    0.77    0.26
   5  -2  -6    0.85    0.22
   5  -2  -6    0.57    0.18
   5  -2  -6    1.02    0.25
   5  -2  -6    0.89    0.19
   5  -2  -6    0.87    0.22
  -5   2   6    0.40    0.20
  -5   2   6    0.70    0.17
   4  -2  -6   18.52    0.83
   4  -2  -6   20.62    0.79
   4  -2  -6   19.88    0.81
   4  -2  -6   18.77    0.80
   4  -2  -6   19.44    0.97
   4  -2  -6   18.93    0.98
  -4   2   6   17.98    0.94
  -4   2   6   19.29    0.73
   3  -2  -6    4.59    0.31
   3  -2  -6    4.99    0.34
   3  -2  -6    5.36    0.44
   3  -2  -6    5.18    0.37
   3  -2  -6    4.63    0.37
   3  -2  -6    5.30    0.35
   3  -2  -6    5.24    0.33
   3  -2  -6    5.49    0.44
   3  -2  -6    4.89    0.41
  -3   2   6    4.84    0.29
  -3   2   6    4.99    0.43
  -3   2   6    5.38    0.42
  -3   2   6    5.84    0.42
  -3   2   6    5.16    0.36
   2  -2  -6   19.13    0.86
   2  -2  -6   19.14    0.78
   2  -2  -6   18.97    0.76
   2  -2  -6   20.85    0.87
   2  -2  -6   19.04    0.72
   2  -2  -6   19.52    0.77
   2  -2  -6   17.33    0.73
   2  -2  -6   19.18    0.70
   2  -2  -6   18.92    0.86
   2  -2  -6   18.50    0.70
  -2   2   6   18.09    0.64
  -2   2   6   18.92    0.85
  -2   2   6   19.29    0.79
  -2   2   6   19.78    0.73
  -2   2   6   19.07    0.85
  -2   2   6   18.08    0.82
   1  -2  -6   -0.01    0.07
   1  -2  -6   -0.01    0.06
   1  -2  -6    0.16    0.08
   1  -2  -6   -0.08    0.08
   1  -2  -6   -0.02    0.07
   1  -2  -6    0.02    0.05
   1  -2  -6    0.03    0.10
   1  -2  -6   -0.08    0.05
   1  -2  -6   -0.04    0.07
  -1   2   6    0.15    0.10
  -1   2   6   -0.01    0.07
  -1   2   6    0.06    0.06
  -1   2   6    0.02    0.08
  -1   2   6    0.10    0.06
  -1   2   6   -0.07    0.07
   0  -2  -6   44.06    1.26
   0  -2  -6   43.43    1.28
   0  -2  -6   43.90    1.48
   0  -2  -6   43.88    1.37
   0  -2  -6   42.92    1.37
   0  -2  -6   42.76    1.30
   0  -2  -6   41.18    1.29
   0  -2  -6   44.08    1.47
   0  -2  -6   45.02    1.47
   0  -2  -6   42.66    1.28
   0   2   6   43.56    1.48
   0   2   6   44.45    1.27
   0   2   6   45.55    1.30
   0   2   6   45.39    1.14
   0   2   6   43.32    1.23
   0   2   6   41.85    1.26
   0   2   6   45.32    1.47
  -1  -2  -6   70.12    1.97
  -1  -2  -6   67.34    2.09
  -1  -2  -6   70.96    1.97
  -1  -2  -6   72.28    1.93
  -1  -2  -6   68.27    2.21
  -1  -2  -6   71.19    2.08
  -1  -2  -6   70.73    1.99
  -1  -2  -6   72.02    2.21
   1   2   6   76.22    2.23
   1   2   6   70.27    1.86
   1   2   6   70.99    1.95
   1   2   6   69.42    1.92
   1   2   6   75.22    1.93
   1   2   6   75.40    2.22
  -2  -2  -6   93.02    2.54
  -2  -2  -6   96.93    2.89
  -2  -2  -6   95.39    2.73
  -2  -2  -6   96.14    2.58
  -2  -2  -6   94.01    2.76
  -2  -2  -6   94.44    2.88
  -2  -2  -6   97.31    2.72
  -2  -2  -6   95.89    2.47
   2   2   6   95.92    2.87
   2   2   6   98.84    2.89
   2   2   6   93.00    2.72
   2   2   6  100.62    2.50
   2   2   6   95.27    2.49
  -3  -2  -6   74.97    2.15
  -3  -2  -6   74.18    2.14
  -3  -2  -6   74.60    2.01
  -3  -2  -6   70.40    2.25
  -3  -2  -6   70.10    2.20
  -3  -2  -6   76.50    2.03
   3   2   6   74.83    2.19
   3   2   6   74.27    2.25
  -4  -2  -6   11.91    0.53
  -4  -2  -6   12.04    0.51
  -4  -2  -6   12.26    0.48
  -4  -2  -6   12.91    0.51
  -4  -2  -6   11.59    0.58
   4   2   6   12.52    0.47
   4   2   6   12.69    0.54
   4   2   6   11.60    0.55
  -5  -2  -6    5.28    0.34
  -5  -2  -6    4.80    0.30
  -5  -2  -6    4.36    0.31
  -5  -2  -6    5.00    0.32
  -5  -2  -6    4.35    0.33
   5   2   6    5.04    0.24
   5   2   6    5.32    0.31
   5   2   6    5.71    0.40
  -6  -2  -6   21.91    0.89
  -6  -2  -6   21.47    0.96
  -6  -2  -6   22.93    0.91
  -6  -2  -6   22.04    0.88
   6   2   6   21.91    0.85
   6   2   6   21.95    0.96
   6   2   6   22.29    0.71
  -7  -2  -6    0.10    0.11
  -7  -2  -6    0.29    0.17
  -7  -2  -6    0.54    0.17
  -7  -2  -6    0.25    0.14
   7   2   6    0.57    0.20
   7   2   6    0.28    0.10
   7   2   6    0.50    0.16
  -8  -2  -6    6.65    0.59
  -8  -2  -6    7.60    0.54
   8   2   6    7.43    0.34
   8   2   6    7.15    0.58
   8   2   6    6.82    0.49
   9   2   6    1.60    0.34
   7  -3  -6    2.33    0.32
   7  -3  -6    2.57    0.47
   7  -3  -6    2.56    0.44
  -7   3   6    2.87    0.36
   6  -3  -6    1.14    0.18
   6  -3  -6    1.73    0.36
   6  -3  -6    1.37    0.31
   6  -3  -6    1.24    0.25
   6  -3  -6    1.16    0.32
  -6   3   6    1.43    0.24
   5  -3  -6    0.13    0.22
   5  -3  -6    0.09    0.14
   5  -3  -6    0.51    0.21
   5  -3  -6    0.11    0.13
  -5   3   6    0.15    0.12
  -5   3   6    0.19    0.21
   4  -3  -6   10.15    0.62
   4  -3  -6   10.47    0.60
   4  -3  -6   11.41    0.58
   4  -3  -6   11.98    0.75
  -4   3   6   10.66    0.51
  -4   3   6   11.09    0.73
   3  -3  -6   42.75    1.50
   3  -3  -6   47.56    1.57
   3  -3  -6   44.62    1.47
   3  -3  -6   46.99    1.62
   3  -3  -6   45.76    1.79
  -3   3   6   44.84    1.38
  -3   3   6   47.23    1.77
  -3   3   6   48.09    1.54
   2  -3  -6   35.71    1.27
   2  -3  -6   34.13    1.20
   2  -3  -6   34.33    1.22
   2  -3  -6   34.65    1.36
   2  -3  -6   34.83    1.17
   2  -3  -6   34.18    1.38
   2  -3  -6   34.19    1.13
   2  -3  -6   35.65    1.17
  -2   3   6   34.57    1.04
  -2   3   6   33.80    1.11
  -2   3   6   34.18    1.16
  -2   3   6   32.17    1.34
  -2   3   6   34.18    1.32
   1  -3  -6   13.01    0.54
   1  -3  -6   13.56    0.67
   1  -3  -6   13.61    0.60
   1  -3  -6   12.47    0.66
   1  -3  -6   13.42    0.56
   1  -3  -6   13.16    0.64
   1  -3  -6   13.33    0.59
   1  -3  -6   13.14    0.67
   1  -3  -6   14.56    0.58
   1  -3  -6   13.07    0.61
   1  -3  -6   13.37    0.59
  -1   3   6   13.18    0.55
  -1   3   6   14.03    0.52
  -1   3   6   13.45    0.64
  -1   3   6   13.82    0.56
  -1   3   6   13.53    0.45
  -1   3   6   13.39    0.67
  -1   3   6   14.00    0.45
  -1   3   6   14.04    0.68
   0  -3  -6    4.02    0.28
   0  -3  -6    4.39    0.32
   0  -3  -6    4.54    0.32
   0  -3  -6    3.95    0.28
   0  -3  -6    4.43    0.29
   0  -3  -6    4.33    0.32
   0  -3  -6    3.34    0.25
   0  -3  -6    3.80    0.25
   0   3   6    4.34    0.26
   0   3   6    3.90    0.22
   0   3   6    4.47    0.32
   0   3   6    4.20    0.25
   0   3   6    4.86    0.33
  -1  -3  -6   57.05    1.75
  -1  -3  -6   59.49    1.66
  -1  -3  -6   57.31    1.85
  -1  -3  -6   56.31    1.86
  -1  -3  -6   54.22    1.63
  -1  -3  -6   59.79    1.86
  -1  -3  -6   59.37    1.75
   1   3   6   58.70    1.61
   1   3   6   56.39    1.58
   1   3   6   57.11    1.84
   1   3   6   60.06    1.87
   1   3   6   59.11    1.58
  -2  -3  -6   20.43    0.61
  -2  -3  -6   20.16    0.68
  -2  -3  -6   19.71    0.76
  -2  -3  -6   19.14    0.74
  -2  -3  -6   19.91    0.74
  -2  -3  -6   21.09    0.67
   2   3   6   21.26    0.74
   2   3   6   21.00    0.74
  -3  -3  -6    5.70    0.35
  -3  -3  -6    5.35    0.19
  -3  -3  -6    5.36    0.25
  -3  -3  -6    5.38    0.25
  -3  -3  -6    5.09    0.25
  -3  -3  -6    5.49    0.28
  -3  -3  -6    5.29    0.28
   3   3   6    5.89    0.29
   3   3   6    5.11    0.32
   3   3   6    5.74    0.28
  -4  -3  -6   26.44    0.82
  -4  -3  -6   25.59    0.84
  -4  -3  -6   25.30    0.99
  -4  -3  -6   26.10    0.89
  -4  -3  -6   26.17    0.85
   4   3   6   25.98    0.97
   4   3   6   28.50    0.90
   4   3   6   27.10    0.89
  -5  -3  -6   62.61    2.02
  -5  -3  -6   62.31    1.90
  -5  -3  -6   65.98    1.90
  -5  -3  -6   63.44    1.97
  -5  -3  -6   64.35    1.80
   5   3   6   63.23    2.05
   5   3   6   62.08    1.97
   5   3   6   67.29    1.98
  -6  -3  -6   40.38    1.36
  -6  -3  -6   41.96    1.36
  -6  -3  -6   42.01    1.38
  -6  -3  -6   40.14    1.45
   6   3   6   41.29    1.51
   6   3   6   42.11    1.36
  -7  -3  -6    0.44    0.15
  -7  -3  -6    0.39    0.14
  -7  -3  -6    0.22    0.11
  -7  -3  -6    0.41    0.17
   7   3   6    0.33    0.14
   7   3   6    0.24    0.16
  -8  -3  -6    3.84    0.42
  -8  -3  -6    3.41    0.39
   8   3   6    4.05    0.42
   8   3   6    3.62    0.47
  -9  -3  -6    2.13    0.36
   9   3   6    1.32    0.32
   9   3   6    1.42    0.28
  10   3   6   -0.15    0.20
   6  -4  -6    1.17    0.36
   6  -4  -6    1.03    0.34
  -6   4   6    1.75    0.27
   5  -4  -6   13.16    0.78
   5  -4  -6   12.76    0.75
  -5   4   6   12.96    0.62
   4  -4  -6   -0.10    0.15
   4  -4  -6   -0.07    0.12
  -4   4   6    0.21    0.18
  -4   4   6    0.00    0.10
   3  -4  -6   22.56    1.15
   3  -4  -6   23.65    1.05
   3  -4  -6   24.37    1.03
  -3   4   6   23.24    1.15
  -3   4   6   24.37    0.99
  -3   4   6   24.45    0.83
   2  -4  -6   10.13    0.54
   2  -4  -6   11.09    0.60
   2  -4  -6   10.15    0.61
   2  -4  -6   10.88    0.57
   2  -4  -6   12.19    0.71
   2  -4  -6   10.89    0.68
  -2   4   6   10.40    0.41
  -2   4   6   11.24    0.67
  -2   4   6    9.89    0.54
   1  -4  -6    5.34    0.37
   1  -4  -6    5.00    0.36
   1  -4  -6    5.54    0.42
   1  -4  -6    5.27    0.35
   1  -4  -6    5.19    0.35
   1  -4  -6    5.21    0.41
   1  -4  -6    4.71    0.40
   1  -4  -6    5.16    0.42
  -1   4   6    5.58    0.42
  -1   4   6    5.44    0.31
  -1   4   6    5.09    0.32
  -1   4   6    5.36    0.38
  -1   4   6    5.07    0.34
  -1   4   6    5.26    0.19
   0  -4  -6    5.26    0.38
   0  -4  -6    4.37    0.35
   0  -4  -6    4.56    0.33
   0  -4  -6    5.12    0.34
   0  -4  -6    5.21    0.38
   0  -4  -6    5.33    0.33
   0  -4  -6    5.13    0.40
   0  -4  -6    4.67    0.30
   0   4   6    5.14    0.37
   0   4   6    4.82    0.29
   0   4   6    4.55    0.28
  -1  -4  -6   71.63    2.05
  -1  -4  -6   70.22    2.31
  -1  -4  -6   75.65    2.07
  -1  -4  -6   73.20    2.15
  -1  -4  -6   73.01    2.18
  -1  -4  -6   73.48    2.31
  -1  -4  -6   69.57    2.32
  -1  -4  -6   71.24    2.32
   1   4   6   68.89    1.95
   1   4   6   74.15    1.98
   1   4   6   74.21    1.96
   1   4   6   72.36    2.30
   1   4   6   72.54    2.30
  -2  -4  -6   39.88    1.18
  -2  -4  -6   38.78    1.14
  -2  -4  -6   39.73    1.33
  -2  -4  -6   37.45    1.32
  -2  -4  -6   40.26    1.32
  -2  -4  -6   39.93    1.30
  -2  -4  -6   40.76    1.25
   2   4   6   40.64    1.32
  -3  -4  -6   50.58    1.61
  -3  -4  -6   50.30    1.52
  -3  -4  -6   52.67    1.61
  -3  -4  -6   52.98    1.46
  -3  -4  -6   52.66    1.66
   3   4   6   52.09    1.61
   3   4   6   53.42    1.61
   3   4   6   52.15    1.67
  -4  -4  -6    8.51    0.32
  -4  -4  -6    8.58    0.31
  -4  -4  -6    8.97    0.49
  -4  -4  -6    7.85    0.33
  -4  -4  -6    8.09    0.32
  -4  -4  -6    8.33    0.33
   4   4   6    8.73    0.33
   4   4   6    8.65    0.33
   4   4   6    9.21    0.49
  -5  -4  -6   19.35    0.64
  -5  -4  -6   19.14    0.65
  -5  -4  -6   19.65    0.60
  -5  -4  -6   19.60    0.86
   5   4   6   20.14    0.86
  -6  -4  -6   12.78    0.52
  -6  -4  -6   13.17    0.56
  -6  -4  -6   12.81    0.51
   6   4   6   13.03    0.69
  -7  -4  -6    0.11    0.11
  -7  -4  -6    0.51    0.17
  -7  -4  -6    0.32    0.08
  -7  -4  -6    0.44    0.13
   7   4   6    0.34    0.17
  -8  -4  -6    0.74    0.18
  -8  -4  -6    0.56    0.13
  -8  -4  -6    0.67    0.17
   8   4   6    0.31    0.20
  -9  -4  -6   15.47    0.78
   9   4   6   14.77    0.89
 -10  -4  -6    0.11    0.15
  10   4   6    0.30    0.22
   5  -5  -6    0.40    0.27
   5  -5  -6    0.02    0.16
  -5   5   6    0.46    0.15
   4  -5  -6    0.60    0.23
   4  -5  -6    0.44    0.21
  -4   5   6    0.21    0.11
   3  -5  -6    2.82    0.40
   3  -5  -6    2.73    0.39
  -3   5   6    2.47    0.20
  -3   5   6    3.25    0.40
   2  -5  -6    4.31    0.45
   2  -5  -6    3.56    0.44
  -2   5   6    4.01    0.49
  -2   5   6    4.04    0.19
  -2   5   6    4.63    0.39
   1  -5  -6   33.60    1.25
   1  -5  -6   34.92    1.21
   1  -5  -6   34.26    1.39
   1  -5  -6   35.09    1.43
   1  -5  -6   34.90    1.41
   1  -5  -6   34.30    1.21
  -1   5   6   33.36    1.17
  -1   5   6   34.10    1.33
  -1   5   6   35.33    1.18
  -1   5   6   33.38    1.40
   0  -5  -6    0.54    0.14
   0  -5  -6    0.53    0.17
   0  -5  -6    0.29    0.15
   0  -5  -6    0.73    0.18
   0  -5  -6    0.73    0.16
   0  -5  -6    0.58    0.17
   0  -5  -6    0.83    0.20
   0  -5  -6    1.07    0.20
   0   5   6    0.57    0.13
   0   5   6    0.67    0.14
   0   5   6    0.67    0.17
  -1  -5  -6   21.68    0.95
  -1  -5  -6   21.95    1.01
  -1  -5  -6   24.49    0.97
  -1  -5  -6   24.71    0.92
  -1  -5  -6   24.54    0.87
  -1  -5  -6   23.53    0.82
  -1  -5  -6   25.01    0.88
  -1  -5  -6   23.54    0.99
   1   5   6   22.17    0.74
   1   5   6   24.23    0.76
   1   5   6   23.43    0.73
   1   5   6   23.84    0.96
  -2  -5  -6   50.92    1.69
  -2  -5  -6   52.82    1.62
  -2  -5  -6   51.85    1.72
  -2  -5  -6   49.70    1.69
  -2  -5  -6   52.18    1.52
  -2  -5  -6   52.24    1.62
  -2  -5  -6   51.28    1.82
  -2  -5  -6   49.38    1.49
  -3  -5  -6    2.60    0.20
  -3  -5  -6    2.66    0.19
  -3  -5  -6    2.78    0.29
  -3  -5  -6    2.72    0.21
  -3  -5  -6    2.08    0.18
  -3  -5  -6    2.46    0.21
   3   5   6    2.48    0.19
   3   5   6    2.55    0.21
  -4  -5  -6    4.41    0.22
  -4  -5  -6    4.20    0.33
  -4  -5  -6    4.37    0.25
   4   5   6    4.34    0.36
  -5  -5  -6    9.46    0.35
  -5  -5  -6    9.73    0.56
  -5  -5  -6   10.28    0.38
   5   5   6    9.56    0.56
  -6  -5  -6    1.63    0.29
  -6  -5  -6    1.35    0.13
  -6  -5  -6    1.43    0.13
   6   5   6    1.51    0.28
  -7  -5  -6   10.35    0.45
  -7  -5  -6   10.64    0.44
   7   5   6   10.13    0.66
  -8  -5  -6    0.98    0.17
  -8  -5  -6    1.27    0.19
   8   5   6    0.91    0.26
  -9  -5  -6   30.13    1.16
  -9  -5  -6   32.65    1.17
   9   5   6   29.36    1.39
 -10  -5  -6   10.14    0.61
  10   5   6    9.11    0.73
   4  -6  -6    9.12    0.68
   4  -6  -6    7.81    0.66
   3  -6  -6    0.17    0.18
   3  -6  -6   -0.14    0.15
  -3   6   6    0.05    0.15
   2  -6  -6    6.00    0.54
   2  -6  -6    6.17    0.59
  -2   6   6    6.41    0.46
   1  -6  -6    6.84    0.56
   1  -6  -6    6.88    0.51
  -1   6   6    6.90    0.44
   0  -6  -6    0.32    0.18
   0  -6  -6   -0.02    0.13
   0  -6  -6    0.09    0.10
   0  -6  -6    0.05    0.12
   0   6   6    0.09    0.09
   0   6   6    0.08    0.10
  -1  -6  -6    1.09    0.27
  -1  -6  -6    1.39    0.23
  -1  -6  -6    1.77    0.23
  -1  -6  -6    1.12    0.20
  -1  -6  -6    1.46    0.27
  -1  -6  -6    1.36    0.23
   1   6   6    1.46    0.16
   1   6   6    1.13    0.15
  -2  -6  -6    0.89    0.21
  -2  -6  -6    0.85    0.17
  -2  -6  -6    1.43    0.20
  -2  -6  -6    1.03    0.21
  -2  -6  -6    1.15    0.28
  -3  -6  -6    4.54    0.34
  -3  -6  -6    5.26    0.33
  -3  -6  -6    5.25    0.32
  -3  -6  -6    5.35    0.46
  -3  -6  -6    5.79    0.36
  -3  -6  -6    5.34    0.27
  -4  -6  -6    6.89    0.43
  -4  -6  -6    6.99    0.34
  -4  -6  -6    6.67    0.51
  -4  -6  -6    7.31    0.37
  -5  -6  -6   26.45    1.05
  -5  -6  -6   27.65    0.90
  -5  -6  -6   25.85    0.82
   5   6   6   25.57    1.11
  -6  -6  -6    4.84    0.43
   6   6   6    5.00    0.44
  -7  -6  -6    6.19    0.51
   7   6   6    5.84    0.49
  -8  -6  -6    1.67    0.18
  -8  -6  -6    1.67    0.34
  -8  -6  -6    1.43    0.18
   8   6   6    2.20    0.39
  -9  -6  -6   11.36    0.52
  -9  -6  -6   10.16    0.52
   9   6   6   11.74    0.79
 -10  -6  -6    1.04    0.22
  10   6   6    1.16    0.33
   3  -7  -6    0.11    0.21
   3  -7  -6    0.09    0.22
  -3   7   6   -0.08    0.14
   2  -7  -6    2.41    0.44
   2  -7  -6    2.19    0.37
  -2   7   6    2.12    0.32
   1  -7  -6    0.87    0.28
  -1   7   6    0.76    0.18
   0  -7  -6   10.24    0.72
   0   7   6    9.51    0.48
   0   7   6   10.76    0.51
  -1  -7  -6    0.69    0.18
  -1  -7  -6    0.61    0.22
   1   7   6    0.49    0.11
   1   7   6    0.55    0.11
  -2  -7  -6   24.63    1.03
  -2  -7  -6   25.38    1.20
  -2  -7  -6   26.59    0.95
  -3  -7  -6    5.88    0.39
  -3  -7  -6    5.55    0.51
  -3  -7  -6    4.98    0.39
  -3  -7  -6    5.61    0.32
  -3  -7  -6    5.65    0.36
  -4  -7  -6   14.62    0.83
  -4  -7  -6   14.82    0.67
  -4  -7  -6   14.64    0.62
  -4  -7  -6   13.63    0.51
  -4  -7  -6   13.53    0.65
  -5  -7  -6   23.43    0.81
  -5  -7  -6   22.26    0.86
  -5  -7  -6   24.59    0.98
  -5  -7  -6   24.17    1.12
  -6  -7  -6    4.95    0.43
  -6  -7  -6    5.50    0.48
   6   7   6    5.08    0.54
  -7  -7  -6   17.31    0.87
  -7  -7  -6   16.16    0.87
   7   7   6   16.25    0.91
  -8  -7  -6    8.37    0.62
   8   7   6    7.45    0.61
  -9  -7  -6    3.57    0.24
  -9  -7  -6    3.87    0.53
   9   7   6    4.37    0.57
   1  -8  -6    0.27    0.22
  -1   8   6    0.18    0.15
   0  -8  -6   12.63    0.87
   0   8   6   12.24    0.56
   0   8   6   11.48    0.54
  -1  -8  -6    3.80    0.53
   1   8   6    3.08    0.19
  -2  -8  -6    2.56    0.35
  -2  -8  -6    2.70    0.44
  -2  -8  -6    2.84    0.33
  -3  -8  -6    0.62    0.24
  -3  -8  -6    0.87    0.18
  -3  -8  -6    0.58    0.19
  -4  -8  -6    0.35    0.20
  -4  -8  -6    0.06    0.11
  -4  -8  -6    0.06    0.15
  -4  -8  -6   -0.06    0.08
  -5  -8  -6    1.68    0.21
  -5  -8  -6    1.96    0.36
  -5  -8  -6    1.85    0.15
  -6  -8  -6    2.19    0.19
  -6  -8  -6    2.75    0.35
  -6  -8  -6    2.94    0.44
  -7  -8  -6    0.55    0.21
  -7  -8  -6    0.45    0.21
   7   8   6    0.88    0.28
  -8  -8  -6   19.10    0.96
   8   8   6   16.48    1.00
  -9  -8  -6    9.32    0.68
   9   8   6    8.31    0.71
   0  -9  -6    0.17    0.22
   0   9   6    0.29    0.12
   0   9   6    0.18    0.12
  -1  -9  -6    0.30    0.21
  -2  -9  -6    1.53    0.37
  -3  -9  -6    5.33    0.65
  -3  -9  -6    5.25    0.46
  -3  -9  -6    5.59    0.41
  -4  -9  -6    9.87    0.52
  -4  -9  -6    9.53    0.75
  -4  -9  -6    8.79    0.57
  -5  -9  -6   -0.01    0.11
  -5  -9  -6   -0.06    0.08
  -5  -9  -6   -0.08    0.15
  -6  -9  -6    3.10    0.21
  -6  -9  -6    3.42    0.28
  -6  -9  -6    3.98    0.53
  -7  -9  -6    2.65    0.43
  -7  -9  -6    2.60    0.20
   8   9   6   -0.22    0.17
  -3 -10  -6    0.32    0.25
  -4 -10  -6    1.03    0.27
  -4 -10  -6    0.97    0.33
  -5 -10  -6    0.08    0.21
  -5 -10  -6   -0.22    0.13
  -5 -10  -6   -0.02    0.14
  -5 -10  -6    0.08    0.16
  -6 -10  -6    0.00    0.18
  -6 -10  -6   -0.01    0.12
  -6 -10  -6   -0.05    0.11
  -6  -9   7    0.50    0.23
  -5  -9   7    0.78    0.27
  -4  -9   7    2.09    0.42
  -3  -9   7    0.61    0.25
  -3  -9   7    0.80    0.29
   2   9  -7    0.91    0.16
  -2  -9   7    0.99    0.31
  -2  -9   7    1.33    0.35
  -8  -8   7   12.52    0.80
  -7  -8   7    3.97    0.45
  -7  -8   7    4.31    0.55
  -6  -8   7   -0.18    0.18
  -5  -8   7   -0.02    0.16
  -4  -8   7   40.15    1.58
  -4  -8   7   37.64    1.58
   3   8  -7    8.79    0.37
   3   8  -7    7.85    0.55
  -3  -8   7    8.56    0.65
  -3  -8   7    8.84    0.65
   2   8  -7    3.66    0.43
   2   8  -7    4.12    0.30
  -2  -8   7    3.78    0.50
  -2  -8   7    4.25    0.41
  -2  -8   7    4.11    0.53
   1   8  -7    0.92    0.25
  -1  -8   7    0.98    0.30
  -1  -8   7    1.80    0.29
  -1  -8   7    1.59    0.37
   0  -8   7    0.35    0.18
   0  -8   7    0.18    0.21
   0  -8   7    0.67    0.27
   8   7  -7   11.02    0.75
  -8  -7   7   13.65    0.80
  -8  -7   7   13.69    0.75
  -7  -7   7    0.88    0.28
  -7  -7   7    0.56    0.19
  -6  -7   7    4.11    0.51
  -6  -7   7    3.88    0.43
  -6  -7   7    3.65    0.42
   5   7  -7    0.71    0.22
  -5  -7   7    0.99    0.24
  -5  -7   7    0.68    0.24
   4   7  -7   35.18    1.40
  -4  -7   7   38.99    1.47
  -4  -7   7   36.61    1.50
  -4  -7   7   39.83    1.46
   3   7  -7   35.33    1.34
   3   7  -7   35.22    1.10
  -3  -7   7   34.64    1.42
  -3  -7   7   34.78    1.43
   2   7  -7    2.46    0.34
   2   7  -7    2.62    0.28
  -2  -7   7    2.66    0.30
  -2  -7   7    2.81    0.40
  -2  -7   7    2.86    0.42
   1   7  -7    0.51    0.19
  -1  -7   7    0.69    0.18
  -1  -7   7    0.47    0.24
  -1  -7   7    0.77    0.24
   0  -7   7   10.48    0.70
   0  -7   7   10.76    0.59
   0  -7   7   10.88    0.77
   1  -7   7    0.22    0.20
   1  -7   7    0.82    0.29
   2  -7   7   24.86    1.16
   2  -7   7   21.73    1.25
   9   6  -7    3.50    0.47
   8   6  -7    5.55    0.59
  -8  -6   7    6.61    0.52
  -8  -6   7    5.25    0.46
   7   6  -7   -0.08    0.13
  -7  -6   7    0.02    0.14
  -7  -6   7   -0.10    0.12
   6   6  -7    0.46    0.18
  -6  -6   7    0.44    0.16
  -6  -6   7    0.82    0.24
   5   6  -7    0.29    0.14
  -5  -6   7    0.19    0.13
  -5  -6   7    0.07    0.16
  -5  -6   7    0.24    0.12
  -5  -6   7    0.38    0.21
   4   6  -7    3.67    0.21
   4   6  -7    3.33    0.37
  -4  -6   7    3.70    0.44
  -4  -6   7    3.96    0.45
  -4  -6   7    3.33    0.40
  -4  -6   7    3.74    0.35
  -4  -6   7    4.64    0.39
   3   6  -7    1.77    0.28
   3   6  -7    1.98    0.22
  -3  -6   7    2.07    0.35
  -3  -6   7    2.41    0.34
  -3  -6   7    2.36    0.33
  -3  -6   7    2.41    0.34
  -3  -6   7    2.08    0.31
  -3  -6   7    2.26    0.25
  -3  -6   7    2.65    0.35
   2   6  -7    2.37    0.32
   2   6  -7    2.36    0.26
  -2  -6   7    2.19    0.26
  -2  -6   7    1.71    0.29
  -2  -6   7    1.78    0.31
  -2  -6   7    2.74    0.37
  -2  -6   7    1.73    0.31
   1   6  -7   10.21    0.58
  -1  -6   7    8.36    0.63
  -1  -6   7    9.92    0.50
  -1  -6   7    9.98    0.62
  -1  -6   7    8.79    0.63
  -1  -6   7    9.46    0.61
   0  -6   7   44.82    1.80
   0  -6   7   47.91    1.69
   0  -6   7   46.10    1.50
   1  -6   7   18.51    0.80
   1  -6   7   20.36    0.96
   1  -6   7   20.75    1.08
  -2   6  -7    3.91    0.24
   2  -6   7    3.22    0.48
   2  -6   7    3.11    0.42
  -3   6  -7    0.44    0.13
   3  -6   7    0.60    0.23
   3  -6   7    0.39    0.21
   9   5  -7    1.78    0.33
   8   5  -7    0.58    0.21
  -8  -5   7    0.49    0.22
   7   5  -7    7.73    0.35
   7   5  -7    7.27    0.52
  -7  -5   7    8.23    0.53
  -7  -5   7    7.68    0.56
   6   5  -7   22.21    0.96
   6   5  -7   21.84    0.75
  -6  -5   7   19.89    0.96
  -6  -5   7   22.48    0.99
  -6  -5   7   23.43    0.95
  -6  -5   7   21.01    1.00
   5   5  -7   44.49    1.57
   5   5  -7   46.13    1.37
   5   5  -7   44.41    1.59
  -5  -5   7   45.50    1.59
  -5  -5   7   45.26    1.64
  -5  -5   7   49.42    1.58
  -5  -5   7   44.28    1.59
  -5  -5   7   36.75    1.41
   4   5  -7    3.46    0.27
   4   5  -7    3.11    0.36
   4   5  -7    3.73    0.23
  -4  -5   7    2.93    0.25
  -4  -5   7    3.82    0.32
  -4  -5   7    3.96    0.34
  -4  -5   7    3.80    0.30
  -4  -5   7    2.84    0.34
  -4  -5   7    2.84    0.35
  -4  -5   7    3.21    0.38
   3   5  -7   13.63    0.55
   3   5  -7   10.92    0.65
   3   5  -7   13.27    0.66
   3   5  -7   13.61    0.60
   3   5  -7   13.29    0.65
  -3  -5   7   13.60    0.69
  -3  -5   7   12.46    0.69
  -3  -5   7   15.17    0.68
  -3  -5   7   14.32    0.55
  -3  -5   7   13.21    0.70
  -3  -5   7   14.13    0.67
  -3  -5   7   13.32    0.66
   2   5  -7   23.92    0.93
   2   5  -7   25.21    0.99
   2   5  -7   25.47    0.89
   2   5  -7   23.73    1.02
   2   5  -7   24.95    1.07
  -2  -5   7   22.66    1.00
  -2  -5   7   23.42    1.06
  -2  -5   7   24.56    1.01
  -2  -5   7   25.84    1.04
  -2  -5   7   26.54    1.03
  -2  -5   7   26.00    0.86
  -2  -5   7   23.75    1.02
   1   5  -7    0.91    0.20
   1   5  -7    1.05    0.23
   1   5  -7    0.75    0.17
   1   5  -7    0.90    0.20
  -1  -5   7    0.65    0.18
  -1  -5   7    0.57    0.21
  -1  -5   7    0.58    0.17
  -1  -5   7    0.87    0.17
  -1  -5   7    0.93    0.22
  -1  -5   7    0.58    0.20
  -1  -5   7    0.87    0.22
   0   5  -7    0.84    0.10
   0   5  -7    0.75    0.22
   0  -5   7    0.79    0.22
   0  -5   7    0.73    0.19
   0  -5   7    0.83    0.26
   0  -5   7    1.22    0.27
   0  -5   7    0.86    0.23
   0  -5   7    0.95    0.18
  -1   5  -7    9.03    0.64
  -1   5  -7   10.44    0.42
   1  -5   7   10.18    0.69
   1  -5   7    8.75    0.57
   1  -5   7    8.88    0.64
   1  -5   7    9.91    0.50
  -2   5  -7    1.14    0.28
  -2   5  -7    0.47    0.14
   2  -5   7    0.77    0.25
   2  -5   7    0.67    0.27
   2  -5   7    0.57    0.21
  -3   5  -7    9.13    0.48
   3  -5   7    9.18    0.69
   3  -5   7    9.26    0.58
  -4   5  -7   21.90    0.87
   4  -5   7   20.93    1.17
  -5   5  -7    1.37    0.25
   9   4  -7   -0.31    0.14
   9   4  -7   -0.02    0.15
   8   4  -7    3.54    0.25
   8   4  -7    3.29    0.46
   8   4  -7    3.68    0.44
  -8  -4   7    3.36    0.43
   7   4  -7   40.90    1.53
   7   4  -7   41.97    1.30
  -7  -4   7   41.30    1.52
  -7  -4   7   41.18    1.54
   6   4  -7    1.88    0.22
   6   4  -7    1.75    0.27
  -6  -4   7    1.65    0.30
  -6  -4   7    1.58    0.27
  -6  -4   7    1.77    0.30
  -6  -4   7    1.50    0.28
   5   4  -7   46.37    1.55
   5   4  -7   45.90    1.41
  -5  -4   7   45.60    1.60
  -5  -4   7   47.48    1.57
  -5  -4   7   45.91    1.66
  -5  -4   7   44.54    1.56
  -5  -4   7   41.49    1.43
   4   4  -7   12.49    0.54
   4   4  -7   12.08    0.63
   4   4  -7   12.05    0.57
   4   4  -7   12.09    0.57
   4   4  -7   10.61    0.61
   4   4  -7   12.43    0.48
  -4  -4   7   10.95    0.61
  -4  -4   7   13.20    0.65
  -4  -4   7   11.95    0.48
  -4  -4   7   11.19    0.62
  -4  -4   7   11.31    0.58
  -4  -4   7   11.63    0.54
  -4  -4   7   11.60    0.62
   3   4  -7    0.34    0.11
   3   4  -7    0.16    0.10
   3   4  -7    0.04    0.11
   3   4  -7    0.07    0.10
   3   4  -7    0.22    0.12
   3   4  -7    0.14    0.10
  -3  -4   7    0.04    0.09
  -3  -4   7    0.11    0.11
  -3  -4   7    0.29    0.12
  -3  -4   7    0.10    0.08
  -3  -4   7    0.22    0.14
  -3  -4   7    0.18    0.08
  -3  -4   7   -0.01    0.09
  -3  -4   7    0.14    0.11
   2   4  -7    6.45    0.45
   2   4  -7    6.84    0.40
   2   4  -7    7.27    0.37
   2   4  -7    7.21    0.38
   2   4  -7    7.18    0.45
   2   4  -7    6.97    0.43
  -2  -4   7    7.15    0.44
  -2  -4   7    8.08    0.49
  -2  -4   7    7.38    0.45
  -2  -4   7    6.72    0.46
  -2  -4   7    6.93    0.45
  -2  -4   7    7.20    0.43
  -2  -4   7    7.37    0.36
  -2  -4   7    7.17    0.43
   1   4  -7   68.77    2.31
   1   4  -7   67.57    1.75
   1   4  -7   67.93    2.06
   1   4  -7   71.13    2.32
   1   4  -7   67.84    2.12
   1   4  -7   68.07    2.00
   1   4  -7   70.53    1.98
  -1  -4   7   67.08    2.22
  -1  -4   7   69.42    2.33
  -1  -4   7   64.21    2.18
  -1  -4   7   65.63    2.31
  -1  -4   7   67.91    1.93
  -1  -4   7   71.45    2.19
  -1  -4   7   65.28    2.08
  -1  -4   7   68.31    2.10
   0   4  -7    0.27    0.13
   0   4  -7    0.32    0.09
   0   4  -7    0.26    0.09
   0   4  -7    0.19    0.13
   0   4  -7    0.16    0.13
   0  -4   7    0.53    0.16
   0  -4   7    0.06    0.11
   0  -4   7    0.29    0.15
   0  -4   7    0.42    0.12
   0  -4   7    0.45    0.16
   0  -4   7    0.23    0.15
   0  -4   7    0.07    0.10
  -1   4  -7    8.88    0.60
  -1   4  -7    9.46    0.42
  -1   4  -7    9.38    0.40
   1  -4   7   10.04    0.64
   1  -4   7    8.73    0.60
   1  -4   7    9.83    0.47
   1  -4   7    9.87    0.54
   1  -4   7    8.82    0.59
  -2   4  -7    0.01    0.14
  -2   4  -7    0.49    0.13
   2  -4   7    0.05    0.12
   2  -4   7    0.24    0.17
   2  -4   7    0.27    0.17
  -3   4  -7    2.55    0.28
  -3   4  -7    3.17    0.44
   3  -4   7    2.99    0.35
   3  -4   7    2.87    0.42
  -4   4  -7    1.30    0.23
   4  -4   7    0.72    0.26
   4  -4   7    1.13    0.23
  -5   4  -7    1.86    0.28
   5  -4   7    2.27    0.32
  -6   4  -7    1.05    0.25
   6  -4   7    1.82    0.30
   9   3  -7    4.56    0.52
   9   3  -7    4.26    0.32
   9   3  -7    3.67    0.52
   8   3  -7    0.26    0.12
   8   3  -7    0.18    0.18
   8   3  -7    0.04    0.15
  -8  -3   7    0.05    0.14
   7   3  -7    0.67    0.16
   7   3  -7    0.55    0.21
   7   3  -7    0.86    0.13
   7   3  -7    1.07    0.22
  -7  -3   7    0.53    0.21
   6   3  -7    3.17    0.24
   6   3  -7    3.25    0.28
   6   3  -7    3.21    0.36
   6   3  -7    3.94    0.43
  -6  -3   7    3.30    0.37
  -6  -3   7    3.53    0.40
  -6  -3   7    2.88    0.38
  -6  -3   7    3.31    0.39
   5   3  -7    0.35    0.12
   5   3  -7    0.25    0.12
   5   3  -7    0.40    0.14
   5   3  -7    0.12    0.14
   5   3  -7    0.77    0.17
  -5  -3   7    0.48    0.12
  -5  -3   7    0.54    0.13
  -5  -3   7    0.39    0.15
  -5  -3   7    0.66    0.18
  -5  -3   7    0.36    0.17
  -5  -3   7    0.51    0.15
   4   3  -7    8.91    0.43
   4   3  -7    9.35    0.46
   4   3  -7    8.91    0.42
   4   3  -7    9.51    0.50
   4   3  -7    9.33    0.46
   4   3  -7    9.43    0.54
   4   3  -7    8.53    0.52
  -4  -3   7    9.96    0.42
  -4  -3   7    9.35    0.53
  -4  -3   7   11.03    0.57
  -4  -3   7    9.70    0.51
  -4  -3   7    9.23    0.52
  -4  -3   7    8.77    0.53
  -4  -3   7    9.15    0.45
   3   3  -7    2.66    0.25
   3   3  -7    2.93    0.24
   3   3  -7    2.75    0.30
   3   3  -7    3.06    0.23
   3   3  -7    2.73    0.19
   3   3  -7    3.38    0.25
   3   3  -7    3.09    0.28
   3   3  -7    3.19    0.29
   3   3  -7    2.61    0.25
   3   3  -7    3.68    0.30
  -3  -3   7    2.89    0.32
  -3  -3   7    3.04    0.31
  -3  -3   7    3.52    0.31
  -3  -3   7    3.06    0.21
  -3  -3   7    2.86    0.32
  -3  -3   7    3.19    0.28
  -3  -3   7    3.21    0.24
   2   3  -7   14.88    0.61
   2   3  -7   14.27    0.55
   2   3  -7   15.55    0.67
   2   3  -7   14.88    0.69
   2   3  -7   15.37    0.73
   2   3  -7   13.88    0.61
   2   3  -7   14.31    0.70
   2   3  -7   15.16    0.59
   2   3  -7   14.71    0.61
  -2  -3   7   14.87    0.66
  -2  -3   7   15.49    0.63
  -2  -3   7   14.94    0.55
  -2  -3   7   15.27    0.66
  -2  -3   7   16.22    0.73
  -2  -3   7   15.59    0.66
  -2  -3   7   15.23    0.71
  -2  -3   7   14.23    0.65
   1   3  -7  147.64    3.69
   1   3  -7  141.64    4.06
   1   3  -7  145.07    4.41
   1   3  -7  141.81    3.87
   1   3  -7  145.49    3.98
   1   3  -7  143.50    3.89
   1   3  -7  139.30    3.92
   1   3  -7  141.94    4.39
  -1  -3   7  145.57    4.18
  -1  -3   7  142.31    4.40
  -1  -3   7  141.10    3.77
  -1  -3   7  143.82    3.94
  -1  -3   7  144.47    3.97
  -1  -3   7  143.84    3.90
  -1  -3   7  143.04    4.15
  -1  -3   7  147.29    4.25
  -1  -3   7  143.59    4.40
   0   3  -7   75.49    2.49
   0   3  -7   72.93    2.46
   0   3  -7   73.38    2.02
   0   3  -7   75.41    2.14
   0   3  -7   71.52    2.19
   0  -3   7   76.14    2.19
   0  -3   7   73.09    2.47
   0  -3   7   75.89    2.38
   0  -3   7   76.06    2.31
   0  -3   7   74.84    2.19
   0  -3   7   71.31    2.05
   0  -3   7   73.95    2.19
   0  -3   7   75.30    2.47
  -1   3  -7    1.63    0.27
  -1   3  -7    1.87    0.26
  -1   3  -7    1.48    0.18
  -1   3  -7    1.95    0.20
  -1   3  -7    2.05    0.30
   1  -3   7    1.74    0.20
   1  -3   7    1.79    0.24
   1  -3   7    1.53    0.22
   1  -3   7    1.42    0.26
   1  -3   7    2.00    0.30
   1  -3   7    1.75    0.28
   1  -3   7    1.97    0.26
  -2   3  -7    9.58    0.46
  -2   3  -7   10.01    0.62
  -2   3  -7    9.79    0.46
  -2   3  -7   10.83    0.67
   2  -3   7   10.11    0.51
   2  -3   7   10.11    0.64
   2  -3   7   10.57    0.52
   2  -3   7    9.44    0.60
   2  -3   7    9.75    0.54
  -3   3  -7   47.55    1.50
  -3   3  -7   45.12    1.45
  -3   3  -7   44.14    1.79
   3  -3   7   43.97    1.74
   3  -3   7   47.30    1.50
   3  -3   7   47.78    1.58
   3  -3   7   48.24    1.52
  -4   3  -7    0.21    0.18
  -4   3  -7    0.19    0.14
   4  -3   7    0.31    0.14
   4  -3   7    0.45    0.14
   4  -3   7    0.50    0.18
  -5   3  -7   15.24    0.73
   5  -3   7   16.56    0.73
   5  -3   7   16.44    0.81
  -6   3  -7    0.25    0.17
   6  -3   7    0.44    0.20
   6  -3   7    0.23    0.17
   6  -3   7    0.18    0.27
   9   2  -7    0.72    0.13
   9   2  -7    0.80    0.29
   9   2  -7    0.72    0.24
   9   2  -7    0.91    0.22
   8   2  -7    1.18    0.27
   8   2  -7    0.66    0.18
   8   2  -7    0.95    0.17
   8   2  -7    1.08    0.29
  -8  -2   7    0.75    0.23
   7   2  -7    9.45    0.64
   7   2  -7    9.64    0.47
   7   2  -7   10.09    0.59
   7   2  -7    9.20    0.52
  -7  -2   7    9.48    0.50
  -7  -2   7    9.55    0.60
   6   2  -7    8.92    0.58
   6   2  -7   10.67    0.56
   6   2  -7    9.47    0.50
   6   2  -7    9.17    0.46
  -6  -2   7    9.25    0.47
  -6  -2   7    9.51    0.60
  -6  -2   7    9.11    0.61
  -6  -2   7    9.33    0.57
  -6  -2   7    8.73    0.59
  -6  -2   7    9.98    0.60
   5   2  -7    4.94    0.32
   5   2  -7    4.18    0.32
   5   2  -7    4.16    0.31
   5   2  -7    4.06    0.42
   5   2  -7    3.70    0.41
   5   2  -7    3.97    0.23
  -5  -2   7    3.68    0.35
  -5  -2   7    4.37    0.28
  -5  -2   7    4.92    0.39
  -5  -2   7    3.51    0.28
  -5  -2   7    3.68    0.34
  -5  -2   7    3.82    0.40
  -5  -2   7    4.45    0.37
   4   2  -7    0.96    0.16
   4   2  -7    0.59    0.15
   4   2  -7    0.80    0.15
   4   2  -7    0.93    0.19
   4   2  -7    0.76    0.18
   4   2  -7    1.02    0.14
   4   2  -7    0.99    0.16
   4   2  -7    0.80    0.17
  -4  -2   7    0.64    0.17
  -4  -2   7    0.86    0.14
  -4  -2   7    0.90    0.19
  -4  -2   7    0.61    0.16
  -4  -2   7    0.90    0.19
  -4  -2   7    0.88    0.18
  -4  -2   7    0.94    0.16
   3   2  -7    0.84    0.19
   3   2  -7    1.09    0.19
   3   2  -7    1.29    0.21
   3   2  -7    1.05    0.21
   3   2  -7    0.85    0.15
   3   2  -7    0.90    0.18
   3   2  -7    1.05    0.16
   3   2  -7    0.83    0.16
   3   2  -7    1.02    0.18
   3   2  -7    0.84    0.13
   3   2  -7    0.74    0.13
   3   2  -7    0.62    0.16
  -3  -2   7    0.91    0.17
  -3  -2   7    1.07    0.19
  -3  -2   7    1.29    0.21
  -3  -2   7    0.89    0.17
  -3  -2   7    0.96    0.15
  -3  -2   7    0.92    0.19
  -3  -2   7    1.04    0.16
  -3  -2   7    1.03    0.20
   2   2  -7    9.25    0.51
   2   2  -7    8.46    0.49
   2   2  -7    9.70    0.43
   2   2  -7    8.84    0.32
   2   2  -7    9.24    0.45
   2   2  -7    9.42    0.48
   2   2  -7    8.57    0.40
   2   2  -7    9.89    0.40
   2   2  -7    8.62    0.42
   2   2  -7    9.56    0.46
   2   2  -7    8.63    0.45
  -2  -2   7    9.50    0.51
  -2  -2   7    8.47    0.44
  -2  -2   7    9.01    0.43
  -2  -2   7    8.34    0.45
  -2  -2   7    8.86    0.46
  -2  -2   7    9.66    0.39
  -2  -2   7    9.07    0.51
   1   2  -7   38.42    1.15
   1   2  -7   36.03    1.06
   1   2  -7   38.03    1.24
   1   2  -7   38.53    1.21
   1   2  -7   37.81    1.20
   1   2  -7   37.49    1.16
   1   2  -7   38.72    1.37
   1   2  -7   36.88    1.18
   1   2  -7   36.78    1.34
   1   2  -7   36.34    1.14
   1   2  -7   36.80    1.34
  -1  -2   7   37.74    1.35
  -1  -2   7   36.51    1.20
  -1  -2   7   37.13    1.35
  -1  -2   7   38.32    1.25
  -1  -2   7   35.72    1.09
  -1  -2   7   34.41    1.18
  -1  -2   7   37.40    1.18
   0   2  -7    0.00    0.05
   0   2  -7    0.03    0.08
   0   2  -7    0.01    0.07
   0   2  -7    0.00    0.08
   0   2  -7   -0.08    0.06
   0   2  -7    0.04    0.06
   0   2  -7    0.02    0.08
   0   2  -7    0.03    0.08
   0   2  -7    0.06    0.07
   0  -2   7    0.03    0.08
   0  -2   7   -0.05    0.06
   0  -2   7    0.08    0.07
   0  -2   7   -0.04    0.07
   0  -2   7    0.01    0.06
   0  -2   7    0.06    0.09
   0  -2   7    0.00    0.07
   0  -2   7    0.00    0.08
  -1   2  -7   -0.05    0.09
  -1   2  -7    0.01    0.08
  -1   2  -7    0.03    0.07
  -1   2  -7    0.17    0.10
  -1   2  -7    0.04    0.10
  -1   2  -7    0.01    0.08
  -1   2  -7   -0.04    0.07
  -1   2  -7    0.02    0.08
  -1   2  -7    0.08    0.08
   1  -2   7    0.01    0.07
   1  -2   7    0.09    0.10
   1  -2   7   -0.02    0.06
   1  -2   7   -0.07    0.07
   1  -2   7    0.03    0.07
   1  -2   7   -0.02    0.08
   1  -2   7    0.00    0.06
   1  -2   7   -0.07    0.06
   1  -2   7    0.12    0.11
  -2   2  -7   34.19    1.11
  -2   2  -7   36.21    1.29
  -2   2  -7   36.23    1.42
  -2   2  -7   34.73    1.38
  -2   2  -7   36.86    1.25
  -2   2  -7   36.29    1.18
   2  -2   7   36.21    1.27
   2  -2   7   37.05    1.16
   2  -2   7   37.09    1.41
   2  -2   7   36.45    1.40
   2  -2   7   36.31    1.21
  -3   2  -7   53.91    2.00
  -3   2  -7   54.97    1.65
  -3   2  -7   57.85    2.07
  -3   2  -7   56.29    1.75
   3  -2   7   55.64    1.75
   3  -2   7   56.09    2.02
   3  -2   7   55.55    1.68
   3  -2   7   55.46    1.66
  -4   2  -7   42.30    1.37
  -4   2  -7   39.68    1.65
  -4   2  -7   42.71    1.45
   4  -2   7   43.82    1.34
   4  -2   7   41.98    1.44
   4  -2   7   45.55    1.39
  -5   2  -7    0.23    0.15
  -5   2  -7   -0.02    0.13
   5  -2   7    0.13    0.11
   5  -2   7   -0.03    0.12
  -6   2  -7    0.64    0.20
  -6   2  -7    0.63    0.20
   6  -2   7    0.73    0.21
   6  -2   7    0.16    0.24
   6  -2   7    0.55    0.17
  -7   2  -7    0.67    0.22
  -7   2  -7    0.87    0.24
   7  -2   7    0.72    0.16
   7  -2   7    1.10    0.34
   7  -2   7    0.64    0.15
   7  -2   7    0.41    0.20
  -9  -1   7    3.72    0.42
   8   1  -7   19.33    0.81
   8   1  -7   19.16    0.88
   8   1  -7   19.43    0.97
   8   1  -7   19.11    1.04
  -8  -1   7   20.89    0.88
   7   1  -7    0.42    0.16
   7   1  -7    0.32    0.08
   7   1  -7    0.14    0.12
   7   1  -7    0.06    0.13
   7   1  -7    0.24    0.17
  -7  -1   7    0.12    0.14
  -7  -1   7    0.59    0.20
   6   1  -7    2.48    0.32
   6   1  -7    2.17    0.29
   6   1  -7    2.65    0.30
   6   1  -7    2.88    0.38
   6   1  -7    2.87    0.23
  -6  -1   7    2.19    0.34
  -6  -1   7    3.04    0.31
  -6  -1   7    1.89    0.31
  -6  -1   7    2.12    0.34
   5   1  -7    0.42    0.18
   5   1  -7    0.40    0.17
   5   1  -7    0.46    0.12
   5   1  -7    0.65    0.16
   5   1  -7    0.60    0.15
   5   1  -7    1.00    0.22
   5   1  -7    0.56    0.15
  -5  -1   7    0.56    0.18
  -5  -1   7    0.40    0.17
  -5  -1   7    0.64    0.18
  -5  -1   7    0.53    0.14
  -5  -1   7    0.54    0.18
  -5  -1   7    0.66    0.19
  -5  -1   7    0.80    0.19
   4   1  -7    5.92    0.33
   4   1  -7    5.21    0.33
   4   1  -7    5.21    0.38
   4   1  -7    5.40    0.35
   4   1  -7    4.99    0.37
   4   1  -7    5.32    0.31
   4   1  -7    4.70    0.39
  -4  -1   7    5.11    0.37
  -4  -1   7    5.63    0.31
  -4  -1   7    6.60    0.44
  -4  -1   7    5.36    0.38
  -4  -1   7    5.84    0.42
  -4  -1   7    4.75    0.37
   3   1  -7   28.64    0.91
   3   1  -7   27.40    1.12
   3   1  -7   29.43    1.12
   3   1  -7   28.05    1.00
   3   1  -7   27.69    0.92
   3   1  -7   30.54    0.97
   3   1  -7   27.58    0.91
   3   1  -7   28.38    1.06
   3   1  -7   28.44    1.09
   3   1  -7   28.42    0.95
   3   1  -7   27.54    0.99
   3   1  -7   28.57    0.82
   3   1  -7   26.96    0.96
  -3  -1   7   29.53    0.98
  -3  -1   7   27.14    1.01
  -3  -1   7   28.40    1.12
  -3  -1   7   28.45    1.04
  -3  -1   7   29.94    1.13
  -3  -1   7   28.53    0.90
  -3  -1   7   27.17    1.00
   2   1  -7   32.85    1.12
   2   1  -7   33.08    1.07
   2   1  -7   33.20    1.03
   2   1  -7   31.47    1.05
   2   1  -7   33.14    1.18
   2   1  -7   31.59    1.00
   2   1  -7   32.62    1.11
   2   1  -7   31.62    1.00
   2   1  -7   31.02    1.03
   2   1  -7   32.08    0.95
   2   1  -7   31.04    0.93
   2   1  -7   31.98    1.19
   2   1  -7   31.48    1.19
   2   1  -7   32.29    1.04
  -2  -1   7   32.31    0.97
  -2  -1   7   31.31    1.10
  -2  -1   7   32.84    1.20
  -2  -1   7   32.45    1.08
  -2  -1   7   31.37    1.03
  -2  -1   7   30.55    1.19
  -2  -1   7   31.01    1.07
   1   1  -7    9.49    0.43
   1   1  -7   10.22    0.45
   1   1  -7   10.17    0.45
   1   1  -7   10.05    0.53
   1   1  -7    9.97    0.47
   1   1  -7    9.81    0.47
   1   1  -7   11.03    0.48
   1   1  -7   10.15    0.53
   1   1  -7    9.01    0.45
   1   1  -7   10.68    0.40
   1   1  -7    9.82    0.42
  -1  -1   7    9.62    0.44
  -1  -1   7   10.76    0.53
  -1  -1   7   10.43    0.53
  -1  -1   7    9.52    0.44
  -1  -1   7   10.36    0.47
  -1  -1   7   10.34    0.47
  -1  -1   7   10.19    0.39
   0   1  -7    4.89    0.26
   0   1  -7    5.31    0.29
   0   1  -7    4.53    0.29
   0   1  -7    5.18    0.31
   0   1  -7    5.10    0.31
   0   1  -7    5.43    0.30
   0   1  -7    4.97    0.28
   0   1  -7    5.72    0.37
   0   1  -7    5.08    0.30
   0   1  -7    5.41    0.32
   0   1  -7    5.27    0.35
   0   1  -7    4.95    0.31
   0  -1   7    5.04    0.24
   0  -1   7    5.39    0.31
   0  -1   7    5.29    0.31
   0  -1   7    4.95    0.35
   0  -1   7    5.18    0.30
   0  -1   7    4.79    0.27
   0  -1   7    4.96    0.31
   0  -1   7    5.30    0.25
   0  -1   7    5.57    0.31
   0  -1   7    5.06    0.34
  -1   1  -7   70.07    2.33
  -1   1  -7   75.28    2.04
  -1   1  -7   73.30    2.11
  -1   1  -7   73.49    2.18
  -1   1  -7   71.28    2.07
  -1   1  -7   68.56    2.04
  -1   1  -7   70.49    2.30
  -1   1  -7   71.80    1.95
   1  -1   7   71.28    2.15
   1  -1   7   71.22    2.04
   1  -1   7   69.84    2.31
   1  -1   7   69.67    1.98
   1  -1   7   71.35    2.31
   1  -1   7   72.59    2.18
   1  -1   7   71.79    1.92
   1  -1   7   70.30    2.01
  -2   1  -7    0.60    0.15
  -2   1  -7    0.95    0.18
  -2   1  -7    0.64    0.17
  -2   1  -7    0.70    0.13
  -2   1  -7    0.65    0.14
  -2   1  -7    0.64    0.14
  -2   1  -7    0.84    0.18
  -2   1  -7    0.58    0.14
   2  -1   7    0.97    0.16
   2  -1   7    0.74    0.15
   2  -1   7    1.07    0.15
   2  -1   7    0.87    0.14
   2  -1   7    0.96    0.19
   2  -1   7    0.67    0.16
   2  -1   7    1.00    0.14
  -3   1  -7    1.13    0.17
  -3   1  -7    0.96    0.19
  -3   1  -7    0.87    0.21
  -3   1  -7    0.99    0.18
  -3   1  -7    1.03    0.21
  -3   1  -7    1.23    0.21
  -3   1  -7    0.77    0.16
  -3   1  -7    0.64    0.17
   3  -1   7    1.12    0.16
   3  -1   7    0.90    0.17
   3  -1   7    0.87    0.20
   3  -1   7    1.11    0.18
   3  -1   7    1.37    0.18
   3  -1   7    1.03    0.14
  -4   1  -7    2.58    0.34
  -4   1  -7    3.38    0.35
  -4   1  -7    2.70    0.38
  -4   1  -7    3.06    0.35
  -4   1  -7    2.90    0.28
   4  -1   7    3.18    0.24
   4  -1   7    2.75    0.21
   4  -1   7    3.11    0.25
   4  -1   7    3.30    0.32
   4  -1   7    2.79    0.30
  -5   1  -7    8.78    0.54
  -5   1  -7    8.30    0.46
  -5   1  -7    8.91    0.60
   5  -1   7    8.29    0.42
   5  -1   7    7.79    0.56
   5  -1   7    8.78    0.42
   5  -1   7    8.92    0.49
  -6   1  -7   29.21    1.06
  -6   1  -7   29.08    1.19
   6  -1   7   27.34    0.91
   6  -1   7   28.87    1.11
   6  -1   7   27.97    1.05
   6  -1   7   26.03    1.22
   6  -1   7   28.02    0.92
  -7   1  -7   10.67    0.59
  -7   1  -7    8.60    0.62
   7  -1   7    9.41    0.58
   7  -1   7    9.98    0.70
   7  -1   7    9.04    0.35
   7  -1   7    9.96    0.54
  -8   1  -7    1.33    0.31
  -8   1  -7    1.47    0.28
   8  -1   7    1.96    0.37
   8  -1   7    1.21    0.34
   8  -1   7    1.33    0.24
   8   0  -7    2.81    0.41
   8   0  -7    2.74    0.38
   8   0  -7    3.07    0.48
   8   0  -7    3.06    0.22
   8   0  -7    3.19    0.37
   8   0  -7    2.92    0.21
  -8   0   7    3.59    0.40
   7   0  -7    0.10    0.16
   7   0  -7    0.30    0.16
   7   0  -7    0.25    0.12
   7   0  -7    0.12    0.14
   7   0  -7    0.05    0.16
  -7   0   7    0.46    0.16
   6   0  -7    2.31    0.30
   6   0  -7    1.85    0.32
   6   0  -7    2.23    0.30
   6   0  -7    2.57    0.27
   6   0  -7    2.40    0.32
  -6   0   7    2.21    0.28
  -6   0   7    1.84    0.35
   5   0  -7    7.86    0.45
   5   0  -7    7.94    0.45
   5   0  -7    7.75    0.56
   5   0  -7    7.69    0.41
   5   0  -7    7.67    0.53
   5   0  -7    6.96    0.49
   5   0  -7    6.47    0.44
  -5   0   7    7.29    0.49
  -5   0   7    7.88    0.42
  -5   0   7    6.98    0.52
  -5   0   7    7.14    0.53
  -5   0   7    7.48    0.54
   4   0  -7   34.68    1.08
   4   0  -7   34.92    1.16
   4   0  -7   32.85    1.35
   4   0  -7   32.91    1.14
   4   0  -7   33.18    1.22
   4   0  -7   35.09    1.35
   4   0  -7   33.90    1.18
   4   0  -7   34.76    0.99
   4   0  -7   33.99    1.11
  -4   0   7   33.52    1.35
  -4   0   7   34.04    1.09
  -4   0   7   33.66    1.22
  -4   0   7   33.12    1.34
  -4   0   7   34.20    1.27
  -4   0   7   32.82    1.23
  -4   0   7   36.99    1.37
   3   0  -7    8.12    0.39
   3   0  -7    8.60    0.50
   3   0  -7    8.10    0.50
   3   0  -7    8.04    0.34
   3   0  -7    8.39    0.40
   3   0  -7    8.01    0.37
   3   0  -7    8.48    0.44
   3   0  -7    7.96    0.45
   3   0  -7    8.16    0.48
   3   0  -7    7.80    0.36
   3   0  -7    7.53    0.49
   3   0  -7    7.55    0.42
   3   0  -7    8.25    0.42
  -3   0   7    8.91    0.47
  -3   0   7    8.03    0.41
  -3   0   7    8.49    0.47
  -3   0   7    7.59    0.44
  -3   0   7    7.02    0.48
  -3   0   7    7.89    0.50
  -3   0   7    7.90    0.42
  -3   0   7    8.65    0.39
   2   0  -7   21.29    0.66
   2   0  -7   20.46    0.76
   2   0  -7   21.68    0.78
   2   0  -7   21.33    0.87
   2   0  -7   20.38    0.80
   2   0  -7   20.24    0.67
   2   0  -7   19.84    0.74
   2   0  -7   19.82    0.78
   2   0  -7   20.41    0.82
   2   0  -7   21.48    0.73
   2   0  -7   22.05    0.90
   2   0  -7   21.42    0.87
   2   0  -7   21.32    0.75
   2   0  -7   20.49    0.72
  -2   0   7   22.05    0.89
  -2   0   7   19.51    0.78
  -2   0   7   20.61    0.80
  -2   0   7   20.99    0.78
  -2   0   7   21.60    0.76
  -2   0   7   20.37    0.88
  -2   0   7   21.24    0.69
   1   0  -7    1.90    0.23
   1   0  -7    2.11    0.25
   1   0  -7    2.40    0.19
   1   0  -7    2.28    0.22
   1   0  -7    2.33    0.18
   1   0  -7    1.73    0.21
   1   0  -7    2.54    0.18
   1   0  -7    1.93    0.20
   1   0  -7    2.17    0.23
   1   0  -7    2.20    0.23
   1   0  -7    2.00    0.18
   1   0  -7    1.97    0.24
   1   0  -7    2.16    0.22
  -1   0   7    2.30    0.26
  -1   0   7    2.52    0.24
  -1   0   7    1.89    0.16
  -1   0   7    2.49    0.20
  -1   0   7    2.25    0.18
  -1   0   7    2.03    0.23
  -1   0   7    2.14    0.22
  -1   0   7    2.14    0.22
  -1   0   7    2.04    0.25
   0   0  -7    0.25    0.09
   0   0  -7    0.27    0.12
   0   0  -7    0.21    0.09
   0   0  -7    0.28    0.09
   0   0  -7    0.38    0.11
   0   0  -7    0.25    0.09
   0   0  -7    0.29    0.09
   0   0  -7    0.11    0.07
   0   0  -7    0.21    0.09
   0   0  -7    0.05    0.09
   0   0   7    0.18    0.10
   0   0   7    0.25    0.07
   0   0   7    0.33    0.10
   0   0   7    0.70    0.13
   0   0   7    0.30    0.12
   0   0   7    0.33    0.09
   0   0   7    0.23    0.09
   0   0   7    0.05    0.09
  -1   0  -7    0.97    0.16
  -1   0  -7    1.01    0.16
  -1   0  -7    0.86    0.13
  -1   0  -7    0.99    0.14
  -1   0  -7    1.19    0.17
  -1   0  -7    1.01    0.16
  -1   0  -7    0.92    0.18
  -1   0  -7    0.80    0.17
  -1   0  -7    0.86    0.15
   1   0   7    0.82    0.16
   1   0   7    0.97    0.15
   1   0   7    0.99    0.18
   1   0   7    0.90    0.14
   1   0   7    0.95    0.13
   1   0   7    0.86    0.13
   1   0   7    1.21    0.16
   1   0   7    1.28    0.12
   1   0   7    1.05    0.11
   1   0   7    0.93    0.12
  -2   0  -7   11.60    0.56
  -2   0  -7   11.52    0.50
  -2   0  -7   11.86    0.49
  -2   0  -7   10.95    0.51
  -2   0  -7   11.09    0.50
  -2   0  -7   11.31    0.44
  -2   0  -7   11.87    0.52
  -2   0  -7   11.89    0.53
   2   0   7   11.95    0.57
   2   0   7   11.12    0.43
   2   0   7   11.66    0.47
   2   0   7   11.34    0.47
   2   0   7   12.31    0.57
   2   0   7   12.04    0.48
   2   0   7   11.25    0.40
   2   0   7   11.31    0.48
   2   0   7   12.35    0.45
  -3   0  -7    5.67    0.38
  -3   0  -7    5.67    0.30
  -3   0  -7    5.43    0.35
  -3   0  -7    5.86    0.40
  -3   0  -7    5.58    0.36
  -3   0  -7    6.38    0.38
  -3   0  -7    4.75    0.33
   3   0   7    5.44    0.28
   3   0   7    5.85    0.32
   3   0   7    5.81    0.26
   3   0   7    6.22    0.40
   3   0   7    5.61    0.31
   3   0   7    5.49    0.35
   3   0   7    5.68    0.28
   3   0   7    5.36    0.38
   3   0   7    6.30    0.35
  -4   0  -7   38.88    1.19
  -4   0  -7   38.28    1.37
  -4   0  -7   39.67    1.38
  -4   0  -7   37.81    1.48
  -4   0  -7   41.34    1.38
  -4   0  -7   39.37    1.45
  -4   0  -7   37.82    1.30
   4   0   7   39.57    1.14
   4   0   7   38.76    1.14
   4   0   7   39.41    1.37
   4   0   7   39.05    1.21
   4   0   7   39.25    1.22
   4   0   7   37.78    1.22
   4   0   7   39.75    1.46
   4   0   7   39.98    1.26
   4   0   7   38.11    1.09
  -5   0  -7    4.10    0.42
  -5   0  -7    3.11    0.36
  -5   0  -7    3.17    0.40
  -5   0  -7    2.95    0.35
  -5   0  -7    3.18    0.26
  -5   0  -7    3.34    0.37
   5   0   7    3.29    0.26
   5   0   7    2.87    0.19
   5   0   7    3.35    0.39
   5   0   7    3.21    0.20
   5   0   7    2.78    0.27
   5   0   7    3.26    0.27
  -6   0  -7   12.85    0.59
  -6   0  -7   11.95    0.74
   6   0   7   12.88    0.62
   6   0   7   13.79    0.58
   6   0   7   13.87    0.59
   6   0   7   13.02    0.74
  -7   0  -7   12.68    0.63
   7   0   7   12.85    0.57
   7   0   7   12.46    0.57
   7   0   7   13.36    0.80
   7   0   7   13.45    0.68
   8   0   7    0.62    0.21
   8   0   7    0.87    0.17
   8   0   7    0.86    0.28
   8   0   7    0.62    0.15
   8  -1  -7    3.49    0.29
   8  -1  -7    3.11    0.52
   8  -1  -7    3.84    0.49
   8  -1  -7    3.49    0.41
   8  -1  -7    3.45    0.29
  -8   1   7    4.27    0.45
   7  -1  -7    1.37    0.31
   7  -1  -7    0.95    0.26
   7  -1  -7    1.33    0.26
   7  -1  -7    0.51    0.20
   7  -1  -7    1.70    0.24
  -7   1   7    1.30    0.25
   6  -1  -7    0.22    0.16
   6  -1  -7    0.64    0.21
   6  -1  -7    0.39    0.14
   6  -1  -7    0.08    0.15
   6  -1  -7    0.14    0.14
  -6   1   7    0.69    0.18
   5  -1  -7   12.18    0.62
   5  -1  -7   12.02    0.75
   5  -1  -7   11.59    0.45
   5  -1  -7   11.32    0.60
   5  -1  -7   12.57    0.57
   5  -1  -7   11.47    0.63
   5  -1  -7   11.84    0.67
  -5   1   7   11.22    0.72
  -5   1   7   12.05    0.57
   4  -1  -7    0.63    0.15
   4  -1  -7    0.58    0.13
   4  -1  -7    0.68    0.20
   4  -1  -7    0.70    0.16
   4  -1  -7    0.43    0.19
   4  -1  -7    0.83    0.18
   4  -1  -7    0.65    0.19
   4  -1  -7    0.70    0.18
   4  -1  -7    0.78    0.14
  -4   1   7    0.89    0.23
  -4   1   7    0.67    0.19
  -4   1   7    0.78    0.20
  -4   1   7    0.83    0.21
  -4   1   7    0.67    0.14
   3  -1  -7   15.35    0.62
   3  -1  -7   16.58    0.78
   3  -1  -7   14.53    0.61
   3  -1  -7   16.37    0.78
   3  -1  -7   13.39    0.64
   3  -1  -7   15.60    0.73
   3  -1  -7   14.15    0.75
   3  -1  -7   15.56    0.65
   3  -1  -7   14.95    0.61
   3  -1  -7   15.33    0.67
   3  -1  -7   14.75    0.61
  -3   1   7   15.56    0.63
  -3   1   7   16.51    0.78
  -3   1   7   14.96    0.58
  -3   1   7   15.08    0.64
  -3   1   7   15.40    0.71
  -3   1   7   14.36    0.75
  -3   1   7   15.04    0.69
  -3   1   7   16.21    0.77
   2  -1  -7   36.72    1.30
   2  -1  -7   37.63    1.20
   2  -1  -7   36.67    1.23
   2  -1  -7   37.33    1.22
   2  -1  -7   37.09    1.18
   2  -1  -7   38.45    1.42
   2  -1  -7   38.79    1.22
   2  -1  -7   37.36    1.21
   2  -1  -7   38.55    1.24
   2  -1  -7   38.20    1.40
   2  -1  -7   38.18    1.40
   2  -1  -7   38.46    1.28
  -2   1   7   39.77    1.41
  -2   1   7   37.71    1.27
  -2   1   7   38.79    1.26
  -2   1   7   39.85    1.31
  -2   1   7   39.12    1.21
  -2   1   7   37.94    1.41
  -2   1   7   38.42    1.21
  -2   1   7   37.35    1.13
   1  -1  -7   74.84    2.02
   1  -1  -7   72.58    1.98
   1  -1  -7   72.82    2.28
   1  -1  -7   73.31    2.03
   1  -1  -7   67.66    2.28
   1  -1  -7   70.04    2.03
   1  -1  -7   70.18    2.00
   1  -1  -7   71.13    2.13
   1  -1  -7   68.99    1.99
   1  -1  -7   72.45    2.09
  -1   1   7   69.30    2.04
  -1   1   7   69.98    2.28
  -1   1   7   69.86    1.90
  -1   1   7   69.54    2.00
  -1   1   7   69.58    2.27
  -1   1   7   67.48    2.12
  -1   1   7   68.67    2.01
  -1   1   7   69.99    1.99
   0  -1  -7   14.58    0.58
   0  -1  -7   16.09    0.56
   0  -1  -7   15.45    0.57
   0  -1  -7   14.47    0.66
   0  -1  -7   15.45    0.56
   0  -1  -7   14.92    0.58
   0  -1  -7   14.48    0.61
   0  -1  -7   14.56    0.59
   0  -1  -7   14.29    0.54
   0  -1  -7   15.28    0.66
   0  -1  -7   14.81    0.49
   0   1   7   14.60    0.56
   0   1   7   14.79    0.57
   0   1   7   14.64    0.47
   0   1   7   14.87    0.55
   0   1   7   15.77    0.59
   0   1   7   15.61    0.66
   0   1   7   15.18    0.56
   0   1   7   14.71    0.66
   0   1   7   15.91    0.54
  -1  -1  -7   11.90    0.40
  -1  -1  -7   11.13    0.46
  -1  -1  -7   11.26    0.47
  -1  -1  -7    9.83    0.50
  -1  -1  -7   12.08    0.47
  -1  -1  -7   11.27    0.53
  -1  -1  -7   10.40    0.49
  -1  -1  -7   11.53    0.46
   1   1   7   10.95    0.40
   1   1   7   11.15    0.45
   1   1   7   10.30    0.43
   1   1   7   11.16    0.38
   1   1   7   11.49    0.44
   1   1   7   11.27    0.40
   1   1   7   10.58    0.43
   1   1   7   10.80    0.51
   1   1   7   10.75    0.52
  -2  -1  -7   99.70    2.93
  -2  -1  -7  100.99    2.92
  -2  -1  -7  101.65    2.93
  -2  -1  -7   98.11    3.09
  -2  -1  -7  100.59    3.10
  -2  -1  -7   99.02    2.77
   2   1   7  102.22    2.64
   2   1   7   98.70    2.70
   2   1   7  103.27    2.74
   2   1   7  101.68    2.62
   2   1   7   99.62    2.70
   2   1   7  102.83    2.71
   2   1   7  104.39    3.10
   2   1   7  102.08    2.85
   2   1   7  104.00    3.09
  -3  -1  -7   30.89    1.04
  -3  -1  -7   29.92    0.88
  -3  -1  -7   28.33    1.08
  -3  -1  -7   30.12    1.03
  -3  -1  -7   29.51    1.06
  -3  -1  -7   29.78    0.98
   3   1   7   31.01    1.10
   3   1   7   28.76    1.01
   3   1   7   30.03    0.94
   3   1   7   30.15    0.91
   3   1   7   31.17    0.92
   3   1   7   29.90    0.82
   3   1   7   28.81    0.85
   3   1   7   30.44    1.09
   3   1   7   30.74    0.86
   3   1   7   28.90    0.82
  -4  -1  -7    2.36    0.25
  -4  -1  -7    2.10    0.25
  -4  -1  -7    2.16    0.25
  -4  -1  -7    2.01    0.25
  -4  -1  -7    2.12    0.17
  -4  -1  -7    2.09    0.27
  -4  -1  -7    2.14    0.29
   4   1   7    1.97    0.18
   4   1   7    2.00    0.10
   4   1   7    2.19    0.26
   4   1   7    1.71    0.17
   4   1   7    2.47    0.28
   4   1   7    2.11    0.21
   4   1   7    2.31    0.11
   4   1   7    1.98    0.16
  -5  -1  -7    7.28    0.49
  -5  -1  -7    7.23    0.35
  -5  -1  -7    7.75    0.45
  -5  -1  -7    6.71    0.48
  -5  -1  -7    7.70    0.47
  -5  -1  -7    7.23    0.43
  -5  -1  -7    6.57    0.43
   5   1   7    7.60    0.48
   5   1   7    7.04    0.33
   5   1   7    6.17    0.43
   5   1   7    6.76    0.32
   5   1   7    7.48    0.38
   5   1   7    6.86    0.28
  -6  -1  -7    0.88    0.21
  -6  -1  -7    1.18    0.26
  -6  -1  -7    1.24    0.25
  -6  -1  -7    1.08    0.23
   6   1   7    0.94    0.25
   6   1   7    1.10    0.14
   6   1   7    1.27    0.21
   6   1   7    1.21    0.15
  -7  -1  -7    0.08    0.13
   7   1   7   -0.22    0.14
   7   1   7    0.15    0.11
   7   1   7    0.07    0.07
   7   1   7   -0.10    0.06
   8   1   7    3.15    0.33
   8   1   7    3.29    0.47
   9   1   7    4.38    0.58
   7  -2  -7    2.38    0.41
   7  -2  -7    2.59    0.32
   7  -2  -7    2.72    0.45
   7  -2  -7    2.00    0.36
  -7   2   7    3.61    0.40
   6  -2  -7    2.05    0.36
   6  -2  -7    1.30    0.27
   6  -2  -7    1.62    0.31
   6  -2  -7    1.59    0.25
   6  -2  -7    1.93    0.33
   6  -2  -7    2.00    0.19
  -6   2   7    1.96    0.27
   5  -2  -7   13.01    0.83
   5  -2  -7   12.89    0.70
   5  -2  -7   13.65    0.72
   5  -2  -7   13.18    0.67
   5  -2  -7   13.21    0.54
   5  -2  -7   13.35    0.75
   5  -2  -7   13.49    0.64
  -5   2   7   12.84    0.61
  -5   2   7   12.97    0.82
   4  -2  -7    0.24    0.17
   4  -2  -7    0.09    0.13
   4  -2  -7    0.06    0.11
   4  -2  -7    0.33    0.12
   4  -2  -7    0.23    0.11
  -4   2   7    0.14    0.10
  -4   2   7    0.18    0.13
   3  -2  -7    7.81    0.45
   3  -2  -7    8.43    0.45
   3  -2  -7    8.80    0.58
   3  -2  -7    7.66    0.47
   3  -2  -7    8.53    0.47
   3  -2  -7    8.50    0.57
   3  -2  -7    7.96    0.54
   3  -2  -7    8.25    0.51
  -3   2   7    7.57    0.56
  -3   2   7    8.53    0.56
  -3   2   7    8.32    0.40
  -3   2   7    8.28    0.53
  -3   2   7    8.49    0.47
   2  -2  -7    4.50    0.30
   2  -2  -7    4.43    0.39
   2  -2  -7    5.53    0.36
   2  -2  -7    4.57    0.32
   2  -2  -7    4.19    0.33
   2  -2  -7    5.11    0.39
   2  -2  -7    5.41    0.40
   2  -2  -7    4.72    0.33
   2  -2  -7    5.33    0.37
   2  -2  -7    5.24    0.32
  -2   2   7    5.71    0.41
  -2   2   7    4.66    0.26
  -2   2   7    4.76    0.37
  -2   2   7    4.89    0.37
  -2   2   7    4.35    0.31
  -2   2   7    4.49    0.38
   1  -2  -7   98.07    2.93
   1  -2  -7   99.35    2.81
   1  -2  -7  102.41    2.97
   1  -2  -7   96.39    2.77
   1  -2  -7   98.26    2.81
   1  -2  -7  103.01    3.16
   1  -2  -7   99.40    2.74
   1  -2  -7   98.94    3.17
   1  -2  -7  100.47    2.80
  -1   2   7  102.96    3.18
  -1   2   7   99.96    2.76
  -1   2   7  103.97    2.78
  -1   2   7  101.64    2.64
  -1   2   7  102.44    3.16
  -1   2   7  100.57    2.73
   0  -2  -7   10.76    0.45
   0  -2  -7   10.32    0.52
   0  -2  -7   11.66    0.55
   0  -2  -7   10.99    0.45
   0  -2  -7   10.87    0.45
   0  -2  -7   11.38    0.56
   0  -2  -7   10.43    0.45
   0  -2  -7   10.94    0.47
   0  -2  -7   11.02    0.48
   0  -2  -7   10.56    0.45
   0  -2  -7   10.90    0.51
   0   2   7   10.75    0.33
   0   2   7   10.74    0.49
   0   2   7   10.66    0.53
   0   2   7   10.10    0.44
   0   2   7   11.48    0.45
   0   2   7   10.83    0.54
   0   2   7   11.08    0.42
   0   2   7   11.03    0.47
  -1  -2  -7    1.05    0.17
  -1  -2  -7    1.23    0.16
  -1  -2  -7    1.47    0.20
  -1  -2  -7    1.07    0.14
  -1  -2  -7    1.45    0.17
  -1  -2  -7    1.11    0.17
  -1  -2  -7    1.17    0.14
  -1  -2  -7    1.51    0.14
   1   2   7    1.19    0.11
   1   2   7    1.30    0.16
   1   2   7    1.36    0.15
   1   2   7    1.12    0.16
   1   2   7    1.10    0.13
   1   2   7    1.49    0.20
   1   2   7    1.25    0.18
  -2  -2  -7   -0.11    0.06
  -2  -2  -7    0.00    0.07
  -2  -2  -7   -0.02    0.04
  -2  -2  -7    0.07    0.08
  -2  -2  -7    0.04    0.07
  -2  -2  -7    0.07    0.07
  -2  -2  -7    0.05    0.08
  -2  -2  -7    0.02    0.03
  -2  -2  -7   -0.05    0.06
   2   2   7    0.05    0.05
   2   2   7    0.00    0.05
   2   2   7    0.05    0.06
   2   2   7   -0.04    0.08
   2   2   7    0.22    0.09
   2   2   7   -0.02    0.06
  -3  -2  -7    2.61    0.20
  -3  -2  -7    2.73    0.29
  -3  -2  -7    2.34    0.21
  -3  -2  -7    2.62    0.20
   3   2   7    2.59    0.23
   3   2   7    2.54    0.21
   3   2   7    2.12    0.13
   3   2   7    2.25    0.20
   3   2   7    2.49    0.14
  -4  -2  -7   48.21    1.60
  -4  -2  -7   46.70    1.51
  -4  -2  -7   49.66    1.51
  -4  -2  -7   49.84    1.44
  -4  -2  -7   47.25    1.58
   4   2   7   47.16    1.58
   4   2   7   46.87    1.55
  -5  -2  -7   49.01    1.64
  -5  -2  -7   51.98    1.75
  -5  -2  -7   51.50    1.56
  -5  -2  -7   49.26    1.75
  -5  -2  -7   51.85    1.71
  -5  -2  -7   51.44    1.64
   5   2   7   51.62    1.52
   5   2   7   51.12    1.71
  -6  -2  -7    6.92    0.47
  -6  -2  -7    6.57    0.43
  -6  -2  -7    6.45    0.42
  -6  -2  -7    6.97    0.43
   6   2   7    5.95    0.46
   6   2   7    6.27    0.38
  -7  -2  -7   10.67    0.60
  -7  -2  -7    9.70    0.64
  -7  -2  -7    9.67    0.59
  -7  -2  -7    9.60    0.58
   7   2   7    9.24    0.62
   7   2   7    9.67    0.53
   7   2   7    9.98    0.41
  -8  -2  -7    0.36    0.17
   8   2   7    0.21    0.20
   8   2   7    0.47    0.17
   8   2   7    0.33    0.11
   9   2   7    0.19    0.19
   6  -3  -7    6.61    0.55
   6  -3  -7    6.84    0.59
   6  -3  -7    6.44    0.36
   6  -3  -7    6.99    0.58
  -6   3   7    6.44    0.44
   5  -3  -7   16.66    1.01
   5  -3  -7   16.14    0.84
  -5   3   7   15.70    0.70
   4  -3  -7    2.44    0.35
   4  -3  -7    3.12    0.36
   4  -3  -7    3.61    0.49
  -4   3   7    2.54    0.27
  -4   3   7    3.47    0.46
   3  -3  -7    0.86    0.19
   3  -3  -7    0.86    0.21
   3  -3  -7    0.97    0.22
   3  -3  -7    0.86    0.24
  -3   3   7    0.96    0.16
  -3   3   7    1.03    0.25
  -3   3   7    0.68    0.17
   2  -3  -7    5.76    0.40
   2  -3  -7    5.50    0.46
   2  -3  -7    6.06    0.46
   2  -3  -7    5.90    0.41
   2  -3  -7    6.05    0.43
   2  -3  -7    5.81    0.39
   2  -3  -7    5.54    0.37
   2  -3  -7    6.13    0.38
  -2   3   7    6.02    0.39
  -2   3   7    5.92    0.43
  -2   3   7    5.96    0.46
  -2   3   7    6.15    0.30
   1  -3  -7    1.08    0.22
   1  -3  -7    1.01    0.21
   1  -3  -7    0.40    0.14
   1  -3  -7    1.05    0.19
   1  -3  -7    0.57    0.13
   1  -3  -7    0.79    0.18
   1  -3  -7    0.98    0.17
   1  -3  -7    0.76    0.15
   1  -3  -7    0.84    0.17
   1  -3  -7    0.49    0.14
   1  -3  -7    0.59    0.16
  -1   3   7    0.79    0.19
  -1   3   7    0.87    0.16
  -1   3   7    0.71    0.10
  -1   3   7    0.65    0.14
  -1   3   7    0.50    0.11
  -1   3   7    0.70    0.19
   0  -3  -7    3.93    0.30
   0  -3  -7    4.18    0.29
   0  -3  -7    4.19    0.32
   0  -3  -7    3.62    0.30
   0  -3  -7    4.24    0.28
   0  -3  -7    4.50    0.29
   0  -3  -7    3.72    0.25
   0  -3  -7    3.83    0.28
   0  -3  -7    3.83    0.32
   0   3   7    3.84    0.31
   0   3   7    3.65    0.25
   0   3   7    3.99    0.25
   0   3   7    4.03    0.22
   0   3   7    3.85    0.32
  -1  -3  -7    8.66    0.44
  -1  -3  -7    8.01    0.36
  -1  -3  -7    7.68    0.42
  -1  -3  -7    7.63    0.42
  -1  -3  -7    8.01    0.38
  -1  -3  -7    7.63    0.38
  -1  -3  -7    7.03    0.42
  -1  -3  -7    7.51    0.35
   1   3   7    7.64    0.26
   1   3   7    7.62    0.33
   1   3   7    7.90    0.33
   1   3   7    8.02    0.43
   1   3   7    7.93    0.43
  -2  -3  -7   25.47    0.91
  -2  -3  -7   25.02    0.75
  -2  -3  -7   24.65    0.80
  -2  -3  -7   24.46    0.76
  -2  -3  -7   24.73    0.91
  -2  -3  -7   24.00    0.83
  -2  -3  -7   25.10    0.90
   2   3   7   25.70    0.86
   2   3   7   23.68    0.70
   2   3   7   25.25    0.90
   2   3   7   24.78    0.70
  -3  -3  -7   74.81    2.14
  -3  -3  -7   74.52    2.04
  -3  -3  -7   70.26    2.24
  -3  -3  -7   77.44    2.28
  -3  -3  -7   76.64    2.28
  -3  -3  -7   71.93    2.15
  -3  -3  -7   65.26    2.02
   3   3   7   74.18    1.94
   3   3   7   76.67    2.27
   3   3   7   76.91    2.22
  -4  -3  -7    4.85    0.36
  -4  -3  -7    4.73    0.29
  -4  -3  -7    5.21    0.28
  -4  -3  -7    4.85    0.26
  -4  -3  -7    5.18    0.28
   4   3   7    4.85    0.34
   4   3   7    4.85    0.28
   4   3   7    5.00    0.29
  -5  -3  -7   55.23    1.62
  -5  -3  -7   51.12    1.76
  -5  -3  -7   51.15    1.62
  -5  -3  -7   51.75    1.53
  -5  -3  -7   51.16    1.66
   5   3   7   53.41    1.68
   5   3   7   49.93    1.72
  -6  -3  -7    4.37    0.30
  -6  -3  -7    4.26    0.32
  -6  -3  -7    4.22    0.31
  -6  -3  -7    4.56    0.35
  -6  -3  -7    4.32    0.46
   6   3   7    4.24    0.44
  -7  -3  -7    0.60    0.21
  -7  -3  -7    0.63    0.16
  -7  -3  -7    0.49    0.16
  -7  -3  -7    0.58    0.17
   7   3   7    0.68    0.24
   7   3   7    0.42    0.15
  -8  -3  -7   21.51    0.97
  -8  -3  -7   24.18    0.99
   8   3   7   21.85    1.08
   8   3   7   21.45    0.92
  -9  -3  -7   19.44    0.94
   9   3   7   16.11    0.97
   6  -4  -7    0.07    0.21
   6  -4  -7   -0.03    0.22
  -6   4   7    0.21    0.14
   5  -4  -7    1.66    0.34
  -5   4   7    2.11    0.27
   4  -4  -7    4.05    0.48
   4  -4  -7    4.81    0.51
   4  -4  -7    3.86    0.56
  -4   4   7    4.09    0.54
  -4   4   7    3.86    0.30
   3  -4  -7   16.55    0.95
   3  -4  -7   17.44    0.85
   3  -4  -7   17.76    0.87
  -3   4   7   17.43    0.96
  -3   4   7   17.65    0.65
  -3   4   7   17.83    0.81
   2  -4  -7    4.25    0.48
   2  -4  -7    4.85    0.41
   2  -4  -7    5.90    0.43
   2  -4  -7    5.16    0.39
   2  -4  -7    5.17    0.47
  -2   4   7    5.12    0.38
  -2   4   7    4.61    0.43
  -2   4   7    5.00    0.26
   1  -4  -7   -0.15    0.09
   1  -4  -7    0.06    0.11
   1  -4  -7   -0.01    0.11
   1  -4  -7    0.14    0.14
   1  -4  -7    0.15    0.13
   1  -4  -7    0.17    0.11
   1  -4  -7    0.10    0.10
  -1   4   7    0.11    0.10
  -1   4   7    0.04    0.10
  -1   4   7    0.05    0.07
  -1   4   7    0.06    0.08
  -1   4   7    0.09    0.09
   0  -4  -7    8.53    0.53
   0  -4  -7    7.83    0.45
   0  -4  -7    8.39    0.51
   0  -4  -7    8.67    0.46
   0  -4  -7    8.40    0.51
   0  -4  -7    8.73    0.46
   0  -4  -7    8.25    0.42
   0  -4  -7    8.29    0.51
   0   4   7    7.86    0.49
   0   4   7    7.98    0.40
   0   4   7    8.10    0.40
  -1  -4  -7   35.39    1.12
  -1  -4  -7   33.09    1.17
  -1  -4  -7   34.51    1.26
  -1  -4  -7   33.35    1.25
  -1  -4  -7   34.36    1.17
  -1  -4  -7   34.99    1.24
  -1  -4  -7   33.97    1.08
   1   4   7   33.74    1.01
   1   4   7   32.19    1.01
   1   4   7   34.26    1.25
   1   4   7   35.24    1.02
  -2  -4  -7    2.49    0.27
  -2  -4  -7    2.52    0.23
  -2  -4  -7    2.40    0.19
  -2  -4  -7    2.35    0.17
  -2  -4  -7    2.25    0.23
  -2  -4  -7    2.46    0.22
  -2  -4  -7    2.03    0.23
   2   4   7    2.00    0.23
  -3  -4  -7    7.29    0.34
  -3  -4  -7    7.56    0.34
  -3  -4  -7    6.91    0.36
  -3  -4  -7    7.47    0.43
  -3  -4  -7    7.65    0.37
   3   4   7    7.13    0.36
   3   4   7    7.61    0.36
   3   4   7    6.71    0.40
  -4  -4  -7    2.64    0.18
  -4  -4  -7    2.80    0.19
  -4  -4  -7    2.94    0.33
  -4  -4  -7    2.52    0.12
  -4  -4  -7    2.40    0.18
  -4  -4  -7    2.72    0.18
   4   4   7    2.79    0.31
   4   4   7    2.74    0.19
   4   4   7    2.66    0.19
  -5  -4  -7    0.90    0.11
  -5  -4  -7    1.06    0.14
  -5  -4  -7    0.95    0.14
  -5  -4  -7    1.02    0.22
   5   4   7    1.05    0.12
   5   4   7    1.44    0.25
   5   4   7    1.01    0.13
  -6  -4  -7    5.77    0.28
  -6  -4  -7    5.91    0.28
  -6  -4  -7    5.65    0.35
  -6  -4  -7    5.58    0.32
  -6  -4  -7    5.70    0.32
  -6  -4  -7    5.61    0.46
   6   4   7    5.59    0.45
  -7  -4  -7   29.35    1.28
  -7  -4  -7   29.39    1.16
  -7  -4  -7   30.25    1.01
  -7  -4  -7   30.25    1.09
  -7  -4  -7   31.63    1.09
   7   4   7   31.08    1.28
  -8  -4  -7    1.51    0.25
  -8  -4  -7    1.79    0.26
  -8  -4  -7    1.47    0.20
   8   4   7    1.84    0.35
  -9  -4  -7   11.50    0.64
  -9  -4  -7   10.58    0.63
   9   4   7   10.15    0.73
 -10  -4  -7    1.48    0.29
  10   4   7    2.05    0.42
   5  -5  -7    3.91    0.54
  -5   5   7    2.30    0.26
   4  -5  -7    4.14    0.51
   4  -5  -7    3.75    0.49
  -4   5   7    3.55    0.26
   3  -5  -7    8.08    0.58
   3  -5  -7    8.99    0.63
  -3   5   7    7.97    0.36
  -3   5   7    9.30    0.57
   2  -5  -7   33.51    1.27
   2  -5  -7   30.74    1.42
   2  -5  -7   33.33    1.36
  -2   5   7   34.66    1.21
  -2   5   7   26.11    1.33
   1  -5  -7    3.16    0.35
   1  -5  -7    3.52    0.39
   1  -5  -7    2.11    0.34
   1  -5  -7    2.78    0.39
   1  -5  -7    2.97    0.33
  -1   5   7    2.91    0.39
  -1   5   7    3.63    0.35
  -1   5   7    2.89    0.31
   0  -5  -7   26.04    1.17
   0  -5  -7   28.72    1.00
   0  -5  -7   25.16    1.14
   0  -5  -7   28.88    1.04
   0  -5  -7   25.89    1.06
   0  -5  -7   28.32    1.15
   0  -5  -7   27.11    1.01
   0  -5  -7   26.40    1.15
   0   5   7   27.66    1.14
   0   5   7   26.48    0.92
   0   5   7   27.89    0.94
  -1  -5  -7   21.36    1.01
  -1  -5  -7   21.52    0.96
  -1  -5  -7   23.77    0.92
  -1  -5  -7   23.71    0.97
  -1  -5  -7   22.69    0.83
  -1  -5  -7   23.27    0.86
  -1  -5  -7   23.63    0.89
  -1  -5  -7   21.75    0.97
   1   5   7   24.62    0.76
   1   5   7   23.94    0.97
   1   5   7   22.60    0.75
  -2  -5  -7    8.76    0.43
  -2  -5  -7    9.09    0.46
  -2  -5  -7    9.15    0.41
  -2  -5  -7   10.27    0.49
  -2  -5  -7    9.13    0.58
  -2  -5  -7    8.84    0.49
  -2  -5  -7    8.79    0.48
  -2  -5  -7    9.18    0.48
  -3  -5  -7    0.03    0.09
  -3  -5  -7    0.23    0.10
  -3  -5  -7    0.06    0.08
  -3  -5  -7    0.05    0.07
  -3  -5  -7    0.22    0.10
  -3  -5  -7    0.17    0.07
  -3  -5  -7    0.07    0.08
   3   5   7    0.12    0.08
  -4  -5  -7    5.01    0.39
  -4  -5  -7    5.87    0.27
  -4  -5  -7    6.14    0.28
  -4  -5  -7    6.04    0.29
  -4  -5  -7    6.35    0.30
   4   5   7    6.04    0.28
   4   5   7    5.89    0.29
   4   5   7    6.50    0.44
  -5  -5  -7   13.94    0.51
  -5  -5  -7   14.88    0.47
  -5  -5  -7   14.32    0.52
  -5  -5  -7   15.15    0.73
   5   5   7   14.47    0.72
  -6  -5  -7    0.00    0.07
  -6  -5  -7    0.15    0.08
  -6  -5  -7    0.04    0.12
   6   5   7    0.00    0.14
  -7  -5  -7    5.67    0.57
  -7  -5  -7    5.45    0.32
  -7  -5  -7    5.45    0.31
   7   5   7    5.36    0.48
  -8  -5  -7    3.65    0.29
  -8  -5  -7    3.92    0.30
  -8  -5  -7    3.63    0.49
   8   5   7    3.43    0.47
  -9  -5  -7    2.03    0.27
  -9  -5  -7    2.62    0.32
   9   5   7    1.47    0.34
 -10  -5  -7    5.71    0.44
  10   5   7    4.01    0.56
   4  -6  -7    0.46    0.22
   4  -6  -7    0.54    0.27
   3  -6  -7   -0.05    0.15
   3  -6  -7   -0.08    0.17
  -3   6   7    0.30    0.17
   2  -6  -7    5.75    0.53
   2  -6  -7    5.94    0.58
  -2   6   7    6.07    0.44
   1  -6  -7    0.57    0.21
   1  -6  -7    0.50    0.19
  -1   6   7    0.32    0.14
   0  -6  -7    0.61    0.16
   0  -6  -7   -0.05    0.12
   0  -6  -7    0.29    0.18
   0  -6  -7    0.39    0.17
   0   6   7    0.06    0.10
   0   6   7    0.47    0.13
  -1  -6  -7   56.84    2.08
  -1  -6  -7   54.29    2.00
  -1  -6  -7   57.39    1.78
  -1  -6  -7   58.06    1.81
  -1  -6  -7   56.27    2.05
  -1  -6  -7   57.92    1.91
  -1  -6  -7   58.42    1.82
   1   6   7   56.83    1.61
   1   6   7   57.83    1.62
  -2  -6  -7   76.24    2.65
  -2  -6  -7   78.44    2.26
  -2  -6  -7   79.70    2.38
  -2  -6  -7   73.01    2.51
  -2  -6  -7   80.67    2.60
  -2  -6  -7   80.81    2.44
  -3  -6  -7    6.30    0.37
  -3  -6  -7    5.99    0.49
  -3  -6  -7    5.49    0.38
  -3  -6  -7    5.89    0.38
  -3  -6  -7    5.27    0.29
  -4  -6  -7   11.19    0.47
  -4  -6  -7   11.50    0.58
  -4  -6  -7   10.18    0.49
  -4  -6  -7   10.59    0.43
  -5  -6  -7   15.84    0.58
  -5  -6  -7   17.42    0.81
   5   6   7   15.90    0.82
  -6  -6  -7    1.63    0.14
  -6  -6  -7    1.66    0.14
  -6  -6  -7    2.07    0.33
   6   6   7    2.37    0.36
  -7  -6  -7    4.55    0.24
  -7  -6  -7    4.81    0.52
  -7  -6  -7    4.18    0.24
   7   6   7    4.68    0.52
  -8  -6  -7   17.44    0.66
  -8  -6  -7   17.55    0.95
   8   6   7   15.57    0.92
  -9  -6  -7    1.23    0.20
  -9  -6  -7    1.01    0.30
  -9  -6  -7    1.33    0.20
   9   6   7    1.17    0.31
 -10  -6  -7    0.12    0.12
 -10  -6  -7   -0.01    0.18
   3  -7  -7    7.55    0.68
   3  -7  -7    8.84    0.69
  -3   7   7    8.63    0.58
   2  -7  -7    3.70    0.52
  -2   7   7    5.40    0.44
   1  -7  -7    0.13    0.18
  -1   7   7    0.34    0.16
   0  -7  -7   -0.27    0.12
   0   7   7    0.00    0.09
   0   7   7    0.00    0.11
  -1  -7  -7    0.16    0.13
  -1  -7  -7    0.28    0.18
   1   7   7    0.14    0.08
   1   7   7    0.03    0.07
  -2  -7  -7    1.47    0.31
  -2  -7  -7    1.24    0.24
  -2  -7  -7    1.12    0.21
  -3  -7  -7    1.50    0.25
  -3  -7  -7    1.44    0.23
  -3  -7  -7    1.80    0.25
  -3  -7  -7    1.57    0.20
  -3  -7  -7    1.85    0.35
  -4  -7  -7    0.06    0.08
  -4  -7  -7   -0.04    0.09
  -4  -7  -7   -0.08    0.15
  -4  -7  -7   -0.05    0.10
  -4  -7  -7    0.02    0.09
  -5  -7  -7   48.25    1.60
  -5  -7  -7   49.64    1.88
  -5  -7  -7   47.81    1.50
  -5  -7  -7   49.37    1.68
  -6  -7  -7   45.35    1.43
  -6  -7  -7   51.45    1.76
  -6  -7  -7   50.28    1.86
   6   7   7   47.07    1.81
  -7  -7  -7    5.59    0.49
   7   7   7    6.09    0.54
  -8  -7  -7    6.73    0.56
   8   7   7    6.53    0.57
  -9  -7  -7    1.30    0.31
  -9  -7  -7    0.54    0.12
  -9  -7  -7    0.68    0.13
   9   7   7    0.14    0.18
   1  -8  -7    1.18    0.35
  -1   8   7    1.61    0.25
   0  -8  -7   11.59    0.84
   0   8   7   11.78    0.55
   0   8   7   12.11    0.55
  -1  -8  -7   14.10    0.90
   1   8   7   13.23    0.45
  -2  -8  -7    0.16    0.18
  -2  -8  -7    0.03    0.12
  -3  -8  -7    8.60    0.47
  -3  -8  -7    9.19    0.70
  -3  -8  -7    7.79    0.52
  -4  -8  -7    9.52    0.46
  -4  -8  -7    9.68    0.54
  -4  -8  -7   10.68    0.61
  -4  -8  -7   10.20    0.73
  -5  -8  -7    0.32    0.10
  -5  -8  -7    0.76    0.25
  -5  -8  -7    0.33    0.12
  -6  -8  -7    0.17    0.15
  -6  -8  -7    0.32    0.10
  -6  -8  -7    0.23    0.18
  -7  -8  -7    0.37    0.20
  -7  -8  -7    0.21    0.17
   7   8   7    0.46    0.24
  -8  -8  -7    1.33    0.31
   8   8   7    1.23    0.33
  -9  -8  -7    4.15    0.55
   9   8   7    5.08    0.64
   0  -9  -7    0.23    0.23
  -1  -9  -7    7.79    0.70
  -2  -9  -7    3.43    0.55
  -3  -9  -7    6.69    0.75
  -3  -9  -7    4.89    0.40
  -4  -9  -7    4.10    0.43
  -4  -9  -7    4.34    0.34
  -4  -9  -7    3.98    0.57
  -5  -9  -7    3.89    0.53
  -5  -9  -7    3.09    0.26
  -5  -9  -7    3.57    0.32
  -6  -9  -7    2.44    0.22
  -6  -9  -7    2.13    0.40
  -6  -9  -7    2.12    0.26
  -7  -9  -7   12.61    0.52
  -7  -9  -7   13.73    0.86
   8   9   7    0.64    0.28
  -3 -10  -7    0.49    0.25
  -4 -10  -7   14.32    0.74
  -4 -10  -7   15.69    1.03
  -5 -10  -7   17.64    1.09
  -5 -10  -7   15.58    0.79
  -6 -10  -7    1.08    0.31
  -6 -10  -7    0.69    0.19
  -5  -9   8   10.24    0.76
  -4  -9   8   10.81    0.79
  -3  -9   8    0.32    0.22
  -3  -9   8    0.46    0.24
  -7  -8   8    6.83    0.71
  -6  -8   8    9.64    0.71
  -5  -8   8    0.36    0.21
   4   8  -8    9.43    0.62
  -4  -8   8    9.70    0.70
   3   8  -8    3.61    0.43
   3   8  -8    2.79    0.22
  -3  -8   8    2.87    0.44
  -3  -8   8    2.76    0.43
   2   8  -8    0.04    0.10
   2   8  -8   -0.08    0.13
  -2  -8   8    0.00    0.13
  -2  -8   8   -0.08    0.18
  -2  -8   8    0.00    0.17
   1   8  -8    9.65    0.65
  -1  -8   8   10.97    0.61
  -1  -8   8   10.26    0.79
  -1  -8   8   10.69    0.74
   0   8  -8   18.58    0.98
   0  -8   8   19.90    0.89
   0  -8   8   19.00    1.04
   0  -8   8   17.49    1.10
  -8  -7   8    2.43    0.40
  -7  -7   8    0.65    0.26
  -6  -7   8   -0.12    0.15
   5   7  -8    0.15    0.15
  -5  -7   8    0.39    0.21
   4   7  -8    2.27    0.34
  -4  -7   8    1.84    0.35
  -4  -7   8    1.96    0.32
   3   7  -8    3.87    0.28
   3   7  -8    3.97    0.44
  -3  -7   8    4.03    0.48
  -3  -7   8    4.27    0.52
   2   7  -8    6.10    0.39
   2   7  -8    5.70    0.47
  -2  -7   8    5.30    0.57
  -2  -7   8    6.55    0.42
  -2  -7   8    5.56    0.58
   1   7  -8    3.44    0.43
  -1  -7   8    3.54    0.50
  -1  -7   8    2.90    0.43
  -1  -7   8    3.02    0.35
   0  -7   8   12.44    0.64
   0  -7   8   11.86    0.75
   0  -7   8   11.18    0.80
   1  -7   8   16.45    0.90
   1  -7   8   15.93    1.01
   2  -7   8    1.50    0.40
   2  -7   8    2.07    0.38
   8   6  -8    3.78    0.48
  -8  -6   8    4.16    0.51
   7   6  -8    2.85    0.40
  -7  -6   8    3.19    0.41
  -7  -6   8    3.40    0.45
   6   6  -8    4.17    0.27
  -6  -6   8    3.80    0.48
  -6  -6   8    4.62    0.41
   5   6  -8   13.49    0.58
   5   6  -8   13.74    0.74
  -5  -6   8   14.17    0.73
  -5  -6   8   12.54    0.75
   4   6  -8    1.07    0.19
   4   6  -8    1.01    0.15
   4   6  -8    0.76    0.20
  -4  -6   8    0.76    0.24
  -4  -6   8    0.85    0.22
  -4  -6   8    0.92    0.21
   3   6  -8    0.23    0.14
   3   6  -8    0.01    0.09
  -3  -6   8   -0.13    0.12
  -3  -6   8    0.10    0.16
  -3  -6   8   -0.01    0.10
   2   6  -8    0.38    0.17
  -2  -6   8    0.08    0.11
  -2  -6   8    0.25    0.18
  -2  -6   8    0.47    0.20
  -2  -6   8    0.29    0.17
   1   6  -8   -0.05    0.12
  -1  -6   8   -0.03    0.16
  -1  -6   8   -0.18    0.13
  -1  -6   8    0.13    0.12
   0  -6   8    2.71    0.39
   0  -6   8    2.53    0.30
   0  -6   8    2.09    0.37
   1  -6   8    8.25    0.49
   1  -6   8    8.00    0.57
   1  -6   8    7.37    0.64
  -2   6  -8    0.20    0.10
   2  -6   8   -0.01    0.16
   2  -6   8   -0.05    0.16
  -3   6  -8    4.41    0.30
   3  -6   8    4.77    0.53
   3  -6   8    4.72    0.62
   8   5  -8   15.41    0.84
  -8  -5   8   17.51    0.90
   7   5  -8   27.63    0.92
   7   5  -8   27.15    1.16
  -7  -5   8   27.94    1.19
  -7  -5   8   28.24    1.19
   6   5  -8    3.45    0.26
   6   5  -8    3.19    0.38
  -6  -5   8    3.67    0.41
  -6  -5   8    3.10    0.42
   5   5  -8    3.54    0.28
   5   5  -8    3.06    0.38
  -5  -5   8    3.60    0.39
  -5  -5   8    3.46    0.40
  -5  -5   8    2.86    0.40
  -5  -5   8    3.05    0.41
   4   5  -8   24.18    0.80
   4   5  -8   23.78    0.88
   4   5  -8   23.56    1.00
  -4  -5   8   19.43    0.94
  -4  -5   8   22.66    0.82
  -4  -5   8   23.79    1.05
  -4  -5   8   24.59    0.99
  -4  -5   8   23.78    1.02
  -4  -5   8   23.06    1.01
   3   5  -8    5.03    0.36
   3   5  -8    4.77    0.31
   3   5  -8    4.88    0.39
   3   5  -8    5.06    0.40
  -3  -5   8    4.34    0.39
  -3  -5   8    5.23    0.40
  -3  -5   8    4.34    0.46
  -3  -5   8    4.81    0.47
  -3  -5   8    4.87    0.32
  -3  -5   8    4.77    0.38
  -3  -5   8    5.15    0.40
   2   5  -8   40.98    1.47
   2   5  -8   43.25    1.34
   2   5  -8   41.69    1.55
   2   5  -8   41.64    1.39
   2   5  -8   39.80    1.58
  -2  -5   8   42.08    1.50
  -2  -5   8   42.60    1.53
  -2  -5   8   40.40    1.48
  -2  -5   8   39.48    1.29
  -2  -5   8   41.55    1.48
  -2  -5   8   37.64    1.57
   1   5  -8   12.43    0.66
   1   5  -8   12.04    0.64
   1   5  -8   12.99    0.73
  -1  -5   8   13.15    0.73
  -1  -5   8   12.73    0.69
  -1  -5   8   12.02    0.73
  -1  -5   8   13.10    0.57
  -1  -5   8   12.48    0.67
   0   5  -8    7.97    0.59
   0   5  -8    9.06    0.33
   0  -5   8    8.22    0.62
   0  -5   8    8.83    0.55
   0  -5   8    9.57    0.63
   0  -5   8    8.75    0.46
   0  -5   8    8.52    0.55
  -1   5  -8   23.90    0.79
  -1   5  -8   24.21    1.17
   1  -5   8   23.79    0.90
   1  -5   8   24.74    1.03
   1  -5   8   22.03    1.16
   1  -5   8   22.86    1.13
  -2   5  -8    7.01    0.38
  -2   5  -8    6.62    0.58
   2  -5   8    6.33    0.56
   2  -5   8    6.91    0.50
  -3   5  -8    0.06    0.11
   3  -5   8    0.16    0.19
   3  -5   8   -0.01    0.13
  -4   5  -8    0.61    0.19
   9   4  -8    0.16    0.24
   8   4  -8   10.96    0.67
   8   4  -8   10.64    0.50
   8   4  -8    9.54    0.70
  -8  -4   8   11.89    0.72
   7   4  -8    1.92    0.24
   7   4  -8    2.37    0.33
  -7  -4   8    2.03    0.35
   6   4  -8    1.46    0.21
   6   4  -8    1.50    0.25
  -6  -4   8    1.50    0.30
  -6  -4   8    1.18    0.27
  -6  -4   8    1.06    0.24
   5   4  -8    8.51    0.48
   5   4  -8    7.31    0.42
  -5  -4   8    7.61    0.52
  -5  -4   8    7.40    0.52
  -5  -4   8    7.94    0.50
  -5  -4   8    7.73    0.53
   4   4  -8   35.77    1.56
   4   4  -8   43.91    1.41
   4   4  -8   45.93    1.55
   4   4  -8   44.79    1.35
   4   4  -8   43.52    1.56
  -4  -4   8   43.14    1.53
  -4  -4   8   47.84    1.55
  -4  -4   8   46.31    1.34
  -4  -4   8   42.25    1.52
  -4  -4   8   44.15    1.64
   3   4  -8   75.67    2.13
   3   4  -8   76.59    2.43
   3   4  -8   72.65    2.49
   3   4  -8   76.06    2.45
   3   4  -8   69.23    2.32
   3   4  -8   72.53    2.19
   3   4  -8   74.68    2.27
  -3  -4   8   78.57    2.52
  -3  -4   8   74.75    2.35
  -3  -4   8   73.98    2.37
  -3  -4   8   73.54    2.31
  -3  -4   8   75.84    2.09
  -3  -4   8   73.79    2.29
  -3  -4   8   70.82    2.48
   2   4  -8    0.07    0.11
   2   4  -8    0.13    0.11
   2   4  -8   -0.02    0.07
   2   4  -8   -0.01    0.06
   2   4  -8    0.12    0.12
   2   4  -8    0.03    0.10
  -2  -4   8    0.13    0.12
  -2  -4   8    0.01    0.08
  -2  -4   8    0.14    0.09
  -2  -4   8    0.22    0.13
  -2  -4   8   -0.04    0.09
  -2  -4   8    0.20    0.13
  -2  -4   8    0.07    0.10
  -2  -4   8    0.13    0.11
   1   4  -8   25.41    0.97
   1   4  -8   23.13    0.97
   1   4  -8   25.41    0.71
   1   4  -8   25.73    0.86
   1   4  -8   24.08    1.07
   1   4  -8   25.26    0.91
   1   4  -8   24.05    1.06
  -1  -4   8   23.91    1.01
  -1  -4   8   24.87    1.08
  -1  -4   8   25.32    0.86
  -1  -4   8   23.63    0.98
  -1  -4   8   24.41    0.99
  -1  -4   8   22.78    1.06
  -1  -4   8   24.42    0.97
   0   4  -8    0.23    0.10
   0   4  -8    0.32    0.15
   0   4  -8    0.32    0.10
   0   4  -8    0.12    0.14
   0   4  -8    0.23    0.15
   0  -4   8    0.16    0.13
   0  -4   8    0.18    0.13
   0  -4   8    0.42    0.16
   0  -4   8    0.43    0.18
   0  -4   8    0.45    0.18
   0  -4   8    0.22    0.11
  -1   4  -8    5.43    0.46
  -1   4  -8    4.97    0.29
  -1   4  -8    5.02    0.31
   1  -4   8    4.98    0.33
   1  -4   8    5.12    0.39
   1  -4   8    4.16    0.47
   1  -4   8    5.09    0.45
   1  -4   8    4.98    0.38
  -2   4  -8   12.83    0.55
  -2   4  -8   11.73    0.75
   2  -4   8   11.68    0.76
   2  -4   8   10.76    0.71
   2  -4   8   12.60    0.64
  -3   4  -8    0.92    0.18
  -3   4  -8    0.87    0.28
   3  -4   8    1.29    0.24
   3  -4   8    1.42    0.33
   3  -4   8    0.87    0.26
  -4   4  -8    4.07    0.39
  -5   4  -8    6.31    0.46
   5  -4   8    6.41    0.48
   9   3  -8   14.11    0.92
   9   3  -8   14.41    0.66
   8   3  -8   20.27    0.82
   8   3  -8   18.76    1.02
   8   3  -8   20.59    0.97
   8   3  -8   18.66    0.66
  -8  -3   8   21.52    1.00
   7   3  -8   -0.06    0.12
   7   3  -8    0.07    0.10
   7   3  -8    0.04    0.10
   7   3  -8   -0.03    0.15
  -7  -3   8    0.00    0.16
   6   3  -8   10.99    0.66
   6   3  -8   11.43    0.59
   6   3  -8   10.70    0.49
   6   3  -8   11.48    0.56
  -6  -3   8   10.32    0.67
  -6  -3   8   12.17    0.67
  -6  -3   8   10.76    0.67
  -6  -3   8   11.42    0.64
  -6  -3   8   11.09    0.52
   5   3  -8    0.69    0.16
   5   3  -8    0.53    0.20
   5   3  -8    0.70    0.17
   5   3  -8    1.01    0.17
  -5  -3   8    1.09    0.23
  -5  -3   8    1.16    0.24
  -5  -3   8    0.78    0.19
  -5  -3   8    0.80    0.15
  -5  -3   8    0.97    0.23
   4   3  -8   27.79    0.88
   4   3  -8   29.09    0.96
   4   3  -8   28.64    1.17
   4   3  -8   26.85    1.11
   4   3  -8   28.37    1.10
   4   3  -8   28.55    0.97
   4   3  -8   29.29    1.02
   4   3  -8   29.21    1.01
  -4  -3   8   27.62    1.17
  -4  -3   8   30.36    1.19
  -4  -3   8   27.67    1.10
  -4  -3   8   26.87    1.08
  -4  -3   8   27.69    1.00
  -4  -3   8   30.15    1.10
  -4  -3   8   28.10    0.94
   3   3  -8   17.83    0.68
   3   3  -8   17.23    0.75
   3   3  -8   15.19    0.77
   3   3  -8   17.85    0.74
   3   3  -8   17.21    0.76
   3   3  -8   15.24    0.60
   3   3  -8   16.67    0.75
   3   3  -8   17.04    0.66
   3   3  -8   15.75    0.68
  -3  -3   8   17.24    0.62
  -3  -3   8   16.72    0.73
  -3  -3   8   16.39    0.79
  -3  -3   8   16.41    0.79
  -3  -3   8   15.58    0.73
  -3  -3   8   17.33    0.75
  -3  -3   8   16.62    0.67
   2   3  -8   20.92    0.94
   2   3  -8   20.70    0.83
   2   3  -8   22.13    0.62
   2   3  -8   22.48    0.84
   2   3  -8   21.14    0.77
   2   3  -8   21.03    0.82
   2   3  -8   22.68    0.81
   2   3  -8   23.48    0.91
   2   3  -8   23.13    0.95
   2   3  -8   22.87    0.62
  -2  -3   8   21.99    0.96
  -2  -3   8   20.73    0.86
  -2  -3   8   21.48    0.88
  -2  -3   8   22.74    0.76
  -2  -3   8   22.59    0.89
  -2  -3   8   22.63    0.84
  -2  -3   8   22.32    0.88
  -2  -3   8   23.27    0.98
   1   3  -8   57.36    1.73
   1   3  -8   60.53    2.04
   1   3  -8   57.70    1.87
   1   3  -8   60.19    1.74
   1   3  -8   57.90    1.81
   1   3  -8   57.18    2.03
   1   3  -8   59.34    1.61
   1   3  -8   59.91    1.79
   1   3  -8   59.76    1.77
  -1  -3   8   57.00    1.91
  -1  -3   8   58.99    1.83
  -1  -3   8   57.49    2.04
  -1  -3   8   57.18    1.79
  -1  -3   8   59.25    1.90
  -1  -3   8   58.16    1.68
  -1  -3   8   61.56    2.05
  -1  -3   8   58.57    1.82
   0   3  -8   20.44    0.69
   0   3  -8   20.73    0.77
   0   3  -8   20.45    0.93
   0   3  -8   20.05    0.83
   0   3  -8   21.16    0.76
   0   3  -8   20.68    0.94
   0  -3   8   20.77    0.82
   0  -3   8   20.87    0.95
   0  -3   8   19.57    0.72
   0  -3   8   20.78    0.83
   0  -3   8   19.36    0.83
   0  -3   8   21.22    0.94
   0  -3   8   20.40    0.81
  -1   3  -8    1.46    0.27
  -1   3  -8    1.49    0.19
  -1   3  -8    1.61    0.26
  -1   3  -8    1.79    0.29
  -1   3  -8    1.67    0.20
   1  -3   8    1.94    0.26
   1  -3   8    1.61    0.28
   1  -3   8    1.71    0.31
   1  -3   8    1.83    0.24
   1  -3   8    1.72    0.25
   1  -3   8    1.49    0.19
  -2   3  -8   41.99    1.33
  -2   3  -8   40.10    1.45
  -2   3  -8   40.26    1.28
  -2   3  -8   39.15    1.60
   2  -3   8   38.52    1.39
   2  -3   8   41.38    1.35
   2  -3   8   39.77    1.61
   2  -3   8   42.41    1.37
  -3   3  -8   32.22    1.41
  -3   3  -8   32.06    1.12
  -3   3  -8   33.43    1.15
   3  -3   8   32.49    1.15
   3  -3   8   33.31    1.24
   3  -3   8   33.16    1.17
   3  -3   8   31.59    1.41
  -4   3  -8    0.94    0.21
  -4   3  -8    0.74    0.28
   4  -3   8    0.68    0.16
   4  -3   8    1.16    0.22
   4  -3   8    0.76    0.23
   4  -3   8    0.83    0.21
  -5   3  -8    0.49    0.17
   5  -3   8    0.73    0.22
   5  -3   8    0.46    0.18
  -6   3  -8    0.60    0.21
   6  -3   8    0.91    0.24
   6  -3   8    0.90    0.20
   6  -3   8    0.35    0.25
   9   2  -8   17.76    0.82
   9   2  -8   16.55    0.64
   8   2  -8   20.92    0.89
   8   2  -8   19.90    0.78
   8   2  -8   21.74    0.99
   8   2  -8   18.94    1.05
  -8  -2   8   21.01    1.00
   7   2  -8    0.26    0.14
   7   2  -8    0.42    0.15
   7   2  -8    0.02    0.16
   7   2  -8    0.03    0.12
  -7  -2   8    0.16    0.15
  -7  -2   8    0.16    0.12
   6   2  -8   -0.04    0.09
   6   2  -8    0.10    0.10
   6   2  -8    0.06    0.14
   6   2  -8    0.09    0.06
   6   2  -8    0.14    0.12
  -6  -2   8   -0.04    0.10
  -6  -2   8   -0.01    0.15
  -6  -2   8    0.06    0.15
  -6  -2   8    0.08    0.16
   5   2  -8    9.31    0.47
   5   2  -8    9.49    0.41
   5   2  -8    9.14    0.59
   5   2  -8    9.31    0.48
   5   2  -8    9.33    0.56
   5   2  -8    9.79    0.51
  -5  -2   8    8.73    0.56
  -5  -2   8   10.37    0.58
  -5  -2   8    9.41    0.46
  -5  -2   8    9.53    0.57
  -5  -2   8    9.20    0.59
   4   2  -8   -0.01    0.09
   4   2  -8   -0.08    0.07
   4   2  -8   -0.09    0.08
   4   2  -8    0.05    0.08
   4   2  -8   -0.17    0.08
   4   2  -8    0.02    0.10
   4   2  -8   -0.12    0.09
   4   2  -8   -0.05    0.07
   4   2  -8    0.07    0.11
  -4  -2   8   -0.05    0.07
  -4  -2   8    0.10    0.11
  -4  -2   8    0.27    0.12
  -4  -2   8    0.04    0.08
  -4  -2   8    0.01    0.11
  -4  -2   8    0.01    0.09
   3   2  -8   22.48    0.86
   3   2  -8   23.36    0.78
   3   2  -8   22.68    0.62
   3   2  -8   21.75    0.84
   3   2  -8   22.20    0.81
   3   2  -8   23.03    0.78
   3   2  -8   23.91    0.93
   3   2  -8   21.22    0.90
   3   2  -8   21.18    0.81
   3   2  -8   21.53    0.97
   3   2  -8   24.44    0.95
  -3  -2   8   22.50    0.90
  -3  -2   8   24.17    1.00
  -3  -2   8   22.09    0.77
  -3  -2   8   23.41    0.90
  -3  -2   8   22.21    0.97
  -3  -2   8   23.49    0.86
  -3  -2   8   21.71    0.88
   2   2  -8   27.08    0.81
   2   2  -8   27.98    1.01
   2   2  -8   26.39    1.10
   2   2  -8   26.38    0.95
   2   2  -8   27.22    0.92
   2   2  -8   27.09    0.97
   2   2  -8   28.31    1.12
   2   2  -8   28.43    1.01
   2   2  -8   29.72    0.96
   2   2  -8   28.12    0.91
   2   2  -8   28.26    1.04
  -2  -2   8   26.41    0.99
  -2  -2   8   27.35    0.88
  -2  -2   8   28.36    1.11
  -2  -2   8   27.19    1.11
  -2  -2   8   27.68    1.02
  -2  -2   8   28.27    1.01
  -2  -2   8   27.11    0.96
   1   2  -8   54.70    1.91
   1   2  -8   56.47    1.69
   1   2  -8   54.07    1.64
   1   2  -8   55.97    1.92
   1   2  -8   55.99    1.55
   1   2  -8   55.39    1.71
   1   2  -8   51.15    1.74
   1   2  -8   56.49    1.69
   1   2  -8   58.46    1.74
   1   2  -8   57.72    1.66
  -1  -2   8   56.07    1.78
  -1  -2   8   55.83    1.58
  -1  -2   8   55.31    1.69
  -1  -2   8   55.97    1.68
  -1  -2   8   58.25    1.93
  -1  -2   8   54.72    1.92
  -1  -2   8   53.64    1.70
   0   2  -8   79.83    2.44
   0   2  -8   81.00    2.63
   0   2  -8   81.42    2.32
   0   2  -8   75.75    2.38
   0   2  -8   76.05    2.59
   0   2  -8   80.40    2.34
   0   2  -8   79.00    2.33
   0   2  -8   77.90    2.16
   0   2  -8   81.50    2.29
   0   2  -8   81.50    2.28
   0  -2   8   79.52    2.43
   0  -2   8   79.29    2.30
   0  -2   8   80.61    2.30
   0  -2   8   78.68    2.17
   0  -2   8   79.90    2.61
   0  -2   8   80.60    2.61
   0  -2   8   79.51    2.28
  -1   2  -8    3.21    0.36
  -1   2  -8    3.97    0.28
  -1   2  -8    4.37    0.31
  -1   2  -8    4.19    0.26
  -1   2  -8    3.69    0.29
  -1   2  -8    3.58    0.30
  -1   2  -8    4.27    0.31
  -1   2  -8    3.64    0.35
  -1   2  -8    3.72    0.35
   1  -2   8    3.04    0.22
   1  -2   8    4.10    0.29
   1  -2   8    4.03    0.32
   1  -2   8    3.41    0.28
   1  -2   8    3.92    0.28
   1  -2   8    4.03    0.31
   1  -2   8    4.00    0.35
   1  -2   8    3.94    0.35
  -2   2  -8    4.12    0.37
  -2   2  -8    3.95    0.33
  -2   2  -8    3.47    0.27
  -2   2  -8    4.17    0.39
  -2   2  -8    4.10    0.28
   2  -2   8    4.17    0.37
   2  -2   8    4.54    0.31
   2  -2   8    3.88    0.31
   2  -2   8    4.20    0.29
  -3   2  -8    0.42    0.17
  -3   2  -8    0.18    0.11
  -3   2  -8    0.18    0.12
  -3   2  -8    0.31    0.15
  -3   2  -8    0.25    0.15
   3  -2   8    0.34    0.12
   3  -2   8    0.09    0.12
   3  -2   8    0.14    0.14
   3  -2   8    0.30    0.12
  -4   2  -8   10.71    0.71
  -4   2  -8   11.28    0.59
  -4   2  -8   11.59    0.57
   4  -2   8   11.69    0.61
   4  -2   8   12.69    0.57
   4  -2   8   12.19    0.53
   4  -2   8   12.18    0.74
  -5   2  -8    3.97    0.42
  -5   2  -8    3.62    0.37
   5  -2   8    3.67    0.39
   5  -2   8    3.48    0.33
   5  -2   8    3.47    0.47
  -6   2  -8   16.06    0.83
  -6   2  -8   17.19    0.79
   6  -2   8   16.46    0.80
   6  -2   8   16.33    0.94
   6  -2   8   17.51    0.71
   6  -2   8   16.44    0.70
  -7   2  -8    9.74    0.60
   7  -2   8    8.34    0.42
   7  -2   8    8.46    0.42
   7  -2   8    7.70    0.67
   7  -2   8    9.24    0.57
   8   1  -8    0.19    0.16
   8   1  -8    0.01    0.13
   8   1  -8   -0.07    0.14
  -8  -1   8    0.04    0.13
   7   1  -8    3.65    0.23
   7   1  -8    3.65    0.47
   7   1  -8    3.98    0.41
   7   1  -8    3.41    0.35
   7   1  -8    3.37    0.39
  -7  -1   8    4.49    0.49
  -7  -1   8    3.88    0.38
   6   1  -8    0.90    0.19
   6   1  -8    0.55    0.16
   6   1  -8    0.39    0.12
   6   1  -8    0.20    0.16
   6   1  -8    0.19    0.13
  -6  -1   8    0.44    0.19
  -6  -1   8    0.55    0.22
  -6  -1   8    0.40    0.20
  -6  -1   8    0.25    0.14
   5   1  -8   97.25    2.93
   5   1  -8  104.74    3.02
   5   1  -8  101.80    3.32
   5   1  -8  101.68    2.90
   5   1  -8  102.53    2.82
   5   1  -8  103.29    3.09
  -5  -1   8  101.82    3.36
  -5  -1   8  102.57    3.04
  -5  -1   8  105.12    2.85
  -5  -1   8   98.25    3.06
   4   1  -8   32.10    1.29
   4   1  -8   32.54    1.36
   4   1  -8   33.82    1.18
   4   1  -8   35.04    0.93
   4   1  -8   32.66    1.15
   4   1  -8   33.96    1.23
   4   1  -8   35.25    1.34
   4   1  -8   35.39    1.05
   4   1  -8   34.36    1.13
   4   1  -8   34.77    1.11
  -4  -1   8   35.68    1.39
  -4  -1   8   36.27    1.38
  -4  -1   8   34.35    1.27
  -4  -1   8   34.06    1.25
  -4  -1   8   33.21    1.10
  -4  -1   8   36.34    1.27
   3   1  -8   10.31    0.41
   3   1  -8   10.00    0.48
   3   1  -8   10.55    0.51
   3   1  -8    9.50    0.47
   3   1  -8   10.26    0.51
   3   1  -8   10.36    0.45
   3   1  -8   10.55    0.56
   3   1  -8   10.36    0.46
   3   1  -8    9.77    0.57
   3   1  -8   10.54    0.56
   3   1  -8   10.88    0.57
   3   1  -8   10.19    0.38
   3   1  -8   10.48    0.60
  -3  -1   8   10.30    0.54
  -3  -1   8   10.71    0.59
  -3  -1   8    9.43    0.58
  -3  -1   8    9.94    0.44
  -3  -1   8    9.62    0.52
  -3  -1   8   10.99    0.54
  -3  -1   8    9.80    0.49
   2   1  -8   35.77    1.19
   2   1  -8   34.07    1.12
   2   1  -8   36.24    1.12
   2   1  -8   35.66    1.24
   2   1  -8   35.49    1.33
   2   1  -8   35.72    1.18
   2   1  -8   36.43    1.32
   2   1  -8   38.34    1.16
   2   1  -8   34.51    1.15
   2   1  -8   37.32    1.04
   2   1  -8   36.82    1.34
   2   1  -8   33.47    1.22
   2   1  -8   35.30    1.04
  -2  -1   8   33.48    1.18
  -2  -1   8   34.94    1.22
  -2  -1   8   33.09    1.18
  -2  -1   8   34.30    1.07
  -2  -1   8   36.68    1.17
  -2  -1   8   36.59    1.16
  -2  -1   8   37.08    1.34
  -2  -1   8   34.43    1.33
   1   1  -8    2.38    0.25
   1   1  -8    2.27    0.18
   1   1  -8    2.27    0.25
   1   1  -8    2.28    0.28
   1   1  -8    2.51    0.27
   1   1  -8    2.16    0.21
   1   1  -8    2.24    0.25
   1   1  -8    2.53    0.26
   1   1  -8    2.40    0.24
   1   1  -8    2.03    0.27
   1   1  -8    2.17    0.22
  -1  -1   8    2.12    0.22
  -1  -1   8    2.17    0.18
  -1  -1   8    2.41    0.26
  -1  -1   8    2.26    0.28
  -1  -1   8    1.97    0.22
  -1  -1   8    2.42    0.25
  -1  -1   8    2.51    0.25
  -1  -1   8    2.18    0.28
   0   1  -8    3.55    0.23
   0   1  -8    3.79    0.26
   0   1  -8    3.63    0.32
   0   1  -8    3.66    0.27
   0   1  -8    3.79    0.25
   0   1  -8    3.45    0.26
   0   1  -8    3.63    0.25
   0   1  -8    3.37    0.30
   0   1  -8    4.19    0.29
   0   1  -8    3.54    0.27
   0   1  -8    3.81    0.28
   0   1  -8    3.71    0.28
   0  -1   8    3.56    0.27
   0  -1   8    3.74    0.27
   0  -1   8    3.24    0.26
   0  -1   8    3.52    0.20
   0  -1   8    3.27    0.21
   0  -1   8    3.89    0.28
   0  -1   8    3.42    0.30
   0  -1   8    3.77    0.31
   0  -1   8    3.71    0.27
   0  -1   8    3.41    0.24
  -1   1  -8   35.30    1.32
  -1   1  -8   37.31    1.17
  -1   1  -8   36.24    1.18
  -1   1  -8   35.22    1.34
  -1   1  -8   35.18    1.19
  -1   1  -8   34.63    1.22
  -1   1  -8   36.20    1.19
  -1   1  -8   35.96    1.08
   1  -1   8   34.84    1.21
   1  -1   8   35.59    1.16
   1  -1   8   35.86    1.13
   1  -1   8   35.94    1.12
   1  -1   8   34.45    1.04
   1  -1   8   35.10    1.10
   1  -1   8   35.40    1.33
   1  -1   8   38.20    1.34
  -2   1  -8    9.66    0.56
  -2   1  -8    8.94    0.46
  -2   1  -8    8.88    0.48
  -2   1  -8    9.35    0.49
  -2   1  -8    9.69    0.48
  -2   1  -8    9.11    0.54
  -2   1  -8    8.51    0.41
  -2   1  -8    9.16    0.49
   2  -1   8    9.35    0.42
   2  -1   8    9.29    0.43
   2  -1   8    9.41    0.55
   2  -1   8    9.23    0.54
   2  -1   8    9.44    0.46
   2  -1   8    8.78    0.40
   2  -1   8    9.00    0.45
  -3   1  -8   16.57    0.76
  -3   1  -8   16.93    0.74
  -3   1  -8   16.27    0.81
  -3   1  -8   16.90    0.72
  -3   1  -8   17.48    0.65
  -3   1  -8   16.80    0.85
   3  -1   8   16.27    0.60
   3  -1   8   16.29    0.81
   3  -1   8   16.42    0.64
   3  -1   8   16.77    0.64
   3  -1   8   17.01    0.69
   3  -1   8   16.69    0.69
  -4   1  -8   68.34    2.11
  -4   1  -8   62.72    2.36
  -4   1  -8   68.12    2.11
  -4   1  -8   65.78    1.93
  -4   1  -8   62.85    2.30
   4  -1   8   65.36    2.32
   4  -1   8   65.50    1.91
   4  -1   8   66.75    1.99
   4  -1   8   67.68    1.87
   4  -1   8   65.97    1.90
   4  -1   8   66.23    2.00
   4  -1   8   67.12    2.17
  -5   1  -8   13.94    0.62
  -5   1  -8   12.36    0.76
  -5   1  -8   13.11    0.68
   5  -1   8   12.55    0.53
   5  -1   8   13.75    0.63
   5  -1   8   11.78    0.70
   5  -1   8   12.59    0.54
  -6   1  -8    1.35    0.25
  -6   1  -8    1.61    0.29
   6  -1   8    1.46    0.24
   6  -1   8    1.14    0.17
   6  -1   8    1.00    0.28
   6  -1   8    1.09    0.16
   6  -1   8    1.51    0.25
  -7   1  -8    0.22    0.17
  -7   1  -8    0.08    0.13
   7  -1   8    0.21    0.16
   7  -1   8    0.16    0.22
  -8   1  -8    1.83    0.37
  -8   1  -8    1.66    0.30
   8  -1   8    2.38    0.44
   8  -1   8    1.85    0.27
   8   0  -8   14.30    0.55
   8   0  -8   14.40    0.72
   8   0  -8   14.38    0.90
   8   0  -8   12.71    0.52
  -8   0   8   13.38    0.72
   7   0  -8   17.32    0.83
   7   0  -8   17.08    0.85
   7   0  -8   18.21    0.81
   7   0  -8   16.40    0.93
   7   0  -8   16.32    0.68
  -7   0   8   16.96    0.78
   6   0  -8    0.53    0.18
   6   0  -8    0.76    0.19
   6   0  -8    0.46    0.16
   6   0  -8    1.05    0.26
   6   0  -8    0.56    0.15
  -6   0   8    0.79    0.19
  -6   0   8    0.41    0.20
   5   0  -8   32.40    1.26
   5   0  -8   34.47    1.18
   5   0  -8   31.74    0.88
   5   0  -8   31.36    1.38
   5   0  -8   32.40    1.09
   5   0  -8   32.37    1.19
   5   0  -8   31.99    1.16
   5   0  -8   32.08    1.35
  -5   0   8   30.96    1.09
  -5   0   8   31.33    1.24
  -5   0   8   31.84    1.39
   4   0  -8   15.39    0.65
   4   0  -8   15.82    0.79
   4   0  -8   16.35    0.65
   4   0  -8   15.25    0.80
   4   0  -8   15.96    0.71
   4   0  -8   16.93    0.60
   4   0  -8   15.69    0.69
   4   0  -8   14.74    0.81
   4   0  -8   16.94    0.75
   4   0  -8   15.24    0.55
  -4   0   8   14.83    0.80
  -4   0   8   16.23    0.64
  -4   0   8   16.02    0.75
  -4   0   8   15.37    0.75
  -4   0   8   16.82    0.83
   3   0  -8    6.96    0.40
   3   0  -8    6.24    0.43
   3   0  -8    6.93    0.41
   3   0  -8    6.89    0.38
   3   0  -8    7.03    0.48
   3   0  -8    6.97    0.32
   3   0  -8    6.49    0.32
   3   0  -8    7.02    0.42
   3   0  -8    6.62    0.47
   3   0  -8    6.87    0.46
   3   0  -8    7.36    0.37
  -3   0   8    7.26    0.49
  -3   0   8    6.69    0.43
  -3   0   8    7.05    0.38
  -3   0   8    7.23    0.40
  -3   0   8    7.39    0.44
  -3   0   8    6.15    0.42
  -3   0   8    7.11    0.48
  -3   0   8    6.31    0.35
   2   0  -8   48.59    1.45
   2   0  -8   45.89    1.41
   2   0  -8   45.95    1.50
   2   0  -8   45.67    1.61
   2   0  -8   45.77    1.42
   2   0  -8   45.09    1.30
   2   0  -8   46.21    1.40
   2   0  -8   44.23    1.48
   2   0  -8   44.56    1.43
   2   0  -8   45.49    1.64
   2   0  -8   44.21    1.31
   2   0  -8   44.85    1.52
   2   0  -8   44.41    1.60
   2   0  -8   44.52    1.38
  -2   0   8   45.06    1.32
  -2   0   8   47.28    1.52
  -2   0   8   44.13    1.40
  -2   0   8   43.60    1.62
  -2   0   8   44.79    1.45
  -2   0   8   46.49    1.41
  -2   0   8   48.56    1.64
  -2   0   8   46.15    1.47
   1   0  -8   93.16    2.56
   1   0  -8   91.23    2.74
   1   0  -8   90.71    2.61
   1   0  -8   95.61    2.94
   1   0  -8   93.32    2.56
   1   0  -8   93.65    2.59
   1   0  -8   90.74    2.49
   1   0  -8   91.60    2.58
   1   0  -8   94.45    2.70
   1   0  -8   93.23    2.75
   1   0  -8   90.96    2.94
   1   0  -8   94.15    2.58
   1   0  -8   93.54    2.61
  -1   0   8   91.20    2.48
  -1   0   8   89.37    2.62
  -1   0   8   95.16    2.76
  -1   0   8   93.05    2.59
  -1   0   8   95.35    2.59
  -1   0   8   90.22    2.59
  -1   0   8   97.07    2.95
  -1   0   8   92.69    2.95
   0   0  -8   28.02    1.11
   0   0  -8   29.06    1.03
   0   0  -8   29.74    1.12
   0   0  -8   30.22    1.01
   0   0  -8   27.81    0.99
   0   0  -8   29.13    0.97
   0   0  -8   29.00    0.94
   0   0  -8   29.15    0.91
   0   0  -8   30.01    0.96
   0   0  -8   30.73    0.99
   0   0   8   30.28    1.13
   0   0   8   29.33    0.94
   0   0   8   30.11    0.97
   0   0   8   29.70    1.02
   0   0   8   30.76    0.94
   0   0   8   29.38    0.98
   0   0   8   29.67    0.88
   0   0   8   29.41    1.12
  -1   0  -8    6.10    0.41
  -1   0  -8    6.02    0.35
  -1   0  -8    6.37    0.33
  -1   0  -8    6.42    0.35
  -1   0  -8    6.31    0.31
  -1   0  -8    6.07    0.35
  -1   0  -8    6.10    0.39
  -1   0  -8    6.15    0.37
   1   0   8    6.08    0.30
   1   0   8    6.15    0.33
   1   0   8    6.20    0.33
   1   0   8    6.32    0.29
   1   0   8    6.18    0.26
   1   0   8    6.69    0.34
   1   0   8    5.88    0.39
   1   0   8    6.24    0.26
   1   0   8    5.97    0.38
  -2   0  -8    3.97    0.30
  -2   0  -8    4.04    0.31
  -2   0  -8    3.97    0.28
  -2   0  -8    4.03    0.29
  -2   0  -8    3.78    0.29
  -2   0  -8    4.01    0.29
  -2   0  -8    3.43    0.27
  -2   0  -8    3.30    0.23
   2   0   8    3.84    0.21
   2   0   8    3.64    0.31
   2   0   8    4.31    0.24
   2   0   8    3.69    0.26
   2   0   8    3.67    0.25
   2   0   8    4.20    0.33
   2   0   8    4.11    0.25
   2   0   8    3.45    0.23
  -3   0  -8    7.40    0.49
  -3   0  -8    8.59    0.46
  -3   0  -8    7.34    0.46
  -3   0  -8    7.42    0.37
  -3   0  -8    7.66    0.44
  -3   0  -8    8.73    0.47
  -3   0  -8    8.14    0.45
  -3   0  -8    8.14    0.45
   3   0   8    7.47    0.33
   3   0   8    7.26    0.34
   3   0   8    7.72    0.48
   3   0   8    6.99    0.40
   3   0   8    7.24    0.35
   3   0   8    7.44    0.30
   3   0   8    7.68    0.31
   3   0   8    8.19    0.39
   3   0   8    8.01    0.40
  -4   0  -8    5.31    0.38
  -4   0  -8    5.40    0.43
  -4   0  -8    5.56    0.32
  -4   0  -8    5.86    0.41
  -4   0  -8    6.20    0.41
  -4   0  -8    5.15    0.38
  -4   0  -8    5.48    0.41
   4   0   8    5.64    0.30
   4   0   8    5.61    0.25
   4   0   8    5.75    0.40
   4   0   8    5.78    0.42
   4   0   8    5.30    0.33
   4   0   8    6.05    0.29
   4   0   8    6.01    0.34
   4   0   8    5.54    0.28
  -5   0  -8    8.35    0.54
  -5   0  -8    8.84    0.61
  -5   0  -8    9.53    0.57
  -5   0  -8    9.26    0.55
  -5   0  -8    8.97    0.45
  -5   0  -8    8.73    0.57
   5   0   8    9.75    0.37
   5   0   8    9.51    0.45
   5   0   8    9.07    0.56
   5   0   8    9.37    0.46
   5   0   8    9.43    0.46
   5   0   8    9.15    0.36
  -6   0  -8    0.63    0.17
  -6   0  -8    0.44    0.18
   6   0   8    0.59    0.23
   6   0   8    0.46    0.13
   6   0   8    0.60    0.16
   6   0   8    0.44    0.15
  -7   0  -8   11.05    0.58
  -7   0  -8    9.87    0.67
   7   0   8   11.43    0.73
   7   0   8   11.10    0.51
   7   0   8    9.63    0.49
  -8   0  -8   26.75    1.26
   8   0   8   26.45    1.06
   8   0   8   26.89    0.91
   8   0   8   25.28    1.27
   8   0   8   25.31    0.90
   7  -1  -8    1.66    0.34
   7  -1  -8    1.73    0.31
   7  -1  -8    0.96    0.26
   7  -1  -8    1.13    0.22
   7  -1  -8    1.28    0.25
  -7   1   8    1.69    0.27
   6  -1  -8    4.02    0.44
   6  -1  -8    4.42    0.35
   6  -1  -8    4.29    0.39
   6  -1  -8    4.18    0.43
   6  -1  -8    5.17    0.54
  -6   1   8    3.83    0.38
   5  -1  -8   11.05    0.64
   5  -1  -8    9.43    0.69
   5  -1  -8   10.10    0.53
   5  -1  -8   11.25    0.44
   5  -1  -8    9.72    0.57
   5  -1  -8   11.01    0.62
   5  -1  -8   10.68    0.57
  -5   1   8   10.69    0.71
  -5   1   8   11.08    0.54
   4  -1  -8   11.06    0.68
   4  -1  -8   11.15    0.60
   4  -1  -8   10.50    0.69
   4  -1  -8   11.36    0.48
   4  -1  -8   12.09    0.56
   4  -1  -8   12.15    0.56
   4  -1  -8   11.47    0.52
   4  -1  -8   11.23    0.61
   4  -1  -8   10.93    0.57
  -4   1   8   11.39    0.64
  -4   1   8   11.24    0.70
  -4   1   8   11.31    0.53
  -4   1   8   12.98    0.74
   3  -1  -8   28.49    1.03
   3  -1  -8   29.36    1.20
   3  -1  -8   28.26    1.21
   3  -1  -8   27.49    0.97
   3  -1  -8   28.14    1.13
   3  -1  -8   25.78    1.03
   3  -1  -8   29.29    1.00
   3  -1  -8   28.02    1.04
   3  -1  -8   29.97    0.97
   3  -1  -8   29.35    1.02
  -3   1   8   28.29    1.19
  -3   1   8   29.92    1.04
  -3   1   8   27.52    1.07
  -3   1   8   28.40    0.95
  -3   1   8   29.94    1.21
   2  -1  -8   37.16    1.31
   2  -1  -8   36.27    1.23
   2  -1  -8   36.74    1.42
   2  -1  -8   36.95    1.22
   2  -1  -8   37.23    1.25
   2  -1  -8   37.37    1.21
   2  -1  -8   38.93    1.21
   2  -1  -8   36.81    1.18
   2  -1  -8   37.72    1.23
   2  -1  -8   37.40    1.40
   2  -1  -8   36.95    1.28
   2  -1  -8   38.61    1.13
  -2   1   8   35.58    1.24
  -2   1   8   35.45    1.26
  -2   1   8   35.84    1.12
  -2   1   8   37.79    1.42
  -2   1   8   39.34    1.32
  -2   1   8   38.49    1.41
  -2   1   8   36.62    1.21
   1  -1  -8  133.52    3.80
   1  -1  -8  141.64    3.96
   1  -1  -8  143.31    4.03
   1  -1  -8  140.02    3.82
   1  -1  -8  137.46    3.84
   1  -1  -8  141.86    3.87
   1  -1  -8  145.15    4.31
   1  -1  -8  142.32    4.34
   1  -1  -8  147.92    3.83
   1  -1  -8  144.99    3.83
   1  -1  -8  140.81    3.78
  -1   1   8  136.13    3.87
  -1   1   8  141.12    3.80
  -1   1   8  141.57    4.33
  -1   1   8  141.51    4.31
  -1   1   8  138.77    3.67
  -1   1   8  146.91    3.77
  -1   1   8  141.39    3.83
  -1   1   8  141.32    4.07
   0  -1  -8   23.08    0.87
   0  -1  -8   21.53    0.92
   0  -1  -8   23.14    0.77
   0  -1  -8   23.54    0.78
   0  -1  -8   22.47    0.70
   0  -1  -8   22.70    0.82
   0  -1  -8   23.28    0.81
   0  -1  -8   21.30    0.82
   0  -1  -8   23.28    0.79
   0  -1  -8   24.01    0.81
   0  -1  -8   23.16    0.92
   0   1   8   22.15    0.78
   0   1   8   23.69    0.76
   0   1   8   23.85    0.82
   0   1   8   22.40    0.68
   0   1   8   23.66    0.79
   0   1   8   23.16    0.93
   0   1   8   22.86    0.77
   0   1   8   23.07    0.92
  -1  -1  -8   26.49    0.90
  -1  -1  -8   27.27    1.02
  -1  -1  -8   26.47    0.96
  -1  -1  -8   25.98    0.80
  -1  -1  -8   21.65    0.83
  -1  -1  -8   26.74    0.88
  -1  -1  -8   26.02    0.92
  -1  -1  -8   25.58    1.00
  -1  -1  -8   25.59    0.89
   1   1   8   25.92    0.81
   1   1   8   25.95    0.85
   1   1   8   26.66    0.70
   1   1   8   26.83    1.01
   1   1   8   27.29    1.01
   1   1   8   26.55    0.89
   1   1   8   26.25    0.81
   1   1   8   25.89    0.85
   1   1   8   27.59    0.78
   1   1   8   26.23    0.87
  -2  -1  -8  248.06    6.93
  -2  -1  -8  241.87    6.51
  -2  -1  -8  252.36    7.29
  -2  -1  -8  246.25    6.92
  -2  -1  -8  254.33    6.34
  -2  -1  -8  239.04    7.27
  -2  -1  -8  247.18    6.82
   2   1   8  256.59    6.48
   2   1   8  248.53    6.45
   2   1   8  254.19    7.28
   2   1   8  244.98    7.26
   2   1   8  255.30    6.43
   2   1   8  250.61    6.36
   2   1   8  246.96    6.78
   2   1   8  251.97    6.34
   2   1   8  243.20    6.43
  -3  -1  -8  109.26    3.19
  -3  -1  -8  108.09    3.18
  -3  -1  -8  109.18    2.86
  -3  -1  -8  108.49    3.18
  -3  -1  -8  107.58    3.35
  -3  -1  -8  108.61    3.01
   3   1   8  110.48    3.36
   3   1   8  106.34    3.34
   3   1   8  111.43    2.92
   3   1   8  107.34    3.12
   3   1   8  109.93    2.81
   3   1   8  111.35    2.96
   3   1   8  106.05    2.81
   3   1   8  103.10    2.90
   3   1   8  110.00    2.87
  -4  -1  -8   10.94    0.52
  -4  -1  -8   11.37    0.56
  -4  -1  -8   11.76    0.56
  -4  -1  -8   10.84    0.44
  -4  -1  -8   10.99    0.57
  -4  -1  -8    9.78    0.57
  -4  -1  -8   10.43    0.56
   4   1   8   10.83    0.57
   4   1   8   11.32    0.55
   4   1   8   10.64    0.44
   4   1   8   10.72    0.44
   4   1   8   10.47    0.41
  -5  -1  -8   28.73    1.11
  -5  -1  -8   29.28    0.94
  -5  -1  -8   28.60    1.21
  -5  -1  -8   30.32    1.12
  -5  -1  -8   29.39    1.06
  -5  -1  -8   28.24    1.15
  -5  -1  -8   27.80    1.15
   5   1   8   29.57    0.95
   5   1   8   27.80    0.91
   5   1   8   28.67    1.12
   5   1   8   28.90    0.91
  -6  -1  -8   12.70    0.75
  -6  -1  -8   13.27    0.69
  -6  -1  -8   12.51    0.72
  -6  -1  -8   12.14    0.70
   6   1   8   12.70    0.49
   6   1   8   12.72    0.70
   6   1   8   12.29    0.48
   6   1   8   12.44    0.56
  -7  -1  -8    1.65    0.32
   7   1   8    2.21    0.17
   7   1   8    2.36    0.38
   7   1   8    2.07    0.16
  -8  -1  -8    2.83    0.45
   8   1   8    3.35    0.33
   8   1   8    3.39    0.50
  -9  -1  -8    1.21    0.31
   9   1   8    0.80    0.28
   7  -2  -8    2.73    0.42
   7  -2  -8    2.53    0.33
   7  -2  -8    2.94    0.48
  -7   2   8    3.09    0.37
   6  -2  -8   27.17    1.21
   6  -2  -8   30.37    1.12
   6  -2  -8   29.25    1.22
   6  -2  -8   27.32    1.27
   6  -2  -8   29.75    0.89
  -6   2   8   27.34    1.08
   5  -2  -8   25.20    1.06
   5  -2  -8   26.21    0.89
   5  -2  -8   26.50    1.01
   5  -2  -8   27.46    1.32
   5  -2  -8   25.51    1.10
   5  -2  -8   26.03    1.14
  -5   2   8   23.78    1.24
  -5   2   8   24.65    0.96
   4  -2  -8    0.10    0.12
   4  -2  -8   -0.16    0.12
   4  -2  -8    0.07    0.11
   4  -2  -8    0.09    0.10
   4  -2  -8   -0.06    0.12
   4  -2  -8   -0.14    0.12
   4  -2  -8    0.06    0.11
  -4   2   8    0.08    0.11
  -4   2   8    0.03    0.12
   3  -2  -8    3.08    0.38
   3  -2  -8    3.09    0.39
   3  -2  -8    3.82    0.31
   3  -2  -8    3.23    0.40
   3  -2  -8    3.92    0.31
   3  -2  -8    3.59    0.29
   3  -2  -8    3.31    0.36
  -3   2   8    3.86    0.36
  -3   2   8    3.47    0.41
  -3   2   8    3.75    0.27
  -3   2   8    3.22    0.35
   2  -2  -8   13.17    0.70
   2  -2  -8   12.80    0.70
   2  -2  -8   13.27    0.65
   2  -2  -8   12.75    0.61
   2  -2  -8   13.06    0.57
   2  -2  -8   12.00    0.57
   2  -2  -8   13.49    0.70
   2  -2  -8   13.18    0.61
   2  -2  -8   13.87    0.58
  -2   2   8   12.59    0.50
  -2   2   8   12.65    0.58
  -2   2   8   13.27    0.71
  -2   2   8   12.54    0.69
   1  -2  -8   24.60    1.04
   1  -2  -8   24.54    0.87
   1  -2  -8   24.60    0.96
   1  -2  -8   25.49    1.02
   1  -2  -8   24.18    0.92
   1  -2  -8   24.46    0.85
   1  -2  -8   24.19    0.88
   1  -2  -8   24.58    0.88
   1  -2  -8   24.60    0.90
  -1   2   8   25.28    0.94
  -1   2   8   24.43    0.76
  -1   2   8   24.69    1.03
  -1   2   8   25.23    1.03
  -1   2   8   24.82    0.83
  -1   2   8   25.00    0.87
  -1   2   8   26.13    0.88
   0  -2  -8    8.40    0.43
   0  -2  -8    8.21    0.40
   0  -2  -8    7.75    0.41
   0  -2  -8    8.04    0.41
   0  -2  -8    8.18    0.47
   0  -2  -8    8.53    0.40
   0  -2  -8    8.15    0.40
   0  -2  -8    8.67    0.50
   0  -2  -8    8.93    0.49
   0  -2  -8    8.43    0.46
   0  -2  -8    8.99    0.42
   0   2   8    8.98    0.45
   0   2   8    8.30    0.39
   0   2   8    9.41    0.41
   0   2   8    9.26    0.50
   0   2   8    8.94    0.29
   0   2   8    8.68    0.48
   0   2   8    8.96    0.37
  -1  -2  -8   92.43    2.65
  -1  -2  -8   98.02    2.58
  -1  -2  -8   93.87    2.64
  -1  -2  -8   93.64    2.97
  -1  -2  -8   94.05    2.68
  -1  -2  -8   97.04    2.97
  -1  -2  -8   94.73    2.81
  -1  -2  -8   94.76    2.79
   1   2   8   97.51    2.63
   1   2   8   96.82    2.97
   1   2   8   97.51    2.53
   1   2   8   98.27    2.66
   1   2   8   92.46    2.58
   1   2   8   94.58    2.97
   1   2   8   99.58    2.59
  -2  -2  -8  112.24    3.54
  -2  -2  -8  115.37    3.16
  -2  -2  -8  119.38    3.55
  -2  -2  -8  117.68    3.35
  -2  -2  -8  116.57    3.22
  -2  -2  -8  111.23    3.35
  -2  -2  -8  115.48    3.02
   2   2   8  111.67    2.96
   2   2   8  120.29    3.56
   2   2   8  117.65    3.27
   2   2   8  120.51    3.13
   2   2   8  118.88    3.15
   2   2   8  117.36    3.08
   2   2   8  117.70    3.53
   2   2   8  118.12    3.08
  -3  -2  -8  238.94    6.57
  -3  -2  -8  241.27    6.54
  -3  -2  -8  229.96    6.89
  -3  -2  -8  236.00    6.18
  -3  -2  -8  228.89    6.56
   3   2   8  236.67    6.11
   3   2   8  245.28    6.04
   3   2   8  241.37    6.89
   3   2   8  243.80    6.90
   3   2   8  224.00    6.03
   3   2   8  232.55    6.52
  -4  -2  -8   11.36    0.56
  -4  -2  -8   12.05    0.53
  -4  -2  -8   10.84    0.53
  -4  -2  -8   12.67    0.53
  -4  -2  -8   11.20    0.60
   4   2   8   12.13    0.38
   4   2   8   11.68    0.56
   4   2   8   11.33    0.37
   4   2   8   11.68    0.55
  -5  -2  -8    0.29    0.12
  -5  -2  -8    0.40    0.16
  -5  -2  -8    0.29    0.13
  -5  -2  -8    0.45    0.13
  -5  -2  -8    0.24    0.13
  -5  -2  -8    0.25    0.13
   5   2   8    0.16    0.13
   5   2   8    0.25    0.09
  -6  -2  -8   15.23    0.72
  -6  -2  -8   15.29    0.78
  -6  -2  -8   16.48    0.74
  -6  -2  -8   14.67    0.80
  -6  -2  -8   16.14    0.73
   6   2   8   15.08    0.76
   6   2   8   14.27    0.61
  -7  -2  -8   12.51    0.68
  -7  -2  -8   11.95    0.67
  -7  -2  -8   10.35    0.70
  -7  -2  -8   11.51    0.73
   7   2   8   10.94    0.69
   7   2   8   13.05    0.50
  -8  -2  -8    4.24    0.53
   8   2   8    3.59    0.49
  -9  -2  -8    8.52    0.69
   9   2   8    7.38    0.63
   6  -3  -8    2.00    0.23
   6  -3  -8    1.38    0.33
   6  -3  -8    1.90    0.37
   6  -3  -8    2.12    0.37
  -6   3   8    1.52    0.26
   5  -3  -8    0.35    0.20
   5  -3  -8    0.48    0.21
   5  -3  -8   -0.01    0.15
   5  -3  -8    0.60    0.29
  -5   3   8    0.15    0.12
   4  -3  -8    0.80    0.23
   4  -3  -8    0.96    0.28
   4  -3  -8    1.31    0.24
  -4   3   8    0.86    0.18
  -4   3   8    0.59    0.23
   3  -3  -8    6.05    0.48
   3  -3  -8    5.95    0.44
   3  -3  -8    5.94    0.51
   3  -3  -8    6.19    0.45
  -3   3   8    6.51    0.35
  -3   3   8    6.39    0.52
  -3   3   8    5.57    0.41
   2  -3  -8  115.19    3.78
   2  -3  -8  116.08    3.32
   2  -3  -8  120.37    3.76
   2  -3  -8  115.61    3.33
   2  -3  -8  114.11    3.46
   2  -3  -8  118.41    3.58
  -2   3   8  116.73    3.09
  -2   3   8  116.55    3.28
  -2   3   8  113.84    3.74
   1  -3  -8   42.93    1.37
   1  -3  -8   42.08    1.48
   1  -3  -8   45.04    1.41
   1  -3  -8   42.17    1.48
   1  -3  -8   43.51    1.64
   1  -3  -8   44.07    1.43
   1  -3  -8   44.22    1.56
   1  -3  -8   46.24    1.45
   1  -3  -8   43.70    1.61
   1  -3  -8   44.93    1.41
  -1   3   8   41.16    1.60
  -1   3   8   43.85    1.33
  -1   3   8   46.02    1.22
  -1   3   8   43.88    1.38
  -1   3   8   43.82    1.38
   0  -3  -8    0.99    0.18
   0  -3  -8    0.82    0.17
   0  -3  -8    1.12    0.21
   0  -3  -8    1.02    0.19
   0  -3  -8    0.94    0.16
   0  -3  -8    0.97    0.19
   0  -3  -8    1.06    0.20
   0  -3  -8    0.97    0.16
   0  -3  -8    1.20    0.19
   0   3   8    1.27    0.17
   0   3   8    1.06    0.16
   0   3   8    1.28    0.22
   0   3   8    0.78    0.18
   0   3   8    0.98    0.13
  -1  -3  -8   41.40    1.39
  -1  -3  -8   40.20    1.27
  -1  -3  -8   43.81    1.46
  -1  -3  -8   42.75    1.26
  -1  -3  -8   41.53    1.35
  -1  -3  -8   41.17    1.29
  -1  -3  -8   41.22    1.46
  -1  -3  -8   40.62    1.46
   1   3   8   42.31    1.22
   1   3   8   43.11    1.47
   1   3   8   39.72    1.22
   1   3   8   41.61    1.14
   1   3   8   41.09    1.26
   1   3   8   41.22    1.44
  -2  -3  -8   11.04    0.55
  -2  -3  -8   10.73    0.46
  -2  -3  -8   11.06    0.40
  -2  -3  -8   10.61    0.53
  -2  -3  -8   10.59    0.52
  -2  -3  -8   11.11    0.42
  -2  -3  -8   10.39    0.47
   2   3   8   10.50    0.52
   2   3   8   11.41    0.53
   2   3   8   10.63    0.42
   2   3   8   10.65    0.38
   2   3   8   10.61    0.38
   2   3   8   11.56    0.48
  -3  -3  -8    5.26    0.27
  -3  -3  -8    5.39    0.30
  -3  -3  -8    5.26    0.33
  -3  -3  -8    5.85    0.34
  -3  -3  -8    5.20    0.30
  -3  -3  -8    5.34    0.29
  -3  -3  -8    6.29    0.40
  -3  -3  -8    5.20    0.25
   3   3   8    5.54    0.34
   3   3   8    5.71    0.33
  -4  -3  -8    9.30    0.41
  -4  -3  -8    9.19    0.43
  -4  -3  -8    8.31    0.51
  -4  -3  -8    9.18    0.45
  -4  -3  -8    9.11    0.43
   4   3   8    8.93    0.31
   4   3   8    9.07    0.48
  -5  -3  -8    7.76    0.40
  -5  -3  -8    6.57    0.47
  -5  -3  -8    7.37    0.40
  -5  -3  -8    7.40    0.40
   5   3   8    7.65    0.40
   5   3   8    7.20    0.46
  -6  -3  -8   36.31    1.38
  -6  -3  -8   39.37    1.30
  -6  -3  -8   37.75    1.30
  -6  -3  -8   36.69    1.30
  -6  -3  -8   36.49    1.43
   6   3   8   35.80    1.39
  -7  -3  -8   64.33    2.10
  -7  -3  -8   65.00    2.25
  -7  -3  -8   66.87    2.10
  -7  -3  -8   63.50    2.11
  -7  -3  -8   62.08    2.23
   7   3   8   61.71    2.20
  -8  -3  -8    0.29    0.17
  -8  -3  -8    0.53    0.18
  -8  -3  -8    0.37    0.16
   8   3   8    0.31    0.20
  -9  -3  -8   11.55    0.70
  -9  -3  -8   10.41    0.76
   9   3   8    9.28    0.71
   6  -4  -8    1.19    0.20
  -6   4   8    1.27    0.24
   5  -4  -8   31.48    1.35
  -5   4   8   30.27    1.09
   4  -4  -8   24.90    1.10
   4  -4  -8   21.48    1.06
  -4   4   8   24.07    0.87
  -4   4   8   24.50    1.27
   3  -4  -8    1.91    0.38
   3  -4  -8    2.04    0.33
   3  -4  -8    2.01    0.32
  -3   4   8    2.15    0.31
  -3   4   8    2.12    0.22
  -3   4   8    2.20    0.37
   2  -4  -8    8.80    0.55
   2  -4  -8   10.95    0.70
   2  -4  -8    9.19    0.65
   2  -4  -8    9.00    0.56
   2  -4  -8    9.90    0.60
  -2   4   8    8.66    0.61
  -2   4   8    8.17    0.50
  -2   4   8    9.68    0.38
   1  -4  -8    2.60    0.35
   1  -4  -8    2.92    0.31
   1  -4  -8    2.67    0.32
   1  -4  -8    2.18    0.33
   1  -4  -8    2.92    0.38
   1  -4  -8    2.75    0.36
   1  -4  -8    2.96    0.33
  -1   4   8    2.78    0.29
  -1   4   8    2.91    0.27
  -1   4   8    2.77    0.36
  -1   4   8    2.52    0.28
   0  -4  -8    2.24    0.30
   0  -4  -8    2.10    0.29
   0  -4  -8    2.25    0.27
   0  -4  -8    2.21    0.30
   0  -4  -8    3.13    0.27
   0  -4  -8    2.77    0.30
   0  -4  -8    2.43    0.33
   0  -4  -8    2.53    0.27
   0  -4  -8    2.64    0.30
   0   4   8    2.06    0.23
   0   4   8    2.26    0.19
   0   4   8    2.29    0.31
   0   4   8    2.61    0.26
  -1  -4  -8   36.52    1.22
  -1  -4  -8   38.33    1.22
  -1  -4  -8   36.25    1.38
  -1  -4  -8   38.61    1.40
  -1  -4  -8   37.53    1.21
  -1  -4  -8   37.75    1.31
  -1  -4  -8   38.79    1.29
  -1  -4  -8   39.85    1.38
   1   4   8   36.77    1.13
   1   4   8   38.12    1.14
   1   4   8   39.54    1.39
  -2  -4  -8   49.35    1.66
  -2  -4  -8   51.56    1.51
  -2  -4  -8   51.11    1.48
  -2  -4  -8   52.36    1.70
  -2  -4  -8   49.18    1.70
  -2  -4  -8   53.68    1.73
  -2  -4  -8   52.11    1.52
  -2  -4  -8   49.19    1.59
   2   4   8   48.58    1.35
   2   4   8   50.40    1.35
   2   4   8   52.97    1.71
  -3  -4  -8    0.74    0.18
  -3  -4  -8    0.51    0.11
  -3  -4  -8    0.54    0.09
  -3  -4  -8    0.64    0.08
  -3  -4  -8    0.78    0.15
  -3  -4  -8    0.43    0.13
  -3  -4  -8    0.57    0.12
   3   4   8    0.57    0.15
  -4  -4  -8   24.86    0.88
  -4  -4  -8   24.47    0.85
  -4  -4  -8   24.58    0.82
  -4  -4  -8   24.72    1.01
  -4  -4  -8   24.30    0.84
   4   4   8   23.90    0.95
   4   4   8   27.57    0.90
  -5  -4  -8    7.81    0.37
  -5  -4  -8    7.72    0.38
  -5  -4  -8    8.01    0.39
  -5  -4  -8    7.19    0.50
   5   4   8    8.75    0.51
   5   4   8    7.58    0.37
  -6  -4  -8    6.23    0.32
  -6  -4  -8    5.78    0.37
  -6  -4  -8    5.57    0.34
  -6  -4  -8    5.90    0.48
  -6  -4  -8    6.11    0.35
   6   4   8    5.87    0.46
  -7  -4  -8   16.37    0.71
  -7  -4  -8   16.47    0.71
  -7  -4  -8   16.13    0.64
  -7  -4  -8   16.11    0.88
   7   4   8   15.92    0.85
  -8  -4  -8    1.49    0.25
  -8  -4  -8    1.22    0.23
  -8  -4  -8    1.08    0.30
  -8  -4  -8    0.68    0.18
   8   4   8    1.17    0.30
  -9  -4  -8    0.18    0.20
  -9  -4  -8    0.53    0.18
  -9  -4  -8    0.66    0.21
   9   4   8    0.61    0.25
   5  -5  -8    1.47    0.39
  -5   5   8    1.91    0.24
   4  -5  -8    4.76    0.55
   4  -5  -8    4.80    0.55
  -4   5   8    4.85    0.30
   3  -5  -8    3.59    0.46
   3  -5  -8    3.36    0.43
  -3   5   8    4.35    0.45
  -3   5   8    3.80    0.23
   2  -5  -8   -0.11    0.10
   2  -5  -8    0.21    0.16
   2  -5  -8    0.02    0.21
   2  -5  -8   -0.08    0.10
  -2   5   8    0.14    0.13
   1  -5  -8   63.59    2.33
   1  -5  -8   66.80    2.08
   1  -5  -8   64.86    2.06
   1  -5  -8   61.70    2.24
  -1   5   8   64.08    1.95
  -1   5   8   61.45    2.28
   0  -5  -8   49.51    1.56
   0  -5  -8   47.19    1.76
   0  -5  -8   38.00    1.70
   0  -5  -8   44.37    1.73
   0  -5  -8   45.41    1.55
   0  -5  -8   46.84    1.62
   0  -5  -8   49.15    1.53
   0   5   8   44.66    1.42
   0   5   8   48.78    1.45
   0   5   8   48.11    1.74
  -1  -5  -8   16.06    0.75
  -1  -5  -8   15.78    0.64
  -1  -5  -8   13.88    0.72
  -1  -5  -8   14.32    0.68
  -1  -5  -8   14.82    0.79
  -1  -5  -8   16.57    0.69
  -1  -5  -8   14.77    0.68
  -1  -5  -8   14.60    0.75
   1   5   8   13.65    0.71
   1   5   8   16.19    0.57
   1   5   8   15.25    0.56
  -2  -5  -8   66.16    2.16
  -2  -5  -8   67.08    2.03
  -2  -5  -8   64.27    2.04
  -2  -5  -8   60.45    2.11
  -2  -5  -8   63.72    1.88
  -2  -5  -8   66.10    2.12
  -2  -5  -8   63.20    1.90
   2   5   8   65.31    2.12
  -3  -5  -8   13.62    0.58
  -3  -5  -8   11.84    0.57
  -3  -5  -8   14.07    0.57
  -3  -5  -8   12.67    0.49
  -3  -5  -8   13.19    0.64
  -3  -5  -8   13.32    0.61
   3   5   8   13.71    0.58
  -4  -5  -8    0.38    0.10
  -4  -5  -8    0.19    0.09
  -4  -5  -8    0.39    0.10
  -4  -5  -8    0.27    0.14
   4   5   8    0.52    0.10
   4   5   8    0.49    0.17
  -5  -5  -8   24.70    0.82
  -5  -5  -8   22.49    1.00
  -5  -5  -8   23.89    0.82
   5   5   8   24.62    1.01
  -6  -5  -8   15.04    0.60
  -6  -5  -8   16.01    0.82
  -6  -5  -8   15.54    0.60
   6   5   8   15.70    0.80
  -7  -5  -8    2.62    0.23
  -7  -5  -8    2.26    0.38
  -7  -5  -8    2.56    0.23
   7   5   8    2.41    0.38
  -8  -5  -8    6.06    0.39
  -8  -5  -8    6.67    0.40
  -8  -5  -8    6.90    0.58
   8   5   8    6.17    0.55
  -9  -5  -8    0.47    0.16
  -9  -5  -8    0.21    0.14
  -9  -5  -8    0.46    0.24
   9   5   8    0.16    0.21
   4  -6  -8    0.70    0.26
   4  -6  -8    0.65    0.31
   3  -6  -8   14.94    0.87
   3  -6  -8   15.37    0.93
  -3   6   8   16.26    0.82
   2  -6  -8   13.97    0.79
   2  -6  -8   13.56    0.84
  -2   6   8   13.71    0.71
   1  -6  -8    7.34    0.53
   1  -6  -8    6.84    0.57
   1  -6  -8    6.10    0.45
  -1   6   8    6.79    0.43
   0  -6  -8   24.64    1.20
   0  -6  -8   28.82    1.11
   0  -6  -8   25.04    1.22
   0  -6  -8   29.75    1.08
   0  -6  -8   28.29    1.07
   0   6   8   28.07    0.97
   0   6   8   26.97    0.97
  -1  -6  -8    2.78    0.32
  -1  -6  -8    2.61    0.35
  -1  -6  -8    2.61    0.34
  -1  -6  -8    2.57    0.30
  -1  -6  -8    2.86    0.40
   1   6   8    2.44    0.20
   1   6   8    2.47    0.20
  -2  -6  -8    8.14    0.60
  -2  -6  -8    7.92    0.49
  -2  -6  -8    9.25    0.51
  -2  -6  -8    8.20    0.53
  -2  -6  -8    8.46    0.49
  -2  -6  -8    8.11    0.43
  -3  -6  -8    1.29    0.23
  -3  -6  -8    1.16    0.18
  -3  -6  -8    0.74    0.16
  -3  -6  -8    1.96    0.35
  -3  -6  -8    1.19    0.17
  -3  -6  -8    1.38    0.22
  -4  -6  -8    3.90    0.28
  -4  -6  -8    3.63    0.29
  -4  -6  -8    3.81    0.40
  -5  -6  -8   53.32    1.65
  -5  -6  -8   59.52    1.92
   5   6   8   53.49    1.92
  -6  -6  -8   49.75    1.80
  -6  -6  -8   49.52    1.51
  -6  -6  -8   50.14    1.50
   6   6   8   50.35    1.81
  -7  -6  -8    0.27    0.20
  -7  -6  -8    0.57    0.12
  -7  -6  -8    0.43    0.11
   7   6   8    0.52    0.22
  -8  -6  -8    0.05    0.10
  -8  -6  -8    0.24    0.20
  -8  -6  -8    0.13    0.10
   8   6   8    0.45    0.22
  -9  -6  -8    3.52    0.52
  -9  -6  -8    4.35    0.33
  -9  -6  -8    4.27    0.32
   9   6   8    4.10    0.55
   2  -7  -8   -0.19    0.16
  -2   7   8   -0.08    0.14
   1  -7  -8   -0.39    0.11
  -1   7   8   -0.06    0.12
   0  -7  -8    2.33    0.42
   0   7   8    2.22    0.26
   0   7   8    3.20    0.31
  -1  -7  -8   27.77    1.34
  -1  -7  -8   30.57    1.13
   1   7   8   28.63    0.89
   1   7   8   28.78    0.90
  -2  -7  -8    2.53    0.30
  -2  -7  -8    2.01    0.30
  -2  -7  -8    2.06    0.40
  -2  -7  -8    1.89    0.26
  -3  -7  -8    4.03    0.34
  -3  -7  -8    3.79    0.32
  -3  -7  -8    3.34    0.48
  -3  -7  -8    2.86    0.28
  -4  -7  -8    3.51    0.24
  -4  -7  -8    3.51    0.29
  -4  -7  -8    4.09    0.36
  -4  -7  -8    3.82    0.32
  -4  -7  -8    3.66    0.48
  -5  -7  -8    2.39    0.27
  -5  -7  -8    2.60    0.43
  -5  -7  -8    2.60    0.35
  -5  -7  -8    2.15    0.23
  -6  -7  -8   10.28    0.64
  -6  -7  -8    9.34    0.42
   6   7   8   10.10    0.67
  -7  -7  -8    0.62    0.11
  -7  -7  -8    1.02    0.27
   7   7   8    0.41    0.23
  -8  -7  -8   -0.03    0.17
  -8  -7  -8    0.09    0.08
  -8  -7  -8    0.10    0.08
   8   7   8   -0.03    0.17
  -9  -7  -8   21.85    0.81
  -9  -7  -8   21.98    1.16
   9   7   8   22.48    1.18
   1  -8  -8    4.08    0.57
  -1   8   8    5.07    0.39
   0  -8  -8    0.96    0.31
   0   8   8    0.67    0.16
   0   8   8    0.71    0.16
  -1  -8  -8   15.44    0.97
  -2  -8  -8    1.98    0.28
  -2  -8  -8    1.51    0.35
  -3  -8  -8    2.82    0.31
  -3  -8  -8    2.58    0.35
  -3  -8  -8    3.35    0.51
  -4  -8  -8    4.20    0.35
  -4  -8  -8    3.92    0.43
  -4  -8  -8    4.23    0.57
  -4  -8  -8    3.62    0.28
  -5  -8  -8   12.48    0.59
  -5  -8  -8   12.91    0.69
  -5  -8  -8   12.96    0.52
  -5  -8  -8   13.97    0.87
  -6  -8  -8    1.11    0.12
  -6  -8  -8    1.08    0.17
  -6  -8  -8    0.45    0.23
  -6  -8  -8    1.28    0.27
  -7  -8  -8   17.71    0.92
  -7  -8  -8   16.68    0.95
   7   8   8   16.31    0.96
  -8  -8  -8    1.06    0.28
  -8  -8  -8    0.98    0.28
   8   8   8    1.48    0.35
  -9  -8  -8    2.96    0.48
   9   8   8    3.24    0.53
  -1  -9  -8    0.72    0.29
  -2  -9  -8   12.07    0.89
  -3  -9  -8    8.66    0.53
  -3  -9  -8    7.72    0.70
  -4  -9  -8    1.00    0.23
  -4  -9  -8    1.60    0.39
  -4  -9  -8    1.14    0.21
  -5  -9  -8   16.27    0.68
  -5  -9  -8   16.19    0.75
  -5  -9  -8   17.53    1.04
  -6  -9  -8    5.74    0.69
  -6  -9  -8    4.59    0.33
  -6  -9  -8    4.27    0.29
  -7  -9  -8    4.10    0.54
  -7  -9  -8    3.53    0.25
   8   9   8   -0.04    0.22
  -4 -10  -8    0.98    0.27
  -4 -10  -8    1.20    0.36
  -5 -10  -8    1.38    0.39
  -5 -10  -8    1.24    0.26
  -6  -8   9    2.00    0.40
  -5  -8   9    0.87    0.29
  -4  -8   9    7.38    0.63
   3   8  -9    6.77    0.54
   3   8  -9    7.93    0.40
  -3  -8   9    8.62    0.65
  -3  -8   9    8.23    0.65
   2   8  -9    9.34    0.65
  -2  -8   9   10.86    0.76
  -2  -8   9    9.50    0.73
  -2  -8   9   11.62    0.62
   1   8  -9   -0.12    0.15
  -1  -8   9    0.15    0.19
  -1  -8   9    0.28    0.18
  -1  -8   9    0.11    0.20
  -8  -7   9   14.14    0.86
  -7  -7   9    4.47    0.55
  -6  -7   9    1.51    0.34
   5   7  -9   16.43    0.87
  -5  -7   9   16.26    0.92
   4   7  -9    0.63    0.22
   4   7  -9    0.22    0.09
  -4  -7   9    0.10    0.15
   3   7  -9   11.36    0.52
   3   7  -9    9.98    0.65
  -3  -7   9    9.68    0.68
  -3  -7   9    9.90    0.67
  -3  -7   9   10.91    0.56
   2   7  -9    1.75    0.31
  -2  -7   9    1.51    0.33
  -2  -7   9    1.94    0.37
  -2  -7   9    1.80    0.27
   1   7  -9    4.33    0.50
  -1  -7   9    5.85    0.42
  -1  -7   9    5.02    0.60
  -1  -7   9    5.31    0.59
   0   7  -9    3.14    0.43
   0  -7   9    2.91    0.47
   0  -7   9    2.95    0.36
   0  -7   9    2.83    0.43
   1  -7   9    2.06    0.43
   1  -7   9    2.08    0.38
  -8  -6   9   21.88    1.09
  -7  -6   9   27.47    1.24
   6   6  -9    0.45    0.13
  -6  -6   9    0.66    0.24
   5   6  -9    2.06    0.25
   5   6  -9    1.81    0.31
  -5  -6   9    2.27    0.37
   4   6  -9    0.36    0.17
   4   6  -9    0.61    0.17
   4   6  -9    0.32    0.12
  -4  -6   9    0.03    0.18
   3   6  -9    2.65    0.29
   3   6  -9    2.64    0.33
   3   6  -9    2.70    0.36
  -3  -6   9    2.94    0.39
  -3  -6   9    3.16    0.42
  -3  -6   9    3.11    0.31
   2   6  -9    4.36    0.46
  -2  -6   9    5.10    0.46
  -2  -6   9    6.46    0.52
  -2  -6   9    5.61    0.38
   1   6  -9    4.41    0.47
  -1  -6   9    5.05    0.52
  -1  -6   9    4.92    0.55
  -1  -6   9    4.25    0.35
   0  -6   9    1.15    0.22
   0  -6   9    0.86    0.25
   0  -6   9    0.83    0.28
   1  -6   9    7.69    0.56
   1  -6   9    6.57    0.45
   1  -6   9    7.01    0.62
  -2   6  -9    0.79    0.14
   2  -6   9    0.60    0.27
   2  -6   9    0.71    0.25
  -3   6  -9    1.76    0.22
   3  -6   9    1.11    0.28
  -8  -5   9    0.97    0.30
   7   5  -9    2.27    0.25
  -7  -5   9    2.87    0.42
   6   5  -9    1.08    0.19
   6   5  -9    1.01    0.22
  -6  -5   9    1.23    0.28
   5   5  -9    0.10    0.12
   5   5  -9    0.10    0.11
  -5  -5   9    0.13    0.13
  -5  -5   9   -0.12    0.15
   4   5  -9   43.89    1.45
   4   5  -9   45.88    1.37
   4   5  -9   43.19    1.61
  -4  -5   9   44.63    1.39
  -4  -5   9   41.82    1.69
  -4  -5   9   41.16    1.58
  -4  -5   9   43.34    1.61
  -4  -5   9   47.96    1.63
   3   5  -9   70.54    2.20
   3   5  -9   73.62    2.45
   3   5  -9   76.88    2.13
   3   5  -9   69.99    2.33
  -3  -5   9   71.59    2.09
  -3  -5   9   68.99    2.49
  -3  -5   9   72.15    2.34
  -3  -5   9   71.97    2.32
   2   5  -9    0.40    0.17
   2   5  -9    0.27    0.15
   2   5  -9    0.24    0.10
  -2  -5   9    0.12    0.14
  -2  -5   9    0.20    0.15
  -2  -5   9    0.42    0.17
  -2  -5   9    0.44    0.13
  -2  -5   9    0.35    0.18
   1   5  -9    0.57    0.18
   1   5  -9    0.45    0.17
   1   5  -9    0.24    0.14
  -1  -5   9    0.11    0.15
  -1  -5   9    0.73    0.23
  -1  -5   9    0.46    0.14
  -1  -5   9    0.70    0.20
  -1  -5   9    0.51    0.21
   0   5  -9    3.70    0.21
   0   5  -9    3.32    0.43
   0  -5   9    4.05    0.49
   0  -5   9    4.03    0.44
   0  -5   9    2.56    0.37
   0  -5   9    3.81    0.48
   0  -5   9    3.57    0.30
  -1   5  -9    1.79    0.20
  -1   5  -9    2.04    0.35
   1  -5   9    1.64    0.30
   1  -5   9    1.96    0.36
   1  -5   9    1.36    0.28
   1  -5   9    1.99    0.38
   1  -5   9    2.00    0.26
  -2   5  -9    8.13    0.42
  -2   5  -9    6.76    0.62
   2  -5   9    8.35    0.55
   2  -5   9    7.33    0.63
  -3   5  -9    0.97    0.20
   3  -5   9    0.70    0.23
  -4   5  -9    9.08    0.52
  -9  -4   9    4.47    0.54
   8   4  -9    0.28    0.13
  -8  -4   9    0.34    0.21
   7   4  -9    8.37    0.47
  -7  -4   9    8.59    0.61
   6   4  -9   14.71    0.70
   6   4  -9   14.69    0.66
  -6  -4   9   14.62    0.79
   5   4  -9    0.01    0.11
   5   4  -9   -0.04    0.10
  -5  -4   9   -0.03    0.13
  -5  -4   9    0.17    0.14
  -5  -4   9    0.06    0.16
  -5  -4   9    0.12    0.10
  -5  -4   9    0.03    0.14
   4   4  -9    2.39    0.33
   4   4  -9    3.00    0.25
   4   4  -9    2.48    0.29
   4   4  -9    2.56    0.32
  -4  -4   9    2.94    0.38
  -4  -4   9    2.21    0.32
  -4  -4   9    1.92    0.30
  -4  -4   9    2.76    0.34
  -4  -4   9    2.88    0.27
   3   4  -9   20.30    0.89
   3   4  -9   18.22    0.92
   3   4  -9   20.33    0.83
   3   4  -9   20.02    0.76
   3   4  -9   18.70    0.80
   3   4  -9   20.26    0.90
  -3  -4   9   20.20    0.87
  -3  -4   9   20.05    0.73
  -3  -4   9   19.33    0.88
  -3  -4   9   19.34    0.93
  -3  -4   9   18.38    0.85
  -3  -4   9   19.61    0.88
   2   4  -9    4.23    0.31
   2   4  -9    3.73    0.42
   2   4  -9    4.47    0.32
   2   4  -9    4.32    0.35
   2   4  -9    4.20    0.37
   2   4  -9    3.78    0.40
  -2  -4   9    4.19    0.36
  -2  -4   9    3.72    0.40
  -2  -4   9    4.27    0.39
  -2  -4   9    4.22    0.39
  -2  -4   9    3.41    0.39
  -2  -4   9    3.95    0.29
   1   4  -9   16.05    0.82
   1   4  -9   15.73    0.51
   1   4  -9   15.80    0.82
   1   4  -9   15.14    0.75
   1   4  -9   15.14    0.73
   1   4  -9   15.17    0.63
  -1  -4   9   15.69    0.76
  -1  -4   9   16.65    0.85
  -1  -4   9   15.52    0.83
  -1  -4   9   14.95    0.73
  -1  -4   9   16.15    0.64
   0   4  -9   59.00    1.98
   0   4  -9   62.91    1.74
   0   4  -9   65.56    1.88
   0   4  -9   60.24    2.23
   0  -4   9   66.63    2.30
   0  -4   9   60.28    1.83
   0  -4   9   62.70    1.99
   0  -4   9   61.42    2.00
   0  -4   9   60.23    2.25
  -1   4  -9   56.19    1.66
  -1   4  -9   58.23    1.74
  -1   4  -9   55.70    2.12
  -1   4  -9   55.03    1.90
   1  -4   9   56.34    2.14
   1  -4   9   56.08    1.71
   1  -4   9   57.65    1.86
   1  -4   9   56.97    2.07
   1  -4   9   57.55    1.85
  -2   4  -9    2.24    0.36
  -2   4  -9    2.30    0.26
   2  -4   9    2.01    0.37
   2  -4   9    2.85    0.35
  -3   4  -9    7.42    0.44
  -3   4  -9    7.36    0.64
   3  -4   9    7.03    0.64
   3  -4   9    7.26    0.47
  -4   4  -9    3.65    0.37
  -5   4  -9    1.09    0.23
   5  -4   9    1.00    0.24
   8   3  -9    8.72    0.51
   8   3  -9    8.37    0.41
   8   3  -9    8.53    0.65
  -8  -3   9    9.67    0.65
   7   3  -9    1.25    0.22
   7   3  -9    1.09    0.18
   7   3  -9    1.31    0.30
  -7  -3   9    0.89    0.27
   6   3  -9    0.09    0.12
   6   3  -9   -0.02    0.13
   6   3  -9    0.01    0.10
  -6  -3   9   -0.10    0.09
  -6  -3   9    0.10    0.16
   5   3  -9   28.96    1.02
   5   3  -9   28.13    0.87
   5   3  -9   29.82    1.06
   5   3  -9   29.00    1.08
  -5  -3   9   29.30    1.18
  -5  -3   9   27.79    1.25
  -5  -3   9   30.66    1.02
  -5  -3   9   30.51    1.21
  -5  -3   9   30.09    1.19
   4   3  -9   11.99    0.55
   4   3  -9   11.99    0.68
   4   3  -9   12.26    0.54
   4   3  -9   11.92    0.59
   4   3  -9   12.31    0.66
   4   3  -9   12.07    0.56
   4   3  -9   11.42    0.65
   4   3  -9   12.62    0.50
  -4  -3   9   11.86    0.64
  -4  -3   9   13.45    0.66
  -4  -3   9   11.77    0.65
  -4  -3   9   13.22    0.54
  -4  -3   9   12.08    0.69
   3   3  -9    5.56    0.39
   3   3  -9    6.29    0.46
   3   3  -9    4.66    0.39
   3   3  -9    5.63    0.37
   3   3  -9    5.27    0.34
   3   3  -9    5.63    0.38
   3   3  -9    6.14    0.41
   3   3  -9    5.34    0.32
   3   3  -9    5.63    0.41
  -3  -3   9    5.70    0.43
  -3  -3   9    5.72    0.44
  -3  -3   9    5.81    0.41
  -3  -3   9    5.04    0.31
  -3  -3   9    5.09    0.42
  -3  -3   9    6.29    0.42
   2   3  -9   37.93    1.36
   2   3  -9   38.72    1.31
   2   3  -9   39.84    1.32
   2   3  -9   38.69    1.05
   2   3  -9   39.10    1.46
   2   3  -9   38.07    1.47
   2   3  -9   37.60    1.24
   2   3  -9   37.63    1.27
   2   3  -9   35.81    1.21
  -2  -3   9   39.61    1.49
  -2  -3   9   37.30    1.33
  -2  -3   9   37.23    1.46
  -2  -3   9   35.85    1.18
  -2  -3   9   38.70    1.33
  -2  -3   9   40.09    1.37
   1   3  -9    1.56    0.24
   1   3  -9    1.51    0.21
   1   3  -9    1.36    0.16
   1   3  -9    1.39    0.24
   1   3  -9    1.94    0.24
   1   3  -9    1.84    0.28
   1   3  -9    1.95    0.29
  -1  -3   9    1.66    0.28
  -1  -3   9    1.59    0.20
  -1  -3   9    1.72    0.24
  -1  -3   9    1.83    0.29
  -1  -3   9    2.01    0.28
  -1  -3   9    1.70    0.25
   0   3  -9   35.84    1.07
   0   3  -9   34.45    1.39
   0   3  -9   35.09    1.27
   0   3  -9   32.06    1.22
   0   3  -9   35.26    1.16
   0   3  -9   33.27    1.37
   0  -3   9   33.66    1.09
   0  -3   9   36.57    1.41
   0  -3   9   34.62    1.22
   0  -3   9   33.52    1.21
   0  -3   9   32.65    1.37
   0  -3   9   34.55    1.20
  -1   3  -9   16.81    0.78
  -1   3  -9   19.30    0.71
  -1   3  -9   16.79    0.86
  -1   3  -9   16.75    0.64
   1  -3   9   16.09    0.86
   1  -3   9   15.90    0.75
   1  -3   9   17.59    0.74
   1  -3   9   15.71    0.64
   1  -3   9   17.09    0.73
  -2   3  -9   32.00    1.26
  -2   3  -9   32.77    1.09
  -2   3  -9   32.15    1.39
  -2   3  -9   34.87    1.15
   2  -3   9   33.26    1.42
   2  -3   9   32.94    1.18
   2  -3   9   32.11    1.16
   2  -3   9   31.76    1.21
  -3   3  -9   18.88    1.01
  -3   3  -9   19.07    0.78
  -3   3  -9   19.52    0.79
   3  -3   9   17.34    0.99
   3  -3   9   18.54    0.79
   3  -3   9   20.31    0.83
   3  -3   9   19.80    0.88
  -4   3  -9    8.64    0.52
   4  -3   9    9.89    0.55
   4  -3   9   10.21    0.61
  -5   3  -9    1.12    0.24
   5  -3   9    0.48    0.20
   5  -3   9    1.23    0.24
  -6   3  -9    1.88    0.31
   6  -3   9    1.64    0.26
   6  -3   9    2.14    0.44
   6  -3   9    2.13    0.34
   8   2  -9    1.62    0.24
   8   2  -9    2.26    0.39
   8   2  -9    1.66    0.27
  -8  -2   9    1.86    0.29
  -8  -2   9    2.17    0.36
   7   2  -9    5.60    0.43
   7   2  -9    6.29    0.40
   7   2  -9    6.42    0.53
  -7  -2   9    6.39    0.43
  -7  -2   9    6.56    0.53
   6   2  -9    0.35    0.15
   6   2  -9    0.58    0.12
   6   2  -9    0.47    0.17
   6   2  -9    0.49    0.20
  -6  -2   9    0.45    0.14
  -6  -2   9    0.85    0.24
   5   2  -9   40.58    1.46
   5   2  -9   39.89    1.34
   5   2  -9   40.64    1.33
   5   2  -9   39.54    1.22
   5   2  -9   40.58    1.38
  -5  -2   9   39.11    1.59
  -5  -2   9   38.12    1.47
  -5  -2   9   40.30    1.47
  -5  -2   9   40.94    1.30
   4   2  -9   52.19    1.66
   4   2  -9   53.45    1.77
   4   2  -9   56.59    1.68
   4   2  -9   51.50    1.59
   4   2  -9   52.75    1.95
   4   2  -9   51.19    1.70
   4   2  -9   55.16    1.66
   4   2  -9   55.35    1.87
   4   2  -9   52.99    1.89
  -4  -2   9   55.45    1.84
  -4  -2   9   52.02    1.78
  -4  -2   9   52.97    1.78
  -4  -2   9   58.79    1.98
  -4  -2   9   54.59    1.61
  -4  -2   9   54.12    1.97
   3   2  -9    1.75    0.24
   3   2  -9    1.61    0.27
   3   2  -9    2.11    0.25
   3   2  -9    1.58    0.26
   3   2  -9    1.60    0.20
   3   2  -9    1.97    0.16
   3   2  -9    1.84    0.26
   3   2  -9    1.74    0.12
   3   2  -9    1.88    0.26
   3   2  -9    1.87    0.25
  -3  -2   9    1.57    0.26
  -3  -2   9    2.12    0.30
  -3  -2   9    1.87    0.21
  -3  -2   9    1.89    0.26
  -3  -2   9    1.57    0.25
  -3  -2   9    1.73    0.25
   2   2  -9    0.58    0.15
   2   2  -9    0.51    0.13
   2   2  -9    0.38    0.15
   2   2  -9    0.47    0.14
   2   2  -9    0.33    0.13
   2   2  -9    0.36    0.12
   2   2  -9    0.44    0.12
   2   2  -9    0.59    0.11
   2   2  -9    0.30    0.14
  -2  -2   9    0.58    0.13
  -2  -2   9    0.67    0.17
  -2  -2   9    0.55    0.14
  -2  -2   9    0.40    0.14
  -2  -2   9    0.65    0.15
  -2  -2   9    0.29    0.14
  -2  -2   9    0.76    0.18
   1   2  -9    0.12    0.10
   1   2  -9    0.19    0.12
   1   2  -9    0.25    0.12
   1   2  -9    0.09    0.10
   1   2  -9    0.21    0.09
   1   2  -9    0.26    0.11
   1   2  -9    0.24    0.12
   1   2  -9   -0.01    0.06
   1   2  -9    0.08    0.13
  -1  -2   9    0.37    0.11
  -1  -2   9    0.01    0.07
  -1  -2   9    0.13    0.11
  -1  -2   9    0.06    0.10
  -1  -2   9    0.18    0.09
  -1  -2   9    0.22    0.11
  -1  -2   9    0.26    0.10
   0   2  -9    3.78    0.31
   0   2  -9    3.22    0.23
   0   2  -9    3.81    0.29
   0   2  -9    3.63    0.28
   0   2  -9    3.38    0.33
   0   2  -9    3.09    0.25
   0   2  -9    3.10    0.36
   0   2  -9    2.83    0.32
   0   2  -9    3.34    0.37
   0  -2   9    4.18    0.29
   0  -2   9    3.52    0.24
   0  -2   9    3.11    0.36
   0  -2   9    3.60    0.30
   0  -2   9    3.89    0.30
   0  -2   9    3.93    0.41
   0  -2   9    3.38    0.29
   0  -2   9    3.57    0.27
  -1   2  -9    6.76    0.41
  -1   2  -9    6.37    0.47
  -1   2  -9    6.74    0.43
  -1   2  -9    7.12    0.40
  -1   2  -9    7.21    0.36
  -1   2  -9    6.37    0.47
   1  -2   9    7.23    0.41
   1  -2   9    6.85    0.49
   1  -2   9    6.87    0.34
   1  -2   9    6.24    0.37
   1  -2   9    6.15    0.46
   1  -2   9    6.27    0.40
  -2   2  -9   10.91    0.53
  -2   2  -9    9.61    0.62
  -2   2  -9   10.32    0.58
  -2   2  -9   10.73    0.55
  -2   2  -9   10.73    0.49
  -2   2  -9    9.83    0.65
   2  -2   9   11.03    0.66
   2  -2   9   11.10    0.51
   2  -2   9   10.30    0.55
   2  -2   9   10.83    0.51
  -3   2  -9    8.01    0.57
  -3   2  -9    7.81    0.52
  -3   2  -9    7.48    0.43
  -3   2  -9    7.90    0.46
   3  -2   9    7.15    0.55
   3  -2   9    7.97    0.44
   3  -2   9    7.41    0.47
   3  -2   9    7.65    0.42
  -4   2  -9   34.15    1.22
  -4   2  -9   32.41    1.41
  -4   2  -9   33.73    1.14
   4  -2   9   33.60    1.20
   4  -2   9   26.72    1.03
   4  -2   9   33.52    1.12
   4  -2   9   27.96    1.35
  -5   2  -9    0.37    0.16
  -5   2  -9    0.17    0.15
   5  -2   9    0.34    0.17
   5  -2   9    0.19    0.20
   5  -2   9    0.73    0.18
  -6   2  -9   -0.04    0.14
  -6   2  -9    0.37    0.18
   6  -2   9    0.25    0.23
   6  -2   9    0.09    0.13
   6  -2   9    0.33    0.13
   6  -2   9    0.35    0.17
  -7   2  -9    0.40    0.20
   7  -2   9    0.49    0.13
   7  -2   9    0.11    0.24
   7  -2   9    0.55    0.21
   7  -2   9    0.48    0.14
   8   1  -9    1.00    0.26
   8   1  -9    1.39    0.34
   8   1  -9    1.30    0.24
  -8  -1   9    1.16    0.25
   7   1  -9   12.74    0.70
   7   1  -9   13.64    0.81
   7   1  -9   14.28    0.68
   7   1  -9   13.92    0.54
  -7  -1   9   13.88    0.68
  -7  -1   9   14.61    0.81
   6   1  -9   13.91    0.70
   6   1  -9   13.46    0.66
   6   1  -9   13.84    0.58
   6   1  -9   13.83    0.77
  -6  -1   9   15.29    0.67
  -6  -1   9   14.02    0.78
   5   1  -9   10.30    0.54
   5   1  -9    9.31    0.58
   5   1  -9   11.42    0.52
   5   1  -9    9.36    0.55
   5   1  -9   10.41    0.66
   5   1  -9   10.25    0.49
  -5  -1   9   10.36    0.52
  -5  -1   9   10.48    0.62
  -5  -1   9   10.17    0.67
  -5  -1   9   10.31    0.64
   4   1  -9    3.09    0.29
   4   1  -9    3.37    0.33
   4   1  -9    2.87    0.38
   4   1  -9    3.71    0.40
   4   1  -9    2.60    0.31
   4   1  -9    3.37    0.37
   4   1  -9    3.53    0.24
   4   1  -9    3.45    0.41
   4   1  -9    3.28    0.17
  -4  -1   9    2.79    0.35
  -4  -1   9    3.34    0.40
  -4  -1   9    3.64    0.42
  -4  -1   9    3.33    0.27
  -4  -1   9    3.41    0.39
   3   1  -9   15.24    0.74
   3   1  -9   14.76    0.77
   3   1  -9   15.39    0.53
   3   1  -9   14.68    0.71
   3   1  -9   14.30    0.64
   3   1  -9   15.15    0.53
   3   1  -9   14.37    0.72
   3   1  -9   15.10    0.61
   3   1  -9   14.23    0.61
   3   1  -9   15.44    0.66
   3   1  -9   13.61    0.65
  -3  -1   9   15.50    0.78
  -3  -1   9   16.32    0.66
  -3  -1   9   15.06    0.70
  -3  -1   9   15.92    0.60
  -3  -1   9   15.44    0.66
  -3  -1   9   14.57    0.77
  -3  -1   9   15.21    0.70
  -3  -1   9   14.90    0.70
   2   1  -9    4.44    0.34
   2   1  -9    4.64    0.38
   2   1  -9    4.55    0.28
   2   1  -9    4.67    0.33
   2   1  -9    4.98    0.27
   2   1  -9    4.71    0.36
   2   1  -9    5.14    0.40
   2   1  -9    4.47    0.30
   2   1  -9    4.11    0.31
   2   1  -9    4.49    0.33
   2   1  -9    5.58    0.38
   2   1  -9    4.00    0.29
  -2  -1   9    4.46    0.29
  -2  -1   9    4.74    0.34
  -2  -1   9    4.52    0.28
  -2  -1   9    4.99    0.35
  -2  -1   9    4.70    0.36
  -2  -1   9    4.84    0.32
  -2  -1   9    4.57    0.38
  -2  -1   9    5.40    0.40
   1   1  -9   77.80    2.57
   1   1  -9   79.77    2.38
   1   1  -9   79.71    2.23
   1   1  -9   74.72    2.13
   1   1  -9   79.53    2.26
   1   1  -9   80.59    2.26
   1   1  -9   79.30    2.58
   1   1  -9   76.72    2.29
   1   1  -9   76.42    2.35
   1   1  -9   77.19    2.26
   1   1  -9   75.18    2.38
  -1  -1   9   78.53    2.39
  -1  -1   9   78.70    2.40
  -1  -1   9   77.00    2.25
  -1  -1   9   76.99    2.28
  -1  -1   9   77.65    2.26
  -1  -1   9   80.34    2.57
  -1  -1   9   80.69    2.58
  -1  -1   9   76.17    2.14
   0   1  -9   37.85    1.25
   0   1  -9   38.44    1.29
   0   1  -9   37.51    1.20
   0   1  -9   37.48    1.26
   0   1  -9   38.32    1.22
   0   1  -9   38.89    1.24
   0   1  -9   37.55    1.30
   0   1  -9   36.92    1.14
   0   1  -9   37.81    1.29
   0   1  -9   37.95    1.43
   0   1  -9   37.92    1.42
   0   1  -9   38.61    1.23
   0  -1   9   35.58    1.12
   0  -1   9   39.27    1.24
   0  -1   9   38.63    1.30
   0  -1   9   37.54    1.23
   0  -1   9   37.94    1.20
   0  -1   9   36.99    1.30
   0  -1   9   38.52    1.42
   0  -1   9   38.18    1.11
   0  -1   9   38.62    1.43
  -1   1  -9    2.43    0.28
  -1   1  -9    2.51    0.27
  -1   1  -9    2.63    0.32
  -1   1  -9    2.46    0.28
  -1   1  -9    2.71    0.29
  -1   1  -9    2.28    0.30
  -1   1  -9    2.43    0.29
  -1   1  -9    3.03    0.23
   1  -1   9    2.28    0.25
   1  -1   9    2.63    0.33
   1  -1   9    2.63    0.16
   1  -1   9    1.95    0.28
   1  -1   9    2.42    0.25
   1  -1   9    2.37    0.18
   1  -1   9    2.49    0.28
   1  -1   9    2.74    0.21
  -2   1  -9    9.70    0.49
  -2   1  -9    8.67    0.54
  -2   1  -9    8.66    0.42
  -2   1  -9    7.81    0.47
  -2   1  -9    9.64    0.58
  -2   1  -9    9.03    0.49
  -2   1  -9    8.56    0.46
  -2   1  -9    7.82    0.48
   2  -1   9    8.95    0.43
   2  -1   9    9.54    0.43
   2  -1   9    9.12    0.47
   2  -1   9    7.93    0.53
   2  -1   9    8.34    0.40
   2  -1   9    8.45    0.45
  -3   1  -9    2.30    0.32
  -3   1  -9    2.93    0.28
  -3   1  -9    2.35    0.33
  -3   1  -9    2.03    0.28
  -3   1  -9    2.79    0.32
  -3   1  -9    2.65    0.33
   3  -1   9    2.76    0.26
   3  -1   9    2.33    0.25
   3  -1   9    2.51    0.24
   3  -1   9    2.31    0.27
   3  -1   9    2.71    0.21
   3  -1   9    2.40    0.33
  -4   1  -9    4.73    0.44
  -4   1  -9    5.76    0.44
  -4   1  -9    5.55    0.36
  -4   1  -9    5.43    0.41
   4  -1   9    5.24    0.41
   4  -1   9    4.95    0.29
   4  -1   9    5.02    0.33
   4  -1   9    4.93    0.36
   4  -1   9    4.59    0.31
   4  -1   9    4.94    0.45
  -5   1  -9    1.71    0.29
  -5   1  -9    1.61    0.25
   5  -1   9    1.60    0.21
   5  -1   9    1.58    0.30
   5  -1   9    1.62    0.25
   5  -1   9    1.70    0.21
  -6   1  -9    1.13    0.23
  -6   1  -9    0.97    0.25
   6  -1   9    0.51    0.18
   6  -1   9    1.17    0.31
   6  -1   9    1.11    0.16
   6  -1   9    0.99    0.15
  -7   1  -9    4.00    0.43
  -7   1  -9    4.42    0.52
   7  -1   9    5.22    0.40
   7  -1   9    4.63    0.56
   8   0  -9   -0.03    0.14
   8   0  -9    0.18    0.23
   8   0  -9    0.04    0.10
  -8   0   9    0.06    0.17
   7   0  -9    1.04    0.27
   7   0  -9    1.06    0.20
   7   0  -9    0.52    0.19
   7   0  -9    0.42    0.18
  -7   0   9    0.87    0.22
   6   0  -9    3.87    0.42
   6   0  -9    3.31    0.44
   6   0  -9    4.22    0.42
   6   0  -9    4.29    0.33
  -6   0   9    4.10    0.34
  -6   0   9    4.81    0.52
   5   0  -9    0.41    0.16
   5   0  -9    0.35    0.13
   5   0  -9    0.45    0.18
   5   0  -9    0.51    0.16
   5   0  -9    0.27    0.16
   5   0  -9    0.40    0.09
   5   0  -9    0.50    0.20
  -5   0   9    0.31    0.18
  -5   0   9    0.54    0.15
  -5   0   9    0.43    0.20
   4   0  -9   53.76    1.64
   4   0  -9   54.45    1.95
   4   0  -9   50.97    1.86
   4   0  -9   51.85    1.98
   4   0  -9   53.26    1.73
   4   0  -9   53.10    1.50
   4   0  -9   50.51    1.62
   4   0  -9   53.24    1.76
   4   0  -9   54.10    1.70
   4   0  -9   53.30    1.64
  -4   0   9   53.24    1.78
  -4   0   9   50.94    1.77
  -4   0   9   51.18    1.96
  -4   0   9   55.62    1.99
  -4   0   9   54.55    1.62
   3   0  -9   85.23    2.51
   3   0  -9   85.48    2.56
   3   0  -9   89.91    2.88
   3   0  -9   88.27    2.47
   3   0  -9   87.39    2.36
   3   0  -9   86.18    2.90
   3   0  -9   82.62    2.53
   3   0  -9   84.22    2.70
   3   0  -9   88.65    2.46
  -3   0   9   92.16    2.90
  -3   0   9   85.21    2.40
  -3   0   9   87.11    2.90
  -3   0   9   86.42    2.53
  -3   0   9   83.35    2.58
  -3   0   9   88.25    2.71
  -3   0   9   85.24    2.58
   2   0  -9    7.57    0.42
   2   0  -9    7.17    0.49
   2   0  -9    6.76    0.40
   2   0  -9    6.38    0.36
   2   0  -9    6.83    0.38
   2   0  -9    6.75    0.34
   2   0  -9    6.77    0.45
   2   0  -9    6.41    0.41
   2   0  -9    7.11    0.42
   2   0  -9    6.80    0.36
   2   0  -9    7.67    0.49
   2   0  -9    7.20    0.45
  -2   0   9    7.08    0.38
  -2   0   9    6.57    0.47
  -2   0   9    7.38    0.42
  -2   0   9    6.63    0.42
  -2   0   9    7.04    0.42
  -2   0   9    6.96    0.47
  -2   0   9    7.18    0.40
  -2   0   9    6.32    0.33
   1   0  -9    2.35    0.25
   1   0  -9    2.75    0.19
   1   0  -9    2.80    0.32
   1   0  -9    2.58    0.22
   1   0  -9    2.38    0.27
   1   0  -9    2.32    0.25
   1   0  -9    2.54    0.27
   1   0  -9    2.21    0.24
   1   0  -9    2.39    0.28
   1   0  -9    2.64    0.24
   1   0  -9    2.26    0.22
   1   0  -9    2.32    0.26
   1   0  -9    2.39    0.30
  -1   0   9    2.28    0.25
  -1   0   9    2.45    0.19
  -1   0   9    2.45    0.28
  -1   0   9    2.78    0.32
  -1   0   9    2.45    0.27
  -1   0   9    2.59    0.26
  -1   0   9    2.48    0.31
   0   0  -9   12.57    0.59
   0   0  -9   11.50    0.48
   0   0  -9   12.55    0.52
   0   0  -9   13.06    0.56
   0   0  -9   12.03    0.63
   0   0  -9   13.66    0.55
   0   0  -9   12.52    0.56
   0   0  -9   12.43    0.64
   0   0  -9   11.99    0.56
   0   0  -9   13.42    0.55
   0   0   9   12.68    0.46
   0   0   9   13.23    0.55
   0   0   9   12.96    0.64
   0   0   9   12.22    0.55
   0   0   9   12.63    0.63
   0   0   9   12.09    0.56
   0   0   9   12.20    0.51
   0   0   9   11.55    0.50
  -1   0  -9    0.08    0.08
  -1   0  -9   -0.04    0.08
  -1   0  -9    0.14    0.11
  -1   0  -9    0.14    0.09
  -1   0  -9    0.15    0.10
  -1   0  -9    0.10    0.08
  -1   0  -9    0.04    0.09
  -1   0  -9    0.08    0.10
  -1   0  -9    0.03    0.08
   1   0   9    0.08    0.05
   1   0   9    0.12    0.11
   1   0   9    0.08    0.06
   1   0   9   -0.05    0.08
   1   0   9    0.10    0.09
   1   0   9    0.08    0.06
   1   0   9    0.06    0.07
   1   0   9    0.15    0.08
   1   0   9    0.07    0.09
  -2   0  -9    1.39    0.22
  -2   0  -9    1.75    0.25
  -2   0  -9    1.33    0.21
  -2   0  -9    1.69    0.19
  -2   0  -9    1.83    0.24
  -2   0  -9    1.66    0.23
  -2   0  -9    1.46    0.21
  -2   0  -9    1.45    0.20
   2   0   9    1.67    0.14
   2   0   9    1.95    0.22
   2   0   9    1.68    0.18
   2   0   9    1.33    0.24
   2   0   9    1.70    0.18
   2   0   9    1.66    0.18
   2   0   9    1.63    0.25
   2   0   9    1.78    0.21
  -3   0  -9   13.93    0.57
  -3   0  -9   13.96    0.72
  -3   0  -9   14.24    0.75
  -3   0  -9   15.52    0.70
  -3   0  -9   14.52    0.68
  -3   0  -9   15.57    0.69
  -3   0  -9   14.64    0.67
   3   0   9   14.64    0.48
   3   0   9   14.82    0.51
   3   0   9   15.44    0.56
   3   0   9   14.78    0.54
   3   0   9   14.98    0.63
   3   0   9   14.64    0.55
   3   0   9   14.83    0.61
   3   0   9   15.26    0.61
   3   0   9   14.84    0.74
  -4   0  -9    1.15    0.22
  -4   0  -9    0.98    0.23
  -4   0  -9    0.61    0.18
  -4   0  -9    1.10    0.22
  -4   0  -9    1.21    0.22
  -4   0  -9    1.12    0.18
  -4   0  -9    0.95    0.21
   4   0   9    1.06    0.14
   4   0   9    1.05    0.14
   4   0   9    0.89    0.12
   4   0   9    1.15    0.18
   4   0   9    0.90    0.13
   4   0   9    0.85    0.21
   4   0   9    1.13    0.13
   4   0   9    1.03    0.21
   4   0   9    0.63    0.16
  -5   0  -9    1.78    0.32
  -5   0  -9    2.39    0.33
  -5   0  -9    2.49    0.34
  -5   0  -9    2.02    0.25
  -5   0  -9    2.51    0.35
   5   0   9    2.39    0.26
   5   0   9    2.52    0.17
   5   0   9    2.30    0.17
   5   0   9    2.10    0.25
   5   0   9    2.28    0.33
  -6   0  -9    0.00    0.11
  -6   0  -9   -0.01    0.11
   6   0   9   -0.03    0.09
   6   0   9   -0.06    0.14
   6   0   9   -0.06    0.10
  -7   0  -9    4.85    0.39
  -7   0  -9    4.86    0.54
   7   0   9    4.73    0.32
   7   0   9    4.45    0.32
   7   0   9    4.89    0.56
  -8   0  -9    2.29    0.42
   8   0   9    2.53    0.26
   8   0   9    3.38    0.50
   8   0   9    2.32    0.24
   7  -1  -9    6.96    0.45
   7  -1  -9    6.27    0.53
   7  -1  -9    5.31    0.60
   7  -1  -9    6.77    0.50
  -7   1   9    6.39    0.47
   6  -1  -9    0.71    0.21
   6  -1  -9    0.59    0.21
   6  -1  -9    0.72    0.20
   6  -1  -9    1.07    0.28
  -6   1   9    0.43    0.16
   5  -1  -9   10.36    0.71
   5  -1  -9    8.55    0.57
   5  -1  -9    9.43    0.52
   5  -1  -9   10.11    0.58
   5  -1  -9   10.27    0.42
   5  -1  -9    9.88    0.62
  -5   1   9    9.46    0.51
  -5   1   9    9.24    0.70
   4  -1  -9    0.64    0.14
   4  -1  -9    0.61    0.21
   4  -1  -9    0.73    0.20
   4  -1  -9    0.47    0.13
   4  -1  -9    0.82    0.15
   4  -1  -9    0.52    0.17
   4  -1  -9    0.81    0.23
   4  -1  -9    0.49    0.16
   4  -1  -9    0.35    0.12
  -4   1   9    0.74    0.16
  -4   1   9    0.23    0.17
  -4   1   9    0.79    0.23
   3  -1  -9   22.37    0.83
   3  -1  -9   22.56    1.03
   3  -1  -9   22.52    1.05
   3  -1  -9   21.79    0.87
   3  -1  -9   22.86    0.85
   3  -1  -9   22.27    0.88
   3  -1  -9   23.74    0.78
   3  -1  -9   20.05    0.94
   3  -1  -9   21.84    0.77
   3  -1  -9   21.16    0.89
  -3   1   9   22.31    1.03
  -3   1   9   21.04    0.77
  -3   1   9   20.66    0.91
  -3   1   9   21.71    0.87
  -3   1   9   22.07    1.03
   2  -1  -9    0.67    0.09
   2  -1  -9    0.57    0.18
   2  -1  -9    0.53    0.14
   2  -1  -9    0.70    0.17
   2  -1  -9    0.49    0.13
   2  -1  -9    0.76    0.17
   2  -1  -9    0.24    0.12
   2  -1  -9    0.59    0.16
   2  -1  -9    0.33    0.12
   2  -1  -9    0.41    0.11
   2  -1  -9    0.58    0.18
   2  -1  -9    0.59    0.14
  -2   1   9    0.20    0.15
  -2   1   9    0.53    0.17
  -2   1   9    0.43    0.14
  -2   1   9    0.61    0.15
  -2   1   9    0.45    0.11
  -2   1   9    0.36    0.14
  -2   1   9    0.67    0.18
   1  -1  -9    2.06    0.28
   1  -1  -9    2.45    0.26
   1  -1  -9    2.62    0.27
   1  -1  -9    2.43    0.20
   1  -1  -9    1.97    0.24
   1  -1  -9    2.41    0.25
   1  -1  -9    2.45    0.24
   1  -1  -9    2.33    0.29
   1  -1  -9    2.01    0.25
   1  -1  -9    2.06    0.30
  -1   1   9    2.75    0.33
  -1   1   9    2.31    0.25
  -1   1   9    2.31    0.30
  -1   1   9    2.11    0.23
  -1   1   9    2.17    0.17
  -1   1   9    2.10    0.26
  -1   1   9    2.47    0.26
   0  -1  -9   31.96    1.17
   0  -1  -9   32.94    1.13
   0  -1  -9   33.31    1.10
   0  -1  -9   33.99    0.98
   0  -1  -9   34.75    1.07
   0  -1  -9   33.67    1.26
   0  -1  -9   33.26    1.15
   0  -1  -9   32.84    1.11
   0  -1  -9   31.75    1.08
   0  -1  -9   31.61    1.26
   0  -1  -9   33.47    1.08
   0   1   9   34.38    1.09
   0   1   9   34.31    1.05
   0   1   9   33.34    1.08
   0   1   9   34.49    1.28
   0   1   9   33.59    0.96
   0   1   9   33.65    1.07
   0   1   9   32.34    1.11
   0   1   9   35.27    1.27
  -1  -1  -9   12.60    0.60
  -1  -1  -9   13.30    0.55
  -1  -1  -9   12.56    0.56
  -1  -1  -9   13.73    0.65
  -1  -1  -9   13.76    0.55
  -1  -1  -9   13.03    0.50
  -1  -1  -9   13.32    0.56
  -1  -1  -9   13.19    0.56
  -1  -1  -9   13.53    0.49
  -1  -1  -9   12.43    0.57
  -1  -1  -9   11.98    0.63
   1   1   9   13.13    0.49
   1   1   9   13.06    0.53
   1   1   9   13.31    0.39
   1   1   9   13.17    0.54
   1   1   9   13.83    0.65
   1   1   9   13.30    0.64
   1   1   9   13.05    0.49
   1   1   9   12.14    0.53
   1   1   9   13.90    0.42
  -2  -1  -9    6.31    0.31
  -2  -1  -9    5.65    0.38
  -2  -1  -9    6.44    0.38
  -2  -1  -9    6.18    0.41
  -2  -1  -9    6.21    0.38
  -2  -1  -9    5.66    0.36
  -2  -1  -9    5.57    0.39
   2   1   9    5.88    0.40
   2   1   9    6.18    0.32
   2   1   9    5.86    0.34
   2   1   9    5.93    0.40
   2   1   9    6.24    0.33
   2   1   9    6.40    0.33
   2   1   9    6.30    0.28
   2   1   9    5.96    0.29
   2   1   9    6.15    0.26
  -3  -1  -9   54.60    1.72
  -3  -1  -9   53.57    1.51
  -3  -1  -9   54.48    1.74
  -3  -1  -9   52.10    1.70
  -3  -1  -9   50.26    1.80
  -3  -1  -9   52.17    1.63
   3   1   9   53.92    1.57
   3   1   9   51.32    1.53
   3   1   9   54.08    1.81
   3   1   9   49.94    1.43
   3   1   9   53.13    1.63
   3   1   9   51.38    1.39
   3   1   9   51.69    1.54
   3   1   9   52.82    1.49
   3   1   9   53.72    1.44
  -4  -1  -9    2.80    0.34
  -4  -1  -9    2.73    0.33
  -4  -1  -9    2.57    0.21
  -4  -1  -9    2.54    0.29
  -4  -1  -9    2.51    0.30
  -4  -1  -9    3.13    0.33
  -4  -1  -9    2.48    0.30
   4   1   9    2.49    0.30
   4   1   9    2.34    0.28
   4   1   9    2.30    0.22
   4   1   9    2.42    0.23
  -5  -1  -9    4.93    0.43
  -5  -1  -9    6.31    0.44
  -5  -1  -9    6.01    0.47
  -5  -1  -9    6.45    0.46
  -5  -1  -9    6.14    0.43
  -5  -1  -9    6.39    0.42
  -5  -1  -9    6.48    0.36
   5   1   9    5.73    0.32
   5   1   9    6.14    0.32
   5   1   9    6.07    0.43
  -6  -1  -9   14.43    0.84
  -6  -1  -9   15.19    0.81
  -6  -1  -9   15.36    0.77
  -6  -1  -9   13.84    0.78
   6   1   9   14.70    0.56
   6   1   9   15.33    0.56
   6   1   9   14.79    0.78
  -7  -1  -9    5.91    0.51
   7   1   9    6.02    0.28
   7   1   9    6.12    0.29
   7   1   9    6.47    0.54
  -8  -1  -9   -0.02    0.15
   8   1   9   -0.06    0.13
   8   1   9   -0.17    0.17
   7  -2  -9    7.08    0.49
   7  -2  -9    7.00    0.73
  -7   2   9    7.94    0.52
   6  -2  -9    2.42    0.37
   6  -2  -9    2.48    0.32
   6  -2  -9    1.92    0.37
   6  -2  -9    2.82    0.21
  -6   2   9    2.60    0.33
   5  -2  -9    9.72    0.63
   5  -2  -9   10.33    0.67
   5  -2  -9    9.99    0.75
   5  -2  -9   12.21    0.61
   5  -2  -9   10.51    0.59
   5  -2  -9   10.24    0.49
  -5   2   9   10.15    0.54
   4  -2  -9   -0.03    0.13
   4  -2  -9   -0.04    0.08
   4  -2  -9    0.17    0.18
   4  -2  -9   -0.14    0.11
   4  -2  -9    0.16    0.14
   4  -2  -9    0.05    0.10
  -4   2   9    0.05    0.09
  -4   2   9   -0.11    0.12
   3  -2  -9    2.94    0.31
   3  -2  -9    3.02    0.37
   3  -2  -9    2.21    0.29
   3  -2  -9    2.95    0.33
   3  -2  -9    2.50    0.32
   3  -2  -9    2.84    0.34
   3  -2  -9    2.59    0.39
  -3   2   9    2.82    0.38
  -3   2   9    2.49    0.25
  -3   2   9    3.04    0.34
   2  -2  -9    4.36    0.32
   2  -2  -9    4.16    0.31
   2  -2  -9    4.15    0.34
   2  -2  -9    4.46    0.41
   2  -2  -9    5.18    0.40
   2  -2  -9    4.47    0.35
   2  -2  -9    5.15    0.41
   2  -2  -9    4.47    0.33
   2  -2  -9    5.37    0.43
  -2   2   9    4.03    0.38
  -2   2   9    4.40    0.33
  -2   2   9    3.75    0.39
  -2   2   9    4.24    0.26
   1  -2  -9   16.52    0.81
   1  -2  -9   16.31    0.70
   1  -2  -9   16.99    0.66
   1  -2  -9   16.89    0.79
   1  -2  -9   16.50    0.68
   1  -2  -9   16.47    0.69
   1  -2  -9   16.95    0.68
   1  -2  -9   15.98    0.74
  -1   2   9   17.76    0.69
  -1   2   9   16.24    0.56
  -1   2   9   16.48    0.73
  -1   2   9   16.06    0.80
  -1   2   9   16.85    0.81
  -1   2   9   16.84    0.68
  -1   2   9   16.75    0.63
   0  -2  -9    0.55    0.14
   0  -2  -9    0.51    0.16
   0  -2  -9    0.56    0.16
   0  -2  -9    0.47    0.13
   0  -2  -9    0.48    0.13
   0  -2  -9    0.39    0.11
   0  -2  -9    0.77    0.18
   0  -2  -9    0.36    0.11
   0  -2  -9    0.83    0.18
   0  -2  -9    0.56    0.14
   0  -2  -9    0.76    0.15
   0   2   9    0.58    0.15
   0   2   9    0.35    0.16
   0   2   9    0.44    0.14
   0   2   9    0.47    0.13
   0   2   9    0.56    0.07
   0   2   9    0.41    0.12
   0   2   9    0.40    0.09
  -1  -2  -9   15.95    0.70
  -1  -2  -9   16.07    0.72
  -1  -2  -9   15.36    0.62
  -1  -2  -9   15.21    0.61
  -1  -2  -9   16.02    0.65
  -1  -2  -9   15.31    0.72
  -1  -2  -9   16.15    0.57
  -1  -2  -9   15.78    0.61
   1   2   9   14.90    0.61
   1   2   9   15.03    0.58
   1   2   9   15.55    0.63
   1   2   9   15.34    0.53
   1   2   9   14.99    0.70
   1   2   9   17.14    0.60
   1   2   9   15.15    0.71
  -2  -2  -9    1.50    0.19
  -2  -2  -9    1.46    0.23
  -2  -2  -9    1.52    0.12
  -2  -2  -9    1.40    0.20
  -2  -2  -9    1.54    0.22
  -2  -2  -9    1.87    0.26
  -2  -2  -9    1.43    0.20
   2   2   9    1.34    0.16
   2   2   9    1.63    0.18
   2   2   9    1.54    0.11
   2   2   9    1.65    0.19
   2   2   9    1.62    0.23
   2   2   9    1.33    0.17
   2   2   9    1.71    0.17
   2   2   9    1.52    0.22
  -3  -2  -9   36.68    1.27
  -3  -2  -9   35.75    1.34
  -3  -2  -9   37.32    1.34
  -3  -2  -9   39.59    1.37
  -3  -2  -9   37.99    1.23
  -3  -2  -9   37.91    1.27
   3   2   9   38.17    1.23
   3   2   9   36.40    1.10
   3   2   9   40.05    1.36
   3   2   9   38.37    1.16
   3   2   9   38.81    1.10
  -4  -2  -9    0.19    0.11
  -4  -2  -9    0.06    0.09
  -4  -2  -9    0.18    0.10
  -4  -2  -9    0.06    0.09
  -4  -2  -9    0.16    0.11
   4   2   9    0.08    0.06
   4   2   9    0.12    0.06
   4   2   9    0.31    0.12
   4   2   9    0.24    0.12
  -5  -2  -9    3.95    0.35
  -5  -2  -9    4.31    0.38
  -5  -2  -9    4.40    0.33
  -5  -2  -9    4.65    0.35
  -5  -2  -9    4.13    0.33
  -5  -2  -9    4.23    0.34
   5   2   9    4.51    0.36
  -6  -2  -9   22.60    0.96
  -6  -2  -9   21.77    1.02
  -6  -2  -9   21.70    0.96
  -6  -2  -9   22.05    1.03
  -6  -2  -9   25.04    0.98
   6   2   9   20.80    0.96
  -7  -2  -9   37.98    1.64
  -7  -2  -9   42.19    1.53
  -7  -2  -9   40.92    1.61
  -7  -2  -9   41.97    1.54
   7   2   9   38.45    1.55
  -8  -2  -9    0.22    0.20
   8   2   9    0.35    0.22
  -9  -2  -9   -0.23    0.14
   9   2   9    0.07    0.20
   6  -3  -9    0.20    0.23
   6  -3  -9    0.12    0.11
   6  -3  -9   -0.10    0.19
  -6   3   9   -0.01    0.12
   5  -3  -9   10.10    0.67
   5  -3  -9    9.69    0.68
  -5   3   9   10.55    0.54
   4  -3  -9   16.98    1.02
   4  -3  -9   18.16    0.84
   4  -3  -9   17.79    0.88
  -4   3   9   16.80    0.98
  -4   3   9   17.26    0.70
   3  -3  -9    0.15    0.14
   3  -3  -9   -0.07    0.15
   3  -3  -9   -0.03    0.10
   3  -3  -9   -0.14    0.12
  -3   3   9    0.05    0.12
  -3   3   9    0.01    0.09
  -3   3   9   -0.07    0.11
   2  -3  -9    1.13    0.24
   2  -3  -9    1.00    0.23
   2  -3  -9    1.06    0.22
   2  -3  -9    1.24    0.27
   2  -3  -9    0.88    0.25
  -2   3   9    1.08    0.15
  -2   3   9    0.80    0.23
  -2   3   9    1.35    0.23
   1  -3  -9    3.49    0.37
   1  -3  -9    3.18    0.39
   1  -3  -9    3.55    0.36
   1  -3  -9    3.75    0.41
   1  -3  -9    3.62    0.29
   1  -3  -9    4.06    0.35
   1  -3  -9    2.95    0.36
  -1   3   9    3.37    0.18
  -1   3   9    3.62    0.26
  -1   3   9    3.91    0.31
  -1   3   9    3.73    0.29
  -1   3   9    3.28    0.39
   0  -3  -9    0.49    0.14
   0  -3  -9    0.54    0.15
   0  -3  -9    0.42    0.14
   0  -3  -9    0.81    0.18
   0  -3  -9    0.62    0.14
   0  -3  -9    0.46    0.15
   0  -3  -9    0.52    0.16
   0  -3  -9    0.63    0.15
   0   3   9    0.55    0.13
   0   3   9    0.52    0.10
   0   3   9    0.70    0.14
   0   3   9    0.49    0.15
  -1  -3  -9    7.00    0.39
  -1  -3  -9    7.08    0.35
  -1  -3  -9    6.89    0.43
  -1  -3  -9    7.17    0.35
  -1  -3  -9    7.90    0.45
  -1  -3  -9    7.39    0.45
  -1  -3  -9    7.04    0.39
  -1  -3  -9    6.59    0.36
   1   3   9    6.69    0.34
   1   3   9    6.65    0.43
   1   3   9    6.42    0.36
   1   3   9    6.77    0.28
   1   3   9    6.28    0.34
  -2  -3  -9    5.56    0.33
  -2  -3  -9    4.62    0.27
  -2  -3  -9    5.00    0.37
  -2  -3  -9    4.73    0.30
  -2  -3  -9    4.55    0.34
  -2  -3  -9    5.16    0.35
  -2  -3  -9    5.62    0.30
  -2  -3  -9    5.43    0.25
   2   3   9    5.21    0.26
   2   3   9    5.42    0.29
   2   3   9    5.24    0.29
   2   3   9    4.82    0.25
   2   3   9    4.81    0.34
  -3  -3  -9   10.14    0.50
  -3  -3  -9    9.16    0.48
  -3  -3  -9    9.34    0.44
  -3  -3  -9   10.17    0.55
  -3  -3  -9    9.29    0.45
  -3  -3  -9    9.50    0.41
  -3  -3  -9    9.16    0.33
   3   3   9    8.70    0.29
   3   3   9   10.06    0.49
   3   3   9    9.71    0.45
  -4  -3  -9    2.20    0.31
  -4  -3  -9    2.58    0.23
  -4  -3  -9    2.36    0.25
  -4  -3  -9    2.29    0.24
  -4  -3  -9    2.36    0.26
   4   3   9    2.21    0.27
   4   3   9    2.06    0.15
  -5  -3  -9   15.76    0.70
  -5  -3  -9   16.75    0.82
  -5  -3  -9   16.47    0.69
  -5  -3  -9   16.93    0.71
   5   3   9   16.66    0.75
  -6  -3  -9    9.23    0.50
  -6  -3  -9    9.73    0.52
  -6  -3  -9    8.94    0.55
  -6  -3  -9    9.50    0.62
  -6  -3  -9    9.56    0.52
   6   3   9    9.55    0.58
  -7  -3  -9    3.64    0.47
  -7  -3  -9    4.49    0.37
  -7  -3  -9    4.06    0.37
  -7  -3  -9    4.54    0.38
  -7  -3  -9    4.43    0.47
   7   3   9    4.45    0.49
  -8  -3  -9    1.99    0.37
  -8  -3  -9    2.96    0.38
  -8  -3  -9    2.02    0.32
   8   3   9    2.20    0.39
  -9  -3  -9    0.10    0.20
   9   3   9    0.25    0.21
   5  -4  -9    1.60    0.34
  -5   4   9    0.97    0.19
   4  -4  -9    4.02    0.47
   4  -4  -9    3.75    0.47
  -4   4   9    4.18    0.30
  -4   4   9    3.88    0.56
   3  -4  -9    0.10    0.13
   3  -4  -9   -0.03    0.20
   3  -4  -9    0.16    0.17
   3  -4  -9    0.09    0.16
  -3   4   9    0.10    0.10
  -3   4   9   -0.06    0.16
  -3   4   9    0.10    0.13
   2  -4  -9    6.81    0.49
   2  -4  -9    6.53    0.48
   2  -4  -9    6.88    0.51
   2  -4  -9    7.23    0.57
  -2   4   9    7.24    0.46
  -2   4   9    6.62    0.54
  -2   4   9    6.56    0.30
   1  -4  -9   45.70    1.52
   1  -4  -9   47.83    1.57
   1  -4  -9   42.40    1.57
   1  -4  -9   44.64    1.68
   1  -4  -9   50.89    1.78
   1  -4  -9   43.15    1.75
  -1   4   9   45.79    1.75
  -1   4   9   45.61    1.48
  -1   4   9   47.15    1.41
   0  -4  -9   36.66    1.32
   0  -4  -9   38.54    1.44
   0  -4  -9   35.40    1.43
   0  -4  -9   36.46    1.33
   0  -4  -9   38.25    1.28
   0  -4  -9   35.87    1.43
   0  -4  -9   37.21    1.24
   0  -4  -9   34.62    1.40
   0   4   9   36.81    1.19
   0   4   9   36.01    1.18
   0   4   9   36.85    1.10
   0   4   9   37.95    1.44
  -1  -4  -9    0.24    0.09
  -1  -4  -9    0.16    0.11
  -1  -4  -9    0.15    0.12
  -1  -4  -9    0.12    0.10
  -1  -4  -9    0.24    0.12
  -1  -4  -9    0.15    0.10
  -1  -4  -9    0.01    0.07
  -1  -4  -9    0.10    0.12
   1   4   9    0.02    0.07
   1   4   9    0.02    0.07
   1   4   9    0.02    0.09
  -2  -4  -9    0.33    0.11
  -2  -4  -9    0.08    0.09
  -2  -4  -9    0.14    0.08
  -2  -4  -9    0.21    0.10
  -2  -4  -9    0.10    0.12
  -2  -4  -9    0.55    0.16
  -2  -4  -9    0.21    0.11
  -2  -4  -9    0.08    0.10
   2   4   9    0.21    0.11
   2   4   9    0.21    0.07
   2   4   9    0.18    0.06
  -3  -4  -9    0.99    0.16
  -3  -4  -9    0.99    0.12
  -3  -4  -9    1.08    0.12
  -3  -4  -9    1.18    0.17
  -3  -4  -9    0.84    0.16
  -3  -4  -9    1.07    0.17
  -3  -4  -9    1.11    0.21
   3   4   9    1.00    0.18
  -4  -4  -9   -0.03    0.06
  -4  -4  -9   -0.04    0.09
  -4  -4  -9    0.04    0.08
  -4  -4  -9    0.08    0.08
   4   4   9    0.02    0.07
   4   4   9    0.08    0.10
  -5  -4  -9    1.48    0.29
  -5  -4  -9    1.40    0.18
  -5  -4  -9    1.15    0.18
  -5  -4  -9    1.31    0.19
   5   4   9    1.48    0.25
  -6  -4  -9    0.05    0.10
  -6  -4  -9   -0.09    0.13
  -6  -4  -9    0.14    0.09
  -6  -4  -9    0.07    0.09
   6   4   9   -0.09    0.12
  -7  -4  -9   14.15    0.65
  -7  -4  -9   13.91    0.65
  -7  -4  -9   12.34    0.77
  -7  -4  -9   13.32    0.58
   7   4   9   12.84    0.75
  -8  -4  -9    4.41    0.37
  -8  -4  -9    3.77    0.40
  -8  -4  -9    3.82    0.51
   8   4   9    4.46    0.53
  -9  -4  -9    1.95    0.31
  -9  -4  -9    1.49    0.33
  -9  -4  -9    1.67    0.29
   9   4   9    2.38    0.43
   4  -5  -9    3.00    0.44
   4  -5  -9    3.28    0.46
  -4   5   9    3.19    0.24
   3  -5  -9    1.03    0.27
   3  -5  -9    0.71    0.22
  -3   5   9    1.25    0.26
  -3   5   9    0.68    0.11
   2  -5  -9    0.47    0.19
   2  -5  -9    0.30    0.17
   2  -5  -9    0.33    0.19
  -2   5   9    0.35    0.15
   1  -5  -9    3.80    0.49
   1  -5  -9    4.10    0.43
   1  -5  -9    4.90    0.48
   1  -5  -9    4.72    0.50
  -1   5   9    4.62    0.36
   0  -5  -9   30.40    1.10
   0  -5  -9   28.91    1.06
   0  -5  -9   26.20    1.20
   0  -5  -9   27.92    1.10
   0  -5  -9   26.78    1.21
   0   5   9   27.93    0.97
   0   5   9   26.72    0.96
  -1  -5  -9    2.37    0.32
  -1  -5  -9    2.48    0.39
  -1  -5  -9    2.39    0.30
  -1  -5  -9    2.41    0.27
  -1  -5  -9    2.24    0.28
  -1  -5  -9    2.47    0.31
  -1  -5  -9    2.17    0.30
   1   5   9    2.30    0.22
   1   5   9    2.34    0.20
   1   5   9    2.24    0.30
  -2  -5  -9   36.11    1.16
  -2  -5  -9   35.19    1.26
  -2  -5  -9   34.32    1.31
  -2  -5  -9   31.30    1.26
  -2  -5  -9   35.15    1.21
  -2  -5  -9   33.44    1.12
  -2  -5  -9   34.92    1.13
   2   5   9   31.64    1.25
  -3  -5  -9   74.33    2.47
  -3  -5  -9   75.41    2.22
  -3  -5  -9   79.95    2.54
  -3  -5  -9   77.22    2.45
  -3  -5  -9   80.36    2.37
  -3  -5  -9   83.39    2.20
  -4  -5  -9    8.85    0.54
  -4  -5  -9    8.51    0.42
  -4  -5  -9    8.29    0.42
   4   5   9    8.90    0.51
  -5  -5  -9    3.60    0.22
  -5  -5  -9    3.37    0.42
  -5  -5  -9    3.36    0.25
   5   5   9    3.51    0.39
  -6  -5  -9   19.14    0.94
  -6  -5  -9   20.16    0.74
  -6  -5  -9   18.82    0.74
   6   5   9   18.76    0.90
  -7  -5  -9    1.60    0.33
  -7  -5  -9    0.92    0.17
  -7  -5  -9    1.41    0.21
   7   5   9    0.80    0.25
  -8  -5  -9   -0.12    0.15
  -8  -5  -9    0.17    0.12
  -8  -5  -9    0.16    0.12
   8   5   9   -0.02    0.17
  -9  -5  -9    0.05    0.19
  -9  -5  -9    0.11    0.13
  -9  -5  -9    0.15    0.13
   9   5   9   -0.07    0.21
   3  -6  -9    4.52    0.56
   3  -6  -9    4.21    0.52
  -3   6   9    4.86    0.50
   2  -6  -9    8.54    0.61
   2  -6  -9    8.30    0.65
  -2   6   9    8.53    0.55
   1  -6  -9    0.22    0.15
   1  -6  -9    0.09    0.13
   1  -6  -9    0.18    0.19
  -1   6   9    0.14    0.13
   0  -6  -9    2.70    0.35
   0  -6  -9    2.95    0.43
   0  -6  -9    3.13    0.38
   0  -6  -9    3.07    0.35
   0   6   9    3.54    0.28
   0   6   9    3.19    0.31
  -1  -6  -9    1.65    0.31
  -1  -6  -9    1.89    0.36
  -1  -6  -9    1.78    0.28
  -1  -6  -9    1.97    0.26
   1   6   9    1.92    0.20
   1   6   9    1.89    0.19
  -2  -6  -9    0.14    0.12
  -2  -6  -9    0.32    0.18
  -2  -6  -9    0.33    0.13
  -2  -6  -9    0.25    0.14
  -2  -6  -9    0.55    0.17
  -2  -6  -9    0.21    0.13
  -3  -6  -9   36.30    1.35
  -3  -6  -9   38.88    1.40
  -3  -6  -9   35.62    1.32
  -3  -6  -9   38.36    1.30
  -3  -6  -9   35.96    1.19
  -4  -6  -9   32.95    1.21
  -4  -6  -9   32.51    1.02
  -4  -6  -9   31.85    1.25
  -4  -6  -9   31.05    1.11
  -4  -6  -9   34.00    1.13
  -5  -6  -9    2.84    0.23
  -5  -6  -9    3.09    0.39
   5   6   9    3.36    0.40
  -6  -6  -9    0.02    0.09
  -6  -6  -9    0.15    0.17
   6   6   9    0.07    0.14
  -7  -6  -9    0.95    0.27
  -7  -6  -9    0.93    0.15
  -7  -6  -9    1.01    0.16
   7   6   9    1.10    0.28
  -8  -6  -9    1.41    0.21
  -8  -6  -9    1.39    0.33
  -8  -6  -9    1.13    0.19
   8   6   9    1.79    0.36
  -9  -6  -9    6.82    0.42
  -9  -6  -9    6.17    0.42
  -9  -6  -9    6.32    0.69
   9   6   9    5.59    0.64
   2  -7  -9   13.26    0.91
  -2   7   9   14.54    0.73
   1  -7  -9   23.70    1.25
  -1   7   9   24.68    0.98
   0  -7  -9    0.20    0.20
   0   7   9    0.63    0.15
   0   7   9    0.43    0.14
  -1  -7  -9   -0.09    0.13
  -1  -7  -9   -0.06    0.12
   1   7   9    0.06    0.08
   1   7   9    0.07    0.07
  -2  -7  -9    0.01    0.12
  -2  -7  -9   -0.12    0.10
  -2  -7  -9   -0.01    0.14
  -2  -7  -9    0.18    0.14
  -3  -7  -9    1.33    0.31
  -3  -7  -9    1.41    0.25
  -3  -7  -9    1.62    0.22
  -3  -7  -9    1.02    0.23
  -4  -7  -9    7.61    0.44
  -4  -7  -9    8.23    0.53
  -4  -7  -9    8.72    0.66
  -4  -7  -9    7.14    0.47
  -4  -7  -9    7.35    0.38
  -5  -7  -9    0.36    0.20
  -5  -7  -9    0.55    0.18
  -5  -7  -9    0.68    0.12
  -5  -7  -9    0.67    0.14
  -6  -7  -9    1.19    0.17
  -6  -7  -9    1.69    0.33
   6   7   9    1.05    0.28
  -7  -7  -9    8.00    0.38
  -7  -7  -9    8.78    0.63
   7   7   9    8.15    0.63
  -8  -7  -9    1.28    0.32
  -8  -7  -9    1.11    0.17
  -8  -7  -9    1.11    0.16
   8   7   9    1.59    0.35
  -9  -7  -9    0.03    0.09
  -9  -7  -9    0.04    0.09
  -9  -7  -9   -0.12    0.20
   9   7   9    0.01    0.20
   1  -8  -9    0.19    0.23
  -1   8   9    0.06    0.15
   0  -8  -9    3.00    0.51
   0   8   9    2.88    0.28
   0   8   9    2.93    0.28
  -1  -8  -9   10.94    0.82
  -2  -8  -9   15.16    0.73
  -2  -8  -9   14.46    0.94
  -3  -8  -9    8.21    0.69
  -3  -8  -9    8.39    0.54
  -3  -8  -9    8.27    0.49
  -4  -8  -9    2.48    0.32
  -4  -8  -9    3.18    0.51
  -4  -8  -9    2.66    0.28
  -5  -8  -9    4.01    0.45
  -5  -8  -9    4.42    0.29
  -5  -8  -9    4.54    0.34
  -5  -8  -9    3.65    0.54
  -6  -8  -9    0.04    0.09
  -6  -8  -9    0.33    0.21
  -6  -8  -9    0.17    0.07
  -6  -8  -9   -0.04    0.14
  -7  -8  -9    1.81    0.20
  -7  -8  -9    2.25    0.38
  -7  -8  -9    1.92    0.39
   7   8   9    1.89    0.37
  -8  -8  -9    0.30    0.09
  -8  -8  -9    0.24    0.21
  -8  -8  -9    0.66    0.23
   8   8   9    0.24    0.21
  -1  -9  -9    0.40    0.27
  -2  -9  -9    1.40    0.38
  -3  -9  -9    2.65    0.48
  -3  -9  -9    2.95    0.36
  -4  -9  -9    3.08    0.34
  -4  -9  -9    2.60    0.48
  -4  -9  -9    2.87    0.37
  -5  -9  -9    6.31    0.44
  -5  -9  -9    6.89    0.76
  -5  -9  -9    5.83    0.39
  -6  -9  -9   10.89    0.80
  -6  -9  -9    9.83    0.52
  -6  -9  -9   10.10    0.48
  -7  -9  -9    2.83    0.48
  -7  -9  -9    2.54    0.22
  -6  -8  10    5.11    0.61
  -5  -8  10    0.54    0.24
  -4  -8  10    0.19    0.20
   3   8 -10    0.61    0.15
   3   8 -10    0.57    0.23
  -3  -8  10    0.60    0.25
  -3  -8  10    0.75    0.26
   2   8 -10   -0.03    0.15
  -2  -8  10    0.38    0.24
  -2  -8  10    0.21    0.21
  -2  -8  10    0.04    0.14
  -7  -7  10    1.03    0.33
  -6  -7  10    0.22    0.20
   5   7 -10    7.93    0.60
  -5  -7  10    8.36    0.65
   4   7 -10   12.51    0.52
   4   7 -10   11.53    0.73
  -4  -7  10   12.19    0.79
   3   7 -10    0.20    0.17
   3   7 -10    0.15    0.12
  -3  -7  10    0.11    0.13
  -3  -7  10    0.32    0.19
   2   7 -10   15.40    0.84
  -2  -7  10   15.47    0.72
  -2  -7  10   13.85    0.85
  -2  -7  10   14.48    0.88
   1   7 -10    1.14    0.28
  -1  -7  10    1.56    0.36
  -1  -7  10    2.30    0.31
  -1  -7  10    2.01    0.37
   0   7 -10    2.75    0.41
   0  -7  10    2.52    0.43
   0  -7  10    2.52    0.33
   0  -7  10    1.91    0.40
   1  -7  10    1.03    0.32
   1  -7  10    1.05    0.32
  -8  -6  10    6.72    0.69
  -7  -6  10   10.44    0.73
   6   6 -10   11.48    0.55
  -6  -6  10   11.82    0.76
   5   6 -10    0.00    0.12
   5   6 -10   -0.16    0.12
  -5  -6  10   -0.03    0.17
   4   6 -10    7.22    0.53
   4   6 -10    7.18    0.46
   4   6 -10    6.73    0.39
  -4  -6  10    7.62    0.58
   3   6 -10    0.35    0.16
   3   6 -10    0.67    0.20
   3   6 -10    0.54    0.15
  -3  -6  10    0.73    0.24
  -3  -6  10    0.93    0.20
   2   6 -10    3.46    0.42
  -2  -6  10    3.04    0.43
  -2  -6  10    3.94    0.38
   1   6 -10   -0.08    0.13
  -1  -6  10   -0.28    0.14
  -1  -6  10    0.35    0.16
  -1  -6  10    0.36    0.20
   0   6 -10    0.68    0.23
   0  -6  10    1.11    0.22
   0  -6  10    0.87    0.26
   0  -6  10    1.09    0.32
   1  -6  10    1.06    0.32
   1  -6  10    1.14    0.30
   1  -6  10    1.17    0.23
  -2   6 -10    0.34    0.10
   2  -6  10    0.18    0.20
  -8  -5  10    0.48    0.23
   7   5 -10    5.95    0.38
  -7  -5  10    6.24    0.63
   6   5 -10    4.21    0.33
  -6  -5  10    4.32    0.51
   5   5 -10    9.63    0.46
   5   5 -10    9.00    0.62
   5   5 -10    9.48    0.53
  -5  -5  10    9.25    0.64
   4   5 -10   20.41    0.97
   4   5 -10   20.41    0.87
   4   5 -10   22.35    0.81
  -4  -5  10   19.68    0.97
  -4  -5  10   20.98    0.81
   3   5 -10    7.05    0.52
   3   5 -10    6.87    0.46
  -3  -5  10    7.18    0.54
  -3  -5  10    8.77    0.45
  -3  -5  10    7.50    0.54
   2   5 -10    0.19    0.14
   2   5 -10   -0.30    0.07
  -2  -5  10   -0.09    0.16
  -2  -5  10    0.05    0.11
  -2  -5  10    0.17    0.14
  -2  -5  10   -0.07    0.13
   1   5 -10    0.11    0.13
   1   5 -10    0.12    0.14
  -1  -5  10    0.12    0.12
  -1  -5  10    0.23    0.18
  -1  -5  10    0.07    0.18
  -1  -5  10    0.19    0.17
   0   5 -10    9.80    0.38
   0   5 -10   10.05    0.64
   0  -5  10    9.05    0.51
   0  -5  10   10.20    0.63
   0  -5  10    9.39    0.61
  -1   5 -10    1.21    0.17
   1  -5  10    0.95    0.19
   1  -5  10    0.95    0.24
  -2   5 -10    2.77    0.28
   2  -5  10    2.19    0.35
  -3   5 -10    0.49    0.16
   3  -5  10    0.05    0.16
  -4   5 -10    0.45    0.17
   8   4 -10    0.48    0.17
  -8  -4  10    0.76    0.27
   7   4 -10    2.34    0.29
  -7  -4  10    2.51    0.40
   6   4 -10    1.13    0.21
  -6  -4  10    1.07    0.28
   5   4 -10    1.08    0.21
   5   4 -10    0.83    0.23
   5   4 -10    1.17    0.20
   5   4 -10    0.80    0.17
  -5  -4  10    1.26    0.28
  -5  -4  10    1.14    0.20
   4   4 -10   13.22    0.65
   4   4 -10   13.14    0.73
   4   4 -10   14.37    0.61
  -4  -4  10   12.12    0.70
  -4  -4  10   12.90    0.73
  -4  -4  10   13.73    0.59
  -4  -4  10   12.30    0.74
   3   4 -10   54.95    2.00
   3   4 -10   53.18    1.86
   3   4 -10   53.86    1.79
   3   4 -10   53.57    1.75
   3   4 -10   56.07    1.69
  -3  -4  10   56.22    1.65
  -3  -4  10   52.99    1.82
  -3  -4  10   51.09    1.98
  -3  -4  10   51.89    1.83
   2   4 -10    1.27    0.20
   2   4 -10    1.54    0.27
   2   4 -10    1.16    0.25
   2   4 -10    1.75    0.27
  -2  -4  10    1.17    0.24
  -2  -4  10    1.44    0.27
  -2  -4  10    1.56    0.22
  -2  -4  10    1.26    0.27
   1   4 -10    3.87    0.45
   1   4 -10    4.08    0.22
   1   4 -10    3.92    0.30
   1   4 -10    4.68    0.40
   1   4 -10    4.09    0.41
  -1  -4  10    3.81    0.45
  -1  -4  10    3.43    0.29
  -1  -4  10    4.27    0.49
  -1  -4  10    3.76    0.40
  -1  -4  10    4.50    0.45
   0   4 -10    0.00    0.08
   0   4 -10    0.12    0.14
   0   4 -10    0.07    0.09
   0   4 -10    0.31    0.17
   0   4 -10    0.19    0.13
   0  -4  10    0.03    0.14
   0  -4  10    0.08    0.12
   0  -4  10    0.01    0.10
   0  -4  10   -0.03    0.14
  -1   4 -10    0.20    0.16
  -1   4 -10   -0.04    0.12
  -1   4 -10    0.16    0.11
   1  -4  10    0.16    0.13
   1  -4  10    0.18    0.12
   1  -4  10    0.25    0.16
   1  -4  10    0.11    0.14
  -2   4 -10    0.51    0.22
  -2   4 -10    0.86    0.18
   2  -4  10    1.02    0.22
   2  -4  10    1.18    0.30
   2  -4  10    0.63    0.20
  -3   4 -10    5.03    0.37
   3  -4  10    4.42    0.58
   3  -4  10    4.77    0.46
   3  -4  10    5.02    0.43
  -4   4 -10    3.38    0.37
  -5   4 -10    0.02    0.14
   5  -4  10    0.04    0.15
   8   3 -10   12.41    0.65
   8   3 -10   12.68    0.55
   8   3 -10   12.46    0.81
  -8  -3  10   11.28    0.75
   7   3 -10   17.11    0.69
   7   3 -10   16.55    0.90
   7   3 -10   15.73    0.75
  -7  -3  10   16.23    0.74
  -7  -3  10   16.70    0.90
   6   3 -10    0.82    0.19
   6   3 -10    0.35    0.20
   6   3 -10    1.02    0.19
  -6  -3  10    0.96    0.19
  -6  -3  10    0.74    0.25
   5   3 -10    0.16    0.13
   5   3 -10    0.18    0.09
   5   3 -10    0.07    0.12
  -5  -3  10   -0.04    0.12
  -5  -3  10    0.16    0.18
  -5  -3  10    0.07    0.10
  -5  -3  10    0.18    0.18
   4   3 -10    0.01    0.12
   4   3 -10    0.38    0.16
   4   3 -10    0.39    0.16
   4   3 -10    0.23    0.15
   4   3 -10    0.22    0.11
   4   3 -10    0.24    0.14
   4   3 -10    0.27    0.11
  -4  -3  10    0.18    0.14
  -4  -3  10    0.18    0.12
  -4  -3  10    0.15    0.15
  -4  -3  10    0.02    0.11
   3   3 -10    7.96    0.42
   3   3 -10    6.42    0.50
   3   3 -10    7.59    0.43
   3   3 -10    7.85    0.50
   3   3 -10    7.56    0.51
   3   3 -10    7.77    0.47
   3   3 -10    7.92    0.46
   3   3 -10    7.68    0.51
   3   3 -10    7.95    0.49
  -3  -3  10    6.68    0.48
  -3  -3  10    6.91    0.51
  -3  -3  10    7.45    0.49
  -3  -3  10    8.03    0.55
  -3  -3  10    6.92    0.39
   2   3 -10    0.26    0.12
   2   3 -10   -0.03    0.10
   2   3 -10    0.09    0.12
   2   3 -10    0.16    0.13
   2   3 -10    0.09    0.06
   2   3 -10    0.07    0.10
   2   3 -10    0.10    0.10
   2   3 -10    0.15    0.12
  -2  -3  10    0.22    0.13
  -2  -3  10    0.13    0.13
  -2  -3  10    0.20    0.11
  -2  -3  10    0.27    0.15
  -2  -3  10    0.23    0.12
   1   3 -10    8.53    0.47
   1   3 -10    8.54    0.51
   1   3 -10    8.13    0.55
   1   3 -10    7.92    0.45
   1   3 -10    7.15    0.52
   1   3 -10    7.80    0.49
   1   3 -10    8.11    0.36
  -1  -3  10    7.60    0.55
  -1  -3  10    8.26    0.57
  -1  -3  10    8.22    0.48
  -1  -3  10    7.89    0.41
  -1  -3  10    7.66    0.49
   0   3 -10    3.40    0.34
   0   3 -10    3.58    0.28
   0   3 -10    3.26    0.37
   0   3 -10    2.96    0.35
   0   3 -10    3.54    0.25
   0   3 -10    3.37    0.40
   0  -3  10    2.99    0.28
   0  -3  10    3.44    0.35
   0  -3  10    3.26    0.36
   0  -3  10    3.24    0.40
   0  -3  10    3.20    0.41
  -1   3 -10   21.94    0.83
  -1   3 -10   20.26    1.01
  -1   3 -10   20.44    0.76
  -1   3 -10   20.85    0.92
   1  -3  10   20.57    1.02
   1  -3  10   21.20    0.86
   1  -3  10   19.74    0.76
   1  -3  10   20.95    0.86
  -2   3 -10    0.09    0.10
  -2   3 -10   -0.04    0.09
  -2   3 -10    0.03    0.10
  -2   3 -10    0.07    0.14
   2  -3  10    0.09    0.16
   2  -3  10    0.03    0.09
   2  -3  10   -0.12    0.09
  -3   3 -10   12.42    0.81
  -3   3 -10   12.36    0.61
   3  -3  10   13.37    0.83
   3  -3  10   13.23    0.65
   3  -3  10   13.75    0.64
  -4   3 -10    5.41    0.41
   4  -3  10    5.50    0.43
  -5   3 -10    3.38    0.38
   5  -3  10    4.06    0.53
   5  -3  10    3.44    0.37
  -6   3 -10    3.39    0.41
   6  -3  10    3.24    0.51
   6  -3  10    3.28    0.36
   8   2 -10    2.05    0.33
   8   2 -10    2.29    0.29
   8   2 -10    1.63    0.37
  -8  -2  10    1.95    0.36
  -8  -2  10    2.37    0.34
   7   2 -10   11.02    0.58
   7   2 -10   11.01    0.63
   7   2 -10   11.80    0.75
  -7  -2  10   12.56    0.63
  -7  -2  10   10.89    0.72
   6   2 -10    0.16    0.10
   6   2 -10    0.13    0.14
   6   2 -10   -0.07    0.11
   6   2 -10    0.06    0.14
  -6  -2  10    0.19    0.17
  -6  -2  10    0.25    0.13
   5   2 -10    0.91    0.21
   5   2 -10    1.57    0.29
   5   2 -10    1.04    0.17
   5   2 -10    0.89    0.20
  -5  -2  10    1.18    0.27
  -5  -2  10    1.28    0.20
  -5  -2  10    1.38    0.29
  -5  -2  10    1.04    0.27
   4   2 -10   16.05    0.79
   4   2 -10   14.73    0.61
   4   2 -10   14.24    0.69
   4   2 -10   14.18    0.76
   4   2 -10   14.03    0.64
   4   2 -10   14.56    0.66
   4   2 -10   13.28    0.67
   4   2 -10   14.50    0.81
  -4  -2  10   14.23    0.74
  -4  -2  10   13.95    0.60
  -4  -2  10   14.21    0.73
  -4  -2  10   14.25    0.80
   3   2 -10    1.83    0.23
   3   2 -10    2.54    0.33
   3   2 -10    1.82    0.26
   3   2 -10    3.13    0.38
   3   2 -10    1.80    0.28
   3   2 -10    2.03    0.15
   3   2 -10    2.56    0.33
   3   2 -10    2.30    0.28
  -3  -2  10    2.54    0.26
  -3  -2  10    2.15    0.32
  -3  -2  10    2.53    0.33
  -3  -2  10    2.45    0.31
  -3  -2  10    2.69    0.36
   2   2 -10   10.69    0.51
   2   2 -10   10.00    0.62
   2   2 -10   10.62    0.42
   2   2 -10   10.37    0.58
   2   2 -10   10.64    0.56
   2   2 -10   11.14    0.58
   2   2 -10   10.19    0.53
  -2  -2  10    9.90    0.56
  -2  -2  10    9.95    0.62
  -2  -2  10   10.25    0.47
  -2  -2  10   10.76    0.63
  -2  -2  10   10.84    0.57
  -2  -2  10   10.56    0.56
   1   2 -10    0.68    0.17
   1   2 -10    0.26    0.12
   1   2 -10    0.55    0.17
   1   2 -10    0.38    0.11
   1   2 -10    0.57    0.16
   1   2 -10    0.37    0.15
   1   2 -10    0.52    0.15
  -1  -2  10    0.70    0.14
  -1  -2  10    0.55    0.15
  -1  -2  10    0.34    0.12
  -1  -2  10    0.47    0.17
  -1  -2  10    0.50    0.17
  -1  -2  10    0.70    0.18
   0   2 -10    5.71    0.32
   0   2 -10    5.90    0.38
   0   2 -10    5.19    0.35
   0   2 -10    5.84    0.40
   0   2 -10    5.98    0.39
   0   2 -10    5.70    0.44
   0   2 -10    5.07    0.38
   0   2 -10    5.86    0.41
   0   2 -10    6.32    0.47
   0  -2  10    5.75    0.32
   0  -2  10    6.80    0.51
   0  -2  10    5.78    0.39
   0  -2  10    5.74    0.36
   0  -2  10    5.01    0.43
   0  -2  10    5.69    0.39
  -1   2 -10    4.53    0.33
  -1   2 -10    4.34    0.39
  -1   2 -10    4.11    0.30
  -1   2 -10    4.68    0.41
  -1   2 -10    4.53    0.37
  -1   2 -10    4.18    0.33
   1  -2  10    4.33    0.40
   1  -2  10    4.25    0.30
   1  -2  10    4.55    0.33
   1  -2  10    4.53    0.35
   1  -2  10    3.77    0.26
  -2   2 -10    2.66    0.35
  -2   2 -10    2.58    0.28
  -2   2 -10    2.93    0.31
  -2   2 -10    2.15    0.33
   2  -2  10    2.57    0.27
   2  -2  10    3.05    0.31
   2  -2  10    2.55    0.37
   2  -2  10    2.33    0.31
  -3   2 -10    0.68    0.21
  -3   2 -10    0.44    0.18
  -3   2 -10    0.55    0.17
  -3   2 -10    0.48    0.16
   3  -2  10    0.78    0.17
   3  -2  10    0.64    0.17
   3  -2  10    0.43    0.12
   3  -2  10    0.43    0.19
   3  -2  10    0.52    0.15
  -4   2 -10    8.88    0.52
  -4   2 -10    8.59    0.54
   4  -2  10    9.99    0.58
   4  -2  10   10.12    0.52
  -5   2 -10    0.42    0.17
  -5   2 -10    0.67    0.21
   5  -2  10    0.84    0.19
   5  -2  10    0.45    0.24
   5  -2  10    0.26    0.16
  -6   2 -10    0.49    0.19
  -6   2 -10    0.32    0.17
   6  -2  10    0.50    0.27
   6  -2  10    0.49    0.16
   6  -2  10    0.26    0.16
   8   1 -10    2.41    0.31
   8   1 -10    1.64    0.38
  -8  -1  10    2.28    0.33
   7   1 -10    0.53    0.24
   7   1 -10    0.31    0.12
   7   1 -10    0.54    0.19
   7   1 -10    0.25    0.16
  -7  -1  10    0.31    0.16
  -7  -1  10    0.17    0.17
   6   1 -10    3.45    0.39
   6   1 -10    3.99    0.39
   6   1 -10    4.34    0.31
   6   1 -10    4.55    0.49
  -6  -1  10    3.00    0.42
  -6  -1  10    4.00    0.39
   5   1 -10    3.47    0.29
   5   1 -10    4.11    0.35
   5   1 -10    3.90    0.43
   5   1 -10    3.54    0.39
  -5  -1  10    3.01    0.43
  -5  -1  10    4.34    0.47
  -5  -1  10    3.99    0.32
  -5  -1  10    4.31    0.47
   4   1 -10   21.79    0.88
   4   1 -10   21.99    0.67
   4   1 -10   21.69    0.90
   4   1 -10   22.83    1.03
   4   1 -10   21.40    0.91
   4   1 -10   20.93    1.04
   4   1 -10   22.85    1.02
   4   1 -10   21.37    0.82
  -4  -1  10   21.77    0.97
  -4  -1  10   21.96    0.82
  -4  -1  10   21.60    0.95
  -4  -1  10   19.63    1.03
  -4  -1  10   24.76    1.09
   3   1 -10   16.78    0.86
   3   1 -10   16.73    0.74
   3   1 -10   16.98    0.71
   3   1 -10   16.50    0.82
   3   1 -10   15.63    0.67
   3   1 -10   15.79    0.78
   3   1 -10   17.17    0.59
   3   1 -10   16.49    0.72
   3   1 -10   15.89    0.78
  -3  -1  10   15.80    0.64
  -3  -1  10   15.85    0.76
  -3  -1  10   16.80    0.86
  -3  -1  10   16.47    0.75
  -3  -1  10   17.01    0.84
   2   1 -10    1.15    0.16
   2   1 -10    1.40    0.21
   2   1 -10    1.29    0.19
   2   1 -10    1.15    0.21
   2   1 -10    1.41    0.19
   2   1 -10    1.13    0.24
   2   1 -10    1.27    0.23
   2   1 -10    1.11    0.21
   2   1 -10    1.62    0.26
   2   1 -10    1.63    0.23
  -2  -1  10    1.65    0.24
  -2  -1  10    1.34    0.18
  -2  -1  10    1.32    0.25
  -2  -1  10    1.08    0.21
  -2  -1  10    1.17    0.20
  -2  -1  10    1.69    0.27
  -2  -1  10    1.57    0.25
   1   1 -10   16.20    0.67
   1   1 -10   15.82    0.71
   1   1 -10   15.85    0.81
   1   1 -10   15.81    0.80
   1   1 -10   17.04    0.67
   1   1 -10   16.47    0.74
   1   1 -10   16.67    0.70
   1   1 -10   15.98    0.60
   1   1 -10   16.39    0.73
   1   1 -10   16.67    0.69
  -1  -1  10   16.32    0.73
  -1  -1  10   15.94    0.69
  -1  -1  10   17.46    0.71
  -1  -1  10   15.60    0.70
  -1  -1  10   15.99    0.68
  -1  -1  10   17.70    0.82
  -1  -1  10   17.26    0.82
  -1  -1  10   15.73    0.60
  -1  -1  10   14.76    0.69
   0   1 -10   63.83    2.09
   0   1 -10   68.66    2.03
   0   1 -10   68.18    2.32
   0   1 -10   66.11    2.11
   0   1 -10   66.95    2.06
   0   1 -10   67.35    2.30
   0   1 -10   67.14    2.00
   0   1 -10   66.54    1.91
   0   1 -10   67.20    2.04
   0  -1  10   66.24    1.88
   0  -1  10   68.41    2.31
   0  -1  10   68.07    2.14
   0  -1  10   70.33    2.03
   0  -1  10   69.12    2.03
   0  -1  10   68.51    2.31
   0  -1  10   69.14    1.99
  -1   1 -10    2.09    0.27
  -1   1 -10    1.68    0.28
  -1   1 -10    1.43    0.20
  -1   1 -10    1.48    0.24
  -1   1 -10    1.49    0.24
  -1   1 -10    2.01    0.30
  -1   1 -10    1.36    0.21
   1  -1  10    1.61    0.27
   1  -1  10    1.65    0.17
   1  -1  10    1.69    0.20
   1  -1  10    2.06    0.26
   1  -1  10    1.59    0.22
   1  -1  10    1.74    0.13
  -2   1 -10   20.83    0.84
  -2   1 -10   20.31    0.86
  -2   1 -10   20.22    0.97
  -2   1 -10   20.35    0.87
  -2   1 -10   20.05    0.94
  -2   1 -10   20.21    0.75
   2  -1  10   20.20    0.76
   2  -1  10   20.53    0.82
   2  -1  10   20.30    0.76
   2  -1  10   19.69    0.94
   2  -1  10   19.04    0.72
  -3   1 -10    3.50    0.28
  -3   1 -10    3.32    0.40
  -3   1 -10    2.57    0.32
  -3   1 -10    3.16    0.40
  -3   1 -10    3.60    0.39
   3  -1  10    2.93    0.32
   3  -1  10    2.96    0.24
   3  -1  10    3.37    0.27
   3  -1  10    3.07    0.23
   3  -1  10    3.28    0.34
   3  -1  10    3.06    0.25
   3  -1  10    3.16    0.39
  -4   1 -10   33.17    1.26
  -4   1 -10   34.43    1.14
  -4   1 -10   32.45    1.39
  -4   1 -10   32.25    1.23
   4  -1  10   31.55    1.07
   4  -1  10   31.92    1.16
   4  -1  10   33.33    1.25
   4  -1  10   27.07    1.32
   4  -1  10   33.38    1.08
  -5   1 -10   18.41    0.88
  -5   1 -10   19.23    0.80
   5  -1  10   17.82    0.69
   5  -1  10   19.04    0.70
   5  -1  10   17.76    0.79
   5  -1  10   16.57    0.87
  -6   1 -10    2.76    0.35
  -6   1 -10    2.70    0.40
   6  -1  10    2.78    0.22
   6  -1  10    2.59    0.40
   6  -1  10    2.16    0.30
   6  -1  10    2.78    0.22
  -7   1 -10    4.48    0.45
  -7   1 -10    4.58    0.54
   7  -1  10    4.61    0.56
   7  -1  10    4.33    0.41
   7   0 -10    0.09    0.15
   7   0 -10    0.39    0.16
   7   0 -10    0.17    0.18
   7   0 -10    0.14    0.20
  -7   0  10    0.84    0.21
   6   0 -10    4.01    0.41
   6   0 -10    3.38    0.41
   6   0 -10    3.78    0.36
   6   0 -10    3.19    0.44
  -6   0  10    4.22    0.50
  -6   0  10    4.30    0.40
   5   0 -10    1.00    0.22
   5   0 -10    1.35    0.28
   5   0 -10    1.01    0.19
   5   0 -10    0.90    0.21
   5   0 -10    0.93    0.12
  -5   0  10    1.18    0.29
  -5   0  10    0.80    0.18
  -5   0  10    1.19    0.27
   4   0 -10   11.60    0.61
   4   0 -10   12.91    0.49
   4   0 -10   11.27    0.73
   4   0 -10   11.64    0.63
   4   0 -10   11.71    0.57
   4   0 -10   12.24    0.71
   4   0 -10   12.44    0.64
  -4   0  10   12.43    0.75
  -4   0  10   11.74    0.66
  -4   0  10   12.68    0.57
  -4   0  10   11.15    0.66
   3   0 -10    0.45    0.12
   3   0 -10    0.32    0.14
   3   0 -10    0.65    0.17
   3   0 -10    0.38    0.16
   3   0 -10    0.29    0.14
   3   0 -10    0.75    0.22
   3   0 -10    0.36    0.13
   3   0 -10    0.03    0.12
  -3   0  10    0.36    0.12
  -3   0  10    0.24    0.13
  -3   0  10    0.40    0.17
  -3   0  10    0.14    0.16
  -3   0  10    0.34    0.17
   2   0 -10    1.23    0.23
   2   0 -10    1.19    0.22
   2   0 -10    1.10    0.21
   2   0 -10    1.15    0.17
   2   0 -10    0.58    0.16
   2   0 -10    1.08    0.24
   2   0 -10    1.28    0.25
   2   0 -10    1.21    0.19
   2   0 -10    0.91    0.17
   2   0 -10    1.39    0.19
   2   0 -10    1.09    0.22
  -2   0  10    1.14    0.20
  -2   0  10    1.13    0.20
  -2   0  10    1.11    0.19
  -2   0  10    0.99    0.21
  -2   0  10    1.14    0.17
  -2   0  10    1.08    0.24
  -2   0  10    0.83    0.21
   1   0 -10   51.34    1.52
   1   0 -10   50.61    1.85
   1   0 -10   50.18    1.51
   1   0 -10   50.83    1.64
   1   0 -10   52.59    1.62
   1   0 -10   53.53    1.62
   1   0 -10   48.49    1.67
   1   0 -10   53.10    1.63
   1   0 -10   54.39    1.87
   1   0 -10   53.96    1.60
   1   0 -10   54.71    1.75
  -1   0  10   52.89    1.86
  -1   0  10   48.80    1.63
  -1   0  10   52.40    1.61
  -1   0  10   52.69    1.71
  -1   0  10   52.42    1.61
  -1   0  10   52.94    1.88
  -1   0  10   50.10    1.48
   0   0 -10  231.63    6.06
   0   0 -10  223.74    6.30
   0   0 -10  225.42    6.13
   0   0 -10  236.36    6.40
   0   0 -10  224.41    6.18
   0   0 -10  235.09    6.87
   0   0 -10  237.38    6.05
   0   0 -10  232.40    6.10
   0   0 -10  225.14    6.86
   0   0 -10  221.52    5.93
   0   0  10  230.24    6.85
   0   0  10  224.69    5.88
   0   0  10  236.23    6.02
   0   0  10  230.86    6.05
   0   0  10  233.14    6.08
   0   0  10  228.48    6.12
   0   0  10  232.19    6.87
  -1   0 -10   27.58    1.02
  -1   0 -10   28.35    1.15
  -1   0 -10   27.90    1.00
  -1   0 -10   27.41    0.91
  -1   0 -10   27.92    0.97
  -1   0 -10   27.41    1.13
  -1   0 -10   29.09    1.06
  -1   0 -10   27.62    0.98
  -1   0 -10   27.37    1.02
  -1   0 -10   28.24    1.05
   1   0  10   28.32    0.83
   1   0  10   26.63    1.12
   1   0  10   28.04    0.91
   1   0  10   28.66    0.84
   1   0  10   28.64    0.98
   1   0  10   27.49    1.13
   1   0  10   27.19    0.97
   1   0  10   27.73    0.92
   1   0  10   28.53    0.96
  -2   0 -10    7.56    0.50
  -2   0 -10    8.65    0.48
  -2   0 -10    7.93    0.48
  -2   0 -10    7.76    0.46
  -2   0 -10    8.37    0.48
  -2   0 -10    7.72    0.39
   2   0  10    7.96    0.35
   2   0  10    7.78    0.42
   2   0  10    8.49    0.41
   2   0  10    7.47    0.42
   2   0  10    8.09    0.51
   2   0  10    7.95    0.37
   2   0  10    8.71    0.39
  -3   0 -10    0.02    0.11
  -3   0 -10   -0.04    0.11
  -3   0 -10    0.00    0.10
  -3   0 -10    0.28    0.13
  -3   0 -10    0.10    0.10
  -3   0 -10    0.01    0.11
  -3   0 -10    0.14    0.10
   3   0  10    0.10    0.07
   3   0  10    0.24    0.09
   3   0  10    0.17    0.06
   3   0  10    0.15    0.09
   3   0  10    0.05    0.09
   3   0  10    0.24    0.10
   3   0  10    0.04    0.10
   3   0  10    0.13    0.10
  -4   0 -10    2.75    0.29
  -4   0 -10    3.57    0.39
  -4   0 -10    3.04    0.36
  -4   0 -10    2.94    0.35
  -4   0 -10    2.79    0.36
  -4   0 -10    2.66    0.37
   4   0  10    2.60    0.34
   4   0  10    3.18    0.31
   4   0  10    2.79    0.28
   4   0  10    2.70    0.32
   4   0  10    3.02    0.22
   4   0  10    2.48    0.20
  -5   0 -10    0.27    0.14
  -5   0 -10   -0.09    0.12
  -5   0 -10    0.04    0.14
  -5   0 -10    0.03    0.13
   5   0  10    0.02    0.07
   5   0  10    0.17    0.07
   5   0  10    0.10    0.12
   5   0  10   -0.08    0.08
   5   0  10    0.05    0.14
  -6   0 -10    4.90    0.37
  -6   0 -10    3.96    0.47
   6   0  10    4.03    0.48
   6   0  10    5.07    0.34
   6   0  10    5.14    0.35
  -7   0 -10    1.45    0.31
   7   0  10    0.97    0.29
   7   0  10    1.18    0.19
   7   0  10    0.80    0.18
  -8   0 -10   12.89    0.82
   8   0  10   13.05    0.54
   8   0  10   12.60    0.83
   8   0  10   11.60    0.52
   7  -1 -10    0.30    0.22
   7  -1 -10    0.01    0.12
   7  -1 -10    0.46    0.19
   7  -1 -10    0.19    0.22
  -7   1  10    0.30    0.17
   6  -1 -10    7.92    0.60
   6  -1 -10    7.87    0.49
   6  -1 -10    7.21    0.55
   6  -1 -10    8.08    0.54
  -6   1  10    7.31    0.48
   5  -1 -10   23.51    0.78
   5  -1 -10   23.81    0.99
   5  -1 -10   22.97    0.93
   5  -1 -10   21.60    1.00
   5  -1 -10   22.93    1.04
  -5   1  10   21.75    0.89
   4  -1 -10   17.81    0.80
   4  -1 -10   16.93    0.81
   4  -1 -10   17.54    0.66
   4  -1 -10   17.87    0.76
   4  -1 -10   16.32    0.89
   4  -1 -10   18.14    0.73
   4  -1 -10   17.78    0.97
   4  -1 -10   16.53    0.80
  -4   1  10   16.69    0.70
  -4   1  10   17.27    0.95
  -4   1  10   17.34    0.85
   3  -1 -10    0.31    0.13
   3  -1 -10    0.32    0.13
   3  -1 -10    0.53    0.19
   3  -1 -10    0.69    0.21
   3  -1 -10    0.63    0.19
   3  -1 -10    0.54    0.16
   3  -1 -10    0.52    0.13
   3  -1 -10    0.42    0.13
   3  -1 -10    0.40    0.15
  -3   1  10    0.33    0.17
  -3   1  10    0.71    0.21
  -3   1  10    0.59    0.16
  -3   1  10    0.43    0.13
   2  -1 -10    0.36    0.12
   2  -1 -10    0.14    0.09
   2  -1 -10    0.50    0.13
   2  -1 -10    0.54    0.17
   2  -1 -10    0.53    0.16
   2  -1 -10    0.37    0.17
   2  -1 -10    0.37    0.13
   2  -1 -10    0.46    0.16
   2  -1 -10    0.26    0.18
   2  -1 -10    0.51    0.14
  -2   1  10    0.67    0.13
  -2   1  10    0.43    0.14
  -2   1  10    0.49    0.17
  -2   1  10    0.30    0.13
  -2   1  10    0.33    0.14
   1  -1 -10    0.12    0.10
   1  -1 -10    0.03    0.10
   1  -1 -10    0.14    0.08
   1  -1 -10   -0.03    0.09
   1  -1 -10    0.03    0.12
   1  -1 -10    0.14    0.11
   1  -1 -10    0.12    0.08
   1  -1 -10   -0.04    0.07
   1  -1 -10    0.20    0.11
   1  -1 -10    0.47    0.13
   1  -1 -10    0.15    0.10
  -1   1  10    0.11    0.09
  -1   1  10    0.08    0.07
  -1   1  10    0.00    0.11
  -1   1  10    0.18    0.10
  -1   1  10    0.16    0.11
  -1   1  10   -0.03    0.09
  -1   1  10    0.03    0.07
   0  -1 -10   24.96    0.76
   0  -1 -10   25.18    0.91
   0  -1 -10   24.77    0.89
   0  -1 -10   24.41    0.83
   0  -1 -10   26.57    0.87
   0  -1 -10   24.78    0.92
   0  -1 -10   24.58    0.88
   0  -1 -10   23.93    0.92
   0  -1 -10   25.23    0.95
   0  -1 -10   24.79    1.05
   0  -1 -10   24.55    1.04
   0  -1 -10   25.82    1.00
   0   1  10   24.96    0.85
   0   1  10   24.68    0.87
   0   1  10   24.73    1.05
   0   1  10   24.71    1.04
   0   1  10   25.45    0.93
   0   1  10   24.66    0.75
   0   1  10   24.07    0.89
   0   1  10   26.05    0.89
  -1  -1 -10   34.29    1.17
  -1  -1 -10   35.70    1.06
  -1  -1 -10   33.73    1.20
  -1  -1 -10   32.52    1.29
  -1  -1 -10   34.78    1.31
  -1  -1 -10   35.28    1.16
  -1  -1 -10   34.32    1.23
  -1  -1 -10   33.92    1.12
  -1  -1 -10   33.70    1.13
  -1  -1 -10   33.26    1.06
  -1  -1 -10   34.34    1.16
   1   1  10   35.32    1.11
   1   1  10   34.67    1.31
   1   1  10   31.74    1.10
   1   1  10   35.23    1.06
   1   1  10   33.84    1.05
   1   1  10   32.89    1.29
   1   1  10   34.71    1.13
   1   1  10   34.27    0.92
  -2  -1 -10    8.23    0.46
  -2  -1 -10    7.56    0.37
  -2  -1 -10    8.19    0.51
  -2  -1 -10    7.93    0.48
  -2  -1 -10    7.50    0.44
  -2  -1 -10    7.32    0.47
  -2  -1 -10    7.56    0.42
   2   1  10    7.47    0.40
   2   1  10    8.95    0.36
   2   1  10    8.48    0.41
   2   1  10    7.50    0.38
   2   1  10    8.04    0.34
   2   1  10    8.63    0.50
   2   1  10    8.09    0.33
  -3  -1 -10   42.77    1.56
  -3  -1 -10   44.58    1.64
  -3  -1 -10   46.39    1.36
  -3  -1 -10   44.92    1.55
  -3  -1 -10   45.44    1.49
  -3  -1 -10   46.32    1.56
   3   1  10   46.22    1.65
   3   1  10   45.37    1.28
   3   1  10   47.31    1.35
   3   1  10   45.96    1.28
   3   1  10   45.59    1.45
   3   1  10   46.06    1.39
   3   1  10   44.95    1.39
   3   1  10   47.31    1.24
  -4  -1 -10   60.55    2.22
  -4  -1 -10   67.64    1.89
  -4  -1 -10   66.69    2.14
  -4  -1 -10   65.37    2.04
  -4  -1 -10   65.06    2.30
  -4  -1 -10   65.99    2.16
  -4  -1 -10   68.83    2.15
   4   1  10   65.25    1.89
   4   1  10   66.46    2.07
   4   1  10   66.01    1.89
  -5  -1 -10    0.05    0.13
  -5  -1 -10   -0.06    0.11
  -5  -1 -10   -0.13    0.10
  -5  -1 -10    0.19    0.12
  -5  -1 -10    0.05    0.10
  -5  -1 -10    0.21    0.13
  -5  -1 -10    0.16    0.12
   5   1  10    0.12    0.10
   5   1  10   -0.16    0.11
   5   1  10    0.02    0.09
  -6  -1 -10   23.23    1.06
   6   1  10   23.70    0.78
   6   1  10   22.46    1.01
   6   1  10   21.33    0.76
  -7  -1 -10    1.98    0.35
   7   1  10    1.85    0.35
   7   1  10    1.78    0.17
   7   1  10    1.64    0.16
  -8  -1 -10    0.55    0.23
   8   1  10    0.86    0.28
   8   1  10    0.35    0.16
   6  -2 -10    0.26    0.10
   6  -2 -10    0.01    0.17
   6  -2 -10    0.07    0.13
   6  -2 -10    0.15    0.17
  -6   2  10   -0.01    0.11
   5  -2 -10   20.96    0.89
   5  -2 -10   20.84    0.77
   5  -2 -10   20.76    1.17
   5  -2 -10   21.11    1.00
   5  -2 -10   19.49    0.98
  -5   2  10   20.93    0.85
   4  -2 -10   22.82    1.17
   4  -2 -10   21.38    1.05
   4  -2 -10   22.10    0.99
   4  -2 -10   22.19    0.82
   4  -2 -10   19.10    0.88
   4  -2 -10   23.14    1.00
  -4   2  10   22.00    0.83
  -4   2  10   22.35    1.14
   3  -2 -10    1.11    0.24
   3  -2 -10    1.09    0.25
   3  -2 -10    1.12    0.21
   3  -2 -10    0.97    0.22
   3  -2 -10    1.04    0.26
  -3   2  10    0.64    0.22
  -3   2  10    1.17    0.22
  -3   2  10    0.96    0.17
   2  -2 -10   20.97    1.01
   2  -2 -10   20.23    0.87
   2  -2 -10   21.31    0.82
   2  -2 -10   19.82    0.97
   2  -2 -10   20.05    0.97
   2  -2 -10   19.71    0.90
  -2   2  10   19.81    0.98
  -2   2  10   20.34    0.71
  -2   2  10   20.49    0.83
  -2   2  10   19.15    0.88
   1  -2 -10   23.29    0.99
   1  -2 -10   21.58    0.86
   1  -2 -10   21.88    0.83
   1  -2 -10   20.87    0.83
   1  -2 -10   21.15    0.78
   1  -2 -10   20.53    0.91
   1  -2 -10   21.71    1.00
  -1   2  10   21.96    0.89
  -1   2  10   20.56    0.82
  -1   2  10   21.80    0.69
  -1   2  10   21.30    0.78
  -1   2  10   20.57    0.98
   0  -2 -10   16.20    0.80
   0  -2 -10   15.90    0.69
   0  -2 -10   17.20    0.79
   0  -2 -10   16.61    0.68
   0  -2 -10   17.30    0.59
   0  -2 -10   16.22    0.71
   0  -2 -10   16.88    0.66
   0  -2 -10   16.13    0.68
   0  -2 -10   16.23    0.65
   0  -2 -10   16.42    0.68
   0  -2 -10   17.42    0.80
   0  -2 -10   15.81    0.74
   0   2  10   16.33    0.66
   0   2  10   17.07    0.72
   0   2  10   16.58    0.49
   0   2  10   16.71    0.66
   0   2  10   16.40    0.80
   0   2  10   15.17    0.60
  -1  -2 -10   34.27    1.22
  -1  -2 -10   34.47    1.17
  -1  -2 -10   36.28    0.98
  -1  -2 -10   33.98    1.32
  -1  -2 -10   35.42    1.16
  -1  -2 -10   34.61    1.26
  -1  -2 -10   36.25    1.33
  -1  -2 -10   36.26    1.08
  -1  -2 -10   35.31    1.17
   1   2  10   33.15    1.32
   1   2  10   34.81    1.12
   1   2  10   36.21    1.12
   1   2  10   35.26    1.17
   1   2  10   34.65    1.05
  -2  -2 -10    1.64    0.24
  -2  -2 -10    1.32    0.20
  -2  -2 -10    1.55    0.12
  -2  -2 -10    1.43    0.24
  -2  -2 -10    1.41    0.23
  -2  -2 -10    1.47    0.21
  -2  -2 -10    1.51    0.20
   2   2  10    1.74    0.19
   2   2  10    1.63    0.13
   2   2  10    1.51    0.20
   2   2  10    1.54    0.23
   2   2  10    1.42    0.18
   2   2  10    1.48    0.19
   2   2  10    1.62    0.15
  -3  -2 -10   15.13    0.74
  -3  -2 -10   17.28    0.73
  -3  -2 -10   17.33    0.78
  -3  -2 -10   17.63    0.72
  -3  -2 -10   16.29    0.76
  -3  -2 -10   17.07    0.70
   3   2  10   16.41    0.60
   3   2  10   17.32    0.77
   3   2  10   16.10    0.60
   3   2  10   17.38    0.66
   3   2  10   16.25    0.58
  -4  -2 -10   15.94    0.71
  -4  -2 -10   16.87    0.72
  -4  -2 -10   14.33    0.73
  -4  -2 -10   15.99    0.78
  -4  -2 -10   16.24    0.69
   4   2  10   17.50    0.56
   4   2  10   16.89    0.70
   4   2  10   13.96    0.71
   4   2  10   16.13    0.55
  -5  -2 -10   12.20    0.69
  -5  -2 -10   12.05    0.63
  -5  -2 -10   12.52    0.65
  -5  -2 -10   13.47    0.65
  -5  -2 -10   12.23    0.69
   5   2  10   12.05    0.40
   5   2  10   12.13    0.61
   5   2  10   12.17    0.40
  -6  -2 -10    1.62    0.29
  -6  -2 -10    1.02    0.25
  -6  -2 -10    1.57    0.28
  -6  -2 -10    1.29    0.25
  -6  -2 -10    1.69    0.28
   6   2  10    1.52    0.28
  -7  -2 -10    1.94    0.36
  -7  -2 -10    2.27    0.33
   7   2  10    2.58    0.39
  -8  -2 -10    2.87    0.45
   8   2  10    2.96    0.44
  -9  -2 -10    0.31    0.20
   9   2  10    0.11    0.20
   6  -3 -10    0.83    0.30
   6  -3 -10    0.84    0.16
  -6   3  10    0.65    0.19
   5  -3 -10    0.06    0.12
   5  -3 -10   -0.04    0.15
   5  -3 -10    0.04    0.18
  -5   3  10    0.04    0.11
   4  -3 -10    3.90    0.37
   4  -3 -10    5.69    0.48
   4  -3 -10    4.62    0.60
   4  -3 -10    5.31    0.53
  -4   3  10    5.17    0.61
  -4   3  10    4.87    0.34
   3  -3 -10   13.73    0.71
   3  -3 -10   12.68    0.75
   3  -3 -10   15.14    0.76
   3  -3 -10   12.74    0.83
  -3   3  10   13.71    0.83
  -3   3  10   12.50    0.54
  -3   3  10   13.23    0.69
   2  -3 -10    9.48    0.64
   2  -3 -10    7.95    0.55
   2  -3 -10    8.07    0.53
   2  -3 -10    8.53    0.53
  -2   3  10    8.26    0.59
  -2   3  10    8.55    0.50
  -2   3  10    8.16    0.37
   1  -3 -10   66.08    2.37
   1  -3 -10   66.39    2.08
   1  -3 -10   65.91    2.05
   1  -3 -10   65.12    2.18
   1  -3 -10   72.79    2.37
  -1   3  10   68.75    1.79
  -1   3  10   66.19    2.34
  -1   3  10   66.76    1.95
  -1   3  10   66.60    2.02
   0  -3 -10   14.43    0.78
   0  -3 -10   17.02    0.80
   0  -3 -10   15.96    0.66
   0  -3 -10   14.02    0.75
   0  -3 -10   16.26    0.68
   0  -3 -10   15.29    0.70
   0  -3 -10   14.98    0.74
   0  -3 -10   15.73    0.69
   0   3  10   16.90    0.65
   0   3  10   15.67    0.64
   0   3  10   15.70    0.58
   0   3  10   15.82    0.79
  -1  -3 -10   10.70    0.49
  -1  -3 -10   10.12    0.59
  -1  -3 -10   10.19    0.45
  -1  -3 -10   11.28    0.59
  -1  -3 -10   10.07    0.52
  -1  -3 -10   10.26    0.51
  -1  -3 -10    9.87    0.56
  -1  -3 -10   10.70    0.48
  -1  -3 -10   10.11    0.58
   1   3  10   10.73    0.59
   1   3  10    9.94    0.38
   1   3  10   10.17    0.45
   1   3  10    9.94    0.49
   1   3  10   10.33    0.46
  -2  -3 -10    1.12    0.22
  -2  -3 -10    0.85    0.18
  -2  -3 -10    1.10    0.20
  -2  -3 -10    1.00    0.15
  -2  -3 -10    0.81    0.15
  -2  -3 -10    1.05    0.13
  -2  -3 -10    0.85    0.16
  -2  -3 -10    0.82    0.16
   2   3  10    0.85    0.13
   2   3  10    1.25    0.21
   2   3  10    0.86    0.13
  -3  -3 -10   39.40    1.39
  -3  -3 -10   37.06    1.37
  -3  -3 -10   39.23    1.24
  -3  -3 -10   38.09    1.21
  -3  -3 -10   38.64    1.29
  -3  -3 -10   38.07    1.38
   3   3  10   36.53    1.06
   3   3  10   38.92    1.38
   3   3  10   38.18    1.25
   3   3  10   37.86    1.06
  -4  -3 -10    7.44    0.45
  -4  -3 -10    8.63    0.45
  -4  -3 -10    7.81    0.43
  -4  -3 -10    7.65    0.51
  -4  -3 -10    6.96    0.40
   4   3  10    8.03    0.45
  -5  -3 -10    9.80    0.54
  -5  -3 -10    9.26    0.61
  -5  -3 -10   10.49    0.54
  -5  -3 -10   10.61    0.54
   5   3  10   10.93    0.58
  -6  -3 -10    0.30    0.15
  -6  -3 -10    0.21    0.12
  -6  -3 -10    0.13    0.12
  -6  -3 -10    0.24    0.16
  -6  -3 -10    0.16    0.14
   6   3  10   -0.06    0.11
  -7  -3 -10   11.33    0.74
  -7  -3 -10   12.13    0.66
  -7  -3 -10   12.22    0.66
   7   3  10   12.51    0.72
  -8  -3 -10    6.44    0.67
  -8  -3 -10    6.53    0.50
   8   3  10    6.46    0.56
  -9  -3 -10    0.53    0.26
   9   3  10    0.99    0.30
   5  -4 -10    1.87    0.40
   5  -4 -10    2.23    0.41
  -5   4  10    1.88    0.25
   4  -4 -10    3.26    0.44
   4  -4 -10    2.75    0.38
  -4   4  10    3.20    0.26
   3  -4 -10   35.03    1.44
   3  -4 -10   33.03    1.41
   3  -4 -10   35.61    1.40
  -3   4  10   37.63    1.35
  -3   4  10   34.81    1.09
   2  -4 -10    3.84    0.43
   2  -4 -10    3.41    0.41
   2  -4 -10    2.82    0.45
   2  -4 -10    3.45    0.41
  -2   4  10    3.68    0.38
  -2   4  10    3.16    0.43
  -2   4  10    3.31    0.19
   1  -4 -10    7.89    0.51
   1  -4 -10    6.28    0.48
   1  -4 -10    8.12    0.59
   1  -4 -10    7.31    0.54
  -1   4  10    8.88    0.59
  -1   4  10    7.68    0.45
  -1   4  10    7.50    0.40
   0  -4 -10    0.16    0.12
   0  -4 -10   -0.05    0.12
   0  -4 -10   -0.07    0.08
   0  -4 -10    0.12    0.11
   0  -4 -10   -0.07    0.07
   0  -4 -10    0.06    0.12
   0  -4 -10   -0.07    0.11
   0   4  10    0.07    0.09
   0   4  10    0.06    0.12
   0   4  10    0.06    0.08
   0   4  10   -0.10    0.10
  -1  -4 -10    1.45    0.23
  -1  -4 -10    1.23    0.20
  -1  -4 -10    1.49    0.24
  -1  -4 -10    1.34    0.24
  -1  -4 -10    1.10    0.22
  -1  -4 -10    1.29    0.19
  -1  -4 -10    1.43    0.25
  -1  -4 -10    1.22    0.21
   1   4  10    1.19    0.17
   1   4  10    1.18    0.17
   1   4  10    1.39    0.25
  -2  -4 -10   15.45    0.68
  -2  -4 -10   15.79    0.75
  -2  -4 -10   16.69    0.76
  -2  -4 -10   14.70    0.62
  -2  -4 -10   16.68    0.76
  -2  -4 -10   16.65    0.60
  -2  -4 -10   15.21    0.72
  -2  -4 -10   16.88    0.67
   2   4  10   15.62    0.53
   2   4  10   14.23    0.71
   2   4  10   15.12    0.53
  -3  -4 -10   70.47    2.05
  -3  -4 -10   72.53    2.00
  -3  -4 -10   71.83    1.90
  -3  -4 -10   68.01    2.15
  -3  -4 -10   66.07    2.25
  -3  -4 -10   70.97    2.29
  -3  -4 -10   69.26    2.27
   3   4  10   71.76    2.16
  -4  -4 -10    3.87    0.29
  -4  -4 -10    3.32    0.29
  -4  -4 -10    4.55    0.40
  -4  -4 -10    4.12    0.24
   4   4  10    3.70    0.30
  -5  -4 -10    3.85    0.29
  -5  -4 -10    4.01    0.30
  -5  -4 -10    4.35    0.31
  -5  -4 -10    3.68    0.44
   5   4  10    4.49    0.37
  -6  -4 -10    2.14    0.36
  -6  -4 -10    1.81    0.24
  -6  -4 -10    2.14    0.27
  -6  -4 -10    1.44    0.21
   6   4  10    1.64    0.29
  -7  -4 -10   10.53    0.57
  -7  -4 -10   10.13    0.52
  -7  -4 -10    9.64    0.55
  -7  -4 -10    9.55    0.67
   7   4  10    9.05    0.63
  -8  -4 -10    0.34    0.16
  -8  -4 -10    0.54    0.18
  -8  -4 -10    0.70    0.26
   8   4  10    0.69    0.27
  -9  -4 -10    0.59    0.21
  -9  -4 -10    1.12    0.31
   9   4  10    1.22    0.32
   4  -5 -10    0.30    0.16
   4  -5 -10   -0.02    0.17
  -4   5  10    0.17    0.09
   3  -5 -10    1.53    0.31
   3  -5 -10    1.40    0.30
   2  -5 -10    1.10    0.26
   2  -5 -10    0.57    0.21
   2  -5 -10    0.32    0.18
  -2   5  10    1.34    0.25
   1  -5 -10    5.75    0.50
   1  -5 -10    7.14    0.50
   1  -5 -10    5.79    0.46
  -1   5  10    6.48    0.43
   0  -5 -10    2.04    0.30
   0  -5 -10    1.89    0.27
   0  -5 -10    1.11    0.27
   0  -5 -10    1.96    0.29
   0  -5 -10    1.28    0.28
   0   5  10    2.05    0.24
   0   5  10    2.16    0.26
  -1  -5 -10    1.74    0.26
  -1  -5 -10    1.51    0.27
  -1  -5 -10    1.75    0.26
  -1  -5 -10    1.91    0.33
  -1  -5 -10    1.77    0.28
  -1  -5 -10    1.67    0.23
  -1  -5 -10    1.33    0.25
   1   5  10    2.10    0.21
   1   5  10    1.20    0.17
  -2  -5 -10    3.99    0.30
  -2  -5 -10    3.75    0.31
  -2  -5 -10    3.25    0.27
  -2  -5 -10    3.83    0.41
  -2  -5 -10    3.59    0.32
  -2  -5 -10    3.72    0.34
   2   5  10    3.59    0.18
  -3  -5 -10   17.65    0.84
  -3  -5 -10   18.09    0.79
  -3  -5 -10   18.38    0.75
  -3  -5 -10   18.37    0.83
  -3  -5 -10   18.51    0.70
  -4  -5 -10    3.37    0.27
  -4  -5 -10    2.98    0.26
  -4  -5 -10    2.65    0.36
   4   5  10    3.74    0.38
  -5  -5 -10    3.02    0.41
  -5  -5 -10    3.49    0.27
  -5  -5 -10    3.36    0.24
   5   5  10    2.62    0.34
  -6  -5 -10   37.29    1.24
  -6  -5 -10   34.07    1.44
  -6  -5 -10   36.39    1.24
  -6  -5 -10   35.94    1.16
   6   5  10   35.39    1.39
  -7  -5 -10   27.90    1.29
  -7  -5 -10   31.10    1.10
   7   5  10   29.01    1.27
  -8  -5 -10    0.01    0.12
  -8  -5 -10   -0.14    0.15
  -8  -5 -10   -0.15    0.11
   8   5  10   -0.22    0.14
  -9  -5 -10    5.13    0.63
  -9  -5 -10    5.09    0.43
  -9  -5 -10    5.39    0.42
   9   5  10    3.25    0.50
   3  -6 -10    0.62    0.26
   3  -6 -10    1.22    0.30
   2  -6 -10   12.26    0.81
   2  -6 -10   11.61    0.74
  -2   6  10   12.04    0.66
   1  -6 -10    4.72    0.50
   1  -6 -10    5.11    0.44
   1  -6 -10    3.56    0.48
  -1   6  10    4.74    0.38
   0  -6 -10   -0.02    0.12
   0  -6 -10    0.13    0.15
   0   6  10    0.06    0.10
   0   6  10    0.15    0.12
  -1  -6 -10    4.78    0.37
  -1  -6 -10    3.82    0.42
  -1  -6 -10    4.63    0.55
   1   6  10    4.34    0.28
   1   6  10    4.64    0.28
  -2  -6 -10    9.37    0.54
  -2  -6 -10    8.26    0.64
  -2  -6 -10    9.33    0.50
  -2  -6 -10    9.90    0.58
  -2  -6 -10    9.83    0.59
  -3  -6 -10    0.24    0.13
  -3  -6 -10    0.40    0.15
  -3  -6 -10    0.26    0.15
  -3  -6 -10    0.59    0.16
  -3  -6 -10    0.43    0.13
  -4  -6 -10    3.90    0.43
  -4  -6 -10    3.88    0.30
  -4  -6 -10    3.11    0.26
  -4  -6 -10    3.46    0.25
  -4  -6 -10    3.68    0.32
  -5  -6 -10    0.37    0.12
  -5  -6 -10    0.32    0.09
  -5  -6 -10    0.44    0.21
   5   6  10    0.39    0.18
  -6  -6 -10   22.21    0.83
  -6  -6 -10   22.71    1.08
   6   6  10   22.68    1.04
  -7  -6 -10   25.42    0.96
  -7  -6 -10   26.08    1.23
   7   6  10   27.23    1.20
  -8  -6 -10    5.13    0.36
  -8  -6 -10    5.37    0.36
  -8  -6 -10    5.27    0.61
   8   6  10    6.15    0.64
  -9  -6 -10    0.30    0.15
  -9  -6 -10    0.47    0.15
  -9  -6 -10    0.40    0.24
   9   6  10    0.49    0.24
   2  -7 -10    0.34    0.22
  -2   7  10    0.27    0.18
   1  -7 -10    0.43    0.22
  -1   7  10    0.71    0.21
   0  -7 -10    5.87    0.66
   0   7  10    5.38    0.36
   0   7  10    5.48    0.36
  -1  -7 -10    0.81    0.21
  -1  -7 -10    0.81    0.26
  -1  -7 -10    0.79    0.22
   1   7  10    0.93    0.14
   1   7  10    0.82    0.13
  -2  -7 -10   17.22    0.83
  -2  -7 -10   17.04    0.76
  -2  -7 -10   17.46    1.00
  -3  -7 -10    5.43    0.62
  -3  -7 -10    6.27    0.47
  -3  -7 -10    5.60    0.42
  -3  -7 -10    5.56    0.38
  -4  -7 -10    3.54    0.27
  -4  -7 -10    3.01    0.32
  -4  -7 -10    3.60    0.40
  -4  -7 -10    4.03    0.44
  -4  -7 -10    3.40    0.48
  -5  -7 -10    2.63    0.22
  -5  -7 -10    3.48    0.28
  -5  -7 -10    3.39    0.42
  -6  -7 -10    3.83    0.28
  -6  -7 -10    4.36    0.51
   6   7  10    4.45    0.51
  -7  -7 -10    0.93    0.27
  -7  -7 -10    0.71    0.15
   7   7  10    1.00    0.28
  -8  -7 -10    0.75    0.15
  -8  -7 -10    0.53    0.26
   8   7  10    0.60    0.25
  -9  -7 -10    1.93    0.40
  -9  -7 -10    1.75    0.24
  -9  -7 -10    1.55    0.22
   9   7  10    2.03    0.40
   0  -8 -10    8.39    0.74
   0   8  10    9.65    0.47
   0   8  10    9.10    0.45
  -1  -8 -10    0.89    0.30
  -2  -8 -10    0.43    0.18
  -2  -8 -10    0.30    0.20
  -3  -8 -10    0.35    0.16
  -3  -8 -10    0.10    0.11
  -3  -8 -10    0.09    0.17
  -4  -8 -10    4.56    0.34
  -4  -8 -10    4.70    0.39
  -4  -8 -10    4.90    0.61
  -5  -8 -10    1.12    0.26
  -5  -8 -10    0.63    0.15
  -5  -8 -10    1.02    0.30
  -5  -8 -10    0.85    0.18
  -6  -8 -10    1.94    0.40
  -6  -8 -10    1.76    0.23
  -6  -8 -10    1.93    0.36
  -6  -8 -10    1.78    0.19
  -7  -8 -10    0.88    0.16
  -7  -8 -10    1.23    0.33
  -7  -8 -10    0.81    0.25
   7   8  10    0.53    0.24
  -8  -8 -10   13.41    0.56
  -8  -8 -10   13.20    0.84
   8   8  10   13.72    0.88
  -2  -9 -10    0.34    0.24
  -3  -9 -10   15.04    1.02
  -3  -9 -10   15.93    0.78
  -4  -9 -10    1.31    0.27
  -4  -9 -10    1.40    0.26
  -4  -9 -10    1.77    0.40
  -5  -9 -10    6.87    0.44
  -5  -9 -10    6.61    0.46
  -5  -9 -10    6.38    0.73
  -6  -9 -10    4.40    0.64
  -6  -9 -10    4.57    0.35
  -7  -9 -10    0.68    0.27
  -7  -9 -10    0.65    0.15
   4   8 -11    3.32    0.46
   4   8 -11    3.77    0.24
  -4  -8  11    3.01    0.50
   3   8 -11    4.40    0.54
  -3  -8  11    3.47    0.52
  -3  -8  11    3.95    0.43
  -6  -7  11    4.52    0.57
   5   7 -11    0.35    0.20
  -5  -7  11    0.36    0.23
   4   7 -11    5.93    0.60
   4   7 -11    6.32    0.37
  -4  -7  11    5.52    0.62
   3   7 -11    0.28    0.17
  -3  -7  11    0.28    0.19
  -3  -7  11    0.12    0.14
   2   7 -11    2.56    0.40
  -2  -7  11    3.02    0.45
  -2  -7  11    2.93    0.36
   1   7 -11    0.59    0.22
  -1  -7  11    0.71    0.21
  -1  -7  11    0.61    0.24
   0   7 -11    1.82    0.37
   0  -7  11    1.68    0.30
   0  -7  11    1.31    0.34
  -7  -6  11    8.30    0.67
   6   6 -11    3.02    0.33
  -6  -6  11    3.68    0.50
   5   6 -11    1.62    0.25
   5   6 -11    1.64    0.21
   5   6 -11    0.80    0.24
  -5  -6  11    1.44    0.34
   4   6 -11    0.10    0.11
   4   6 -11    0.08    0.14
   4   6 -11    0.04    0.13
  -4  -6  11    0.21    0.14
  -4  -6  11    0.25    0.19
   3   6 -11   12.29    0.68
   3   6 -11   12.09    0.74
  -3  -6  11   13.23    0.65
  -3  -6  11   13.58    0.80
   2   6 -11    2.56    0.35
   2   6 -11    2.06    0.35
  -2  -6  11    2.33    0.30
  -2  -6  11    2.16    0.38
   1   6 -11    7.07    0.55
  -1  -6  11    6.62    0.45
  -1  -6  11    6.58    0.55
   0   6 -11    5.67    0.57
   0  -6  11    5.11    0.40
   0  -6  11    6.25    0.52
   1  -6  11    0.97    0.28
   1  -6  11    0.62    0.19
  -2   6 -11   17.73    0.64
   2  -6  11   17.54    0.94
  -8  -5  11    1.61    0.35
   7   5 -11   14.06    0.66
  -7  -5  11   14.78    0.88
   6   5 -11    5.25    0.39
  -6  -5  11    5.64    0.60
   5   5 -11    4.45    0.32
   5   5 -11    3.80    0.46
   5   5 -11    3.77    0.39
  -5  -5  11    4.36    0.52
  -5  -5  11    4.52    0.35
   4   5 -11    9.40    0.63
   4   5 -11    9.63    0.57
  -4  -5  11    9.24    0.64
  -4  -5  11    9.94    0.52
   3   5 -11   40.82    1.47
   3   5 -11   41.28    1.58
  -3  -5  11   40.59    1.36
  -3  -5  11   40.43    1.56
   2   5 -11   33.67    1.28
   2   5 -11   31.51    1.32
  -2  -5  11   31.94    1.33
  -2  -5  11   33.29    1.15
   1   5 -11    4.78    0.51
   1   5 -11    4.42    0.46
  -1  -5  11    5.18    0.37
  -1  -5  11    5.65    0.48
   0   5 -11    3.77    0.46
   0   5 -11    4.30    0.24
   0   5 -11    3.80    0.46
   0  -5  11    4.29    0.49
   0  -5  11    4.96    0.36
  -1   5 -11    1.67    0.21
   1  -5  11    2.27    0.29
   1  -5  11    1.86    0.33
  -2   5 -11    0.06    0.12
   2  -5  11    0.16    0.16
  -3   5 -11    7.26    0.45
   8   4 -11    6.45    0.46
  -8  -4  11    7.15    0.71
   7   4 -11   19.23    0.83
  -7  -4  11   16.96    0.96
   6   4 -11    0.11    0.12
   6   4 -11    0.11    0.11
  -6  -4  11    0.05    0.19
  -6  -4  11   -0.10    0.11
   5   4 -11   17.17    0.78
   5   4 -11   18.03    0.75
   5   4 -11   16.19    0.89
   5   4 -11   16.45    0.71
  -5  -4  11   17.29    0.73
  -5  -4  11   16.70    0.88
   4   4 -11    0.08    0.14
   4   4 -11   -0.03    0.12
  -4  -4  11    0.11    0.12
  -4  -4  11   -0.23    0.10
   3   4 -11    9.39    0.56
   3   4 -11    9.68    0.56
   3   4 -11    9.18    0.60
  -3  -4  11   10.08    0.50
  -3  -4  11    9.24    0.60
  -3  -4  11    8.32    0.63
  -3  -4  11    9.48    0.61
   2   4 -11    1.36    0.23
   2   4 -11    1.68    0.29
   2   4 -11    1.82    0.29
   2   4 -11    1.19    0.26
  -2  -4  11    1.40    0.21
  -2  -4  11    1.17    0.24
  -2  -4  11    1.03    0.25
  -2  -4  11    1.02    0.26
   1   4 -11    1.19    0.25
   1   4 -11    1.25    0.27
   1   4 -11    0.79    0.21
   1   4 -11    1.24    0.21
   1   4 -11    1.14    0.14
  -1  -4  11    1.17    0.24
  -1  -4  11    0.74    0.24
  -1  -4  11    1.23    0.20
  -1  -4  11    1.03    0.24
   0   4 -11   53.82    1.51
   0   4 -11   49.49    1.97
   0   4 -11   50.75    1.78
   0   4 -11   49.05    1.80
   0  -4  11   50.15    1.74
   0  -4  11   52.58    1.75
   0  -4  11   50.23    1.58
   0  -4  11   50.92    2.00
  -1   4 -11   59.26    1.77
  -1   4 -11   59.41    2.05
  -1   4 -11   62.21    2.29
   1  -4  11   61.06    1.98
   1  -4  11   59.73    1.97
   1  -4  11   57.46    1.81
   1  -4  11   59.20    2.29
  -2   4 -11    4.52    0.33
  -2   4 -11    5.10    0.60
   2  -4  11    4.25    0.45
   2  -4  11    4.96    0.48
   2  -4  11    4.39    0.57
  -3   4 -11    4.95    0.37
   3  -4  11    5.23    0.42
  -4   4 -11    0.14    0.14
   8   3 -11    2.80    0.29
   8   3 -11    2.58    0.37
   8   3 -11    2.71    0.46
  -8  -3  11    3.20    0.47
   7   3 -11    1.06    0.20
   7   3 -11    0.99    0.28
   7   3 -11    0.56    0.18
  -7  -3  11    0.96    0.28
  -7  -3  11    0.58    0.18
   6   3 -11    0.07    0.12
   6   3 -11    0.26    0.14
  -6  -3  11    0.19    0.19
  -6  -3  11    0.02    0.12
   5   3 -11    4.68    0.29
   5   3 -11    4.71    0.39
   5   3 -11    4.73    0.36
  -5  -3  11    4.70    0.51
  -5  -3  11    5.06    0.36
   4   3 -11   27.84    1.18
   4   3 -11   26.06    1.16
   4   3 -11   29.35    1.07
   4   3 -11   27.79    0.96
   4   3 -11   26.80    1.08
  -4  -3  11   26.20    1.25
  -4  -3  11   30.22    1.01
  -4  -3  11   27.37    1.16
   3   3 -11    4.11    0.43
   3   3 -11    3.51    0.43
   3   3 -11    3.84    0.40
   3   3 -11    3.49    0.33
   3   3 -11    4.17    0.35
   3   3 -11    3.45    0.40
   3   3 -11    4.57    0.41
  -3  -3  11    3.71    0.41
  -3  -3  11    3.40    0.41
  -3  -3  11    3.43    0.43
  -3  -3  11    3.50    0.28
   2   3 -11   10.27    0.60
   2   3 -11   10.55    0.59
   2   3 -11   10.35    0.56
   2   3 -11    9.87    0.39
   2   3 -11   10.20    0.56
   2   3 -11   10.23    0.65
   2   3 -11   10.24    0.53
  -2  -3  11   10.08    0.57
  -2  -3  11   10.56    0.61
  -2  -3  11    9.99    0.49
  -2  -3  11   10.11    0.68
  -2  -3  11   10.05    0.65
   1   3 -11   21.34    0.89
   1   3 -11   21.72    0.96
   1   3 -11   22.10    0.74
   1   3 -11   21.48    0.88
   1   3 -11   22.23    0.93
   1   3 -11   22.53    1.06
   1   3 -11   21.76    0.94
  -1  -3  11   20.71    0.80
  -1  -3  11   22.40    0.91
  -1  -3  11   20.99    1.04
  -1  -3  11   22.49    1.08
  -1  -3  11   23.19    0.95
   0   3 -11    1.20    0.27
   0   3 -11    0.95    0.17
   0   3 -11    1.24    0.25
   0   3 -11    1.22    0.22
   0   3 -11    1.35    0.23
   0   3 -11    1.02    0.23
   0  -3  11    0.86    0.17
   0  -3  11    0.88    0.21
   0  -3  11    1.00    0.25
   0  -3  11    1.55    0.24
  -1   3 -11    9.35    0.47
  -1   3 -11   10.56    0.69
  -1   3 -11    9.97    0.53
  -1   3 -11    9.54    0.60
   1  -3  11    9.88    0.56
   1  -3  11    9.51    0.54
   1  -3  11   10.52    0.69
   1  -3  11    9.55    0.47
  -2   3 -11    7.56    0.54
  -2   3 -11    6.97    0.42
  -2   3 -11    7.74    0.47
  -2   3 -11    7.45    0.59
   2  -3  11    7.51    0.47
   2  -3  11    7.60    0.61
   2  -3  11    7.65    0.46
  -3   3 -11    0.07    0.12
   3  -3  11    0.00    0.15
   3  -3  11   -0.05    0.12
   3  -3  11    0.20    0.13
  -4   3 -11    9.62    0.56
   4  -3  11    9.97    0.58
  -5   3 -11   24.11    1.05
   5  -3  11   25.67    1.24
   5  -3  11   28.13    1.06
   8   2 -11    0.55    0.28
   8   2 -11    0.32    0.16
  -8  -2  11    0.44    0.25
  -8  -2  11    0.69    0.20
   7   2 -11   13.12    0.81
   7   2 -11   12.47    0.66
   7   2 -11   13.77    0.73
  -7  -2  11   15.56    0.87
  -7  -2  11   14.55    0.71
   6   2 -11   23.33    1.08
   6   2 -11   23.22    1.00
   6   2 -11   23.76    0.96
   6   2 -11   23.03    0.82
  -6  -2  11   24.12    1.12
  -6  -2  11   24.41    0.95
   5   2 -11    0.09    0.13
   5   2 -11    0.09    0.13
   5   2 -11    0.05    0.12
   5   2 -11   -0.06    0.09
  -5  -2  11    0.25    0.13
  -5  -2  11    0.09    0.16
   4   2 -11   43.64    1.65
   4   2 -11   43.41    1.49
   4   2 -11   42.68    1.37
   4   2 -11   42.84    1.61
   4   2 -11   41.31    1.69
   4   2 -11   43.20    1.44
   4   2 -11   40.26    1.46
  -4  -2  11   42.62    1.55
  -4  -2  11   40.11    1.69
  -4  -2  11   42.56    1.36
  -4  -2  11   41.32    1.54
   3   2 -11   16.16    0.81
   3   2 -11   15.37    0.71
   3   2 -11   15.18    0.74
   3   2 -11   16.50    0.82
   3   2 -11   15.49    0.67
   3   2 -11   16.91    0.81
   3   2 -11   16.34    0.54
   3   2 -11   15.91    0.86
  -3  -2  11   16.43    0.66
  -3  -2  11   14.72    0.84
  -3  -2  11   14.93    0.76
  -3  -2  11   15.94    0.77
  -3  -2  11   17.46    0.89
   2   2 -11    0.32    0.13
   2   2 -11    0.35    0.14
   2   2 -11    0.34    0.11
   2   2 -11    0.30    0.14
   2   2 -11    0.29    0.15
   2   2 -11    0.24    0.12
   2   2 -11    0.37    0.18
  -2  -2  11    0.22    0.15
  -2  -2  11    0.20    0.14
  -2  -2  11    0.42    0.12
  -2  -2  11    0.45    0.19
  -2  -2  11    0.31    0.14
   1   2 -11    2.19    0.30
   1   2 -11    2.00    0.28
   1   2 -11    2.29    0.28
   1   2 -11    2.08    0.30
   1   2 -11    2.25    0.30
   1   2 -11    2.41    0.35
   1   2 -11    2.17    0.22
  -1  -2  11    1.62    0.24
  -1  -2  11    1.88    0.22
  -1  -2  11    1.66    0.29
  -1  -2  11    1.79    0.28
  -1  -2  11    2.07    0.34
   0   2 -11    9.10    0.54
   0   2 -11    9.09    0.55
   0   2 -11    9.08    0.51
   0   2 -11    8.83    0.43
   0   2 -11    9.84    0.52
   0   2 -11    9.31    0.60
   0   2 -11    9.09    0.53
   0  -2  11    8.56    0.59
   0  -2  11    9.14    0.43
   0  -2  11    8.75    0.51
   0  -2  11    9.09    0.51
   0  -2  11    9.06    0.48
  -1   2 -11    1.44    0.24
  -1   2 -11    1.82    0.23
  -1   2 -11    2.18    0.34
  -1   2 -11    1.60    0.25
  -1   2 -11    1.37    0.26
   1  -2  11    1.58    0.20
   1  -2  11    1.68    0.26
   1  -2  11    1.66    0.23
   1  -2  11    1.77    0.30
   1  -2  11    2.00    0.26
  -2   2 -11   19.41    0.90
  -2   2 -11   18.86    0.98
  -2   2 -11   18.51    0.76
  -2   2 -11   20.14    0.85
   2  -2  11   20.41    0.79
   2  -2  11   18.99    0.85
   2  -2  11   19.71    1.00
   2  -2  11   20.02    0.80
  -3   2 -11    0.14    0.15
  -3   2 -11    0.04    0.12
  -3   2 -11    0.27    0.20
  -3   2 -11    0.39    0.15
   3  -2  11    0.09    0.11
   3  -2  11    0.15    0.13
   3  -2  11    0.38    0.17
   3  -2  11    0.04    0.14
  -4   2 -11    2.22    0.30
  -4   2 -11    2.35    0.33
   4  -2  11    1.60    0.32
   4  -2  11    2.31    0.33
   4  -2  11    2.27    0.29
  -5   2 -11    6.71    0.47
  -5   2 -11    6.23    0.49
   5  -2  11    6.64    0.42
   5  -2  11    7.38    0.51
   5  -2  11    7.06    0.56
  -6   2 -11    1.83    0.32
   6  -2  11    1.51    0.22
   6  -2  11    1.54    0.27
   6  -2  11    1.90    0.38
   6  -2  11    1.36    0.21
   7   1 -11    5.62    0.34
   7   1 -11    5.85    0.62
   7   1 -11    5.19    0.52
   7   1 -11    5.60    0.43
  -7  -1  11    5.09    0.58
  -7  -1  11    5.45    0.42
   6   1 -11   11.59    0.64
   6   1 -11   12.34    0.58
   6   1 -11   11.18    0.66
   6   1 -11   13.30    0.76
  -6  -1  11   12.13    0.77
  -6  -1  11   12.88    0.64
   5   1 -11    5.72    0.42
   5   1 -11    5.64    0.46
   5   1 -11    6.05    0.39
   5   1 -11    6.23    0.45
  -5  -1  11    5.59    0.48
  -5  -1  11    6.82    0.42
   4   1 -11    0.37    0.18
   4   1 -11    0.56    0.18
   4   1 -11    0.68    0.22
   4   1 -11    0.70    0.11
   4   1 -11    0.47    0.19
   4   1 -11    0.39    0.17
   4   1 -11    0.40    0.14
  -4  -1  11    0.62    0.21
  -4  -1  11    0.61    0.16
  -4  -1  11    0.37    0.18
  -4  -1  11    0.36    0.18
   3   1 -11    9.60    0.60
   3   1 -11    8.97    0.54
   3   1 -11    9.80    0.51
   3   1 -11    9.52    0.65
   3   1 -11    9.69    0.54
   3   1 -11   10.20    0.62
   3   1 -11    9.10    0.58
   3   1 -11    9.60    0.42
   3   1 -11    9.70    0.52
  -3  -1  11   10.16    0.48
  -3  -1  11    9.10    0.62
  -3  -1  11   10.44    0.61
  -3  -1  11    9.82    0.65
  -3  -1  11    9.95    0.58
   2   1 -11    7.65    0.51
   2   1 -11    7.64    0.48
   2   1 -11    7.61    0.50
   2   1 -11    8.51    0.40
   2   1 -11    8.08    0.48
   2   1 -11    9.10    0.56
   2   1 -11    7.85    0.56
   2   1 -11    8.11    0.45
  -2  -1  11    8.22    0.41
  -2  -1  11    7.49    0.47
  -2  -1  11    8.37    0.57
  -2  -1  11    8.97    0.49
  -2  -1  11    8.65    0.58
  -2  -1  11    7.82    0.50
   1   1 -11    3.45    0.37
   1   1 -11    3.65    0.38
   1   1 -11    3.71    0.42
   1   1 -11    3.67    0.26
   1   1 -11    3.69    0.29
   1   1 -11    3.52    0.38
   1   1 -11    3.46    0.35
  -1  -1  11    3.16    0.32
  -1  -1  11    3.47    0.41
  -1  -1  11    3.29    0.24
  -1  -1  11    3.27    0.39
  -1  -1  11    3.95    0.31
  -1  -1  11    3.31    0.36
   0   1 -11   38.99    1.57
   0   1 -11   41.81    1.39
   0   1 -11   42.62    1.42
   0   1 -11   40.47    1.26
   0   1 -11   40.28    1.34
   0   1 -11   38.94    1.41
   0   1 -11   35.15    1.31
   0   1 -11   40.77    1.57
   0   1 -11   41.24    1.43
   0  -1  11   39.26    1.21
   0  -1  11   41.51    1.37
   0  -1  11   41.92    1.37
   0  -1  11   41.66    1.58
   0  -1  11   43.13    1.34
  -1   1 -11   26.10    1.02
  -1   1 -11   24.89    0.89
  -1   1 -11   25.82    0.98
  -1   1 -11   26.17    1.16
  -1   1 -11   26.46    0.98
  -1   1 -11   25.18    1.02
  -1   1 -11   25.86    1.03
  -1   1 -11   25.70    1.13
   1  -1  11   27.52    0.97
   1  -1  11   27.05    0.86
   1  -1  11   25.84    0.99
   1  -1  11   27.68    1.17
   1  -1  11   25.19    0.90
   1  -1  11   25.75    0.84
  -2   1 -11    3.87    0.45
  -2   1 -11    3.83    0.40
  -2   1 -11    3.99    0.34
  -2   1 -11    3.34    0.31
  -2   1 -11    3.40    0.40
   2  -1  11    3.30    0.40
   2  -1  11    3.44    0.25
   2  -1  11    3.24    0.27
   2  -1  11    3.74    0.29
   2  -1  11    3.78    0.37
  -3   1 -11    3.63    0.43
  -3   1 -11    3.73    0.41
  -3   1 -11    3.43    0.38
  -3   1 -11    3.62    0.30
   3  -1  11    3.83    0.26
   3  -1  11    3.34    0.26
   3  -1  11    3.20    0.31
   3  -1  11    3.80    0.37
   3  -1  11    2.78    0.38
   3  -1  11    3.64    0.35
  -4   1 -11   19.07    1.01
  -4   1 -11   20.13    0.93
  -4   1 -11   20.68    0.91
  -4   1 -11   18.91    0.80
   4  -1  11   19.05    0.88
   4  -1  11   20.64    0.77
   4  -1  11   19.71    0.85
  -5   1 -11    0.55    0.18
  -5   1 -11    0.90    0.23
   5  -1  11    0.72    0.15
   5  -1  11    0.41    0.15
   5  -1  11    0.48    0.18
   5  -1  11    0.61    0.22
  -6   1 -11   13.74    0.70
  -6   1 -11   13.11    0.77
   6  -1  11   12.65    0.66
   6  -1  11   13.12    0.50
   6  -1  11   12.95    0.50
   6  -1  11   12.38    0.76
  -7   1 -11    0.97    0.23
  -7   1 -11    0.67    0.23
   7  -1  11    0.43    0.25
   7  -1  11    1.03    0.23
   7   0 -11    1.86    0.26
   7   0 -11    1.56    0.32
   7   0 -11    1.95    0.37
   7   0 -11    1.51    0.29
  -7   0  11    1.69    0.28
   6   0 -11    2.81    0.38
   6   0 -11    3.10    0.38
   6   0 -11    3.13    0.43
   6   0 -11    3.90    0.37
  -6   0  11    2.65    0.33
  -6   0  11    3.00    0.44
   5   0 -11    1.32    0.26
   5   0 -11    1.34    0.14
   5   0 -11    1.43    0.24
   5   0 -11    1.26    0.27
   5   0 -11    1.40    0.26
  -5   0  11    1.31    0.23
  -5   0  11    1.17    0.29
   4   0 -11    0.17    0.17
   4   0 -11   -0.07    0.09
   4   0 -11    0.19    0.13
   4   0 -11    0.08    0.14
   4   0 -11    0.03    0.10
   4   0 -11    0.08    0.15
   4   0 -11   -0.06    0.12
  -4   0  11    0.20    0.16
  -4   0  11    0.07    0.11
  -4   0  11    0.06    0.14
  -4   0  11    0.29    0.17
   3   0 -11    7.60    0.43
   3   0 -11    7.78    0.47
   3   0 -11    7.25    0.56
   3   0 -11    6.72    0.46
   3   0 -11    7.41    0.53
   3   0 -11    7.09    0.37
   3   0 -11    6.79    0.51
   3   0 -11    7.46    0.45
  -3   0  11    7.10    0.39
  -3   0  11    6.65    0.48
  -3   0  11    7.17    0.49
  -3   0  11    6.79    0.54
   2   0 -11   23.28    0.92
   2   0 -11   25.76    1.09
   2   0 -11   23.87    0.83
   2   0 -11   23.56    0.90
   2   0 -11   23.94    1.10
   2   0 -11   24.35    1.00
   2   0 -11   22.58    0.94
   2   0 -11   24.48    0.88
   2   0 -11   24.06    1.02
  -2   0  11   25.27    0.94
  -2   0  11   23.92    0.83
  -2   0  11   21.57    0.95
  -2   0  11   25.39    0.97
  -2   0  11   22.87    1.09
   1   0 -11    0.10    0.12
   1   0 -11   -0.07    0.08
   1   0 -11   -0.10    0.08
   1   0 -11    0.03    0.08
   1   0 -11   -0.10    0.07
   1   0 -11   -0.08    0.08
   1   0 -11    0.06    0.11
   1   0 -11   -0.02    0.12
   1   0 -11   -0.03    0.06
   1   0 -11   -0.02    0.11
   1   0 -11    0.02    0.11
  -1   0  11   -0.08    0.06
  -1   0  11   -0.01    0.08
  -1   0  11   -0.15    0.10
  -1   0  11    0.07    0.08
  -1   0  11   -0.01    0.10
   0   0 -11   10.73    0.63
   0   0 -11   11.18    0.53
   0   0 -11   11.28    0.59
   0   0 -11    9.92    0.54
   0   0 -11   10.30    0.55
   0   0 -11    9.87    0.48
   0   0 -11   10.06    0.47
   0   0 -11   11.46    0.56
   0   0 -11   10.94    0.63
   0   0 -11   10.47    0.51
   0   0  11   11.16    0.54
   0   0  11   10.73    0.54
   0   0  11   10.12    0.62
   0   0  11   10.75    0.50
   0   0  11   10.42    0.42
  -1   0 -11    4.45    0.30
  -1   0 -11    4.61    0.37
  -1   0 -11    4.17    0.34
  -1   0 -11    4.20    0.35
  -1   0 -11    4.01    0.37
  -1   0 -11    4.68    0.33
  -1   0 -11    4.77    0.40
   1   0  11    4.31    0.31
   1   0  11    4.25    0.23
   1   0  11    4.17    0.37
   1   0  11    4.30    0.19
   1   0  11    4.02    0.32
   1   0  11    3.79    0.26
   1   0  11    4.36    0.29
  -2   0 -11    0.72    0.19
  -2   0 -11    0.56    0.17
  -2   0 -11    0.77    0.19
  -2   0 -11    0.82    0.21
  -2   0 -11    0.84    0.17
   2   0  11    0.70    0.12
   2   0  11    0.89    0.13
   2   0  11    0.93    0.17
   2   0  11    0.81    0.14
   2   0  11    0.73    0.15
   2   0  11    0.75    0.17
   2   0  11    0.68    0.19
  -3   0 -11   36.58    1.32
  -3   0 -11   34.21    1.45
  -3   0 -11   34.70    1.32
  -3   0 -11   35.50    1.28
  -3   0 -11   34.04    1.40
  -3   0 -11   35.24    1.15
   3   0  11   35.42    1.10
   3   0  11   35.00    1.05
   3   0  11   34.83    1.11
   3   0  11   35.10    1.41
   3   0  11   34.22    1.18
   3   0  11   34.82    1.20
   3   0  11   35.76    1.12
   3   0  11   35.78    1.20
  -4   0 -11   59.84    2.20
  -4   0 -11   63.01    2.07
  -4   0 -11   63.58    2.02
  -4   0 -11   62.06    1.85
   4   0  11   63.96    2.00
   4   0  11   57.97    1.87
   4   0  11   60.38    1.75
   4   0  11   61.88    1.75
  -5   0 -11   11.56    0.69
  -5   0 -11   11.89    0.59
  -5   0 -11   12.11    0.68
   5   0  11   12.53    0.45
   5   0  11   11.99    0.44
   5   0  11   12.34    0.67
   5   0  11   11.88    0.58
  -6   0 -11    9.03    0.52
  -6   0 -11    8.28    0.61
   6   0  11    8.52    0.47
   6   0  11    9.48    0.48
   6   0  11    8.08    0.58
  -7   0 -11   -0.08    0.15
   7   0  11    0.04    0.18
   7   0  11    0.03    0.12
   7   0  11   -0.01    0.10
   7  -1 -11   12.38    0.84
   7  -1 -11   13.01    0.66
  -7   1  11   12.30    0.68
   6  -1 -11    0.27    0.20
   6  -1 -11    0.22    0.13
   6  -1 -11    0.32    0.18
  -6   1  11    0.17    0.14
   5  -1 -11    7.17    0.36
   5  -1 -11    6.95    0.52
   5  -1 -11    7.83    0.49
   5  -1 -11    7.36    0.54
  -5   1  11    5.96    0.41
   4  -1 -11    2.99    0.44
   4  -1 -11    2.89    0.34
   4  -1 -11    3.24    0.44
   4  -1 -11    3.91    0.43
   4  -1 -11    3.56    0.41
   4  -1 -11    3.79    0.28
  -4   1  11    3.38    0.43
  -4   1  11    2.98    0.30
  -4   1  11    3.39    0.46
   3  -1 -11    3.33    0.42
   3  -1 -11    3.23    0.37
   3  -1 -11    2.88    0.33
   3  -1 -11    3.01    0.29
   3  -1 -11    3.45    0.36
   3  -1 -11    3.11    0.35
   3  -1 -11    3.01    0.41
  -3   1  11    3.20    0.40
  -3   1  11    2.70    0.39
  -3   1  11    2.76    0.27
   2  -1 -11    9.77    0.51
   2  -1 -11    9.23    0.60
   2  -1 -11    8.91    0.47
   2  -1 -11    9.04    0.53
   2  -1 -11    7.70    0.49
   2  -1 -11    9.20    0.58
   2  -1 -11    9.65    0.46
   2  -1 -11    9.38    0.63
  -2   1  11    9.97    0.44
  -2   1  11    9.04    0.61
  -2   1  11    9.16    0.55
  -2   1  11    9.88    0.54
  -2   1  11    9.41    0.52
   1  -1 -11   13.77    0.62
   1  -1 -11   14.02    0.63
   1  -1 -11   11.51    0.66
   1  -1 -11   14.39    0.75
   1  -1 -11   14.04    0.57
   1  -1 -11   13.72    0.66
   1  -1 -11   13.75    0.54
   1  -1 -11   14.34    0.62
   1  -1 -11   12.40    0.62
   1  -1 -11   13.93    0.66
   1  -1 -11   12.88    0.74
  -1   1  11   12.97    0.74
  -1   1  11   14.03    0.63
  -1   1  11   14.61    0.68
  -1   1  11   14.35    0.64
  -1   1  11   13.72    0.52
   0  -1 -11    0.33    0.12
   0  -1 -11    0.35    0.12
   0  -1 -11    0.38    0.14
   0  -1 -11    0.38    0.15
   0  -1 -11    0.52    0.16
   0  -1 -11    0.41    0.08
   0  -1 -11    0.34    0.11
   0  -1 -11    0.35    0.15
   0  -1 -11    0.56    0.17
   0   1  11    0.35    0.14
   0   1  11    0.34    0.11
   0   1  11    0.41    0.16
   0   1  11    0.26    0.11
   0   1  11    0.22    0.12
   0   1  11    0.31    0.09
  -1  -1 -11    0.66    0.16
  -1  -1 -11    0.80    0.19
  -1  -1 -11    0.29    0.14
  -1  -1 -11    0.55    0.16
  -1  -1 -11    0.46    0.15
  -1  -1 -11    0.70    0.18
  -1  -1 -11    0.69    0.15
  -1  -1 -11    0.74    0.13
  -1  -1 -11    0.87    0.16
   1   1  11    0.59    0.12
   1   1  11    0.53    0.07
   1   1  11    0.73    0.13
   1   1  11    0.51    0.13
   1   1  11    0.37    0.13
   1   1  11    0.50    0.16
   1   1  11    0.56    0.15
  -2  -1 -11   14.08    0.66
  -2  -1 -11   12.90    0.67
  -2  -1 -11   14.11    0.73
  -2  -1 -11   14.23    0.65
  -2  -1 -11   13.15    0.62
  -2  -1 -11   12.19    0.68
  -2  -1 -11   13.27    0.55
   2   1  11   14.05    0.50
   2   1  11   13.81    0.58
   2   1  11   14.54    0.50
   2   1  11   12.80    0.58
   2   1  11   13.99    0.52
   2   1  11   14.13    0.58
   2   1  11   14.42    0.72
  -3  -1 -11    2.27    0.31
  -3  -1 -11    2.48    0.32
  -3  -1 -11    2.85    0.32
  -3  -1 -11    2.28    0.24
  -3  -1 -11    2.64    0.31
  -3  -1 -11    1.98    0.28
   3   1  11    1.91    0.16
   3   1  11    2.18    0.18
   3   1  11    2.40    0.24
   3   1  11    2.55    0.21
   3   1  11    2.34    0.25
   3   1  11    2.27    0.31
   3   1  11    1.67    0.12
   3   1  11    2.34    0.25
  -4  -1 -11   17.74    0.78
  -4  -1 -11   15.89    0.82
  -4  -1 -11   17.08    0.67
  -4  -1 -11   17.57    0.83
  -4  -1 -11   16.75    0.79
  -4  -1 -11   16.73    0.88
  -4  -1 -11   16.38    0.78
   4   1  11   17.75    0.73
   4   1  11   16.82    0.66
   4   1  11   16.51    0.65
  -5  -1 -11   21.29    1.03
  -5  -1 -11   22.53    0.85
  -5  -1 -11   22.16    1.09
  -5  -1 -11   21.78    1.02
  -5  -1 -11   23.50    1.01
   5   1  11   22.18    0.94
   5   1  11   23.44    0.80
   5   1  11   22.60    0.80
  -6  -1 -11    5.93    0.51
   6   1  11    6.58    0.34
   6   1  11    6.87    0.51
   6   1  11    6.29    0.34
  -7  -1 -11   11.03    0.73
   7   1  11   10.16    0.67
   7   1  11   11.20    0.42
   7   1  11    9.61    0.40
  -8  -1 -11   12.74    0.84
   8   1  11   12.88    0.82
   6  -2 -11    0.44    0.11
   6  -2 -11   -0.03    0.18
   6  -2 -11    0.45    0.18
   6  -2 -11    0.28    0.23
  -6   2  11    0.38    0.16
   5  -2 -11    0.09    0.18
   5  -2 -11    0.39    0.19
   5  -2 -11   -0.06    0.10
  -5   2  11    0.05    0.11
   4  -2 -11    7.49    0.54
   4  -2 -11    8.30    0.68
   4  -2 -11    7.91    0.55
   4  -2 -11    7.46    0.43
   4  -2 -11    6.82    0.58
  -4   2  11    7.39    0.42
  -4   2  11    7.72    0.64
   3  -2 -11   23.19    0.97
   3  -2 -11   23.33    1.18
   3  -2 -11   22.72    1.00
   3  -2 -11   24.46    1.10
   3  -2 -11   25.74    1.00
  -3   2  11   22.71    0.83
  -3   2  11   22.36    1.14
   2  -2 -11    0.72    0.23
   2  -2 -11    0.87    0.19
   2  -2 -11    1.42    0.25
   2  -2 -11    1.23    0.26
  -2   2  11    1.20    0.27
  -2   2  11    1.37    0.27
  -2   2  11    1.09    0.21
  -2   2  11    1.03    0.16
   1  -2 -11   53.47    2.03
   1  -2 -11   54.51    1.79
   1  -2 -11   59.57    2.03
   1  -2 -11   51.16    1.87
   1  -2 -11   57.85    1.78
   1  -2 -11   57.95    1.70
  -1   2  11   54.73    1.73
  -1   2  11   55.95    1.55
  -1   2  11   55.76    2.04
  -1   2  11   55.92    1.83
   0  -2 -11    0.04    0.10
   0  -2 -11    0.08    0.09
   0  -2 -11    0.07    0.07
   0  -2 -11    0.05    0.10
   0  -2 -11    0.37    0.16
   0  -2 -11    0.14    0.09
   0  -2 -11   -0.03    0.09
   0  -2 -11    0.06    0.11
   0  -2 -11    0.03    0.10
   0   2  11   -0.06    0.09
   0   2  11   -0.04    0.06
   0   2  11   -0.03    0.09
   0   2  11    0.04    0.07
   0   2  11   -0.11    0.08
   0   2  11    0.05    0.05
  -1  -2 -11    1.00    0.19
  -1  -2 -11    0.65    0.17
  -1  -2 -11    0.94    0.18
  -1  -2 -11    0.88    0.17
  -1  -2 -11    0.63    0.18
  -1  -2 -11    0.77    0.19
  -1  -2 -11    0.98    0.18
  -1  -2 -11    0.88    0.14
   1   2  11    0.89    0.16
   1   2  11    0.52    0.16
   1   2  11    0.54    0.17
   1   2  11    0.84    0.13
   1   2  11    0.98    0.17
  -2  -2 -11    0.70    0.18
  -2  -2 -11    0.74    0.17
  -2  -2 -11    0.55    0.14
  -2  -2 -11    0.51    0.10
  -2  -2 -11    0.60    0.18
  -2  -2 -11    0.67    0.17
  -2  -2 -11    0.69    0.17
   2   2  11    0.73    0.14
   2   2  11    0.81    0.18
   2   2  11    0.44    0.13
   2   2  11    0.45    0.09
   2   2  11    0.71    0.11
   2   2  11    0.68    0.13
  -3  -2 -11    0.17    0.12
  -3  -2 -11    0.24    0.14
  -3  -2 -11    0.25    0.12
  -3  -2 -11    0.04    0.10
  -3  -2 -11    0.20    0.13
  -3  -2 -11    0.07    0.08
  -3  -2 -11    0.02    0.11
   3   2  11    0.11    0.09
   3   2  11    0.08    0.10
   3   2  11    0.36    0.10
   3   2  11    0.02    0.08
   3   2  11    0.00    0.08
  -4  -2 -11   19.22    0.83
  -4  -2 -11   19.48    0.90
  -4  -2 -11   18.34    0.87
  -4  -2 -11   19.62    0.84
  -4  -2 -11   19.96    0.81
   4   2  11   19.47    0.65
   4   2  11   18.68    0.65
   4   2  11   19.99    0.78
  -5  -2 -11   11.21    0.61
  -5  -2 -11   10.63    0.60
  -5  -2 -11   10.48    0.65
  -5  -2 -11   11.93    0.65
  -5  -2 -11   10.21    0.66
   5   2  11   11.53    0.40
   5   2  11   12.28    0.61
   5   2  11   10.36    0.39
  -6  -2 -11    6.20    0.52
  -6  -2 -11    5.46    0.45
  -6  -2 -11    6.98    0.54
  -6  -2 -11    6.91    0.49
   6   2  11    6.75    0.49
  -7  -2 -11    8.84    0.65
   7   2  11    9.75    0.63
  -8  -2 -11   11.88    0.80
   8   2  11   11.99    0.76
   6  -3 -11   -0.04    0.11
   6  -3 -11    0.14    0.26
  -6   3  11   -0.13    0.11
   5  -3 -11   -0.03    0.12
   5  -3 -11    0.36    0.20
   5  -3 -11    0.26    0.19
  -5   3  11   -0.12    0.11
   4  -3 -11    6.89    0.54
   4  -3 -11    6.53    0.53
  -4   3  11    6.96    0.65
  -4   3  11    6.55    0.40
   3  -3 -11    6.18    0.67
   3  -3 -11    7.22    0.50
   3  -3 -11    6.41    0.49
   3  -3 -11    6.04    0.46
   3  -3 -11    6.21    0.53
  -3   3  11    7.16    0.59
  -3   3  11    6.21    0.36
   2  -3 -11   10.17    0.62
   2  -3 -11    9.60    0.63
   2  -3 -11   10.59    0.62
   2  -3 -11   10.49    0.72
  -2   3  11   10.90    0.59
  -2   3  11    9.95    0.68
  -2   3  11   10.69    0.43
   1  -3 -11    0.07    0.13
   1  -3 -11    0.34    0.18
   1  -3 -11    0.34    0.14
   1  -3 -11    0.14    0.14
   1  -3 -11    0.06    0.14
  -1   3  11    0.31    0.16
  -1   3  11    0.24    0.07
  -1   3  11    0.08    0.10
  -1   3  11    0.17    0.11
   0  -3 -11   10.72    0.63
   0  -3 -11   10.40    0.65
   0  -3 -11   10.47    0.54
   0  -3 -11   11.04    0.63
   0  -3 -11   10.62    0.54
   0  -3 -11   11.15    0.57
   0   3  11   10.97    0.52
   0   3  11   10.49    0.64
   0   3  11   10.89    0.46
   0   3  11   11.22    0.53
  -1  -3 -11    9.08    0.55
  -1  -3 -11   10.26    0.48
  -1  -3 -11    9.38    0.48
  -1  -3 -11    8.47    0.49
  -1  -3 -11    8.62    0.54
  -1  -3 -11    8.76    0.56
  -1  -3 -11    9.82    0.58
  -1  -3 -11   10.65    0.46
  -1  -3 -11    9.66    0.51
   1   3  11   10.31    0.47
   1   3  11    9.39    0.57
   1   3  11    9.21    0.44
   1   3  11    9.27    0.37
  -2  -3 -11   14.56    0.65
  -2  -3 -11   16.54    0.76
  -2  -3 -11   14.55    0.74
  -2  -3 -11   14.72    0.53
  -2  -3 -11   14.74    0.61
  -2  -3 -11   15.54    0.75
  -2  -3 -11   14.62    0.66
  -2  -3 -11   14.64    0.63
   2   3  11   15.04    0.74
   2   3  11   14.46    0.57
   2   3  11   14.56    0.56
  -3  -3 -11   31.66    1.03
  -3  -3 -11   28.83    1.18
  -3  -3 -11   29.49    1.05
  -3  -3 -11   29.58    1.09
  -3  -3 -11   28.28    1.16
   3   3  11   30.88    1.02
   3   3  11   28.01    0.89
   3   3  11   30.88    0.90
  -4  -3 -11    0.42    0.15
  -4  -3 -11    0.04    0.10
  -4  -3 -11    0.02    0.10
  -4  -3 -11   -0.07    0.11
   4   3  11    0.14    0.12
  -5  -3 -11   35.90    1.40
  -5  -3 -11   40.08    1.39
  -5  -3 -11   38.78    1.50
  -5  -3 -11   38.45    1.37
   5   3  11   39.20    1.38
  -6  -3 -11    1.84    0.34
  -6  -3 -11    2.02    0.30
  -6  -3 -11    1.71    0.27
  -6  -3 -11    2.09    0.33
  -6  -3 -11    2.40    0.32
   6   3  11    1.99    0.31
  -7  -3 -11    0.30    0.16
  -7  -3 -11    0.35    0.16
  -7  -3 -11    0.45    0.21
   7   3  11    0.15    0.16
  -8  -3 -11    4.46    0.57
   8   3  11    3.77    0.49
  -9  -3 -11    1.97    0.40
   9   3  11    2.73    0.44
   5  -4 -11    1.55    0.37
   5  -4 -11    0.90    0.33
  -5   4  11    0.90    0.18
   4  -4 -11    0.73    0.24
   4  -4 -11    1.55    0.32
  -4   4  11    1.37    0.20
   3  -4 -11    0.87    0.26
   3  -4 -11    0.46    0.19
   3  -4 -11    0.55    0.22
  -3   4  11    0.90    0.14
   2  -4 -11    0.61    0.19
   2  -4 -11    0.95    0.26
   2  -4 -11    0.51    0.19
  -2   4  11    0.74    0.21
  -2   4  11    0.77    0.10
   1  -4 -11   19.13    0.91
   1  -4 -11   15.29    0.83
   1  -4 -11   18.94    0.85
   1  -4 -11   18.55    0.97
  -1   4  11   18.73    0.78
  -1   4  11   14.30    0.87
   0  -4 -11   58.46    1.86
   0  -4 -11   55.17    1.97
   0  -4 -11   62.74    1.91
   0  -4 -11   57.35    2.13
   0   4  11   60.06    1.79
   0   4  11   57.22    2.11
   0   4  11   58.90    1.79
   0   4  11   57.41    1.67
  -1  -4 -11   51.29    1.83
  -1  -4 -11   53.95    1.94
  -1  -4 -11   54.40    1.70
  -1  -4 -11   57.60    1.74
  -1  -4 -11   56.35    1.66
  -1  -4 -11   52.33    1.93
  -1  -4 -11   54.40    1.79
   1   4  11   53.74    1.59
   1   4  11   43.34    1.85
   1   4  11   55.03    1.59
  -2  -4 -11    0.18    0.13
  -2  -4 -11    0.17    0.10
  -2  -4 -11    0.19    0.13
  -2  -4 -11    0.06    0.09
  -2  -4 -11    0.15    0.13
  -2  -4 -11    0.11    0.08
  -2  -4 -11    0.25    0.12
   2   4  11    0.20    0.08
   2   4  11    0.21    0.08
  -3  -4 -11    4.01    0.32
  -3  -4 -11    4.36    0.36
  -3  -4 -11    4.26    0.45
  -3  -4 -11    4.47    0.30
  -3  -4 -11    4.66    0.27
   3   4  11    4.51    0.33
  -4  -4 -11    2.61    0.22
  -4  -4 -11    3.01    0.28
  -4  -4 -11    2.68    0.36
  -4  -4 -11    2.86    0.30
   4   4  11    2.69    0.30
  -5  -4 -11    2.56    0.29
  -5  -4 -11    2.95    0.41
  -5  -4 -11    2.61    0.30
  -5  -4 -11    2.77    0.31
   5   4  11    2.96    0.35
  -6  -4 -11    9.25    0.66
  -6  -4 -11   10.66    0.56
  -6  -4 -11    9.71    0.53
  -6  -4 -11   10.31    0.55
   6   4  11    9.14    0.59
  -7  -4 -11    2.49    0.41
  -7  -4 -11    2.07    0.30
  -7  -4 -11    2.82    0.34
   7   4  11    2.53    0.38
  -8  -4 -11    0.79    0.22
  -8  -4 -11    0.24    0.20
  -8  -4 -11    0.38    0.18
   8   4  11    0.75    0.24
  -9  -4 -11    7.90    0.67
  -9  -4 -11    8.17    0.57
   9   4  11    6.89    0.61
   4  -5 -11    6.70    0.69
   3  -5 -11    1.55    0.33
   3  -5 -11    0.63    0.23
   2  -5 -11    2.46    0.38
   2  -5 -11    2.65    0.40
   2  -5 -11    2.85    0.40
  -2   5  11    2.59    0.35
   1  -5 -11    2.34    0.39
   1  -5 -11    3.09    0.40
   1  -5 -11    3.63    0.42
  -1   5  11    3.03    0.28
  -1   5  11    2.51    0.32
   0  -5 -11    3.90    0.41
   0  -5 -11    3.80    0.39
   0  -5 -11    3.78    0.43
   0  -5 -11    3.08    0.43
   0  -5 -11    3.26    0.44
   0   5  11    4.06    0.31
  -1  -5 -11    3.14    0.37
  -1  -5 -11    3.14    0.40
  -1  -5 -11    3.77    0.42
  -1  -5 -11    4.00    0.34
  -1  -5 -11    3.91    0.32
   1   5  11    3.74    0.26
   1   5  11    3.47    0.26
  -2  -5 -11    7.66    0.51
  -2  -5 -11    6.78    0.44
  -2  -5 -11    7.20    0.42
  -2  -5 -11    6.51    0.48
   2   5  11    6.49    0.28
   2   5  11    7.02    0.29
  -3  -5 -11   19.59    0.76
  -3  -5 -11   19.85    0.90
  -3  -5 -11   19.56    0.81
  -3  -5 -11   19.40    0.91
  -3  -5 -11   18.23    0.85
  -4  -5 -11   19.36    0.83
  -4  -5 -11   19.89    0.94
  -4  -5 -11   20.23    0.81
   4   5  11   19.96    0.85
  -5  -5 -11    5.73    0.35
  -5  -5 -11    6.16    0.38
  -5  -5 -11    4.73    0.52
   5   5  11    5.43    0.41
  -6  -5 -11   12.33    0.54
  -6  -5 -11   12.10    0.76
  -6  -5 -11   12.47    0.60
  -6  -5 -11   12.63    0.61
   6   5  11   13.45    0.73
  -7  -5 -11    5.52    0.39
  -7  -5 -11    5.34    0.60
  -7  -5 -11    4.99    0.37
   7   5  11    5.50    0.48
  -8  -5 -11    1.12    0.22
  -8  -5 -11    1.23    0.33
  -8  -5 -11    1.62    0.27
   8   5  11    1.23    0.29
  -9  -5 -11    5.22    0.65
  -9  -5 -11    8.42    0.53
  -9  -5 -11    6.81    0.49
   9   5  11    6.84    0.71
   3  -6 -11    5.77    0.63
   3  -6 -11    5.89    0.65
   2  -6 -11    3.70    0.47
   2  -6 -11    3.00    0.47
   2  -6 -11    3.36    0.45
  -2   6  11    4.12    0.44
   1  -6 -11    5.46    0.48
   1  -6 -11    5.31    0.62
  -1   6  11    5.94    0.42
   0  -6 -11   -0.05    0.13
   0  -6 -11   -0.05    0.13
   0   6  11    0.01    0.10
   0   6  11    0.11    0.11
  -1  -6 -11   14.19    0.76
  -1  -6 -11   14.82    0.71
  -1  -6 -11   14.78    0.88
   1   6  11   13.74    0.56
   1   6  11   14.66    0.57
  -2  -6 -11   21.77    1.11
  -2  -6 -11   20.23    0.91
  -2  -6 -11   22.69    0.89
  -2  -6 -11   21.24    0.98
  -3  -6 -11    2.67    0.29
  -3  -6 -11    3.24    0.35
  -3  -6 -11    2.50    0.36
  -3  -6 -11    3.42    0.37
  -4  -6 -11    3.58    0.31
  -4  -6 -11    3.69    0.44
  -4  -6 -11    4.11    0.32
  -4  -6 -11    3.68    0.28
  -5  -6 -11    2.01    0.25
  -5  -6 -11    1.25    0.29
  -5  -6 -11    1.54    0.19
   5   6  11    2.08    0.32
  -6  -6 -11    0.81    0.25
  -6  -6 -11    1.15    0.20
   6   6  11    1.32    0.30
  -7  -6 -11    4.47    0.56
  -7  -6 -11    5.15    0.36
   7   6  11    4.30    0.50
  -8  -6 -11    8.97    0.51
  -8  -6 -11    9.21    0.71
  -8  -6 -11    9.53    0.53
   8   6  11    9.64    0.68
  -9  -6 -11    1.07    0.22
  -9  -6 -11    1.28    0.35
  -9  -6 -11    1.12    0.23
   9   6  11    0.82    0.29
   2  -7 -11    4.64    0.61
  -2   7  11    5.70    0.45
   1  -7 -11   16.36    1.01
  -1   7  11   16.42    0.75
   0  -7 -11    1.28    0.34
   0   7  11    1.23    0.20
   0   7  11    1.82    0.24
  -1  -7 -11    1.85    0.31
  -1  -7 -11    2.08    0.41
   1   7  11    1.85    0.18
   1   7  11    2.45    0.19
  -2  -7 -11    0.43    0.22
  -2  -7 -11    0.03    0.12
  -2  -7 -11    0.29    0.17
  -3  -7 -11    0.52    0.17
  -3  -7 -11    0.44    0.21
  -3  -7 -11    0.52    0.17
  -3  -7 -11    0.33    0.17
  -4  -7 -11    0.06    0.12
  -4  -7 -11    0.06    0.15
  -4  -7 -11    0.24    0.13
  -5  -7 -11   10.01    0.48
  -5  -7 -11   10.30    0.53
  -5  -7 -11   10.43    0.67
  -6  -7 -11    5.76    0.38
  -6  -7 -11    7.14    0.56
   6   7  11    6.38    0.52
  -7  -7 -11    0.06    0.10
  -7  -7 -11   -0.05    0.15
   7   7  11   -0.02    0.15
  -8  -7 -11    7.31    0.42
  -8  -7 -11    7.48    0.65
   8   7  11    6.67    0.59
   0  -8 -11    0.83    0.31
   0   8  11    1.02    0.18
   0   8  11    0.75    0.16
  -1  -8 -11    0.33    0.24
  -2  -8 -11   22.01    1.23
  -3  -8 -11   33.19    1.24
  -3  -8 -11   32.89    1.59
  -4  -8 -11    6.68    0.43
  -4  -8 -11    5.89    0.48
  -4  -8 -11    6.19    0.72
  -4  -8 -11    6.36    0.46
  -5  -8 -11    0.26    0.13
  -5  -8 -11    0.14    0.19
  -5  -8 -11    0.32    0.15
  -5  -8 -11    0.44    0.20
  -6  -8 -11    1.58    0.33
  -6  -8 -11    1.68    0.40
  -6  -8 -11    1.25    0.21
  -6  -8 -11    1.86    0.23
  -7  -8 -11    0.12    0.19
  -7  -8 -11    0.22    0.11
   7   8  11    0.28    0.21
  -8  -8 -11    3.27    0.27
  -8  -8 -11    3.07    0.48
   8   8  11    3.34    0.49
  -2  -9 -11    0.57    0.24
  -3  -9 -11    2.59    0.50
  -3  -9 -11    3.12    0.40
  -4  -9 -11    0.77    0.30
  -4  -9 -11    0.87    0.24
  -5  -9 -11    1.56    0.27
  -5  -9 -11    1.37    0.38
  -5  -9 -11    1.79    0.28
  -6  -9 -11   26.54    1.02
  -6  -9 -11   23.84    1.34
   5   7 -12    0.38    0.21
  -5  -7  12    0.09    0.21
   4   7 -12    3.47    0.47
   4   7 -12    3.47    0.33
  -4  -7  12    3.93    0.42
  -4  -7  12    3.10    0.49
   3   7 -12    0.88    0.27
  -3  -7  12    0.91    0.23
  -3  -7  12    0.64    0.26
   2   7 -12    0.56    0.21
  -2  -7  12    0.51    0.19
  -2  -7  12    0.51    0.24
   1   7 -12    2.06    0.38
  -1  -7  12    3.07    0.47
  -1  -7  12    2.47    0.34
   7   6 -12    6.16    0.42
  -7  -6  12    5.01    0.61
   6   6 -12   22.15    0.91
  -6  -6  12   19.89    1.09
   5   6 -12   11.45    0.52
   5   6 -12    9.84    0.59
   5   6 -12   10.07    0.71
  -5  -6  12   10.34    0.74
   4   6 -12    3.32    0.46
   4   6 -12    2.62    0.35
  -4  -6  12    3.24    0.47
  -4  -6  12    3.11    0.35
   3   6 -12    3.11    0.39
   3   6 -12    2.84    0.41
  -3  -6  12    3.21    0.36
  -3  -6  12    2.96    0.43
   2   6 -12    1.29    0.31
   2   6 -12    1.80    0.33
  -2  -6  12    1.29    0.24
  -2  -6  12    1.22    0.32
   1   6 -12    0.08    0.15
  -1  -6  12    0.00    0.16
  -1  -6  12   -0.13    0.12
   0   6 -12    1.06    0.29
   0  -6  12    0.88    0.22
   0  -6  12    1.31    0.29
  -1   6 -12    2.20    0.40
   1  -6  12    1.90    0.37
   7   5 -12   -0.06    0.15
  -7  -5  12    0.17    0.22
   6   5 -12    7.36    0.49
  -6  -5  12    8.75    0.66
   5   5 -12   10.35    0.54
   5   5 -12   10.24    0.71
   5   5 -12   11.02    0.62
  -5  -5  12   11.40    0.58
  -5  -5  12    9.37    0.69
   4   5 -12    1.27    0.25
   4   5 -12    1.28    0.29
  -4  -5  12    1.35    0.23
  -4  -5  12    0.97    0.27
   3   5 -12    1.11    0.25
   3   5 -12    0.51    0.21
  -3  -5  12    0.51    0.17
  -3  -5  12    0.86    0.25
   2   5 -12   17.32    0.91
   2   5 -12   17.72    0.88
  -2  -5  12   17.80    0.92
  -2  -5  12   17.74    0.77
   1   5 -12    3.31    0.43
   1   5 -12    3.81    0.44
  -1  -5  12    4.22    0.34
  -1  -5  12    4.02    0.48
   0   5 -12    8.42    0.62
   0   5 -12    7.08    0.57
   0   5 -12    9.15    0.37
   0  -5  12    9.02    0.62
   0  -5  12    8.59    0.50
  -1   5 -12   12.79    0.54
  -1   5 -12   13.00    0.80
   1  -5  12   12.74    0.74
   1  -5  12   12.03    0.61
  -2   5 -12   10.84    0.53
   2  -5  12   10.66    0.66
  -3   5 -12    2.93    0.32
   7   4 -12    2.30    0.32
  -7  -4  12    2.75    0.45
   6   4 -12    0.85    0.22
   6   4 -12    0.41    0.17
  -6  -4  12    0.34    0.16
  -6  -4  12    0.64    0.25
   5   4 -12    2.37    0.38
   5   4 -12    2.30    0.32
   5   4 -12    2.06    0.28
  -5  -4  12    2.30    0.38
  -5  -4  12    2.36    0.30
   4   4 -12    7.95    0.53
   4   4 -12    8.83    0.59
   4   4 -12    8.65    0.61
  -4  -4  12    8.60    0.61
  -4  -4  12    8.46    0.48
   3   4 -12    0.04    0.10
   3   4 -12    0.11    0.14
   3   4 -12    0.09    0.15
  -3  -4  12   -0.22    0.11
  -3  -4  12    0.07    0.11
   2   4 -12    8.11    0.51
   2   4 -12    8.28    0.55
   2   4 -12    8.10    0.57
  -2  -4  12    9.33    0.61
  -2  -4  12    8.79    0.58
  -2  -4  12    8.91    0.49
  -2  -4  12    7.35    0.61
   1   4 -12   15.13    0.54
   1   4 -12   15.92    0.72
   1   4 -12   14.26    0.77
   1   4 -12   14.48    0.80
   1   4 -12   15.18    0.88
  -1  -4  12   15.16    0.67
  -1  -4  12   14.78    0.78
  -1  -4  12   16.14    0.92
  -1  -4  12   15.77    0.79
   0   4 -12    0.14    0.14
   0   4 -12    0.41    0.21
   0   4 -12    0.06    0.10
   0   4 -12    0.24    0.17
   0  -4  12    0.12    0.12
   0  -4  12    0.36    0.17
   0  -4  12   -0.07    0.19
   0  -4  12    0.08    0.16
  -1   4 -12    1.16    0.20
  -1   4 -12    1.26    0.28
  -1   4 -12    0.59    0.26
   1  -4  12    1.41    0.28
   1  -4  12    1.13    0.20
   1  -4  12    0.84    0.29
   1  -4  12    0.93    0.24
  -2   4 -12    0.56    0.17
   2  -4  12    0.56    0.20
   2  -4  12    0.44    0.19
  -3   4 -12    8.34    0.50
  -4   4 -12   10.94    0.61
   7   3 -12    9.90    0.62
   7   3 -12   10.69    0.57
  -7  -3  12   12.20    0.63
  -7  -3  12   10.18    0.73
   6   3 -12    8.39    0.56
   6   3 -12    9.71    0.54
  -6  -3  12   10.42    0.56
  -6  -3  12    9.34    0.67
   5   3 -12    0.02    0.14
   5   3 -12   -0.15    0.08
   5   3 -12   -0.10    0.12
  -5  -3  12   -0.22    0.12
  -5  -3  12    0.00    0.12
   4   3 -12    5.92    0.38
   4   3 -12    5.75    0.42
   4   3 -12    6.16    0.49
   4   3 -12    6.04    0.45
   4   3 -12    5.28    0.47
  -4  -3  12    6.13    0.40
  -4  -3  12    5.96    0.49
   3   3 -12    3.37    0.39
   3   3 -12    2.66    0.39
   3   3 -12    3.24    0.41
   3   3 -12    3.05    0.39
   3   3 -12    3.84    0.40
   3   3 -12    3.54    0.34
  -3  -3  12    2.58    0.40
  -3  -3  12    2.88    0.38
  -3  -3  12    3.20    0.40
  -3  -3  12    3.30    0.33
   2   3 -12    1.21    0.27
   2   3 -12    1.40    0.24
   2   3 -12    0.83    0.22
   2   3 -12    0.88    0.21
   2   3 -12    1.00    0.14
   2   3 -12    1.25    0.24
   2   3 -12    1.23    0.24
  -2  -3  12    1.06    0.22
  -2  -3  12    0.72    0.23
  -2  -3  12    1.15    0.25
  -2  -3  12    0.87    0.19
   1   3 -12   24.93    1.05
   1   3 -12   25.02    1.04
   1   3 -12   25.29    0.84
   1   3 -12   22.67    1.05
   1   3 -12   26.96    1.21
   1   3 -12   24.44    1.00
   1   3 -12   25.34    1.00
  -1  -3  12   25.50    1.03
  -1  -3  12   26.78    1.07
  -1  -3  12   24.59    1.18
  -1  -3  12   24.80    0.91
   0   3 -12    1.52    0.21
   0   3 -12    1.65    0.30
   0   3 -12    1.62    0.31
   0   3 -12    1.17    0.25
   0   3 -12    1.57    0.26
   0   3 -12    1.24    0.23
   0  -3  12    1.45    0.22
   0  -3  12    1.46    0.27
   0  -3  12    1.48    0.30
   0  -3  12    1.84    0.27
  -1   3 -12    6.46    0.54
  -1   3 -12    5.43    0.46
  -1   3 -12    5.55    0.47
  -1   3 -12    6.60    0.39
  -1   3 -12    6.34    0.43
   1  -3  12    7.14    0.58
   1  -3  12    6.04    0.37
   1  -3  12    6.28    0.45
   1  -3  12    6.76    0.45
  -2   3 -12   21.67    1.21
  -2   3 -12   26.81    1.03
  -2   3 -12   25.55    0.96
  -2   3 -12   26.77    1.16
   2  -3  12   26.71    1.29
   2  -3  12   27.22    1.05
  -3   3 -12    3.44    0.47
  -3   3 -12    3.91    0.39
   3  -3  12    4.07    0.40
   3  -3  12    4.10    0.42
  -4   3 -12    0.21    0.16
   4  -3  12    0.11    0.15
  -5   3 -12    1.49    0.29
   5  -3  12    2.03    0.38
   5  -3  12    1.58    0.27
   7   2 -12    5.69    0.48
   7   2 -12    5.65    0.61
   7   2 -12    6.25    0.45
   7   2 -12    5.79    0.29
  -7  -2  12    6.90    0.69
  -7  -2  12    6.38    0.46
   6   2 -12    1.93    0.23
   6   2 -12    1.97    0.30
   6   2 -12    1.79    0.31
   6   2 -12    1.80    0.32
  -6  -2  12    1.94    0.37
  -6  -2  12    2.12    0.30
   5   2 -12    1.24    0.25
   5   2 -12    1.17    0.24
   5   2 -12    0.95    0.24
   5   2 -12    1.12    0.21
  -5  -2  12    0.92    0.25
  -5  -2  12    0.77    0.19
   4   2 -12   17.40    0.73
   4   2 -12   17.27    0.90
   4   2 -12   18.23    0.80
   4   2 -12   16.25    0.80
  -4  -2  12   16.52    0.96
  -4  -2  12   16.22    0.84
  -4  -2  12   17.37    0.87
  -4  -2  12   17.94    0.73
   3   2 -12   34.58    1.00
   3   2 -12   35.20    1.26
   3   2 -12   31.59    1.42
   3   2 -12   34.35    1.36
   3   2 -12   35.20    1.37
   3   2 -12   33.39    1.18
   3   2 -12   33.83    1.28
  -3  -2  12   33.53    1.14
  -3  -2  12   33.19    1.45
  -3  -2  12   32.44    1.30
  -3  -2  12   33.98    1.30
   2   2 -12   37.24    1.34
   2   2 -12   34.25    1.06
   2   2 -12   33.24    1.32
   2   2 -12   34.25    1.21
   2   2 -12   33.38    1.24
   2   2 -12   35.36    1.29
   2   2 -12   34.13    1.45
  -2  -2  12   33.47    1.13
  -2  -2  12   34.71    1.27
  -2  -2  12   33.55    1.44
  -2  -2  12   32.30    1.27
   1   2 -12   17.72    0.92
   1   2 -12   16.97    0.80
   1   2 -12   17.81    0.80
   1   2 -12   17.12    0.76
   1   2 -12   17.03    0.65
   1   2 -12   17.43    0.83
   1   2 -12   16.07    0.79
  -1  -2  12   16.00    0.75
  -1  -2  12   16.84    0.67
  -1  -2  12   17.69    0.80
  -1  -2  12   16.91    0.90
   0   2 -12   35.65    1.19
   0   2 -12   37.35    1.32
   0   2 -12   36.55    1.40
   0   2 -12   37.42    1.36
   0   2 -12   37.60    1.36
   0   2 -12   38.17    1.39
   0   2 -12   37.10    1.54
   0  -2  12   39.75    1.35
   0  -2  12   37.74    1.19
   0  -2  12   37.85    1.55
   0  -2  12   36.42    1.28
  -1   2 -12    0.20    0.15
  -1   2 -12    0.02    0.14
  -1   2 -12    0.01    0.11
  -1   2 -12    0.14    0.12
  -1   2 -12    0.07    0.13
   1  -2  12    0.02    0.11
   1  -2  12   -0.09    0.09
   1  -2  12    0.17    0.10
   1  -2  12    0.11    0.12
   1  -2  12    0.03    0.12
  -2   2 -12   13.01    0.68
  -2   2 -12   14.74    0.64
  -2   2 -12   13.47    0.75
  -2   2 -12   13.38    0.82
   2  -2  12   14.00    0.63
   2  -2  12   14.98    0.67
   2  -2  12   13.56    0.70
   2  -2  12   13.78    0.83
  -3   2 -12    0.57    0.20
  -3   2 -12    0.22    0.14
  -3   2 -12    0.28    0.22
  -3   2 -12    0.38    0.15
   3  -2  12    0.06    0.13
   3  -2  12    0.16    0.11
   3  -2  12   -0.05    0.15
   3  -2  12    0.34    0.15
  -4   2 -12    0.17    0.16
  -4   2 -12    0.63    0.20
  -4   2 -12    0.36    0.17
   4  -2  12    0.39    0.19
   4  -2  12    0.43    0.15
   4  -2  12    0.31    0.17
  -5   2 -12   12.63    0.72
  -5   2 -12   12.72    0.68
   5  -2  12   12.79    0.72
   5  -2  12   12.31    0.75
   5  -2  12   13.26    0.62
  -6   2 -12    5.92    0.47
   6  -2  12    4.82    0.49
   6  -2  12    5.14    0.58
   6  -2  12    5.41    0.34
   6  -2  12    5.62    0.36
   7   1 -12    4.19    0.53
   7   1 -12    3.65    0.30
   7   1 -12    4.11    0.43
   7   1 -12    3.51    0.45
  -7  -1  12    3.97    0.42
  -7  -1  12    3.85    0.52
   6   1 -12    0.14    0.18
   6   1 -12    0.24    0.15
   6   1 -12    0.26    0.13
   6   1 -12    0.18    0.15
  -6  -1  12    0.50    0.23
  -6  -1  12    0.66    0.19
   5   1 -12    7.80    0.52
   5   1 -12    8.02    0.55
   5   1 -12    8.37    0.55
   5   1 -12    7.64    0.46
  -5  -1  12    7.29    0.46
  -5  -1  12    8.83    0.62
   4   1 -12   10.17    0.54
   4   1 -12    9.42    0.58
   4   1 -12    9.16    0.65
   4   1 -12   10.84    0.59
   4   1 -12   10.30    0.40
   4   1 -12   10.24    0.59
   4   1 -12    9.94    0.69
  -4  -1  12   10.84    0.54
  -4  -1  12    9.94    0.71
  -4  -1  12    9.37    0.63
   3   1 -12   48.80    1.75
   3   1 -12   45.27    1.70
   3   1 -12   46.02    1.59
   3   1 -12   45.94    1.53
   3   1 -12   48.24    1.40
   3   1 -12   49.34    1.57
   3   1 -12   47.93    1.88
   3   1 -12   46.95    1.63
  -3  -1  12   47.46    1.87
  -3  -1  12   47.81    1.48
  -3  -1  12   45.72    1.67
  -3  -1  12   49.22    1.67
   2   1 -12   41.95    1.41
   2   1 -12   44.24    1.48
   2   1 -12   43.09    1.57
   2   1 -12   41.06    1.48
   2   1 -12   42.64    1.70
   2   1 -12   40.79    1.53
   2   1 -12   42.11    1.30
  -2  -1  12   42.46    1.51
  -2  -1  12   43.13    1.48
  -2  -1  12   42.82    1.69
  -2  -1  12   42.80    1.33
   1   1 -12   18.37    0.85
   1   1 -12   19.44    0.79
   1   1 -12   17.46    0.92
   1   1 -12   18.60    0.81
   1   1 -12   17.99    0.70
   1   1 -12   17.96    0.82
   1   1 -12   17.26    0.82
  -1  -1  12   17.93    0.69
  -1  -1  12   19.11    0.79
  -1  -1  12   18.64    0.94
  -1  -1  12   18.98    0.83
  -1  -1  12   18.39    0.79
   0   1 -12   14.95    0.73
   0   1 -12   16.28    0.75
   0   1 -12   15.21    0.62
   0   1 -12   12.34    0.65
   0   1 -12   14.99    0.81
   0   1 -12   16.03    0.75
   0  -1  12   14.21    0.57
   0  -1  12   14.96    0.70
   0  -1  12   15.83    0.67
   0  -1  12   14.68    0.80
   0  -1  12   16.12    0.71
  -1   1 -12   15.38    0.74
  -1   1 -12   14.54    0.73
  -1   1 -12   14.56    0.62
  -1   1 -12   14.84    0.72
  -1   1 -12   14.75    0.81
   1  -1  12   15.66    0.56
   1  -1  12   14.49    0.81
   1  -1  12   13.31    0.67
   1  -1  12   14.46    0.62
   1  -1  12   14.15    0.65
  -2   1 -12    4.62    0.44
  -2   1 -12    5.50    0.42
  -2   1 -12    5.84    0.44
  -2   1 -12    5.01    0.35
   2  -1  12    5.29    0.32
   2  -1  12    5.08    0.32
   2  -1  12    4.40    0.36
   2  -1  12    5.05    0.45
   2  -1  12    5.10    0.35
  -3   1 -12    8.46    0.48
  -3   1 -12    8.79    0.63
  -3   1 -12    9.42    0.56
  -3   1 -12    9.47    0.59
   3  -1  12    9.03    0.50
   3  -1  12    9.60    0.49
   3  -1  12    9.37    0.53
   3  -1  12    6.30    0.55
   3  -1  12    9.02    0.46
  -4   1 -12   14.35    0.75
  -4   1 -12   14.79    0.69
  -4   1 -12   14.30    0.79
   4  -1  12   15.85    0.64
   4  -1  12   14.85    0.72
   4  -1  12   12.73    0.69
  -5   1 -12   -0.05    0.13
  -5   1 -12    0.11    0.16
  -5   1 -12    0.22    0.16
   5  -1  12    0.41    0.20
   5  -1  12    0.25    0.10
   5  -1  12    0.13    0.15
   5  -1  12    0.26    0.13
  -6   1 -12    5.18    0.43
  -6   1 -12    5.08    0.55
   6  -1  12    5.27    0.56
   6  -1  12    5.26    0.27
   6  -1  12    4.78    0.46
   6  -1  12    5.01    0.27
   7   0 -12   16.66    0.95
   7   0 -12   15.52    0.81
   7   0 -12   16.68    0.73
  -7   0  12   15.13    0.78
   6   0 -12   -0.02    0.14
   6   0 -12    0.05    0.13
   6   0 -12   -0.01    0.15
   6   0 -12   -0.02    0.14
  -6   0  12   -0.06    0.17
  -6   0  12   -0.02    0.13
   5   0 -12    1.66    0.16
   5   0 -12    1.38    0.25
   5   0 -12    1.14    0.27
   5   0 -12    1.71    0.30
   5   0 -12    0.87    0.22
  -5   0  12    1.32    0.31
  -5   0  12    1.34    0.23
   4   0 -12    4.59    0.46
   4   0 -12    4.26    0.28
   4   0 -12    4.51    0.54
   4   0 -12    3.54    0.46
   4   0 -12    4.36    0.36
   4   0 -12    4.89    0.39
   4   0 -12    3.97    0.41
  -4   0  12    4.66    0.52
  -4   0  12    4.53    0.34
  -4   0  12    3.99    0.51
  -4   0  12    3.19    0.42
   3   0 -12    0.14    0.16
   3   0 -12    0.13    0.12
   3   0 -12    0.09    0.14
   3   0 -12   -0.06    0.09
   3   0 -12    0.15    0.13
   3   0 -12    0.09    0.11
   3   0 -12    0.03    0.12
  -3   0  12    0.15    0.15
  -3   0  12    0.06    0.11
  -3   0  12    0.11    0.10
  -3   0  12   -0.13    0.10
   2   0 -12    6.05    0.45
   2   0 -12    6.37    0.36
   2   0 -12    5.97    0.40
   2   0 -12    5.96    0.43
   2   0 -12    5.78    0.47
   2   0 -12    6.65    0.37
   2   0 -12    5.77    0.41
   2   0 -12    5.79    0.51
  -2   0  12    6.06    0.43
  -2   0  12    6.37    0.48
  -2   0  12    5.61    0.34
  -2   0  12    5.35    0.40
  -2   0  12    5.85    0.49
   1   0 -12    0.40    0.17
   1   0 -12    0.15    0.11
   1   0 -12    0.23    0.12
   1   0 -12    0.00    0.11
   1   0 -12    0.02    0.13
   1   0 -12    0.22    0.12
   1   0 -12    0.23    0.14
  -1   0  12    0.08    0.13
  -1   0  12    0.28    0.11
  -1   0  12    0.16    0.10
  -1   0  12    0.37    0.16
  -1   0  12    0.11    0.11
   0   0 -12   77.52    2.17
   0   0 -12   70.01    2.51
   0   0 -12   70.97    2.24
   0   0 -12   71.19    2.08
   0   0 -12   71.81    2.33
   0   0 -12   76.07    2.54
   0   0 -12   73.69    2.30
   0   0  12   73.23    2.22
   0   0  12   72.11    2.52
   0   0  12   72.92    2.01
   0   0  12   73.46    2.19
   0   0  12   70.63    2.14
  -1   0 -12   81.02    2.44
  -1   0 -12   87.92    2.81
  -1   0 -12   80.58    2.31
  -1   0 -12   79.61    2.50
  -1   0 -12   79.52    2.55
  -1   0 -12   81.31    2.47
  -1   0 -12   77.22    2.74
   1   0  12   81.67    2.32
   1   0  12   82.40    2.18
   1   0  12   81.38    2.41
   1   0  12   83.20    2.40
   1   0  12   80.63    2.31
   1   0  12   81.15    2.75
  -2   0 -12   22.80    0.82
  -2   0 -12   22.09    1.03
  -2   0 -12   21.02    0.94
  -2   0 -12   23.10    0.94
  -2   0 -12   21.38    0.92
   2   0  12   21.60    0.86
   2   0  12   21.49    0.79
   2   0  12   21.29    1.02
   2   0  12   23.16    0.84
   2   0  12   20.75    0.75
  -3   0 -12    0.89    0.21
  -3   0 -12    0.98    0.24
  -3   0 -12    1.52    0.22
  -3   0 -12    1.09    0.24
   3   0  12    1.45    0.19
   3   0  12    1.17    0.26
   3   0  12    1.38    0.19
   3   0  12    0.76    0.14
   3   0  12    1.43    0.23
   3   0  12    1.01    0.18
  -4   0 -12    0.59    0.23
  -4   0 -12    0.38    0.16
  -4   0 -12    0.55    0.20
  -4   0 -12    0.67    0.20
   4   0  12    0.70    0.19
   4   0  12    0.65    0.13
   4   0  12    0.83    0.15
   4   0  12    0.58    0.16
  -5   0 -12    2.50    0.37
  -5   0 -12    1.98    0.28
   5   0  12    2.31    0.29
   5   0  12    2.20    0.17
   5   0  12    2.63    0.35
   5   0  12    2.31    0.17
  -6   0 -12    3.26    0.36
  -6   0 -12    2.17    0.37
   6   0  12    2.44    0.37
   6   0  12    2.60    0.30
  -7   0 -12    6.50    0.56
   7   0  12    5.36    0.37
   7   0  12    5.76    0.36
   7   0  12    5.68    0.51
   6  -1 -12    0.15    0.15
   6  -1 -12    0.15    0.19
   6  -1 -12    0.03    0.18
  -6   1  12    0.36    0.16
   5  -1 -12    1.72    0.20
   5  -1 -12    1.38    0.28
   5  -1 -12    1.28    0.25
   5  -1 -12    1.38    0.29
  -5   1  12    1.19    0.22
   4  -1 -12   56.85    1.77
   4  -1 -12   51.41    1.84
   4  -1 -12   54.89    1.84
   4  -1 -12   55.17    1.61
   4  -1 -12   49.74    1.97
  -4   1  12   54.22    1.93
  -4   1  12   50.53    2.10
  -4   1  12   51.92    1.65
   3  -1 -12   16.96    0.68
   3  -1 -12   16.38    0.80
   3  -1 -12   17.66    0.77
   3  -1 -12   14.99    0.85
   3  -1 -12   17.18    0.96
  -3   1  12   15.44    0.83
  -3   1  12   16.34    0.67
  -3   1  12   16.34    0.94
   2  -1 -12   25.75    1.04
   2  -1 -12   26.32    0.92
   2  -1 -12   25.04    1.10
   2  -1 -12   25.60    1.21
   2  -1 -12   25.64    0.94
  -2   1  12   24.52    0.87
  -2   1  12   24.74    1.02
  -2   1  12   25.61    1.08
  -2   1  12   25.99    1.01
  -2   1  12   25.86    1.20
   1  -1 -12   23.43    0.98
   1  -1 -12   22.47    1.09
   1  -1 -12   23.44    0.86
   1  -1 -12   24.41    0.83
   1  -1 -12   22.96    1.02
   1  -1 -12   24.38    1.10
   1  -1 -12   23.14    0.97
  -1   1  12   24.42    0.79
  -1   1  12   25.41    0.95
  -1   1  12   25.65    1.14
  -1   1  12   22.46    0.97
  -1   1  12   23.69    0.93
   0  -1 -12   13.12    0.69
   0  -1 -12   14.01    0.67
   0  -1 -12   14.67    0.65
   0  -1 -12   13.31    0.75
   0  -1 -12   13.40    0.58
   0  -1 -12   14.00    0.76
   0  -1 -12   13.97    0.61
   0  -1 -12   12.44    0.64
   0   1  12   12.68    0.64
   0   1  12   13.98    0.61
   0   1  12   13.50    0.48
   0   1  12   13.53    0.63
   0   1  12   13.39    0.75
   0   1  12   14.01    0.58
  -1  -1 -12    8.72    0.50
  -1  -1 -12    9.19    0.45
  -1  -1 -12    8.48    0.57
  -1  -1 -12    8.85    0.42
  -1  -1 -12    9.51    0.59
  -1  -1 -12    8.40    0.51
  -1  -1 -12    8.81    0.48
  -1  -1 -12    7.93    0.53
   1   1  12    9.80    0.44
   1   1  12    9.21    0.29
   1   1  12    8.51    0.43
   1   1  12    8.47    0.56
   1   1  12    9.52    0.49
   1   1  12    9.05    0.49
   1   1  12    9.57    0.48
  -2  -1 -12   25.48    1.08
  -2  -1 -12   22.56    0.92
  -2  -1 -12   21.08    1.02
  -2  -1 -12   22.63    0.93
  -2  -1 -12   23.72    1.00
  -2  -1 -12   22.90    0.83
   2   1  12   23.51    0.86
   2   1  12   23.66    0.86
   2   1  12   23.77    1.04
   2   1  12   22.85    0.87
   2   1  12   23.33    0.76
   2   1  12   23.09    0.79
  -3  -1 -12    0.18    0.14
  -3  -1 -12   -0.01    0.11
  -3  -1 -12    0.09    0.12
  -3  -1 -12    0.06    0.11
  -3  -1 -12    0.00    0.10
   3   1  12    0.08    0.09
   3   1  12    0.22    0.10
   3   1  12    0.20    0.08
   3   1  12    0.03    0.10
   3   1  12    0.10    0.08
   3   1  12   -0.01    0.08
   3   1  12    0.15    0.11
  -4  -1 -12   16.35    0.83
  -4  -1 -12   16.88    0.81
  -4  -1 -12   18.01    0.81
  -4  -1 -12   16.04    0.68
  -4  -1 -12   15.45    0.87
  -4  -1 -12   16.31    0.85
   4   1  12   18.11    0.73
   4   1  12   16.84    0.68
   4   1  12   16.50    0.66
   4   1  12   15.59    0.50
  -5  -1 -12   31.06    1.07
  -5  -1 -12   28.18    1.24
   5   1  12   29.64    1.16
   5   1  12   27.90    1.00
   5   1  12   31.08    1.00
  -6  -1 -12    5.71    0.51
   6   1  12    5.30    0.32
   6   1  12    6.07    0.33
   6   1  12    6.07    0.48
  -7  -1 -12    0.43    0.22
   7   1  12    0.50    0.11
   7   1  12    0.51    0.11
   7   1  12    0.63    0.22
  -8  -1 -12    0.88    0.28
   8   1  12    1.08    0.28
   6  -2 -12    9.45    0.70
  -6   2  12    8.80    0.53
   5  -2 -12    1.35    0.28
   5  -2 -12    1.43    0.31
   5  -2 -12    1.35    0.21
  -5   2  12    0.82    0.19
   4  -2 -12   16.03    0.68
   4  -2 -12   14.93    0.79
   4  -2 -12   15.98    0.84
   4  -2 -12   14.93    0.98
   4  -2 -12   15.56    0.92
  -4   2  12   15.91    1.00
  -4   2  12   15.73    0.68
   3  -2 -12   19.85    0.92
   3  -2 -12   21.04    0.82
   3  -2 -12   21.15    0.96
   3  -2 -12   22.93    0.94
   3  -2 -12   20.28    1.11
   3  -2 -12   21.17    1.05
  -3   2  12   21.42    0.79
  -3   2  12   21.21    1.11
   2  -2 -12    2.27    0.33
   2  -2 -12    2.19    0.28
   2  -2 -12    2.11    0.34
   2  -2 -12    1.88    0.35
  -2   2  12    2.39    0.31
  -2   2  12    2.42    0.35
  -2   2  12    2.19    0.23
  -2   2  12    2.26    0.36
   1  -2 -12    5.58    0.47
   1  -2 -12    5.59    0.49
   1  -2 -12    5.15    0.41
   1  -2 -12    4.97    0.46
   1  -2 -12    5.42    0.34
  -1   2  12    5.20    0.27
  -1   2  12    5.82    0.45
  -1   2  12    6.18    0.50
  -1   2  12    5.35    0.39
   0  -2 -12   29.99    1.13
   0  -2 -12   30.63    1.13
   0  -2 -12   30.14    1.10
   0  -2 -12   31.59    1.28
   0  -2 -12   31.11    1.22
   0  -2 -12   31.05    0.95
   0  -2 -12   29.38    1.29
   0  -2 -12   30.15    1.05
   0   2  12   30.85    0.83
   0   2  12   30.49    1.01
   0   2  12   30.94    1.30
   0   2  12   28.97    1.13
   0   2  12   28.10    1.06
  -1  -2 -12   20.70    0.95
  -1  -2 -12   21.98    0.86
  -1  -2 -12   21.42    0.87
  -1  -2 -12   23.16    1.02
  -1  -2 -12   23.56    0.80
  -1  -2 -12   22.01    0.90
  -1  -2 -12   21.61    1.01
   1   2  12   23.42    1.03
   1   2  12   22.53    0.83
   1   2  12   22.12    0.88
   1   2  12   22.64    0.76
   1   2  12   20.87    0.82
  -2  -2 -12   49.91    1.44
  -2  -2 -12   48.79    1.70
  -2  -2 -12   50.87    1.77
  -2  -2 -12   49.72    1.61
  -2  -2 -12   47.66    1.81
  -2  -2 -12   49.43    1.62
  -2  -2 -12   51.26    1.64
  -2  -2 -12   51.40    1.84
   2   2  12   50.51    1.42
   2   2  12   51.33    1.54
   2   2  12   50.47    1.54
   2   2  12   51.28    1.58
   2   2  12   50.80    1.83
  -3  -2 -12   40.16    1.39
  -3  -2 -12   41.05    1.45
  -3  -2 -12   39.34    1.50
  -3  -2 -12   40.29    1.54
  -3  -2 -12   41.40    1.27
  -3  -2 -12   39.58    1.37
   3   2  12   42.65    1.30
   3   2  12   42.93    1.26
   3   2  12   36.12    1.50
   3   2  12   40.36    1.28
   3   2  12   41.96    1.27
  -4  -2 -12    5.55    0.42
  -4  -2 -12    5.37    0.43
  -4  -2 -12    6.00    0.47
  -4  -2 -12    5.92    0.43
   4   2  12    5.55    0.31
   4   2  12    5.61    0.30
   4   2  12    5.66    0.37
  -5  -2 -12    6.02    0.44
  -5  -2 -12    5.20    0.46
  -5  -2 -12    5.19    0.54
   5   2  12    5.20    0.40
   5   2  12    5.11    0.26
   5   2  12    5.34    0.26
  -6  -2 -12    1.50    0.32
  -6  -2 -12    1.72    0.29
   6   2  12    1.85    0.31
  -7  -2 -12    2.17    0.39
   7   2  12    1.45    0.30
  -8  -2 -12   12.83    0.85
   8   2  12   12.20    0.77
   5  -3 -12    0.05    0.16
   5  -3 -12    0.16    0.13
   5  -3 -12    0.23    0.22
  -5   3  12    0.07    0.13
   4  -3 -12    0.77    0.27
   4  -3 -12    0.15    0.19
   4  -3 -12    0.57    0.17
   4  -3 -12    0.13    0.18
  -4   3  12    0.20    0.13
   3  -3 -12    6.15    0.47
   3  -3 -12    5.94    0.61
   3  -3 -12    6.59    0.49
   3  -3 -12    6.65    0.52
  -3   3  12    5.53    0.63
  -3   3  12    6.16    0.35
   2  -3 -12   12.00    0.81
   2  -3 -12   12.70    0.70
   2  -3 -12   11.58    0.68
   2  -3 -12   10.37    0.69
   2  -3 -12   12.38    0.64
  -2   3  12   12.55    0.48
  -2   3  12   11.97    0.78
  -2   3  12   13.34    0.67
   1  -3 -12   10.57    0.71
   1  -3 -12   10.60    0.53
   1  -3 -12    9.39    0.58
   1  -3 -12   10.17    0.64
  -1   3  12   11.16    0.57
  -1   3  12   10.80    0.36
  -1   3  12   10.98    0.70
   0  -3 -12   35.31    1.48
   0  -3 -12   37.54    1.17
   0  -3 -12   35.83    1.40
   0  -3 -12   35.44    1.27
   0  -3 -12   34.76    1.29
   0   3  12   36.61    1.23
   0   3  12   36.53    1.14
   0   3  12   35.56    1.48
   0   3  12   36.58    1.23
  -1  -3 -12   23.99    1.09
  -1  -3 -12   24.32    1.05
  -1  -3 -12   23.12    0.98
  -1  -3 -12   24.82    0.96
  -1  -3 -12   24.43    0.94
  -1  -3 -12   24.33    0.92
  -1  -3 -12   25.03    0.88
   1   3  12   22.96    0.87
   1   3  12   25.82    0.89
   1   3  12   25.65    0.79
   1   3  12   26.08    1.11
  -2  -3 -12    9.22    0.59
  -2  -3 -12    9.31    0.58
  -2  -3 -12   10.29    0.54
  -2  -3 -12    9.80    0.50
  -2  -3 -12    9.78    0.52
  -2  -3 -12   10.34    0.49
   2   3  12    9.44    0.44
   2   3  12    7.75    0.53
   2   3  12    9.55    0.44
  -3  -3 -12   18.05    0.87
  -3  -3 -12   19.43    0.80
  -3  -3 -12   18.62    0.74
  -3  -3 -12   18.36    0.89
  -3  -3 -12   19.03    0.81
   3   3  12   19.16    0.64
   3   3  12   20.56    0.73
   3   3  12   17.73    0.64
  -4  -3 -12   28.64    0.99
  -4  -3 -12   26.62    1.11
  -4  -3 -12   25.84    1.04
  -4  -3 -12   24.45    1.11
   4   3  12   26.31    0.98
  -5  -3 -12    5.63    0.44
  -5  -3 -12    6.32    0.44
  -5  -3 -12    5.71    0.42
  -5  -3 -12    5.42    0.48
   5   3  12    6.71    0.44
  -6  -3 -12   19.12    0.88
  -6  -3 -12   19.94    0.90
  -6  -3 -12   18.65    0.99
  -6  -3 -12   18.33    0.97
   6   3  12   19.77    0.89
  -7  -3 -12    9.17    0.59
  -7  -3 -12    7.99    0.64
   7   3  12    9.52    0.62
  -8  -3 -12    8.89    0.70
   8   3  12    9.15    0.66
   4  -4 -12    4.74    0.53
   4  -4 -12    4.93    0.55
  -4   4  12    4.47    0.30
   3  -4 -12    2.12    0.38
   3  -4 -12    2.01    0.34
   3  -4 -12    2.00    0.34
  -3   4  12    2.04    0.20
   2  -4 -12    3.70    0.47
   2  -4 -12    4.10    0.48
   2  -4 -12    3.94    0.45
  -2   4  12    4.10    0.43
   1  -4 -12    0.63    0.20
   1  -4 -12    0.75    0.22
   1  -4 -12    0.54    0.25
   1  -4 -12    0.46    0.19
  -1   4  12    1.22    0.23
   0  -4 -12   -0.05    0.11
   0  -4 -12    0.10    0.13
   0  -4 -12   -0.01    0.12
   0  -4 -12    0.00    0.16
   0   4  12   -0.08    0.07
   0   4  12    0.18    0.12
  -1  -4 -12    5.62    0.47
  -1  -4 -12    6.85    0.44
  -1  -4 -12    6.17    0.40
  -1  -4 -12    5.91    0.41
  -1  -4 -12    6.12    0.48
   1   4  12    7.07    0.38
   1   4  12    6.14    0.25
   1   4  12    6.50    0.37
  -2  -4 -12    3.06    0.33
  -2  -4 -12    2.44    0.34
  -2  -4 -12    2.46    0.28
  -2  -4 -12    2.72    0.24
  -2  -4 -12    2.38    0.32
  -2  -4 -12    2.28    0.34
  -2  -4 -12    2.38    0.30
   2   4  12    3.08    0.22
   2   4  12    2.70    0.21
  -3  -4 -12   67.99    2.05
  -3  -4 -12   69.48    2.17
  -3  -4 -12   63.93    2.28
  -3  -4 -12   66.75    2.27
  -3  -4 -12   69.25    2.00
  -4  -4 -12  115.65    3.62
  -4  -4 -12  112.14    3.67
  -4  -4 -12  120.15    3.52
   4   4  12  122.37    3.48
  -5  -4 -12   19.18    0.98
  -5  -4 -12   19.39    0.87
  -5  -4 -12   20.08    0.85
   5   4  12   20.02    0.86
  -6  -4 -12    0.10    0.17
  -6  -4 -12    0.12    0.12
  -6  -4 -12    0.03    0.13
   6   4  12    0.08    0.14
  -7  -4 -12   -0.02    0.11
  -7  -4 -12    0.01    0.12
  -7  -4 -12   -0.10    0.15
   7   4  12    0.00    0.14
  -8  -4 -12    7.21    0.62
  -8  -4 -12    6.71    0.51
   8   4  12    7.55    0.58
   4  -5 -12    2.09    0.43
   3  -5 -12    0.27    0.18
   3  -5 -12    0.33    0.21
   3  -5 -12    0.22    0.17
   2  -5 -12    2.58    0.41
   2  -5 -12    4.28    0.51
   2  -5 -12    3.52    0.45
  -2   5  12    2.69    0.37
   1  -5 -12   53.79    2.08
   1  -5 -12   53.57    1.96
   1  -5 -12   55.69    1.91
  -1   5  12   55.24    1.64
  -1   5  12   53.61    1.77
   0  -5 -12    7.77    0.57
   0  -5 -12    9.61    0.57
   0  -5 -12    8.29    0.62
   0   5  12    8.00    0.46
  -1  -5 -12    7.31    0.46
  -1  -5 -12    7.63    0.55
   1   5  12    6.95    0.38
   1   5  12    7.20    0.38
  -2  -5 -12    6.93    0.53
  -2  -5 -12    7.40    0.54
  -2  -5 -12    7.44    0.45
   2   5  12    7.60    0.32
   2   5  12    7.48    0.32
  -3  -5 -12    0.92    0.25
  -3  -5 -12    1.68    0.28
  -3  -5 -12    1.21    0.20
  -3  -5 -12    1.63    0.25
  -4  -5 -12   15.34    0.70
  -4  -5 -12   15.35    0.73
  -4  -5 -12   13.95    0.63
  -4  -5 -12   15.04    0.82
   4   5  12   16.21    0.73
  -5  -5 -12    0.18    0.12
  -5  -5 -12    0.03    0.15
  -5  -5 -12    0.11    0.15
   5   5  12    0.07    0.14
  -6  -5 -12    1.12    0.20
  -6  -5 -12    1.27    0.30
  -6  -5 -12    0.92    0.20
   6   5  12    1.12    0.25
  -7  -5 -12   16.32    0.76
  -7  -5 -12   16.01    0.76
  -7  -5 -12   14.76    0.91
   7   5  12   15.82    0.84
  -8  -5 -12   25.43    1.09
  -8  -5 -12   26.38    1.09
  -8  -5 -12   26.30    1.31
   8   5  12   24.76    1.19
   2  -6 -12    1.12    0.26
   2  -6 -12    0.41    0.22
  -2   6  12    0.34    0.15
   1  -6 -12   11.22    0.78
   1  -6 -12   11.72    0.73
  -1   6  12   11.12    0.61
   0  -6 -12   14.25    0.79
   0  -6 -12   14.44    0.89
   0   6  12   13.82    0.64
   0   6  12   13.86    0.64
  -1  -6 -12    1.11    0.23
  -1  -6 -12    0.89    0.23
  -1  -6 -12    0.77    0.25
   1   6  12    0.79    0.15
   1   6  12    0.91    0.16
  -2  -6 -12   10.65    0.65
  -2  -6 -12    9.17    0.54
  -3  -6 -12    8.46    0.59
  -3  -6 -12    9.50    0.55
  -3  -6 -12    8.64    0.49
  -4  -6 -12    0.22    0.18
  -4  -6 -12    0.27    0.13
  -4  -6 -12    0.16    0.13
  -5  -6 -12   22.34    1.08
  -5  -6 -12   23.03    0.92
   5   6  12   22.73    1.01
  -6  -6 -12    3.44    0.35
  -6  -6 -12    3.90    0.50
   6   6  12    4.45    0.48
  -7  -6 -12    8.52    0.68
  -7  -6 -12    8.89    0.52
   7   6  12    9.76    0.64
  -8  -6 -12    9.76    0.76
  -8  -6 -12   10.07    0.57
  -8  -6 -12    9.99    0.56
   8   6  12    9.91    0.69
   1  -7 -12    0.90    0.32
  -1   7  12    0.94    0.22
   0  -7 -12   11.32    0.82
   0   7  12   11.64    0.55
   0   7  12   10.43    0.53
  -1  -7 -12    8.62    0.59
  -1  -7 -12    9.03    0.72
   1   7  12    8.18    0.37
   1   7  12    7.50    0.35
  -2  -7 -12   13.40    0.77
  -2  -7 -12   12.90    0.68
  -2  -7 -12   14.45    0.92
  -3  -7 -12   18.89    0.93
  -3  -7 -12   18.76    0.82
  -3  -7 -12   19.40    0.88
  -3  -7 -12   17.74    1.07
  -4  -7 -12    0.18    0.17
  -4  -7 -12    0.00    0.11
  -4  -7 -12    0.11    0.13
  -5  -7 -12    2.23    0.26
  -5  -7 -12    2.65    0.32
  -5  -7 -12    2.29    0.38
  -6  -7 -12    0.48    0.15
  -6  -7 -12    0.45    0.22
   6   7  12    0.47    0.22
  -7  -7 -12    2.11    0.27
  -7  -7 -12    2.53    0.43
   7   7  12    2.15    0.38
  -8  -7 -12    0.15    0.21
  -8  -7 -12    0.02    0.13
   8   7  12   -0.04    0.19
  -1  -8 -12   22.47    1.28
  -2  -8 -12   -0.05    0.17
  -3  -8 -12    2.14    0.43
  -3  -8 -12    1.82    0.28
  -4  -8 -12    2.30    0.30
  -4  -8 -12    2.48    0.46
  -4  -8 -12    2.23    0.32
  -4  -8 -12    1.73    0.33
  -5  -8 -12    2.35    0.29
  -5  -8 -12    1.58    0.26
  -5  -8 -12    3.00    0.43
  -5  -8 -12    2.21    0.45
  -6  -8 -12   20.80    0.84
  -6  -8 -12   22.20    1.10
  -6  -8 -12   23.49    1.25
  -6  -8 -12   21.91    0.90
  -7  -8 -12   19.66    1.06
  -7  -8 -12   20.46    0.83
  -3  -9 -12    0.35    0.25
  -4  -9 -12    4.76    0.67
  -4  -9 -12    5.29    0.51
  -5  -9 -12    4.64    0.40
  -5  -9 -12    4.10    0.61
   4   7 -13    0.08    0.20
  -4  -7  13    0.16    0.15
  -4  -7  13    0.19    0.19
   3   7 -13    0.99    0.30
  -3  -7  13    0.60    0.26
  -3  -7  13    0.49    0.19
   2   7 -13    0.59    0.26
  -2  -7  13    0.65    0.20
  -2  -7  13    1.10    0.31
   6   6 -13    6.82    0.50
  -6  -6  13    6.97    0.72
   5   6 -13    7.14    0.53
   5   6 -13    8.29    0.64
  -5  -6  13    7.17    0.62
  -5  -6  13    8.19    0.52
   4   6 -13    4.29    0.47
   4   6 -13    3.04    0.46
  -4  -6  13    4.43    0.43
  -4  -6  13    4.91    0.57
   3   6 -13   12.93    0.75
   3   6 -13   13.36    0.84
  -3  -6  13   15.19    0.88
  -3  -6  13   14.01    0.70
   2   6 -13   21.96    1.06
   2   6 -13   22.23    1.11
  -2  -6  13   23.28    0.95
  -2  -6  13   21.13    1.10
   1   6 -13    4.03    0.51
  -1  -6  13    3.94    0.41
  -1  -6  13    4.67    0.55
   0   6 -13    0.92    0.29
   0  -6  13    1.42    0.33
   0  -6  13    0.56    0.20
  -1   6 -13    4.06    0.55
   1  -6  13    2.76    0.44
   7   5 -13    0.36    0.22
  -7  -5  13    0.41    0.21
   6   5 -13    1.25    0.27
  -6  -5  13    1.48    0.35
   5   5 -13   -0.27    0.12
   5   5 -13   -0.09    0.15
  -5  -5  13    0.16    0.14
  -5  -5  13    0.25    0.19
   4   5 -13    5.70    0.60
   4   5 -13    6.46    0.49
  -4  -5  13    5.86    0.61
  -4  -5  13    5.62    0.41
   3   5 -13    0.04    0.16
   3   5 -13    0.19    0.15
  -3  -5  13    0.20    0.13
  -3  -5  13    0.22    0.20
   2   5 -13   33.95    1.34
   2   5 -13   29.89    1.35
  -2  -5  13   31.97    1.17
  -2  -5  13   31.60    1.36
   1   5 -13    8.70    0.61
   1   5 -13    7.57    0.59
  -1  -5  13    7.24    0.47
  -1  -5  13    7.62    0.58
   0   5 -13    3.23    0.44
   0   5 -13    2.29    0.39
   0   5 -13    3.30    0.22
   0  -5  13    2.27    0.30
   0  -5  13    2.70    0.40
  -1   5 -13    3.83    0.28
  -1   5 -13    3.19    0.45
   1  -5  13    3.28    0.35
   1  -5  13    3.91    0.48
  -2   5 -13   11.87    0.56
   2  -5  13   11.59    0.71
   7   4 -13   23.73    1.07
  -7  -4  13   27.09    1.29
  -7  -4  13   26.56    1.07
   6   4 -13   24.89    1.01
   6   4 -13   26.52    1.11
  -6  -4  13   26.47    1.25
  -6  -4  13   27.40    1.06
   5   4 -13    0.02    0.16
   5   4 -13    0.26    0.16
   5   4 -13    0.00    0.13
  -5  -4  13    0.08    0.17
  -5  -4  13   -0.01    0.14
   4   4 -13    0.66    0.22
   4   4 -13    0.63    0.23
   4   4 -13    0.86    0.23
  -4  -4  13    1.18    0.23
  -4  -4  13    1.16    0.29
   3   4 -13    1.12    0.25
   3   4 -13    0.92    0.23
   3   4 -13    0.95    0.25
  -3  -4  13    1.01    0.26
  -3  -4  13    1.27    0.23
   2   4 -13    0.53    0.21
   2   4 -13    0.64    0.21
   2   4 -13    0.46    0.17
  -2  -4  13    0.68    0.17
  -2  -4  13    0.96    0.26
   1   4 -13    3.57    0.23
   1   4 -13    3.54    0.44
   1   4 -13    3.71    0.45
   1   4 -13    2.98    0.36
  -1  -4  13    3.32    0.43
  -1  -4  13    4.07    0.33
   0   4 -13    2.42    0.38
   0   4 -13    1.67    0.32
   0   4 -13    2.43    0.25
   0   4 -13    2.34    0.41
   0  -4  13    2.07    0.35
   0  -4  13    3.08    0.39
   0  -4  13    2.31    0.29
  -1   4 -13    4.33    0.50
  -1   4 -13    3.41    0.33
  -1   4 -13    4.18    0.48
   1  -4  13    2.92    0.31
   1  -4  13    2.62    0.38
  -2   4 -13   11.43    0.58
  -2   4 -13   10.37    0.73
   2  -4  13   12.05    0.68
  -3   4 -13    7.21    0.46
   7   3 -13    0.02    0.20
   7   3 -13    0.05    0.15
  -7  -3  13   -0.28    0.18
  -7  -3  13    0.03    0.15
   6   3 -13    6.48    0.33
   6   3 -13    5.80    0.45
   6   3 -13    6.65    0.50
  -6  -3  13    7.07    0.60
  -6  -3  13    7.08    0.47
   5   3 -13    0.42    0.14
   5   3 -13    0.37    0.18
   5   3 -13    0.55    0.20
  -5  -3  13    0.71    0.19
  -5  -3  13    0.12    0.19
   4   3 -13    0.13    0.12
   4   3 -13    0.32    0.16
   4   3 -13    0.21    0.14
   4   3 -13    0.25    0.17
   4   3 -13    0.32    0.17
  -4  -3  13    0.02    0.15
  -4  -3  13    0.17    0.14
   3   3 -13   20.17    0.84
   3   3 -13   20.43    0.96
   3   3 -13   20.21    0.99
   3   3 -13   20.67    0.91
   3   3 -13   20.40    0.93
  -3  -3  13   19.52    0.81
  -3  -3  13   19.89    0.96
   2   3 -13   25.69    0.82
   2   3 -13   26.94    1.25
   2   3 -13   24.99    1.13
   2   3 -13   26.81    1.08
   2   3 -13   24.80    1.09
   2   3 -13   26.43    1.10
   2   3 -13   24.97    1.01
  -2  -3  13   26.08    0.95
  -2  -3  13   24.84    1.24
  -2  -3  13   24.51    1.07
  -2  -3  13   25.88    1.11
   1   3 -13    0.12    0.13
   1   3 -13    0.35    0.18
   1   3 -13    0.33    0.16
   1   3 -13    0.18    0.11
   1   3 -13    0.19    0.16
   1   3 -13    0.32    0.17
   1   3 -13    0.10    0.13
  -1  -3  13    0.20    0.17
  -1  -3  13    0.23    0.19
  -1  -3  13   -0.04    0.11
  -1  -3  13    0.00    0.10
   0   3 -13    6.39    0.38
   0   3 -13    6.67    0.46
   0   3 -13    6.84    0.52
   0   3 -13    5.91    0.54
   0   3 -13    6.54    0.47
   0   3 -13    7.20    0.53
   0  -3  13    5.67    0.37
   0  -3  13    6.03    0.44
   0  -3  13    7.43    0.50
   0  -3  13    6.12    0.55
  -1   3 -13    2.39    0.27
  -1   3 -13    1.84    0.36
  -1   3 -13    2.14    0.35
  -1   3 -13    2.18    0.35
  -1   3 -13    2.49    0.32
   1  -3  13    1.93    0.25
   1  -3  13    2.02    0.29
   1  -3  13    2.50    0.34
   1  -3  13    2.70    0.43
  -2   3 -13   -0.07    0.15
  -2   3 -13   -0.05    0.12
  -2   3 -13   -0.04    0.10
   2  -3  13    0.13    0.21
   2  -3  13    0.10    0.14
  -3   3 -13    8.70    0.65
  -3   3 -13    7.87    0.50
   3  -3  13    6.73    0.49
  -4   3 -13    0.34    0.18
   4  -3  13    0.40    0.18
  -5   3 -13    8.77    0.58
   5  -3  13    9.03    0.54
   5  -3  13    8.03    0.64
   7   2 -13    0.06    0.16
   7   2 -13    0.27    0.10
   7   2 -13    0.28    0.19
  -7  -2  13    0.56    0.26
  -7  -2  13    0.44    0.19
   6   2 -13   10.50    0.60
   6   2 -13   10.11    0.67
   6   2 -13    9.58    0.49
   6   2 -13    9.52    0.61
  -6  -2  13   10.19    0.58
  -6  -2  13    9.03    0.68
   5   2 -13   25.31    1.05
   5   2 -13   25.43    0.96
   5   2 -13   25.59    1.10
   5   2 -13   26.02    1.10
  -5  -2  13   25.28    1.18
  -5  -2  13   25.54    1.00
   4   2 -13    7.24    0.55
   4   2 -13    6.76    0.48
   4   2 -13    5.86    0.41
   4   2 -13    6.55    0.49
  -4  -2  13    6.67    0.53
  -4  -2  13    5.93    0.41
   3   2 -13    0.77    0.20
   3   2 -13    0.97    0.24
   3   2 -13    0.94    0.26
   3   2 -13    0.86    0.21
   3   2 -13    1.19    0.27
   3   2 -13    1.16    0.27
   3   2 -13    1.13    0.15
  -3  -2  13    0.96    0.25
  -3  -2  13    1.18    0.30
  -3  -2  13    1.06    0.20
  -3  -2  13    0.84    0.24
   2   2 -13    7.89    0.39
   2   2 -13    7.84    0.49
   2   2 -13    8.19    0.53
   2   2 -13    7.78    0.61
   2   2 -13    8.66    0.55
   2   2 -13    8.22    0.57
   2   2 -13    8.61    0.56
  -2  -2  13    8.07    0.60
  -2  -2  13    8.33    0.44
  -2  -2  13    7.51    0.51
  -2  -2  13    8.31    0.56
   1   2 -13    8.70    0.43
   1   2 -13    7.55    0.53
   1   2 -13    9.82    0.58
   1   2 -13    8.05    0.50
   1   2 -13    8.79    0.58
   1   2 -13    8.60    0.63
   1   2 -13    8.50    0.56
  -1  -2  13    8.52    0.63
  -1  -2  13    8.60    0.45
  -1  -2  13    7.94    0.53
  -1  -2  13    9.27    0.54
   0   2 -13    8.44    0.62
   0   2 -13    7.21    0.49
   0   2 -13    7.77    0.42
   0   2 -13    7.32    0.52
   0   2 -13    7.54    0.53
   0  -2  13    7.53    0.40
   0  -2  13    8.09    0.51
   0  -2  13    7.02    0.58
   0  -2  13    7.43    0.46
  -1   2 -13   28.87    1.34
  -1   2 -13   29.44    1.22
  -1   2 -13   28.81    1.04
  -1   2 -13   30.45    1.18
  -1   2 -13   29.93    1.23
   1  -2  13   29.60    0.98
   1  -2  13   29.99    1.09
   1  -2  13   28.21    1.11
   1  -2  13   30.31    1.36
  -2   2 -13   16.60    0.99
  -2   2 -13   17.95    0.91
  -2   2 -13   17.69    0.84
  -2   2 -13   18.13    0.76
   2  -2  13   17.81    0.99
   2  -2  13   18.25    0.86
   2  -2  13   18.75    0.80
  -3   2 -13    2.11    0.37
  -3   2 -13    2.03    0.29
  -3   2 -13    2.06    0.32
   3  -2  13    1.83    0.26
   3  -2  13    2.10    0.32
   3  -2  13    2.47    0.30
  -4   2 -13   17.13    0.80
  -4   2 -13   17.68    0.87
  -4   2 -13   18.76    0.98
   4  -2  13   17.59    0.87
   4  -2  13   17.21    0.86
   4  -2  13   17.56    0.77
  -5   2 -13    6.30    0.50
  -5   2 -13    6.98    0.50
   5  -2  13    6.83    0.43
   5  -2  13    6.21    0.51
   5  -2  13    6.98    0.52
   7   1 -13    3.87    0.43
   7   1 -13    4.14    0.32
   7   1 -13    3.49    0.48
  -7  -1  13    4.55    0.45
  -7  -1  13    4.16    0.55
   6   1 -13    0.91    0.20
   6   1 -13    1.05    0.25
   6   1 -13    0.73    0.24
   6   1 -13    0.95    0.24
  -6  -1  13    0.87    0.21
  -6  -1  13    0.50    0.25
   5   1 -13    2.56    0.35
   5   1 -13    1.84    0.31
   5   1 -13    1.76    0.36
   5   1 -13    2.23    0.29
   5   1 -13    2.31    0.35
  -5  -1  13    2.35    0.30
  -5  -1  13    1.82    0.36
   4   1 -13    1.44    0.16
   4   1 -13    1.63    0.34
   4   1 -13    1.60    0.26
   4   1 -13    1.63    0.30
   4   1 -13    1.63    0.28
   4   1 -13    1.68    0.26
  -4  -1  13    1.54    0.25
  -4  -1  13    0.99    0.27
   3   1 -13    0.68    0.20
   3   1 -13    0.46    0.16
   3   1 -13    0.81    0.19
   3   1 -13    1.03    0.24
   3   1 -13    0.69    0.15
   3   1 -13    0.35    0.19
   3   1 -13    0.63    0.22
   3   1 -13    0.79    0.23
  -3  -1  13    0.62    0.23
  -3  -1  13    0.57    0.21
  -3  -1  13    0.56    0.21
  -3  -1  13    0.46    0.16
   2   1 -13   11.26    0.51
   2   1 -13   11.55    0.65
   2   1 -13   11.79    0.60
   2   1 -13   11.93    0.69
   2   1 -13   11.34    0.66
   2   1 -13   11.39    0.74
   2   1 -13   11.62    0.63
  -2  -1  13   10.92    0.52
  -2  -1  13   12.72    0.77
  -2  -1  13   11.20    0.62
  -2  -1  13   10.57    0.64
   1   1 -13   12.04    0.68
   1   1 -13   12.05    0.54
   1   1 -13   11.58    0.67
   1   1 -13   11.60    0.73
   1   1 -13   11.79    0.61
   1   1 -13   11.68    0.65
  -1  -1  13   12.62    0.62
  -1  -1  13   11.68    0.52
  -1  -1  13   12.14    0.75
  -1  -1  13   12.33    0.66
   0   1 -13    0.24    0.14
   0   1 -13    0.31    0.13
   0   1 -13    0.01    0.13
   0   1 -13    0.17    0.15
   0   1 -13    0.32    0.17
   0  -1  13   -0.12    0.11
   0  -1  13    0.27    0.10
   0  -1  13    0.27    0.11
   0  -1  13    0.02    0.12
   0  -1  13    0.13    0.15
  -1   1 -13   30.23    1.19
  -1   1 -13   27.64    1.28
  -1   1 -13   28.15    1.01
  -1   1 -13   26.62    1.15
  -1   1 -13   30.02    1.18
   1  -1  13   30.33    1.13
   1  -1  13   28.82    1.08
   1  -1  13   30.17    1.31
   1  -1  13   29.11    0.93
   1  -1  13   29.25    1.04
  -2   1 -13   15.49    0.67
  -2   1 -13   15.33    0.79
  -2   1 -13   14.11    0.74
  -2   1 -13   16.04    0.80
  -2   1 -13   15.51    0.86
   2  -1  13   15.72    0.68
   2  -1  13   14.90    0.85
   2  -1  13   11.80    0.58
   2  -1  13   16.58    0.75
  -3   1 -13   23.61    1.05
  -3   1 -13   21.14    0.87
  -3   1 -13   22.78    1.01
   3  -1  13   22.23    0.95
   3  -1  13   22.93    0.87
  -4   1 -13    3.91    0.47
  -4   1 -13    3.31    0.37
  -4   1 -13    3.99    0.46
   4  -1  13    3.72    0.40
   4  -1  13    4.14    0.32
   4  -1  13    3.25    0.28
   4  -1  13    3.71    0.39
  -5   1 -13    2.33    0.37
  -5   1 -13    3.80    0.40
   5  -1  13    3.85    0.45
   5  -1  13    3.24    0.38
   5  -1  13    2.56    0.27
   5  -1  13    2.72    0.26
  -6   1 -13    5.51    0.46
  -6   1 -13    7.06    0.57
   6  -1  13    5.89    0.28
   6  -1  13    6.34    0.54
   6  -1  13    5.76    0.44
   6   0 -13    8.65    0.52
   6   0 -13    7.70    0.55
   6   0 -13    7.46    0.58
   6   0 -13    6.99    0.56
  -6   0  13    7.24    0.48
  -6   0  13    7.29    0.72
   5   0 -13    0.26    0.16
   5   0 -13    0.17    0.16
   5   0 -13    0.22    0.08
   5   0 -13    0.00    0.14
  -5   0  13   -0.03    0.10
  -5   0  13    0.25    0.19
   4   0 -13   42.33    1.43
   4   0 -13   36.32    1.47
   4   0 -13   41.34    1.24
   4   0 -13   42.52    1.48
   4   0 -13   37.57    1.61
  -4   0  13   39.32    1.56
  -4   0  13   38.76    1.33
   3   0 -13   43.37    1.33
   3   0 -13   41.14    1.64
   3   0 -13   42.26    1.46
   3   0 -13   40.57    1.52
   3   0 -13   46.16    1.47
  -3   0  13   42.99    1.78
  -3   0  13   40.38    1.54
  -3   0  13   42.38    1.58
  -3   0  13   40.30    1.35
   2   0 -13    1.03    0.18
   2   0 -13    0.97    0.18
   2   0 -13    0.79    0.22
   2   0 -13    1.08    0.21
   2   0 -13    0.84    0.23
   2   0 -13    0.71    0.23
   2   0 -13    0.67    0.20
  -2   0  13    0.82    0.23
  -2   0  13    0.88    0.21
  -2   0  13    0.91    0.24
  -2   0  13    0.96    0.17
   1   0 -13    0.73    0.21
   1   0 -13    0.98    0.23
   1   0 -13    0.51    0.18
   1   0 -13    0.69    0.20
   1   0 -13    0.72    0.16
  -1   0  13    0.76    0.15
  -1   0  13    0.73    0.21
  -1   0  13    0.93    0.20
  -1   0  13    0.97    0.19
  -1   0  13    1.14    0.26
   0   0 -13    0.63    0.19
   0   0 -13    0.11    0.14
   0   0 -13    0.53    0.17
   0   0 -13    0.48    0.15
   0   0 -13    0.65    0.21
   0   0  13    0.49    0.14
   0   0  13    0.34    0.16
   0   0  13    0.38    0.11
   0   0  13    0.38    0.15
   0   0  13    0.62    0.19
  -1   0 -13    0.44    0.22
  -1   0 -13    0.16    0.15
  -1   0 -13    0.03    0.13
  -1   0 -13    0.28    0.15
  -1   0 -13    0.33    0.16
  -1   0 -13    0.33    0.13
   1   0  13    0.16    0.10
   1   0  13    0.29    0.17
   1   0  13    0.20    0.12
   1   0  13   -0.06    0.11
   1   0  13    0.14    0.08
  -2   0 -13    0.93    0.22
  -2   0 -13    1.09    0.21
  -2   0 -13    1.30    0.26
  -2   0 -13    1.20    0.24
  -2   0 -13    0.92    0.23
   2   0  13    0.71    0.21
   2   0  13    0.89    0.19
   2   0  13    0.91    0.14
   2   0  13    0.86    0.16
   2   0  13    1.16    0.21
  -3   0 -13    1.21    0.22
  -3   0 -13    1.01    0.27
  -3   0 -13    1.20    0.26
  -3   0 -13    1.14    0.25
   3   0  13    1.30    0.20
   3   0  13    1.19    0.22
   3   0  13    1.54    0.20
   3   0  13    1.05    0.19
  -4   0 -13   31.87    1.12
  -4   0 -13   32.27    1.29
  -4   0 -13   31.06    1.26
   4   0  13   29.58    1.12
   4   0  13   30.35    0.99
   4   0  13   30.14    0.99
   4   0  13   30.71    1.15
  -5   0 -13   15.26    0.71
  -5   0 -13   14.42    0.81
   5   0  13   14.11    0.49
   5   0  13   13.91    0.49
   5   0  13   15.26    0.75
   5   0  13   14.15    0.67
  -6   0 -13    1.70    0.34
  -6   0 -13    1.98    0.31
   6   0  13    2.14    0.28
   6   0  13    1.52    0.30
  -7   0 -13    0.01    0.16
  -7   0 -13   -0.19    0.15
   7   0  13    0.12    0.18
   7   0  13    0.01    0.12
   7   0  13    0.02    0.11
   6  -1 -13   10.45    0.60
   6  -1 -13   10.44    0.70
   6  -1 -13    9.84    0.70
  -6   1  13    9.21    0.56
   5  -1 -13    8.57    0.62
   5  -1 -13    9.72    0.44
   5  -1 -13   10.13    0.65
   5  -1 -13    9.86    0.58
  -5   1  13    8.67    0.51
   4  -1 -13    0.77    0.29
   4  -1 -13    0.40    0.19
   4  -1 -13    0.23    0.13
   4  -1 -13    0.59    0.24
   4  -1 -13    0.47    0.18
  -4   1  13    0.40    0.15
  -4   1  13    0.58    0.22
   3  -1 -13    9.95    0.63
   3  -1 -13   11.62    0.80
   3  -1 -13   11.85    0.55
   3  -1 -13   12.98    0.63
   3  -1 -13   12.13    0.75
  -3   1  13   11.10    0.77
  -3   1  13   11.09    0.53
  -3   1  13   10.50    0.68
   2  -1 -13    1.61    0.23
   2  -1 -13    1.24    0.20
   2  -1 -13    1.36    0.29
   2  -1 -13    0.86    0.26
   2  -1 -13    1.29    0.25
  -2   1  13    1.19    0.18
  -2   1  13    1.23    0.24
  -2   1  13    1.74    0.31
  -2   1  13    1.45    0.30
  -2   1  13    1.14    0.23
   1  -1 -13    0.12    0.16
   1  -1 -13    0.29    0.10
   1  -1 -13    0.67    0.19
   1  -1 -13    0.29    0.17
   1  -1 -13   -0.03    0.11
   1  -1 -13    0.32    0.16
  -1   1  13    0.32    0.14
  -1   1  13    0.48    0.14
  -1   1  13    0.30    0.17
  -1   1  13    0.26    0.15
  -1   1  13    0.32    0.11
   0  -1 -13   37.77    1.57
   0  -1 -13   39.18    1.30
   0  -1 -13   40.38    1.59
   0  -1 -13   38.07    1.39
   0  -1 -13   37.22    1.45
   0  -1 -13   37.73    1.38
   0  -1 -13   39.55    1.27
   0   1  13   38.85    1.57
   0   1  13   39.28    1.38
   0   1  13   38.95    1.12
   0   1  13   40.64    1.32
   0   1  13   37.96    1.33
  -1  -1 -13    8.02    0.57
  -1  -1 -13    8.12    0.48
  -1  -1 -13    7.12    0.54
  -1  -1 -13    7.84    0.40
  -1  -1 -13    7.78    0.43
  -1  -1 -13    7.49    0.52
  -1  -1 -13    7.96    0.51
  -1  -1 -13    6.50    0.45
   1   1  13    7.64    0.40
   1   1  13    8.13    0.41
   1   1  13    6.95    0.52
   1   1  13    7.56    0.45
   1   1  13    7.97    0.47
  -2  -1 -13   10.32    0.63
  -2  -1 -13   10.99    0.52
  -2  -1 -13   11.08    0.59
  -2  -1 -13   10.06    0.59
  -2  -1 -13   11.18    0.57
  -2  -1 -13   10.14    0.65
   2   1  13   11.06    0.53
   2   1  13   10.79    0.44
   2   1  13   10.41    0.54
   2   1  13   10.37    0.53
   2   1  13   10.92    0.66
   2   1  13   10.11    0.46
  -3  -1 -13    5.32    0.36
  -3  -1 -13    5.50    0.46
  -3  -1 -13    5.30    0.42
  -3  -1 -13    5.64    0.42
  -3  -1 -13    4.98    0.44
   3   1  13    5.04    0.35
   3   1  13    4.85    0.29
   3   1  13    5.05    0.32
   3   1  13    5.61    0.35
   3   1  13    5.06    0.28
  -4  -1 -13    7.58    0.51
  -4  -1 -13    7.45    0.43
  -4  -1 -13    6.27    0.51
   4   1  13    6.95    0.41
   4   1  13    6.95    0.41
   4   1  13    6.99    0.40
   4   1  13    6.45    0.26
  -5  -1 -13    4.12    0.34
  -5  -1 -13    3.48    0.45
   5   1  13    3.72    0.29
   5   1  13    4.30    0.36
   5   1  13    3.63    0.28
  -6  -1 -13   -0.05    0.15
   6   1  13    0.16    0.10
   6   1  13   -0.04    0.14
   6   1  13    0.11    0.11
  -7  -1 -13    0.23    0.19
   7   1  13   -0.21    0.14
   7   1  13    0.09    0.08
   5  -2 -13    0.95    0.27
   5  -2 -13    0.97    0.28
   5  -2 -13    1.30    0.21
  -5   2  13    1.11    0.22
   4  -2 -13    6.13    0.52
   4  -2 -13    5.59    0.38
   4  -2 -13    5.94    0.64
   4  -2 -13    6.86    0.51
  -4   2  13    5.79    0.38
   3  -2 -13   25.79    1.02
   3  -2 -13   24.52    1.17
   3  -2 -13   24.42    1.08
   3  -2 -13   23.40    1.03
   3  -2 -13   22.00    1.23
   3  -2 -13   22.80    0.90
  -3   2  13   24.50    0.87
  -3   2  13   24.34    1.24
   2  -2 -13   22.09    0.88
   2  -2 -13   21.65    1.15
   2  -2 -13   22.80    1.00
   2  -2 -13   20.06    1.02
   2  -2 -13   22.27    0.86
  -2   2  13   22.43    0.96
  -2   2  13   22.85    1.15
  -2   2  13   22.64    0.77
  -2   2  13   21.10    1.01
   1  -2 -13    6.91    0.57
   1  -2 -13    7.96    0.45
   1  -2 -13    7.83    0.57
   1  -2 -13    7.96    0.52
   1  -2 -13    8.39    0.43
  -1   2  13    7.38    0.53
  -1   2  13    8.28    0.35
  -1   2  13    7.65    0.59
  -1   2  13    8.43    0.50
   0  -2 -13    4.30    0.42
   0  -2 -13    4.10    0.32
   0  -2 -13    3.28    0.41
   0  -2 -13    3.90    0.39
   0  -2 -13    3.66    0.45
   0   2  13    4.09    0.29
   0   2  13    3.79    0.37
   0   2  13    4.59    0.38
   0   2  13    3.68    0.45
  -1  -2 -13   16.83    0.88
  -1  -2 -13   16.54    0.74
  -1  -2 -13   16.27    0.83
  -1  -2 -13   15.88    0.77
  -1  -2 -13   17.27    0.76
  -1  -2 -13   16.61    0.69
  -1  -2 -13   17.39    0.67
   1   2  13   17.00    0.64
   1   2  13   17.63    0.89
   1   2  13   17.93    0.77
   1   2  13   17.31    0.72
   1   2  13   17.97    0.72
  -2  -2 -13    0.08    0.13
  -2  -2 -13    0.12    0.11
  -2  -2 -13   -0.02    0.10
  -2  -2 -13    0.07    0.13
  -2  -2 -13    0.07    0.11
  -2  -2 -13    0.04    0.10
   2   2  13   -0.05    0.09
   2   2  13   -0.14    0.09
   2   2  13    0.00    0.10
   2   2  13    0.07    0.09
   2   2  13    0.00    0.07
  -3  -2 -13    4.58    0.42
  -3  -2 -13    4.88    0.39
  -3  -2 -13    4.74    0.49
  -3  -2 -13    4.39    0.35
  -3  -2 -13    5.15    0.34
   3   2  13    5.25    0.32
   3   2  13    4.66    0.31
   3   2  13    4.94    0.33
  -4  -2 -13    3.12    0.42
  -4  -2 -13    2.65    0.37
  -4  -2 -13    2.27    0.33
   4   2  13    2.98    0.23
   4   2  13    2.45    0.24
  -5  -2 -13   -0.03    0.15
   5   2  13    0.06    0.13
   5   2  13    0.20    0.09
   5   2  13    0.10    0.07
  -6  -2 -13    4.57    0.54
   6   2  13    5.35    0.43
  -7  -2 -13    3.72    0.53
   7   2  13    3.76    0.46
  -8  -2 -13    7.25    0.64
   8   2  13    6.81    0.57
   5  -3 -13    3.96    0.53
   5  -3 -13    3.92    0.33
   5  -3 -13    3.34    0.47
  -5   3  13    4.81    0.35
   4  -3 -13    1.05    0.31
   4  -3 -13    0.86    0.24
   4  -3 -13    0.38    0.20
   4  -3 -13    0.92    0.21
  -4   3  13    0.93    0.18
   3  -3 -13   10.91    0.69
   3  -3 -13   10.37    0.62
   3  -3 -13   10.46    0.64
   3  -3 -13    8.65    0.68
  -3   3  13    9.62    0.45
   2  -3 -13   20.61    1.04
   2  -3 -13   22.35    0.91
   2  -3 -13   19.12    0.97
   2  -3 -13   21.88    0.99
  -2   3  13   21.07    0.93
  -2   3  13   21.08    0.70
   1  -3 -13    4.54    0.46
   1  -3 -13    4.17    0.32
   1  -3 -13    4.03    0.52
   1  -3 -13    4.16    0.48
  -1   3  13    4.24    0.41
  -1   3  13    3.37    0.46
   0  -3 -13    2.48    0.38
   0  -3 -13    2.42    0.36
   0  -3 -13    2.26    0.32
   0   3  13    2.06    0.34
   0   3  13    2.76    0.23
   0   3  13    2.19    0.28
  -1  -3 -13   10.71    0.56
  -1  -3 -13   10.18    0.67
  -1  -3 -13   11.90    0.59
  -1  -3 -13   11.87    0.62
  -1  -3 -13   11.20    0.68
   1   3  13   11.41    0.54
   1   3  13   11.70    0.46
   1   3  13   11.94    0.55
  -2  -3 -13    2.00    0.26
  -2  -3 -13    1.59    0.25
  -2  -3 -13    1.96    0.31
  -2  -3 -13    1.70    0.26
  -2  -3 -13    1.93    0.32
   2   3  13    2.02    0.23
   2   3  13    2.12    0.24
  -3  -3 -13    0.08    0.11
  -3  -3 -13   -0.07    0.12
  -3  -3 -13   -0.01    0.08
  -3  -3 -13   -0.10    0.09
  -3  -3 -13   -0.08    0.14
   3   3  13   -0.07    0.08
   3   3  13    0.02    0.08
  -4  -3 -13    6.88    0.54
  -4  -3 -13    7.17    0.43
  -4  -3 -13    5.82    0.49
   4   3  13    6.89    0.28
   4   3  13    6.20    0.27
  -5  -3 -13    0.24    0.14
  -5  -3 -13    0.22    0.16
  -5  -3 -13    0.36    0.16
   5   3  13    0.19    0.14
  -6  -3 -13    0.23    0.18
  -6  -3 -13    0.63    0.20
   6   3  13    0.71    0.21
  -7  -3 -13   -0.14    0.15
   7   3  13    0.13    0.17
  -8  -3 -13    0.04    0.19
   8   3  13    0.19    0.18
   4  -4 -13    1.47    0.34
   4  -4 -13    1.11    0.28
  -4   4  13    1.68    0.20
   3  -4 -13    2.66    0.40
   3  -4 -13    2.26    0.40
   3  -4 -13    3.50    0.43
   3  -4 -13    2.50    0.39
  -3   4  13    2.74    0.19
   2  -4 -13    0.26    0.20
   2  -4 -13    0.14    0.14
   2  -4 -13   -0.08    0.13
   2  -4 -13    0.12    0.14
  -2   4  13    0.02    0.14
   1  -4 -13    1.30    0.29
   1  -4 -13    2.04    0.36
   1  -4 -13    2.30    0.35
  -1   4  13    2.16    0.30
   0  -4 -13    0.23    0.17
   0  -4 -13    0.56    0.17
   0   4  13    0.49    0.16
   0   4  13    0.42    0.12
  -1  -4 -13   17.98    0.90
  -1  -4 -13   18.47    0.83
  -1  -4 -13   17.75    0.80
  -1  -4 -13   17.72    0.95
   1   4  13   18.45    0.72
   1   4  13   17.33    0.71
  -2  -4 -13   10.78    0.67
  -2  -4 -13   10.24    0.65
  -2  -4 -13   10.98    0.56
  -2  -4 -13    9.23    0.56
   2   4  13   10.64    0.47
   2   4  13   11.36    0.47
  -3  -4 -13    3.80    0.46
  -3  -4 -13    4.41    0.34
  -3  -4 -13    4.56    0.36
  -3  -4 -13    3.94    0.44
   3   4  13    3.90    0.20
   3   4  13    4.11    0.21
  -4  -4 -13    0.78    0.23
  -4  -4 -13    1.09    0.28
  -4  -4 -13    1.18    0.23
  -5  -4 -13   -0.03    0.11
  -5  -4 -13   -0.04    0.15
   5   4  13    0.01    0.11
  -6  -4 -13    0.06    0.12
  -6  -4 -13   -0.05    0.14
  -6  -4 -13   -0.02    0.11
   6   4  13    0.15    0.15
  -7  -4 -13   21.72    0.99
  -7  -4 -13   20.02    1.10
  -7  -4 -13   22.52    1.00
   7   4  13   21.66    1.03
  -8  -4 -13   13.33    0.75
  -8  -4 -13   13.34    0.89
   8   4  13   13.16    0.80
   3  -5 -13    7.45    0.63
   3  -5 -13   11.01    0.73
   3  -5 -13   11.57    0.77
   2  -5 -13    0.23    0.16
   2  -5 -13   -0.10    0.15
   2  -5 -13    0.14    0.17
  -2   5  13    0.19    0.15
   1  -5 -13    0.75    0.24
   1  -5 -13    0.72    0.24
   1  -5 -13    1.08    0.26
  -1   5  13    0.85    0.17
  -1   5  13    0.55    0.19
   0  -5 -13    2.32    0.40
   0  -5 -13    1.86    0.34
   0   5  13    1.67    0.25
  -1  -5 -13    1.33    0.30
  -1  -5 -13    1.32    0.24
   1   5  13    1.37    0.20
   1   5  13    1.51    0.20
  -2  -5 -13    0.69    0.18
  -2  -5 -13    1.11    0.27
   2   5  13    1.02    0.14
   2   5  13    0.59    0.11
  -3  -5 -13    4.06    0.33
  -3  -5 -13    4.63    0.52
  -3  -5 -13    4.15    0.35
  -4  -5 -13    0.50    0.16
  -4  -5 -13    0.29    0.14
  -4  -5 -13    0.18    0.17
  -5  -5 -13    4.40    0.37
  -5  -5 -13    4.18    0.52
   5   5  13    4.13    0.43
  -6  -5 -13    6.16    0.44
  -6  -5 -13    5.13    0.58
   6   5  13    5.51    0.45
  -7  -5 -13   -0.01    0.17
  -7  -5 -13    0.18    0.14
  -7  -5 -13   -0.05    0.12
   7   5  13   -0.07    0.15
  -8  -5 -13    5.94    0.48
  -8  -5 -13    5.58    0.45
  -8  -5 -13    5.22    0.64
   8   5  13    6.42    0.54
   2  -6 -13    0.09    0.18
   2  -6 -13    0.19    0.18
  -2   6  13    0.28    0.17
   1  -6 -13    3.83    0.49
   1  -6 -13    4.65    0.58
  -1   6  13    3.62    0.39
   0  -6 -13   16.26    0.88
   0  -6 -13   16.27    0.98
   0   6  13   15.18    0.69
  -1  -6 -13    7.27    0.56
  -1  -6 -13    6.45    0.59
   1   6  13    7.18    0.38
   1   6  13    6.97    0.37
  -2  -6 -13    0.06    0.14
  -2  -6 -13    0.62    0.22
  -3  -6 -13    8.66    0.51
  -3  -6 -13    8.10    0.53
  -3  -6 -13    8.89    0.62
  -4  -6 -13    6.55    0.41
  -4  -6 -13    6.21    0.44
  -4  -6 -13    6.38    0.54
  -5  -6 -13    0.63    0.18
  -5  -6 -13    0.75    0.25
  -5  -6 -13    0.43    0.15
  -6  -6 -13    0.17    0.13
  -6  -6 -13   -0.03    0.18
   6   6  13   -0.04    0.15
  -7  -6 -13    0.77    0.20
  -7  -6 -13    0.67    0.25
   7   6  13    0.67    0.23
  -8  -6 -13    7.75    0.67
  -8  -6 -13    7.24    0.50
   8   6  13    7.36    0.59
   1  -7 -13    0.92    0.29
  -1   7  13    0.97    0.22
   0  -7 -13    6.32    0.71
   0   7  13    6.26    0.39
  -1  -7 -13   16.25    1.04
  -1  -7 -13   17.22    0.91
   1   7  13   16.57    0.59
  -2  -7 -13    3.07    0.43
  -2  -7 -13    3.18    0.51
  -3  -7 -13    4.82    0.40
  -3  -7 -13    4.05    0.57
  -3  -7 -13    6.01    0.51
  -4  -7 -13   16.20    0.89
  -4  -7 -13   15.69    0.73
  -4  -7 -13   17.21    0.81
  -5  -7 -13    0.12    0.13
  -5  -7 -13    0.13    0.18
  -5  -7 -13    0.18    0.13
  -6  -7 -13    3.84    0.34
  -6  -7 -13    3.45    0.33
  -6  -7 -13    3.38    0.49
  -7  -7 -13    3.39    0.37
  -7  -7 -13    3.65    0.52
   7   7  13    3.28    0.44
  -1  -8 -13    0.98    0.34
  -2  -8 -13   -0.17    0.16
  -3  -8 -13    0.14    0.17
  -3  -8 -13    0.12    0.18
  -4  -8 -13   25.83    1.38
  -4  -8 -13   25.07    1.19
  -4  -8 -13   26.50    1.06
  -5  -8 -13   27.41    1.10
  -5  -8 -13   26.85    1.25
  -5  -8 -13   24.58    1.39
  -6  -8 -13    2.60    0.34
  -6  -8 -13    2.97    0.45
   5   6 -14    7.26    0.74
  -5  -6  14    7.76    0.53
  -5  -6  14    8.16    0.68
   4   6 -14    5.23    0.61
   4   6 -14    4.39    0.51
  -4  -6  14    5.24    0.61
  -4  -6  14    5.16    0.41
   3   6 -14    0.89    0.28
   3   6 -14    0.68    0.25
  -3  -6  14    1.33    0.26
  -3  -6  14    0.87    0.29
   2   6 -14    0.12    0.22
   2   6 -14    0.53    0.22
  -2  -6  14    0.03    0.19
  -2  -6  14    0.40    0.17
   1   6 -14    0.32    0.22
  -1  -6  14    0.41    0.24
  -1  -6  14    0.93    0.23
   0   6 -14    3.88    0.56
   0  -6  14    4.23    0.54
   0  -6  14    3.19    0.38
   6   5 -14    0.17    0.22
  -6  -5  14    0.08    0.21
  -6  -5  14    0.11    0.16
   5   5 -14    0.04    0.17
   5   5 -14    0.19    0.17
  -5  -5  14   -0.05    0.13
  -5  -5  14   -0.03    0.17
   4   5 -14    2.17    0.38
   4   5 -14    3.18    0.41
  -4  -5  14    2.73    0.44
  -4  -5  14    2.73    0.34
   3   5 -14    1.54    0.31
   3   5 -14    1.99    0.37
  -3  -5  14    1.91    0.29
  -3  -5  14    1.79    0.34
   2   5 -14    1.38    0.30
   2   5 -14    1.17    0.26
  -2  -5  14    1.43    0.25
  -2  -5  14    0.75    0.25
   1   5 -14    1.83    0.33
   1   5 -14    1.44    0.31
  -1  -5  14    1.36    0.25
  -1  -5  14    1.34    0.32
   0   5 -14    0.15    0.20
   0   5 -14    0.46    0.21
   0   5 -14    0.36    0.10
   0  -5  14    0.36    0.16
   0  -5  14    0.05    0.16
  -1   5 -14    7.17    0.39
  -1   5 -14    6.88    0.69
   1  -5  14    7.43    0.58
   1  -5  14    7.24    0.46
  -2   5 -14    3.44    0.29
   6   4 -14    8.90    0.55
   6   4 -14    9.20    0.63
  -6  -4  14    9.88    0.74
  -6  -4  14    9.80    0.58
   5   4 -14    3.25    0.39
   5   4 -14    2.50    0.37
  -5  -4  14    3.22    0.37
  -5  -4  14    3.47    0.49
   4   4 -14    2.47    0.39
   4   4 -14    3.14    0.40
   4   4 -14    3.21    0.45
  -4  -4  14    2.61    0.41
  -4  -4  14    2.70    0.33
   3   4 -14   18.17    0.91
   3   4 -14   18.49    0.93
   3   4 -14   19.54    1.01
  -3  -4  14   20.31    1.00
  -3  -4  14   18.85    0.82
   2   4 -14    0.04    0.14
   2   4 -14    0.01    0.12
   2   4 -14   -0.25    0.09
  -2  -4  14   -0.26    0.13
  -2  -4  14    0.04    0.12
   1   4 -14    4.73    0.27
   1   4 -14    4.59    0.51
   1   4 -14    4.36    0.38
   1   4 -14    5.61    0.57
  -1  -4  14    4.32    0.35
  -1  -4  14    4.83    0.52
   0   4 -14    0.84    0.17
   0   4 -14    0.51    0.23
   0   4 -14    0.74    0.25
   0  -4  14    0.55    0.20
   0  -4  14    0.74    0.18
  -1   4 -14    0.05    0.12
  -1   4 -14    0.00    0.16
  -1   4 -14   -0.28    0.11
   1  -4  14    0.09    0.11
   1  -4  14   -0.12    0.12
  -2   4 -14    0.09    0.15
  -2   4 -14    0.69    0.25
  -2   4 -14    0.52    0.18
   2  -4  14    0.51    0.20
  -3   4 -14    0.32    0.16
   6   3 -14   14.81    0.58
   6   3 -14   14.49    0.81
   6   3 -14   14.63    0.75
  -6  -3  14   13.90    0.89
  -6  -3  14   14.88    0.74
   5   3 -14    3.27    0.33
   5   3 -14    2.69    0.38
   5   3 -14    2.98    0.38
  -5  -3  14    3.25    0.48
  -5  -3  14    3.24    0.36
   4   3 -14    1.49    0.30
   4   3 -14    2.00    0.33
   4   3 -14    1.99    0.32
   4   3 -14    1.63    0.26
   4   3 -14    2.21    0.37
  -4  -3  14    1.88    0.28
  -4  -3  14    1.92    0.36
   3   3 -14    1.18    0.28
   3   3 -14    1.82    0.30
   3   3 -14    1.34    0.28
   3   3 -14    1.36    0.24
   3   3 -14    1.35    0.30
  -3  -3  14    1.33    0.30
  -3  -3  14    1.28    0.23
   2   3 -14    0.91    0.25
   2   3 -14    1.00    0.15
   2   3 -14    1.02    0.27
   2   3 -14    1.30    0.27
   2   3 -14    0.83    0.22
   2   3 -14    0.77    0.20
  -2  -3  14    0.63    0.22
  -2  -3  14    0.94    0.20
   1   3 -14    0.36    0.16
   1   3 -14    0.44    0.14
   1   3 -14    0.48    0.17
   1   3 -14    0.48    0.19
   1   3 -14   -0.13    0.12
   1   3 -14    0.35    0.20
  -1  -3  14    0.75    0.22
  -1  -3  14    0.27    0.22
  -1  -3  14    0.21    0.17
  -1  -3  14    0.47    0.16
   0   3 -14    1.15    0.26
   0   3 -14    1.23    0.25
   0   3 -14    0.76    0.24
   0   3 -14    1.12    0.30
   0   3 -14    1.11    0.20
   0  -3  14    1.51    0.29
   0  -3  14    1.06    0.20
   0  -3  14    0.77    0.28
   0  -3  14    1.32    0.26
  -1   3 -14    0.57    0.23
  -1   3 -14    0.85    0.24
  -1   3 -14    0.54    0.17
  -1   3 -14    0.99    0.22
   1  -3  14    0.88    0.18
   1  -3  14    0.52    0.21
   1  -3  14    0.55    0.27
  -2   3 -14    2.99    0.37
  -2   3 -14    2.89    0.33
  -2   3 -14    2.64    0.41
  -2   3 -14    3.06    0.43
   2  -3  14    2.91    0.37
  -3   3 -14    6.37    0.65
  -3   3 -14    6.39    0.44
   3  -3  14    5.30    0.44
  -4   3 -14    0.01    0.14
   4  -3  14    0.01    0.15
   6   2 -14    4.12    0.33
   6   2 -14    4.52    0.51
   6   2 -14    3.47    0.41
   6   2 -14    3.27    0.45
  -6  -2  14    3.83    0.41
  -6  -2  14    4.04    0.54
   5   2 -14   -0.16    0.11
   5   2 -14    0.06    0.14
   5   2 -14   -0.13    0.13
  -5  -2  14    0.02    0.12
  -5  -2  14    0.15    0.18
   4   2 -14    0.31    0.15
   4   2 -14    0.08    0.14
   4   2 -14    0.33    0.16
   4   2 -14    0.20    0.17
  -4  -2  14    0.09    0.13
  -4  -2  14    0.01    0.15
   3   2 -14   19.79    1.02
   3   2 -14   21.46    0.98
   3   2 -14   21.84    0.91
   3   2 -14   21.68    0.71
   3   2 -14   21.78    1.05
   3   2 -14   20.90    0.95
  -3  -2  14   20.86    0.84
  -3  -2  14   20.68    1.00
   2   2 -14   53.26    1.90
   2   2 -14   51.13    1.83
   2   2 -14   51.23    1.89
   2   2 -14   51.27    1.55
   2   2 -14   55.94    1.77
  -2  -2  14   53.29    1.85
  -2  -2  14   51.56    1.80
  -2  -2  14   51.99    1.63
  -2  -2  14   51.74    2.08
   1   2 -14    0.01    0.13
   1   2 -14   -0.03    0.12
   1   2 -14    0.09    0.15
   1   2 -14   -0.07    0.17
   1   2 -14    0.05    0.10
   1   2 -14   -0.18    0.12
  -1  -2  14    0.02    0.12
  -1  -2  14    0.09    0.11
  -1  -2  14   -0.03    0.09
  -1  -2  14   -0.17    0.13
   0   2 -14    0.39    0.21
   0   2 -14    0.22    0.17
   0   2 -14    0.61    0.20
   0   2 -14    0.10    0.13
   0   2 -14    0.28    0.13
   0  -2  14    0.12    0.15
   0  -2  14    0.47    0.14
   0  -2  14    0.32    0.14
   0  -2  14    0.14    0.15
  -1   2 -14    0.90    0.29
  -1   2 -14    1.70    0.25
  -1   2 -14    1.79    0.31
  -1   2 -14    1.63    0.32
  -1   2 -14    1.56    0.31
   1  -2  14    1.62    0.33
   1  -2  14    2.00    0.30
   1  -2  14    1.73    0.22
  -2   2 -14    0.08    0.13
  -2   2 -14    0.30    0.15
  -2   2 -14    0.05    0.17
  -2   2 -14    0.19    0.15
   2  -2  14    0.23    0.14
  -3   2 -14    0.06    0.14
  -3   2 -14    0.17    0.17
  -3   2 -14    0.26    0.16
   3  -2  14    0.07    0.13
   3  -2  14    0.12    0.15
  -4   2 -14    0.15    0.18
  -4   2 -14    0.50    0.20
  -4   2 -14    0.45    0.18
   4  -2  14    0.26    0.19
   4  -2  14    0.25    0.15
  -5   2 -14    0.92    0.24
   5  -2  14    0.70    0.23
   5  -2  14    0.35    0.17
   6   1 -14    7.25    0.47
   6   1 -14    7.43    0.54
   6   1 -14    7.31    0.58
   6   1 -14    7.28    0.57
  -6  -1  14    7.06    0.73
  -6  -1  14    7.52    0.50
   5   1 -14    2.28    0.34
   5   1 -14    2.35    0.41
   5   1 -14    2.14    0.30
   5   1 -14    1.70    0.31
   5   1 -14    2.21    0.35
  -5  -1  14    1.94    0.29
  -5  -1  14    1.60    0.34
   4   1 -14    0.26    0.15
   4   1 -14    0.55    0.20
   4   1 -14    0.45    0.11
   4   1 -14    0.30    0.20
   4   1 -14    0.50    0.18
   4   1 -14    0.31    0.17
  -4  -1  14    0.38    0.15
  -4  -1  14    0.45    0.22
   3   1 -14    6.50    0.54
   3   1 -14    6.81    0.52
   3   1 -14    7.01    0.37
   3   1 -14    5.98    0.51
   3   1 -14    6.56    0.58
   3   1 -14    7.43    0.48
  -3  -1  14    7.07    0.55
  -3  -1  14    6.44    0.41
  -3  -1  14    6.63    0.62
   2   1 -14   31.86    1.28
   2   1 -14   34.13    1.23
   2   1 -14   33.19    1.47
   2   1 -14   32.50    1.35
   2   1 -14   32.78    1.08
  -2  -1  14   32.09    1.10
  -2  -1  14   31.75    1.30
  -2  -1  14   32.60    1.25
  -2  -1  14   30.35    1.44
   1   1 -14    4.07    0.50
   1   1 -14    3.31    0.28
   1   1 -14    3.94    0.44
   1   1 -14    3.44    0.43
   1   1 -14    4.00    0.44
  -1  -1  14    3.74    0.39
  -1  -1  14    3.02    0.43
  -1  -1  14    3.42    0.27
  -1  -1  14    3.71    0.43
   0   1 -14    2.41    0.28
   0   1 -14    2.64    0.36
   0   1 -14    2.67    0.37
   0   1 -14    2.40    0.35
   0   1 -14    1.99    0.35
   0  -1  14    2.51    0.33
   0  -1  14    2.19    0.37
   0  -1  14    3.01    0.36
   0  -1  14    2.65    0.25
   0  -1  14    2.49    0.29
  -1   1 -14   18.02    0.75
  -1   1 -14   17.46    0.87
  -1   1 -14   17.95    0.98
  -1   1 -14   17.43    0.88
  -1   1 -14   17.48    0.87
   1  -1  14   19.14    0.86
   1  -1  14   18.37    0.66
   1  -1  14   18.07    0.98
   1  -1  14   18.63    0.82
  -2   1 -14   15.44    0.80
  -2   1 -14   15.51    0.93
  -2   1 -14   14.64    0.80
  -2   1 -14   17.24    0.86
  -2   1 -14   15.25    0.70
   2  -1  14   17.34    0.75
   2  -1  14   16.82    0.79
  -3   1 -14    0.42    0.17
  -3   1 -14    0.55    0.19
  -3   1 -14    0.46    0.19
   3  -1  14    0.31    0.15
   3  -1  14    0.13    0.14
  -4   1 -14   11.05    0.62
  -4   1 -14   11.77    0.71
  -4   1 -14   13.14    0.77
   4  -1  14   11.27    0.64
   4  -1  14   11.18    0.55
  -5   1 -14    0.86    0.23
  -5   1 -14    0.72    0.23
   5  -1  14    0.71    0.21
   5  -1  14    0.86    0.15
   5  -1  14    0.63    0.15
  -6   1 -14    0.95    0.25
  -6   1 -14    0.66    0.22
   6  -1  14    0.35    0.18
   6   0 -14    9.13    0.55
   6   0 -14    9.93    0.67
  -6   0  14    8.59    0.70
  -6   0  14    8.28    0.54
   5   0 -14    1.43    0.26
   5   0 -14    1.86    0.32
   5   0 -14    1.20    0.33
   5   0 -14    1.13    0.14
   5   0 -14    0.85    0.25
  -5   0  14    1.34    0.24
  -5   0  14    1.45    0.33
   4   0 -14    0.40    0.14
   4   0 -14    0.31    0.15
   4   0 -14    0.37    0.21
   4   0 -14    0.56    0.18
   4   0 -14    0.56    0.20
  -4   0  14    0.25    0.19
  -4   0  14    0.33    0.15
   3   0 -14    6.77    0.52
   3   0 -14    8.21    0.48
   3   0 -14    7.69    0.42
   3   0 -14    6.93    0.61
   3   0 -14    8.31    0.61
  -3   0  14    7.21    0.43
  -3   0  14    6.76    0.63
  -3   0  14    7.33    0.56
   2   0 -14    2.48    0.28
   2   0 -14    2.48    0.35
   2   0 -14    2.77    0.42
   2   0 -14    2.17    0.36
   2   0 -14    2.42    0.36
  -2   0  14    2.23    0.36
  -2   0  14    2.49    0.34
  -2   0  14    2.61    0.41
  -2   0  14    2.46    0.27
   1   0 -14    3.38    0.40
   1   0 -14    3.20    0.39
   1   0 -14    2.99    0.41
   1   0 -14    2.48    0.39
   1   0 -14    3.19    0.32
  -1   0  14    2.97    0.38
  -1   0  14    2.77    0.41
  -1   0  14    3.08    0.34
  -1   0  14    3.55    0.39
  -1   0  14    3.30    0.25
   0   0 -14   13.84    0.83
   0   0 -14   14.55    0.76
   0   0 -14   14.02    0.63
   0   0 -14   14.47    0.75
   0   0 -14   13.17    0.75
   0   0  14   14.89    0.67
   0   0  14   13.72    0.54
   0   0  14   14.55    0.72
   0   0  14   15.14    0.85
   0   0  14   15.74    0.73
  -1   0 -14    4.79    0.53
  -1   0 -14    5.21    0.36
  -1   0 -14    5.32    0.44
  -1   0 -14    4.28    0.47
  -1   0 -14    5.65    0.43
   1   0  14    4.49    0.32
   1   0  14    4.76    0.45
   1   0  14    4.83    0.39
   1   0  14    5.79    0.42
   1   0  14    4.72    0.24
  -2   0 -14   23.37    1.02
  -2   0 -14   23.07    1.03
  -2   0 -14   22.36    1.12
  -2   0 -14   23.13    0.89
  -2   0 -14   22.18    0.99
   2   0  14   19.05    1.04
   2   0  14   23.28    0.90
   2   0  14   23.26    0.94
  -3   0 -14    4.23    0.47
  -3   0 -14    3.94    0.46
  -3   0 -14    4.71    0.36
  -3   0 -14    4.25    0.48
   3   0  14    4.79    0.31
   3   0  14    4.71    0.38
   3   0  14    4.66    0.32
  -4   0 -14   -0.13    0.14
  -4   0 -14    0.22    0.15
  -4   0 -14   -0.15    0.12
   4   0  14    0.11    0.15
   4   0  14    0.15    0.10
   4   0  14    0.14    0.10
  -5   0 -14    4.85    0.53
  -5   0 -14    5.72    0.43
   5   0  14    4.67    0.23
   5   0  14    4.97    0.38
  -6   0 -14   -0.14    0.15
  -6   0 -14    0.12    0.16
   6   0  14    0.06    0.13
   6  -1 -14    1.90    0.31
   6  -1 -14    1.89    0.38
  -6   1  14    1.74    0.29
   5  -1 -14    0.01    0.15
   5  -1 -14    0.12    0.19
   5  -1 -14    0.11    0.11
  -5   1  14    0.14    0.13
   4  -1 -14    7.19    0.62
   4  -1 -14    8.33    0.55
   4  -1 -14    6.99    0.42
   4  -1 -14    6.91    0.54
  -4   1  14    7.61    0.44
  -4   1  14    6.87    0.68
   3  -1 -14   14.11    0.94
   3  -1 -14   14.06    0.63
   3  -1 -14   14.95    0.70
   3  -1 -14   14.03    0.85
   3  -1 -14   14.00    0.78
  -3   1  14   13.91    0.62
  -3   1  14   12.96    0.78
  -3   1  14   15.49    0.96
   2  -1 -14    2.07    0.27
   2  -1 -14    2.06    0.39
   2  -1 -14    2.19    0.36
   2  -1 -14    1.85    0.32
  -2   1  14    1.88    0.36
  -2   1  14    2.55    0.38
  -2   1  14    1.82    0.22
  -2   1  14    2.10    0.32
   1  -1 -14    0.88    0.24
   1  -1 -14    1.05    0.25
   1  -1 -14    0.84    0.22
   1  -1 -14    1.11    0.21
   1  -1 -14    0.78    0.24
  -1   1  14    1.09    0.22
  -1   1  14    0.78    0.20
  -1   1  14    1.14    0.27
  -1   1  14    0.92    0.23
  -1   1  14    0.91    0.15
   0  -1 -14    0.04    0.11
   0  -1 -14    0.09    0.13
   0  -1 -14    0.08    0.14
   0  -1 -14   -0.02    0.11
   0  -1 -14    0.08    0.12
   0   1  14   -0.04    0.12
   0   1  14    0.11    0.09
   0   1  14    0.07    0.13
   0   1  14   -0.01    0.06
   0   1  14    0.02    0.11
  -1  -1 -14    0.35    0.18
  -1  -1 -14    0.45    0.19
  -1  -1 -14    0.31    0.15
  -1  -1 -14    0.12    0.16
  -1  -1 -14    0.24    0.14
   1   1  14    0.32    0.15
   1   1  14    0.41    0.17
   1   1  14    0.22    0.14
   1   1  14    0.22    0.10
  -2  -1 -14    0.30    0.18
  -2  -1 -14    0.28    0.15
  -2  -1 -14    0.23    0.15
  -2  -1 -14    0.20    0.15
  -2  -1 -14    0.22    0.19
   2   1  14    0.06    0.09
   2   1  14    0.25    0.14
   2   1  14    0.10    0.11
  -3  -1 -14    3.35    0.34
  -3  -1 -14    3.01    0.37
  -3  -1 -14    2.38    0.37
  -3  -1 -14    3.68    0.42
   3   1  14    2.92    0.32
   3   1  14    3.16    0.23
   3   1  14    3.32    0.22
  -4  -1 -14    2.82    0.41
  -4  -1 -14    2.62    0.31
   4   1  14    2.30    0.14
   4   1  14    2.21    0.27
  -5  -1 -14   18.37    0.96
  -5  -1 -14   18.32    0.80
   5   1  14   17.22    0.72
   5   1  14   18.56    0.72
  -6  -1 -14   17.26    0.98
   6   1  14   19.22    0.70
   6   1  14   18.38    0.70
  -7  -1 -14    0.05    0.15
   7   1  14    0.06    0.07
   5  -2 -14    6.86    0.55
   5  -2 -14    7.12    0.41
   5  -2 -14    6.84    0.68
  -5   2  14    6.69    0.44
   4  -2 -14    0.17    0.17
   4  -2 -14   -0.04    0.12
   4  -2 -14    0.10    0.17
   4  -2 -14    0.10    0.14
  -4   2  14    0.08    0.12
   3  -2 -14    3.36    0.38
   3  -2 -14    2.34    0.37
   3  -2 -14    2.78    0.32
   3  -2 -14    2.74    0.42
  -3   2  14    2.92    0.49
  -3   2  14    2.30    0.26
   2  -2 -14    2.60    0.31
   2  -2 -14    2.30    0.35
   2  -2 -14    1.99    0.42
   2  -2 -14    2.84    0.42
  -2   2  14    3.03    0.23
  -2   2  14    3.06    0.43
  -2   2  14    2.94    0.44
   1  -2 -14    0.88    0.25
   1  -2 -14    0.67    0.18
   1  -2 -14    0.52    0.19
   1  -2 -14    0.71    0.27
  -1   2  14    0.77    0.20
  -1   2  14    0.84    0.12
  -1   2  14    0.80    0.22
  -1   2  14    0.85    0.25
   0  -2 -14   48.15    1.53
   0  -2 -14   48.40    1.91
   0  -2 -14   46.34    1.66
   0  -2 -14   48.45    1.80
   0  -2 -14   48.09    1.68
   0   2  14   49.13    1.60
   0   2  14   48.83    1.68
  -1  -2 -14   71.42    2.28
  -1  -2 -14   73.43    2.13
  -1  -2 -14   69.47    2.55
  -1  -2 -14   69.12    2.41
  -1  -2 -14   75.61    2.30
   1   2  14   75.14    2.08
   1   2  14   72.72    2.18
   1   2  14   70.54    2.25
  -2  -2 -14    1.14    0.24
  -2  -2 -14    0.78    0.22
  -2  -2 -14    0.73    0.18
  -2  -2 -14    1.03    0.20
  -2  -2 -14    0.83    0.20
  -2  -2 -14    0.44    0.20
   2   2  14    0.75    0.18
   2   2  14    0.74    0.17
   2   2  14    1.01    0.15
  -3  -2 -14    2.99    0.41
  -3  -2 -14    4.21    0.32
  -3  -2 -14    3.57    0.38
  -3  -2 -14    3.57    0.40
  -3  -2 -14    3.32    0.44
   3   2  14    3.24    0.32
   3   2  14    3.69    0.29
   3   2  14    3.35    0.27
  -4  -2 -14    0.93    0.21
  -4  -2 -14    0.83    0.25
   4   2  14    0.70    0.15
   4   2  14    0.66    0.15
  -5  -2 -14    0.33    0.20
   5   2  14    0.22    0.10
   5   2  14    0.27    0.11
  -6  -2 -14    3.51    0.48
  -7  -2 -14    0.03    0.19
   4  -3 -14    4.80    0.52
   4  -3 -14    3.28    0.47
   4  -3 -14    3.58    0.37
   4  -3 -14    4.26    0.57
  -4   3  14    4.13    0.30
   3  -3 -14    2.44    0.32
   3  -3 -14    2.25    0.41
   3  -3 -14    2.51    0.35
   3  -3 -14    2.74    0.37
   3  -3 -14    2.72    0.40
  -3   3  14    2.24    0.23
   2  -3 -14   10.69    0.67
   2  -3 -14   10.38    0.68
   2  -3 -14   10.46    0.73
  -2   3  14   11.27    0.42
  -2   3  14   10.95    0.63
   1  -3 -14    4.34    0.51
   1  -3 -14    4.79    0.49
  -1   3  14    4.85    0.40
   0  -3 -14    5.55    0.44
   0  -3 -14    4.78    0.54
   0  -3 -14    5.47    0.59
   0   3  14    5.88    0.41
   0   3  14    5.33    0.34
  -1  -3 -14   39.95    1.42
  -1  -3 -14   38.60    1.37
  -1  -3 -14   36.68    1.50
  -1  -3 -14   37.83    1.60
   1   3  14   40.10    1.17
   1   3  14   37.86    1.29
  -2  -3 -14   19.20    0.86
  -2  -3 -14   20.72    0.83
  -2  -3 -14   17.52    0.96
  -2  -3 -14   19.75    0.97
  -2  -3 -14   19.39    0.84
   2   3  14   20.77    0.77
   2   3  14   18.52    0.75
  -3  -3 -14    1.17    0.28
  -3  -3 -14    1.16    0.20
  -3  -3 -14    1.02    0.21
   3   3  14    0.96    0.16
   3   3  14    1.17    0.17
  -4  -3 -14   28.77    1.29
  -4  -3 -14   31.35    1.13
   4   3  14   28.06    0.89
   4   3  14   30.23    0.89
  -5  -3 -14   15.87    0.89
  -5  -3 -14   16.13    0.75
  -6  -3 -14   -0.01    0.13
  -7  -3 -14    1.59    0.35
   4  -4 -14    8.90    0.65
   4  -4 -14    8.29    0.79
   4  -4 -14    8.19    0.53
   3  -4 -14   18.87    0.93
   3  -4 -14   18.35    0.98
   3  -4 -14   18.47    1.05
   2  -4 -14    1.71    0.31
   2  -4 -14    1.70    0.33
   2  -4 -14    1.59    0.35
  -2   4  14    1.79    0.32
   1  -4 -14    0.75    0.24
   1  -4 -14    0.94    0.23
   1  -4 -14    0.55    0.23
  -1   4  14    0.96    0.22
   0  -4 -14    8.72    0.65
   0  -4 -14   10.44    0.62
   0   4  14    9.50    0.44
   0   4  14   10.59    0.55
  -1  -4 -14    1.16    0.23
  -1  -4 -14    1.02    0.27
   1   4  14    0.62    0.16
   1   4  14    0.92    0.19
  -2  -4 -14    4.66    0.53
  -2  -4 -14    3.71    0.38
   2   4  14    3.98    0.27
   2   4  14    3.58    0.27
  -3  -4 -14    0.05    0.17
  -3  -4 -14    0.32    0.14
   3   4  14    0.26    0.09
   3   4  14    0.18    0.08
  -4  -4 -14   20.82    1.05
  -5  -4 -14   23.46    1.00
  -5  -4 -14   21.75    1.10
  -6  -4 -14    6.10    0.65
  -7  -4 -14    0.15    0.14
  -7  -4 -14   -0.16    0.15
  -8  -4 -14    1.05    0.31
   3  -5 -14    0.86    0.30
   3  -5 -14    0.99    0.34
   2  -5 -14    0.35    0.25
   2  -5 -14    0.15    0.16
   2  -5 -14    0.19    0.18
  -2   5  14    0.06    0.16
   1  -5 -14    8.99    0.67
   1  -5 -14    7.64    0.63
  -1   5  14    7.80    0.42
  -1   5  14    8.51    0.54
   0  -5 -14   24.98    1.16
   0  -5 -14   24.10    1.22
   0   5  14   22.41    0.92
  -1  -5 -14    1.91    0.36
   1   5  14    1.71    0.23
   1   5  14    1.68    0.21
  -2  -5 -14    5.39    0.57
  -2  -5 -14    5.46    0.41
   2   5  14    5.31    0.29
   2   5  14    5.65    0.30
  -3  -5 -14    0.20    0.17
  -3  -5 -14   -0.02    0.11
  -4  -5 -14   11.68    0.61
  -4  -5 -14   12.84    0.67
  -4  -5 -14   10.85    0.73
  -5  -5 -14    0.10    0.12
  -5  -5 -14    0.10    0.17
  -6  -5 -14    2.16    0.39
  -6  -5 -14    1.64    0.29
  -7  -5 -14    0.65    0.22
  -7  -5 -14    0.80    0.30
  -8  -5 -14    6.95    0.52
  -8  -5 -14    6.98    0.75
   1  -6 -14    0.34    0.22
   1  -6 -14    0.68    0.26
  -1   6  14    0.54    0.18
   0  -6 -14    2.93    0.48
   0  -6 -14    3.59    0.49
   0   6  14    2.82    0.32
  -1  -6 -14    0.40    0.21
  -1  -6 -14    0.23    0.19
   1   6  14    0.13    0.11
   1   6  14    0.19    0.11
  -2  -6 -14    0.12    0.18
  -3  -6 -14    3.27    0.37
  -3  -6 -14    3.57    0.48
  -4  -6 -14   20.63    0.91
  -4  -6 -14   17.98    0.82
  -4  -6 -14   20.04    1.04
  -5  -6 -14   -0.03    0.17
  -5  -6 -14   -0.01    0.11
  -5  -6 -14   -0.03    0.13
  -6  -6 -14    9.47    0.73
  -6  -6 -14   10.88    0.61
  -7  -6 -14    0.25    0.16
  -7  -6 -14    0.00    0.19
   0  -7 -14   -0.02    0.16
   0   7  14    0.07    0.12
  -1  -7 -14    3.19    0.52
  -1  -7 -14    3.12    0.44
   1   7  14    2.71    0.21
   1   7  14    2.96    0.21
  -2  -7 -14    1.61    0.37
  -2  -7 -14    1.71    0.34
  -3  -7 -14    0.78    0.31
  -3  -7 -14    0.62    0.20
  -3  -7 -14    0.84    0.27
  -4  -7 -14   10.06    0.69
  -4  -7 -14    8.59    0.53
  -5  -7 -14    3.23    0.34
  -5  -7 -14    3.69    0.41
  -5  -7 -14    3.44    0.49
  -6  -7 -14    1.23    0.24
  -6  -7 -14    1.37    0.25
  -6  -7 -14    1.16    0.33
  -7  -7 -14    4.60    0.61
  -7  -7 -14    4.18    0.43
  -2  -8 -14    0.18    0.21
  -3  -8 -14    0.96    0.30
  -4  -8 -14    1.56    0.39
  -4  -8 -14    1.96    0.32
  -4  -8 -14    1.48    0.34
  -5  -8 -14    0.09    0.20
  -5  -8 -14   -0.16    0.17
  -5  -8 -14   -0.01    0.18
   3   6 -15    0.27    0.25
  -3  -6  15    0.56    0.25
  -3  -6  15    0.56    0.19
   2   6 -15    6.92    0.71
  -2  -6  15    7.21    0.50
  -2  -6  15    6.71    0.70
   5   5 -15    2.09    0.43
  -5  -5  15    1.21    0.33
  -5  -5  15    2.18    0.33
   4   5 -15    2.27    0.42
   4   5 -15    2.24    0.38
  -4  -5  15    2.62    0.34
  -4  -5  15    2.18    0.41
   3   5 -15    2.64    0.44
   3   5 -15    3.12    0.44
  -3  -5  15    3.22    0.38
  -3  -5  15    3.90    0.52
   2   5 -15    0.86    0.27
   2   5 -15    1.37    0.33
  -2  -5  15    1.61    0.27
  -2  -5  15    1.32    0.33
   1   5 -15    9.10    0.69
   1   5 -15    9.00    0.69
  -1  -5  15    9.36    0.67
  -1  -5  15    8.40    0.52
   0   5 -15    2.04    0.41
   0   5 -15    1.24    0.32
   0  -5  15    1.39    0.35
   0  -5  15    1.81    0.27
  -1   5 -15    0.15    0.24
  -1   5 -15    0.36    0.12
   1  -5  15    0.13    0.18
  -6  -4  15    5.01    0.48
  -6  -4  15    5.76    0.65
   5   4 -15    5.20    0.55
   5   4 -15    5.19    0.50
  -5  -4  15    6.17    0.67
  -5  -4  15    6.08    0.46
   4   4 -15    0.43    0.23
   4   4 -15    0.41    0.20
   4   4 -15    0.44    0.20
  -4  -4  15    0.05    0.13
  -4  -4  15    0.40    0.20
   3   4 -15    0.05    0.14
   3   4 -15    0.29    0.18
   3   4 -15    0.07    0.14
  -3  -4  15    0.06    0.14
  -3  -4  15    0.07    0.18
   2   4 -15    3.30    0.45
   2   4 -15    3.85    0.45
   2   4 -15    3.63    0.48
  -2  -4  15    3.53    0.47
  -2  -4  15    3.78    0.38
   1   4 -15    0.17    0.16
   1   4 -15    0.17    0.09
   1   4 -15    0.12    0.15
  -1  -4  15   -0.09    0.11
  -1  -4  15   -0.02    0.15
   0   4 -15   16.46    0.67
   0   4 -15   17.54    0.95
   0   4 -15   16.59    0.93
   0  -4  15   17.08    0.89
   0  -4  15   16.13    0.73
  -1   4 -15    9.73    0.50
  -1   4 -15    9.06    0.67
  -1   4 -15    9.19    0.69
   1  -4  15    9.27    0.63
   1  -4  15    8.69    0.50
  -2   4 -15    2.04    0.40
  -2   4 -15    1.60    0.40
  -2   4 -15    1.56    0.25
   6   3 -15    3.24    0.39
   6   3 -15    2.84    0.26
  -6  -3  15    2.74    0.36
  -6  -3  15    3.38    0.51
   5   3 -15    3.81    0.43
   5   3 -15    3.68    0.47
   5   3 -15    4.64    0.35
  -5  -3  15    4.06    0.53
  -5  -3  15    4.45    0.44
   4   3 -15    3.25    0.47
   4   3 -15    3.87    0.44
   4   3 -15    3.04    0.44
   4   3 -15    3.13    0.35
   4   3 -15    3.05    0.40
  -4  -3  15    3.32    0.37
  -4  -3  15    2.96    0.43
   3   3 -15   13.12    0.68
   3   3 -15   13.25    0.79
   3   3 -15   12.69    0.79
   3   3 -15   12.13    0.71
   3   3 -15   12.64    0.75
  -3  -3  15   11.87    0.62
  -3  -3  15   13.22    0.79
   2   3 -15   25.97    1.23
   2   3 -15   28.87    0.89
   2   3 -15   26.58    1.19
   2   3 -15   27.20    1.20
   2   3 -15   27.05    1.11
  -2  -3  15   27.12    1.20
  -2  -3  15   26.56    1.02
   1   3 -15   10.86    0.80
   1   3 -15   10.19    0.64
   1   3 -15    9.89    0.66
   1   3 -15    9.50    0.46
   1   3 -15    8.54    0.64
   1   3 -15    9.24    0.59
  -1  -3  15    8.84    0.50
  -1  -3  15   10.54    0.66
   0   3 -15    0.80    0.26
   0   3 -15    0.82    0.18
   0   3 -15    0.68    0.23
   0   3 -15    0.58    0.20
   0  -3  15    0.59    0.22
   0  -3  15    0.47    0.20
   0  -3  15    0.48    0.15
  -1   3 -15    0.13    0.18
  -1   3 -15    0.24    0.16
  -1   3 -15   -0.30    0.13
  -1   3 -15    0.01    0.12
   1  -3  15    0.27    0.13
   1  -3  15    0.03    0.15
  -2   3 -15    0.01    0.16
  -2   3 -15    0.30    0.15
  -2   3 -15    0.28    0.21
   2  -3  15    0.19    0.15
  -3   3 -15    0.80    0.27
  -3   3 -15    0.28    0.16
   3  -3  15    0.66    0.21
   6   2 -15    8.30    0.57
   6   2 -15    7.92    0.47
  -6  -2  15    8.73    0.56
  -6  -2  15    7.80    0.67
   5   2 -15    1.54    0.26
   5   2 -15    1.53    0.36
   5   2 -15    1.59    0.30
   5   2 -15    1.81    0.33
  -5  -2  15    1.71    0.28
  -5  -2  15    1.56    0.36
   4   2 -15   31.70    1.42
   4   2 -15   32.74    1.28
   4   2 -15   30.89    1.31
   4   2 -15   30.95    1.19
  -4  -2  15   31.12    1.16
  -4  -2  15   30.52    1.36
   3   2 -15    0.12    0.17
   3   2 -15    0.05    0.09
   3   2 -15   -0.09    0.13
   3   2 -15    0.06    0.12
   3   2 -15   -0.04    0.14
  -3  -2  15   -0.03    0.13
  -3  -2  15   -0.08    0.12
   2   2 -15    8.47    0.54
   2   2 -15    7.83    0.60
   2   2 -15    8.85    0.62
   2   2 -15    8.22    0.59
   2   2 -15    8.52    0.68
   2   2 -15    9.27    0.45
  -2  -2  15    8.50    0.60
  -2  -2  15    8.04    0.47
   1   2 -15    2.32    0.36
   1   2 -15    2.28    0.27
   1   2 -15    1.71    0.36
   1   2 -15    1.83    0.32
   1   2 -15    1.68    0.31
  -1  -2  15    2.20    0.33
  -1  -2  15    2.93    0.40
  -1  -2  15    1.85    0.39
  -1  -2  15    2.71    0.29
   0   2 -15    0.66    0.27
   0   2 -15    0.40    0.19
   0   2 -15    0.35    0.15
   0   2 -15    0.32    0.17
   0   2 -15    0.40    0.19
   0  -2  15    0.10    0.19
   0  -2  15    0.17    0.17
   0  -2  15    0.63    0.15
  -1   2 -15   49.20    1.82
  -1   2 -15   47.29    1.81
  -1   2 -15   48.44    1.76
  -1   2 -15   48.28    1.57
   1  -2  15   48.48    1.47
   1  -2  15   48.99    1.69
  -2   2 -15   48.68    1.86
  -2   2 -15   46.89    1.60
  -2   2 -15   52.56    1.88
  -2   2 -15   48.54    1.78
   2  -2  15   49.84    1.68
  -3   2 -15    0.12    0.14
  -3   2 -15   -0.12    0.12
  -3   2 -15   -0.01    0.15
   3  -2  15   -0.06    0.11
  -4   2 -15    1.70    0.35
  -4   2 -15    1.74    0.30
  -4   2 -15    1.02    0.27
   4  -2  15    1.87    0.27
   4  -2  15    1.47    0.31
   6   1 -15    4.77    0.55
   6   1 -15    4.99    0.40
   6   1 -15    4.19    0.48
  -6  -1  15    4.76    0.60
  -6  -1  15    4.10    0.43
   5   1 -15    2.54    0.46
   5   1 -15    2.22    0.37
   5   1 -15    2.04    0.30
  -5  -1  15    1.82    0.36
  -5  -1  15    2.16    0.30
   4   1 -15    0.01    0.16
   4   1 -15    0.04    0.12
   4   1 -15    0.12    0.10
   4   1 -15    0.10    0.16
  -4  -1  15   -0.02    0.17
  -4  -1  15    0.22    0.15
   3   1 -15    4.92    0.59
   3   1 -15    4.95    0.52
   3   1 -15    4.96    0.54
   3   1 -15    3.59    0.40
   3   1 -15    4.94    0.56
   3   1 -15    4.85    0.31
  -3  -1  15    4.96    0.37
  -3  -1  15    4.19    0.50
   2   1 -15    1.11    0.27
   2   1 -15    1.27    0.28
   2   1 -15    1.01    0.27
   2   1 -15    0.90    0.27
   2   1 -15    0.90    0.18
  -2  -1  15    1.14    0.27
  -2  -1  15    0.95    0.25
  -2  -1  15    0.94    0.30
  -2  -1  15    1.15    0.21
   1   1 -15    6.89    0.41
   1   1 -15    6.24    0.50
   1   1 -15    6.80    0.59
   1   1 -15    6.35    0.51
   1   1 -15    6.65    0.52
  -1  -1  15    6.98    0.59
  -1  -1  15    6.58    0.47
  -1  -1  15    7.53    0.53
  -1  -1  15    6.12    0.37
   0   1 -15    6.55    0.52
   0   1 -15    7.07    0.54
   0   1 -15    7.17    0.62
   0   1 -15    6.99    0.43
   0   1 -15    7.62    0.56
   0  -1  15    7.65    0.52
   0  -1  15    7.45    0.39
   0  -1  15    7.72    0.61
  -1   1 -15   11.14    0.56
  -1   1 -15   10.67    0.66
  -1   1 -15   10.22    0.67
  -1   1 -15   10.35    0.65
   1  -1  15   10.44    0.61
   1  -1  15   10.13    0.62
   1  -1  15    9.69    0.44
   1  -1  15   11.43    0.75
  -2   1 -15   43.24    1.67
  -2   1 -15   44.34    1.68
  -2   1 -15   43.77    1.66
  -2   1 -15   44.08    1.48
   2  -1  15   44.86    1.52
   2  -1  15   44.46    1.59
  -3   1 -15    3.94    0.48
  -3   1 -15    4.20    0.50
  -3   1 -15    3.46    0.45
  -3   1 -15    4.76    0.39
   3  -1  15    4.79    0.38
   3  -1  15    4.42    0.45
  -4   1 -15    0.75    0.22
  -4   1 -15    1.02    0.26
  -4   1 -15    1.24    0.28
   4  -1  15    0.48    0.17
   4  -1  15    1.24    0.25
  -5   1 -15    9.41    0.67
  -5   1 -15   11.07    0.64
   5  -1  15    9.76    0.46
   5  -1  15    9.89    0.60
   5  -1  15   10.34    0.47
  -6   0  15    8.64    0.72
  -6   0  15    8.31    0.54
   5   0 -15    3.00    0.47
   5   0 -15    2.92    0.43
   5   0 -15    2.67    0.39
   5   0 -15    3.08    0.37
  -5   0  15    2.74    0.34
  -5   0  15    2.62    0.46
   4   0 -15    0.78    0.25
   4   0 -15    0.95    0.27
   4   0 -15    1.15    0.19
  -4   0  15    0.97    0.20
  -4   0  15    0.99    0.27
   3   0 -15   15.84    0.66
   3   0 -15   16.67    0.86
   3   0 -15   15.36    1.00
   3   0 -15   14.93    0.89
  -3   0  15   15.54    0.67
  -3   0  15   14.65    0.85
   2   0 -15   10.55    0.67
   2   0 -15   11.18    0.73
   2   0 -15   12.36    0.83
   2   0 -15   11.04    0.55
   2   0 -15   11.73    0.72
  -2   0  15   11.06    0.79
  -2   0  15   12.37    0.72
  -2   0  15   11.26    0.53
  -2   0  15   10.58    0.65
   1   0 -15   -0.02    0.12
   1   0 -15    0.04    0.18
   1   0 -15   -0.12    0.13
   1   0 -15    0.11    0.14
   1   0 -15   -0.15    0.11
  -1   0  15   -0.18    0.12
  -1   0  15    0.20    0.11
  -1   0  15    0.01    0.14
  -1   0  15    0.06    0.10
   0   0 -15    2.34    0.39
   0   0 -15    2.59    0.38
   0   0 -15    2.41    0.36
   0   0 -15    1.97    0.32
   0   0 -15    2.53    0.29
   0   0  15    2.35    0.39
   0   0  15    2.19    0.33
   0   0  15    2.23    0.21
   0   0  15    2.20    0.32
  -1   0 -15    1.85    0.36
  -1   0 -15    2.16    0.33
  -1   0 -15    2.12    0.34
  -1   0 -15    1.90    0.27
  -1   0 -15    2.02    0.34
   1   0  15    2.06    0.31
   1   0  15    1.77    0.16
   1   0  15    1.33    0.26
  -2   0 -15    0.56    0.21
  -2   0 -15    0.58    0.21
  -2   0 -15    0.64    0.18
  -2   0 -15    0.85    0.24
   2   0  15    0.21    0.14
   2   0  15    0.58    0.19
  -3   0 -15    8.92    0.52
  -3   0 -15    7.50    0.57
  -3   0 -15    8.83    0.59
  -3   0 -15    8.49    0.59
   3   0  15    7.87    0.44
   3   0  15    8.63    0.53
   3   0  15    7.72    0.43
  -4   0 -15    1.55    0.31
  -4   0 -15    1.18    0.25
   4   0  15    1.24    0.24
   4   0  15    1.06    0.16
   4   0  15    1.14    0.18
  -5   0 -15    3.63    0.48
  -5   0 -15    4.27    0.43
   5   0  15    3.98    0.39
  -6   0 -15   22.46    1.13
  -6   0 -15   21.24    0.96
   6   0  15   21.18    0.88
   5  -1 -15   16.90    0.96
   5  -1 -15   18.71    0.68
  -5   1  15   16.37    0.76
   4  -1 -15    0.32    0.15
   4  -1 -15    0.07    0.18
   4  -1 -15    0.06    0.16
  -4   1  15   -0.03    0.10
  -4   1  15   -0.04    0.13
   3  -1 -15    1.00    0.20
   3  -1 -15    0.83    0.28
   3  -1 -15    0.80    0.25
  -3   1  15    0.71    0.17
  -3   1  15    0.90    0.25
   2  -1 -15    4.61    0.54
   2  -1 -15    3.34    0.52
   2  -1 -15    4.42    0.34
   2  -1 -15    4.57    0.49
  -2   1  15    4.26    0.50
  -2   1  15    4.68    0.57
  -2   1  15    4.08    0.47
  -2   1  15    4.26    0.30
   1  -1 -15    0.42    0.16
   1  -1 -15    0.24    0.17
   1  -1 -15    0.22    0.23
   1  -1 -15    0.38    0.17
   1  -1 -15    0.24    0.17
  -1   1  15    0.24    0.10
  -1   1  15    0.31    0.16
  -1   1  15    0.11    0.17
  -1   1  15    0.24    0.17
  -1   1  15    0.01    0.10
   0  -1 -15    6.03    0.50
   0  -1 -15    5.82    0.55
   0  -1 -15    5.77    0.47
   0  -1 -15    5.82    0.40
   0  -1 -15    6.78    0.49
   0   1  15    6.02    0.44
   0   1  15    7.12    0.50
   0   1  15    6.55    0.28
   0   1  15    6.21    0.54
  -1  -1 -15    2.95    0.39
  -1  -1 -15    2.69    0.40
  -1  -1 -15    2.82    0.32
  -1  -1 -15    2.85    0.43
  -1  -1 -15    2.97    0.36
   1   1  15    2.39    0.32
   1   1  15    2.43    0.32
  -2  -1 -15    1.64    0.26
  -2  -1 -15    1.38    0.26
  -2  -1 -15    1.66    0.32
  -2  -1 -15    1.39    0.28
   2   1  15    1.44    0.25
   2   1  15    1.56    0.26
   2   1  15    1.87    0.22
  -3  -1 -15    6.52    0.50
  -3  -1 -15    7.00    0.53
  -3  -1 -15    7.34    0.47
  -3  -1 -15    7.21    0.55
   3   1  15    6.86    0.35
   3   1  15    7.79    0.48
   3   1  15    7.34    0.36
  -4  -1 -15    0.75    0.21
  -4  -1 -15    0.76    0.23
  -4  -1 -15    1.20    0.26
   4   1  15    0.95    0.20
  -5  -1 -15    0.48    0.22
  -5  -1 -15    0.55    0.18
   5   1  15    0.58    0.15
   5   1  15    0.44    0.14
  -6  -1 -15   -0.17    0.12
   6   1  15    0.10    0.11
   6   1  15    0.03    0.10
   5  -2 -15    1.20    0.20
  -5   2  15    1.24    0.23
   4  -2 -15   -0.06    0.17
   4  -2 -15    0.18    0.20
   4  -2 -15   -0.06    0.12
  -4   2  15    0.13    0.11
   3  -2 -15    0.15    0.16
   3  -2 -15    0.12    0.17
   3  -2 -15   -0.03    0.12
  -3   2  15    0.15    0.11
   2  -2 -15   11.10    0.76
   2  -2 -15   12.79    0.62
   2  -2 -15   11.64    0.72
  -2   2  15   13.70    0.80
  -2   2  15   12.32    0.50
   1  -2 -15   33.56    1.32
   1  -2 -15   32.15    1.16
   1  -2 -15   31.51    1.38
  -1   2  15   32.14    1.23
  -1   2  15   31.18    1.31
  -1   2  15   32.41    0.95
   0  -2 -15    1.01    0.23
   0  -2 -15    0.90    0.24
   0  -2 -15    0.69    0.19
   0  -2 -15    0.42    0.21
   0   2  15    0.81    0.21
   0   2  15    0.88    0.20
  -1  -2 -15    1.07    0.25
  -1  -2 -15    1.30    0.25
  -1  -2 -15    1.68    0.32
  -1  -2 -15    1.75    0.26
   1   2  15    1.01    0.23
   1   2  15    1.54    0.25
   1   2  15    1.48    0.20
  -2  -2 -15    0.29    0.17
  -2  -2 -15    0.03    0.14
  -2  -2 -15    0.35    0.15
  -2  -2 -15    0.17    0.13
   2   2  15    0.28    0.15
   2   2  15    0.26    0.14
   2   2  15    0.24    0.10
  -3  -2 -15    0.22    0.14
  -3  -2 -15    0.39    0.15
  -3  -2 -15    0.28    0.16
   3   2  15    0.12    0.09
   3   2  15    0.23    0.13
  -4  -2 -15   17.70    0.96
  -4  -2 -15   19.04    0.88
   4   2  15   18.03    0.72
   4   2  15   19.41    0.73
  -5  -2 -15   13.95    0.85
   5   2  15   14.84    0.55
   5   2  15   13.27    0.54
  -6  -2 -15    0.43    0.22
  -7  -2 -15    8.34    0.68
   4  -3 -15    2.83    0.49
   4  -3 -15    3.06    0.48
   4  -3 -15    2.21    0.30
  -4   3  15    2.58    0.26
   3  -3 -15    0.89    0.26
   3  -3 -15    0.41    0.25
   3  -3 -15    1.00    0.23
  -3   3  15    0.71    0.14
   2  -3 -15    2.50    0.42
   2  -3 -15    2.80    0.35
   2  -3 -15    2.50    0.38
   2  -3 -15    3.46    0.45
  -2   3  15    2.93    0.18
   1  -3 -15    4.29    0.47
   1  -3 -15    3.62    0.49
  -1   3  15    3.73    0.41
   0  -3 -15    0.08    0.14
   0  -3 -15   -0.24    0.12
   0   3  15    0.11    0.09
   0   3  15    0.09    0.13
  -1  -3 -15    2.40    0.39
  -1  -3 -15    2.07    0.32
  -1  -3 -15    1.92    0.29
   1   3  15    2.13    0.28
   1   3  15    2.24    0.21
  -2  -3 -15   10.98    0.70
  -2  -3 -15   10.40    0.54
  -2  -3 -15   10.06    0.56
   2   3  15   10.46    0.51
   2   3  15   10.00    0.52
  -3  -3 -15    3.45    0.35
  -3  -3 -15    2.71    0.34
  -3  -3 -15    2.56    0.40
   3   3  15    3.37    0.26
   3   3  15    2.78    0.27
  -4  -3 -15   10.27    0.70
   4   3  15   10.69    0.42
   4   3  15    9.44    0.40
  -5  -3 -15   27.80    1.30
  -6  -3 -15    6.56    0.68
  -7  -3 -15    0.42    0.23
   3  -4 -15    3.61    0.41
   3  -4 -15    3.64    0.49
   3  -4 -15    3.35    0.51
   2  -4 -15    4.66    0.53
   2  -4 -15    4.42    0.53
   2  -4 -15    4.06    0.55
  -2   4  15    4.36    0.47
   1  -4 -15    0.88    0.24
   1  -4 -15    0.94    0.30
   1  -4 -15    0.52    0.24
  -1   4  15    1.49    0.27
   0  -4 -15   17.90    0.89
   0  -4 -15   16.77    0.94
   0   4  15   15.07    0.74
   0   4  15   17.63    0.65
  -1  -4 -15    1.13    0.29
   1   4  15    0.54    0.16
  -2  -4 -15    4.76    0.54
   2   4  15    4.99    0.32
   2   4  15    4.61    0.31
  -3  -4 -15    1.98    0.37
  -3  -4 -15    2.11    0.29
   3   4  15    1.66    0.17
   3   4  15    1.56    0.17
  -4  -4 -15    0.28    0.21
  -4  -4 -15    0.39    0.16
  -5  -4 -15    4.58    0.55
  -6  -4 -15    2.97    0.47
  -7  -4 -15    8.05    0.67
   2  -5 -15    6.65    0.60
   2  -5 -15    7.70    0.66
  -2   5  15    8.34    0.56
   1  -5 -15    0.84    0.29
   1  -5 -15    1.01    0.29
  -1   5  15    0.97    0.23
  -1   5  15    1.31    0.19
   0  -5 -15    0.86    0.28
   0  -5 -15    0.68    0.24
   0   5  15    1.36    0.24
  -1  -5 -15    0.44    0.23
   1   5  15    0.62    0.16
   1   5  15    0.72    0.16
  -2  -5 -15    0.36    0.21
   2   5  15    0.53    0.13
   2   5  15    0.38    0.12
  -3  -5 -15   11.93    0.76
  -3  -5 -15   10.59    0.60
  -4  -5 -15    4.39    0.37
  -4  -5 -15    5.02    0.58
  -5  -5 -15    2.26    0.40
  -5  -5 -15    2.37    0.30
  -6  -5 -15   27.88    1.35
  -7  -5 -15    0.49    0.25
   1  -6 -15    1.18    0.33
   1  -6 -15    1.00    0.30
  -1   6  15    0.91    0.22
   0  -6 -15    8.32    0.65
   0  -6 -15    7.65    0.69
   0   6  15    8.38    0.49
  -1  -6 -15   16.21    1.01
  -1  -6 -15   15.18    0.91
   1   6  15   14.96    0.63
   1   6  15   16.87    0.66
  -2  -6 -15   17.99    0.98
  -3  -6 -15    0.55    0.23
  -3  -6 -15    0.65    0.18
  -4  -6 -15    4.39    0.43
  -4  -6 -15    3.81    0.51
  -5  -6 -15    1.09    0.21
  -5  -6 -15    0.78    0.28
  -6  -6 -15    0.01    0.20
  -7  -6 -15    0.80    0.30
  -1  -7 -15    3.08    0.51
  -1  -7 -15    3.85    0.51
   1   7  15    3.02    0.20
  -2  -7 -15    9.61    0.78
  -2  -7 -15    7.85    0.64
  -3  -7 -15   15.02    0.99
  -3  -7 -15   13.97    0.86
  -4  -7 -15   11.74    0.66
  -4  -7 -15   12.36    0.81
  -5  -7 -15    5.97    0.44
  -5  -7 -15    5.47    0.64
  -6  -7 -15    0.93    0.31
  -6  -7 -15    1.17    0.26
   4   5 -16   -0.05    0.23
  -4  -5  16    0.00    0.15
  -4  -5  16   -0.15    0.17
   3   5 -16    0.28    0.25
  -3  -5  16    0.14    0.20
  -3  -5  16    0.37    0.19
   2   5 -16    0.00    0.22
  -2  -5  16    0.06    0.14
  -2  -5  16    0.05    0.20
   1   5 -16    0.04    0.19
  -1  -5  16    0.08    0.15
  -1  -5  16   -0.04    0.19
  -5  -4  16    9.11    0.57
  -5  -4  16    8.55    0.70
   4   4 -16    4.96    0.60
   4   4 -16    5.07    0.56
   4   4 -16    5.80    0.63
  -4  -4  16    4.58    0.55
  -4  -4  16    4.98    0.42
   3   4 -16    1.93    0.35
   3   4 -16    2.02    0.38
   3   4 -16    2.21    0.39
  -3  -4  16    2.60    0.34
  -3  -4  16    1.96    0.39
   2   4 -16    1.28    0.33
   2   4 -16    1.26    0.29
   2   4 -16    1.05    0.25
  -2  -4  16    1.42    0.32
  -2  -4  16    0.98    0.22
   1   4 -16    0.87    0.26
   1   4 -16    0.55    0.27
   1   4 -16    1.05    0.16
  -1  -4  16    1.21    0.23
  -1  -4  16    1.48    0.32
   0   4 -16    0.40    0.19
   0   4 -16    0.13    0.12
   0   4 -16   -0.24    0.17
   0  -4  16    0.02    0.17
   0  -4  16    0.10    0.14
  -1   4 -16    0.22    0.25
  -1   4 -16   -0.02    0.12
  -1   4 -16    0.10    0.22
   1  -4  16   -0.21    0.14
   1  -4  16    0.25    0.13
   5   3 -16   15.48    0.72
   5   3 -16   17.48    0.88
  -5  -3  16   16.41    0.98
  -5  -3  16   15.92    0.79
   4   3 -16   24.54    1.24
   4   3 -16   23.62    1.08
   4   3 -16   25.70    1.17
   4   3 -16   24.39    1.22
   4   3 -16   23.69    0.99
  -4  -3  16   22.98    0.98
  -4  -3  16   23.61    1.18
   3   3 -16    0.11    0.13
   3   3 -16    0.02    0.14
   3   3 -16   -0.06    0.15
   3   3 -16   -0.02    0.15
  -3  -3  16   -0.15    0.11
  -3  -3  16   -0.19    0.15
   2   3 -16    0.25    0.18
   2   3 -16    0.17    0.15
   2   3 -16    0.02    0.09
   2   3 -16    0.12    0.15
   2   3 -16    0.02    0.15
  -2  -3  16   -0.13    0.11
  -2  -3  16   -0.01    0.16
   1   3 -16   17.10    0.67
   1   3 -16   16.68    0.91
   1   3 -16   16.62    0.88
   1   3 -16   15.84    0.91
  -1  -3  16   17.43    0.91
  -1  -3  16   15.96    0.71
   0   3 -16    0.49    0.22
   0   3 -16    0.16    0.13
   0   3 -16    0.51    0.21
   0   3 -16   -0.05    0.15
   0  -3  16    0.05    0.12
   0  -3  16    0.02    0.17
  -1   3 -16    7.89    0.63
  -1   3 -16    6.53    0.52
  -1   3 -16    7.21    0.60
  -1   3 -16    7.76    0.47
   1  -3  16    7.70    0.56
   1  -3  16    7.79    0.43
  -2   3 -16    3.28    0.49
  -2   3 -16    4.64    0.56
  -2   3 -16    3.65    0.39
  -3   3 -16   -0.14    0.14
  -3   3 -16   -0.08    0.22
  -3   3 -16    0.22    0.27
   3  -3  16    0.11    0.14
   5   2 -16    1.44    0.34
   5   2 -16    1.99    0.35
   5   2 -16    2.09    0.30
   5   2 -16    1.24    0.34
  -5  -2  16    2.17    0.40
  -5  -2  16    2.19    0.31
   4   2 -16    0.19    0.20
   4   2 -16   -0.06    0.16
   4   2 -16    0.15    0.15
  -4  -2  16   -0.10    0.14
  -4  -2  16    0.27    0.16
   3   2 -16    0.22    0.18
   3   2 -16    0.01    0.15
   3   2 -16    0.14    0.14
   3   2 -16    0.14    0.10
   3   2 -16    0.12    0.17
  -3  -2  16    0.08    0.13
  -3  -2  16   -0.08    0.17
   2   2 -16    0.03    0.15
   2   2 -16   -0.29    0.13
   2   2 -16    0.04    0.10
   2   2 -16   -0.05    0.13
  -2  -2  16    0.05    0.11
  -2  -2  16   -0.02    0.14
   1   2 -16   25.05    1.15
   1   2 -16   23.59    1.16
   1   2 -16   24.53    1.14
   1   2 -16   25.97    0.93
  -1  -2  16   24.85    1.12
  -1  -2  16   24.48    0.92
   0   2 -16   34.67    1.45
   0   2 -16   34.05    1.20
   0   2 -16   32.77    1.44
   0   2 -16   36.20    1.44
   0  -2  16   34.75    1.16
   0  -2  16   34.82    1.37
  -1   2 -16    0.12    0.18
  -1   2 -16    0.57    0.22
  -1   2 -16    0.09    0.14
  -1   2 -16    0.12    0.15
   1  -2  16    0.14    0.17
   1  -2  16    0.23    0.11
  -2   2 -16    4.69    0.39
  -2   2 -16    4.13    0.52
  -2   2 -16    4.19    0.51
  -2   2 -16    4.28    0.49
   2  -2  16    3.59    0.41
  -3   2 -16   -0.08    0.14
  -3   2 -16   -0.18    0.14
  -3   2 -16    0.35    0.19
  -3   2 -16    0.28    0.18
   3  -2  16    0.46    0.17
  -4   2 -16    5.69    0.65
  -4   2 -16    5.07    0.50
   4  -2  16    5.63    0.42
   5   1 -16    5.64    0.43
   5   1 -16    5.22    0.66
   5   1 -16    4.24    0.53
  -5  -1  16    5.21    0.41
  -5  -1  16    5.41    0.63
   4   1 -16    2.19    0.21
   4   1 -16    2.50    0.39
   4   1 -16    1.97    0.30
   4   1 -16    2.35    0.43
  -4  -1  16    2.42    0.40
  -4  -1  16    2.02    0.29
   3   1 -16    4.23    0.54
   3   1 -16    4.33    0.30
   3   1 -16    4.18    0.49
   3   1 -16    5.51    0.59
  -3  -1  16    4.56    0.35
  -3  -1  16    4.54    0.54
   2   1 -16    0.36    0.15
   2   1 -16    0.45    0.21
   2   1 -16    0.30    0.19
   2   1 -16    0.06    0.15
  -2  -1  16    0.26    0.19
  -2  -1  16    0.23    0.12
   1   1 -16    0.61    0.21
   1   1 -16    0.36    0.15
   1   1 -16    0.43    0.19
   1   1 -16    0.31    0.19
  -1  -1  16    0.53    0.15
  -1  -1  16    0.62    0.22
  -1  -1  16    0.33    0.25
  -1  -1  16    0.33    0.19
   0   1 -16   -0.13    0.11
   0   1 -16    0.26    0.18
   0   1 -16    0.01    0.14
   0   1 -16    0.06    0.16
   0  -1  16   -0.01    0.14
   0  -1  16    0.05    0.10
   0  -1  16    0.15    0.18
  -1   1 -16    4.76    0.52
  -1   1 -16    4.41    0.50
  -1   1 -16    4.33    0.51
  -1   1 -16    4.70    0.37
   1  -1  16    4.03    0.26
   1  -1  16    3.93    0.44
  -2   1 -16    3.77    0.47
  -2   1 -16    3.75    0.39
  -2   1 -16    3.52    0.47
  -2   1 -16    3.53    0.45
   2  -1  16    3.74    0.44
   2  -1  16    3.22    0.38
  -3   1 -16   12.19    0.65
  -3   1 -16   10.81    0.75
  -3   1 -16   10.58    0.72
  -3   1 -16   11.36    0.72
   3  -1  16   12.22    0.61
   3  -1  16   11.71    0.68
  -4   1 -16    0.83    0.26
  -4   1 -16    1.17    0.26
   4  -1  16    1.25    0.27
   4  -1  16    1.67    0.25
  -5   1 -16    6.10    0.48
  -5   1 -16    6.47    0.56
   5  -1  16    5.23    0.44
   5  -1  16    6.24    0.34
   5  -1  16    5.20    0.32
   5   0 -16    3.13    0.50
   5   0 -16    3.06    0.38
  -5   0  16    2.32    0.31
  -5   0  16    2.91    0.47
   4   0 -16    0.00    0.10
   4   0 -16    0.16    0.17
   4   0 -16    0.05    0.16
  -4   0  16    0.26    0.14
  -4   0  16    0.42    0.20
   3   0 -16    8.40    0.47
   3   0 -16    9.37    0.65
   3   0 -16    9.60    0.71
  -3   0  16    8.57    0.64
  -3   0  16    8.19    0.47
   2   0 -16   12.18    0.75
   2   0 -16   12.89    0.79
   2   0 -16   14.08    0.64
   2   0 -16   13.05    0.82
  -2   0  16   13.03    0.59
  -2   0  16   13.13    0.78
  -2   0  16   12.88    0.91
   1   0 -16    0.94    0.26
   1   0 -16    1.16    0.29
   1   0 -16    0.96    0.25
   1   0 -16    1.42    0.24
  -1   0  16    1.11    0.24
  -1   0  16    1.04    0.27
  -1   0  16    1.68    0.35
  -1   0  16    1.28    0.19
   0   0 -16   25.34    1.15
   0   0 -16   25.44    1.19
   0   0 -16   24.92    1.14
   0   0 -16   25.31    0.99
   0   0  16   26.18    1.11
   0   0  16   27.69    1.11
   0   0  16   25.47    0.84
  -1   0 -16   15.45    0.84
  -1   0 -16   16.01    0.87
  -1   0 -16   16.67    0.74
  -1   0 -16   15.71    0.84
   1   0  16   15.46    0.78
   1   0  16   15.74    0.79
  -2   0 -16    0.01    0.14
  -2   0 -16    0.03    0.15
  -2   0 -16    0.07    0.15
  -2   0 -16    0.22    0.16
   2   0  16   -0.05    0.13
   2   0  16    0.19    0.15
  -3   0 -16    4.30    0.51
  -3   0 -16    3.36    0.45
  -3   0 -16    3.99    0.41
  -3   0 -16    3.77    0.46
   3   0  16    3.98    0.42
   3   0  16    3.18    0.32
   3   0  16    3.34    0.31
  -4   0 -16    5.03    0.55
  -4   0 -16    4.75    0.55
  -4   0 -16    4.61    0.44
   4   0  16    4.64    0.29
   4   0  16    3.87    0.28
   4   0  16    4.56    0.44
  -5   0 -16    1.20    0.24
  -5   0 -16    0.64    0.22
   5   0  16    0.34    0.18
   5  -1 -16    0.53    0.14
  -5   1  16    0.36    0.16
   4  -1 -16    9.84    0.51
   4  -1 -16   10.92    0.74
   4  -1 -16    9.96    0.78
  -4   1  16   10.93    0.56
  -4   1  16   10.52    0.76
   3  -1 -16    6.69    0.70
   3  -1 -16    7.17    0.44
   3  -1 -16    8.07    0.60
  -3   1  16    6.30    0.39
  -3   1  16    7.14    0.70
   2  -1 -16   59.34    2.07
   2  -1 -16   57.51    2.19
   2  -1 -16   57.34    1.83
  -2   1  16   58.87    2.10
  -2   1  16   58.76    1.73
  -2   1  16   59.83    2.38
   1  -1 -16   30.10    1.37
   1  -1 -16   32.19    1.33
   1  -1 -16   31.61    1.14
   1  -1 -16   30.82    1.31
  -1   1  16   32.27    1.24
  -1   1  16   31.86    1.32
  -1   1  16   30.80    0.98
   0  -1 -16   -0.10    0.13
   0  -1 -16    0.06    0.14
   0  -1 -16    0.01    0.13
   0  -1 -16    0.09    0.15
   0   1  16   -0.26    0.12
   0   1  16    0.02    0.06
   0   1  16    0.11    0.14
  -1  -1 -16    0.02    0.14
  -1  -1 -16   -0.09    0.15
  -1  -1 -16    0.03    0.14
  -1  -1 -16    0.03    0.13
   1   1  16    0.07    0.13
   1   1  16    0.01    0.11
  -2  -1 -16    5.69    0.46
  -2  -1 -16    5.12    0.41
  -2  -1 -16    6.73    0.52
  -2  -1 -16    5.52    0.58
   2   1  16    5.84    0.43
   2   1  16    5.60    0.35
   2   1  16    5.80    0.42
  -3  -1 -16    0.65    0.25
  -3  -1 -16    0.83    0.21
  -3  -1 -16    0.97    0.25
   3   1  16    0.74    0.20
   3   1  16    0.88    0.14
   3   1  16    0.96    0.16
  -4  -1 -16    4.20    0.52
  -4  -1 -16    4.20    0.42
  -4  -1 -16    3.54    0.44
   4   1  16    3.79    0.37
  -5  -1 -16    0.75    0.25
  -5  -1 -16    0.37    0.19
   5   1  16    0.56    0.16
  -6  -1 -16    2.32    0.41
   6   1  16    1.26    0.19
   6   1  16    1.55    0.20
   4  -2 -16    4.36    0.36
   4  -2 -16    5.93    0.64
   4  -2 -16    4.75    0.63
  -4   2  16    4.92    0.34
   3  -2 -16    0.38    0.21
   3  -2 -16   -0.09    0.18
   3  -2 -16    0.12    0.13
  -3   2  16    0.00    0.09
   2  -2 -16    1.55    0.27
   2  -2 -16    2.20    0.37
   2  -2 -16    1.21    0.31
  -2   2  16    1.72    0.36
  -2   2  16    1.52    0.18
   1  -2 -16    0.15    0.16
   1  -2 -16   -0.02    0.11
   1  -2 -16    0.24    0.18
  -1   2  16    0.16    0.18
  -1   2  16    0.11    0.07
  -1   2  16   -0.10    0.12
   0  -2 -16    1.29    0.24
   0  -2 -16    1.87    0.32
   0  -2 -16    1.15    0.31
   0  -2 -16    1.84    0.30
   0   2  16    1.01    0.23
   0   2  16    2.06    0.34
  -1  -2 -16   17.88    0.99
  -1  -2 -16   21.14    0.95
  -1  -2 -16   21.09    0.86
  -1  -2 -16   19.98    0.95
   1   2  16   18.92    0.90
   1   2  16   20.62    0.87
   1   2  16   21.00    0.77
  -2  -2 -16   67.23    2.39
  -2  -2 -16   68.96    2.27
  -2  -2 -16   68.19    2.23
  -2  -2 -16   67.28    2.08
   2   2  16   67.97    2.15
   2   2  16   67.43    2.10
   2   2  16   67.84    1.91
  -3  -2 -16   23.01    0.92
  -3  -2 -16   22.84    1.00
  -3  -2 -16   23.92    1.15
   3   2  16   22.01    0.89
   3   2  16   23.44    0.89
  -4  -2 -16    0.04    0.13
  -4  -2 -16    0.18    0.18
   4   2  16    0.04    0.10
   4   2  16    0.17    0.12
  -5  -2 -16   -0.25    0.14
  -5  -2 -16   -0.21    0.13
   5   2  16   -0.07    0.09
   5   2  16   -0.03    0.09
  -6  -2 -16    3.45    0.51
   3  -3 -16   17.15    0.94
   3  -3 -16   14.68    0.97
   3  -3 -16   15.66    0.75
  -3   3  16   15.25    0.56
   2  -3 -16    3.15    0.43
   2  -3 -16    3.42    0.38
   2  -3 -16    3.04    0.48
   2  -3 -16    3.11    0.44
   1  -3 -16   14.82    0.73
   1  -3 -16   16.83    0.88
   1  -3 -16   15.19    0.92
  -1   3  16   15.25    0.78
   0  -3 -16    9.14    0.69
   0  -3 -16    9.09    0.54
   0  -3 -16    9.52    0.63
   0   3  16   10.39    0.58
   0   3  16    9.81    0.48
  -1  -3 -16    4.09    0.52
  -1  -3 -16    5.09    0.39
  -1  -3 -16    6.06    0.48
  -1  -3 -16    5.25    0.43
   1   3  16    5.49    0.30
   1   3  16    4.42    0.37
  -2  -3 -16   12.71    0.67
  -2  -3 -16   14.22    0.66
  -2  -3 -16   11.34    0.76
   2   3  16   13.59    0.62
   2   3  16   12.03    0.60
  -3  -3 -16   -0.08    0.13
   3   3  16   -0.01    0.10
   3   3  16    0.17    0.12
  -4  -3 -16    5.00    0.58
   4   3  16    4.86    0.28
   4   3  16    4.36    0.26
  -5  -3 -16   12.13    0.81
  -6  -3 -16   18.15    1.04
   2  -4 -16    8.39    0.70
   2  -4 -16    8.53    0.65
   2  -4 -16    8.39    0.65
  -2   4  16    9.73    0.62
   1  -4 -16    0.15    0.18
   1  -4 -16    0.13    0.20
   1  -4 -16    0.49    0.21
  -1   4  16    0.15    0.15
   0  -4 -16    2.80    0.45
   0   4  16    2.29    0.23
   0   4  16    2.55    0.32
  -1  -4 -16    9.62    0.69
   1   4  16    9.66    0.53
  -2  -4 -16    7.61    0.62
   2   4  16    7.71    0.42
   2   4  16    7.71    0.43
  -3  -4 -16   20.97    1.09
   3   4  16   21.08    0.71
   3   4  16   20.12    0.70
  -4  -4 -16   20.40    1.09
  -5  -4 -16    3.62    0.52
  -6  -4 -16    5.31    0.64
  -7  -4 -16   -0.01    0.17
   1  -5 -16    5.10    0.63
   1  -5 -16    5.82    0.65
  -1   5  16    5.36    0.43
  -1   5  16    5.77    0.34
   0  -5 -16    6.77    0.69
   0  -5 -16    6.31    0.69
   0   5  16    6.00    0.43
  -1  -5 -16   20.53    1.12
   1   5  16   21.74    0.85
   1   5  16   22.49    0.85
  -2  -5 -16    9.21    0.70
   2   5  16    8.97    0.43
   2   5  16   10.27    0.45
  -3  -5 -16    0.24    0.19
  -4  -5 -16    1.09    0.22
  -4  -5 -16    1.02    0.30
  -5  -5 -16    1.69    0.36
  -5  -5 -16    1.31    0.26
  -6  -5 -16    0.23    0.21
   0  -6 -16    0.18    0.18
   0  -6 -16   -0.03    0.17
   0   6  16    0.05    0.13
  -1  -6 -16    0.04    0.20
  -1  -6 -16    0.02    0.18
   1   6  16    0.05    0.11
   1   6  16    0.07    0.11
  -2  -6 -16    2.99    0.47
  -3  -6 -16    0.01    0.17
  -4  -6 -16   13.54    0.88
  -4  -6 -16   14.10    0.73
  -5  -6 -16   26.44    1.07
  -5  -6 -16   21.78    1.21
  -6  -6 -16    3.45    0.54
  -6  -6 -16    3.96    0.45
  -2  -7 -16   21.02    1.23
  -2  -7 -16   18.91    1.07
  -3  -7 -16    4.51    0.63
  -3  -7 -16    4.16    0.54
  -4  -7 -16    4.22    0.55
  -5  -7 -16   10.35    0.63
  -5  -7 -16    9.36    0.73
   3   4 -17    1.17    0.29
   3   4 -17    1.31    0.35
  -3  -4  17    1.38    0.26
  -3  -4  17    1.74    0.37
   2   4 -17    3.65    0.52
  -2  -4  17    3.70    0.39
  -2  -4  17    3.90    0.53
   1   4 -17   14.14    0.91
  -1  -4  17   14.89    0.87
  -1  -4  17   14.33    0.70
   0   4 -17    0.19    0.25
   0   4 -17    0.97    0.18
   0  -4  17    0.83    0.27
   0  -4  17    0.97    0.21
   4   3 -17    0.33    0.17
   4   3 -17    0.34    0.24
   4   3 -17    0.57    0.25
  -4  -3  17    0.56    0.19
  -4  -3  17    0.54    0.25
   3   3 -17    2.29    0.41
   3   3 -17    1.96    0.31
   3   3 -17    2.65    0.44
   3   3 -17    1.97    0.38
  -3  -3  17    2.52    0.32
  -3  -3  17    2.20    0.41
   2   3 -17    0.83    0.28
   2   3 -17    1.00    0.25
   2   3 -17    1.38    0.17
   2   3 -17    0.58    0.24
   2   3 -17    0.71    0.27
  -2  -3  17    1.01    0.28
  -2  -3  17    1.08    0.21
   1   3 -17   38.42    1.63
   1   3 -17   37.63    1.55
   1   3 -17   39.43    1.60
   1   3 -17   39.44    1.24
  -1  -3  17   37.31    1.31
  -1  -3  17   36.55    1.53
   0   3 -17   15.30    0.86
   0   3 -17   17.32    0.97
   0   3 -17   15.90    0.69
   0   3 -17   15.30    0.92
   0  -3  17   15.67    0.69
   0  -3  17   15.57    0.87
  -1   3 -17    0.21    0.20
  -1   3 -17    0.20    0.25
  -1   3 -17   -0.06    0.12
   1  -3  17   -0.04    0.14
  -2   3 -17    0.69    0.33
  -2   3 -17    1.05    0.23
  -2   3 -17    1.06    0.36
   4   2 -17    0.04    0.21
   4   2 -17    0.13    0.19
   4   2 -17    0.18    0.17
  -4  -2  17    0.14    0.16
  -4  -2  17    0.24    0.15
   3   2 -17    0.14    0.19
   3   2 -17    0.15    0.22
   3   2 -17    0.29    0.21
   3   2 -17    0.06    0.09
   3   2 -17    0.19    0.16
  -3  -2  17   -0.05    0.16
  -3  -2  17    0.28    0.17
   2   2 -17    0.42    0.21
   2   2 -17    0.44    0.14
   2   2 -17    0.56    0.22
   2   2 -17    0.31    0.19
  -2  -2  17    0.33    0.15
  -2  -2  17    0.13    0.18
   1   2 -17    0.69    0.18
   1   2 -17    0.15    0.19
   1   2 -17    0.31    0.20
   1   2 -17    0.14    0.16
  -1  -2  17    0.23    0.19
  -1  -2  17    0.14    0.13
   0   2 -17    0.22    0.19
   0   2 -17    0.09    0.13
   0   2 -17   -0.06    0.16
   0   2 -17    0.22    0.18
   0  -2  17    0.11    0.11
   0  -2  17    0.23    0.21
  -1   2 -17   -0.08    0.13
  -1   2 -17    0.33    0.20
  -1   2 -17    0.35    0.18
  -1   2 -17    0.39    0.21
   1  -2  17    0.31    0.18
   1  -2  17    0.55    0.13
  -2   2 -17    1.55    0.28
  -2   2 -17    1.70    0.35
  -2   2 -17    1.45    0.34
  -2   2 -17    2.19    0.35
  -3   2 -17   18.61    0.85
  -3   2 -17   13.40    0.85
  -3   2 -17   17.42    1.02
  -3   2 -17   18.78    1.05
   3  -2  17   19.40    0.83
   4   1 -17    0.31    0.20
   4   1 -17    0.06    0.21
   4   1 -17    0.02    0.15
  -4  -1  17    0.00    0.15
  -4  -1  17    0.12    0.14
   3   1 -17    3.90    0.53
   3   1 -17    3.33    0.46
   3   1 -17    4.07    0.29
   3   1 -17    4.07    0.53
  -3  -1  17    3.63    0.51
  -3  -1  17    4.32    0.34
   2   1 -17   15.97    0.68
   2   1 -17   16.16    0.89
   2   1 -17   15.73    0.93
   2   1 -17   15.75    0.91
  -2  -1  17   15.92    0.90
  -2  -1  17   15.07    0.68
   1   1 -17    2.99    0.43
   1   1 -17    3.02    0.32
   1   1 -17    2.82    0.43
   1   1 -17    2.60    0.41
  -1  -1  17    3.11    0.30
  -1  -1  17    3.06    0.43
   0   1 -17    1.01    0.27
   0   1 -17    1.50    0.31
   0   1 -17    1.21    0.28
   0   1 -17    0.79    0.21
   0  -1  17    0.90    0.25
   0  -1  17    1.22    0.18
  -1   1 -17    4.52    0.53
  -1   1 -17    6.15    0.61
  -1   1 -17    4.89    0.39
  -1   1 -17    5.15    0.56
   1  -1  17    5.25    0.52
  -2   1 -17    0.61    0.24
  -2   1 -17    0.39    0.21
  -2   1 -17    0.82    0.21
  -2   1 -17    0.93    0.26
  -3   1 -17    0.41    0.20
  -3   1 -17   -0.09    0.15
  -3   1 -17    0.10    0.16
  -3   1 -17    0.00    0.17
   3  -1  17    0.21    0.15
   3  -1  17    0.03    0.15
  -4   1 -17    0.09    0.16
  -4   1 -17    0.32    0.20
  -4   1 -17    0.11    0.22
   4  -1  17   -0.04    0.13
   4  -1  17    0.29    0.18
   4   0 -17   17.71    0.68
   4   0 -17   17.03    1.05
   4   0 -17   15.99    0.95
  -4   0  17   17.39    0.77
  -4   0  17   17.74    1.01
   3   0 -17    4.04    0.50
   3   0 -17    4.15    0.57
   3   0 -17    4.05    0.32
  -3   0  17    3.78    0.31
  -3   0  17    4.54    0.56
   2   0 -17    7.43    0.60
   2   0 -17    7.11    0.62
   2   0 -17    8.45    0.62
   2   0 -17    7.36    0.45
  -2   0  17    7.79    0.61
  -2   0  17    7.20    0.42
   1   0 -17    1.02    0.27
   1   0 -17    1.11    0.23
   1   0 -17    1.21    0.31
   1   0 -17    1.05    0.27
  -1   0  17    1.00    0.17
  -1   0  17    0.89    0.26
   0   0 -17    1.21    0.29
   0   0 -17    1.09    0.29
   0   0 -17    1.20    0.24
   0   0 -17    1.71    0.33
   0   0  17    1.52    0.30
   0   0  17    1.28    0.16
  -1   0 -17    4.16    0.49
  -1   0 -17    4.12    0.51
  -1   0 -17    4.10    0.41
  -1   0 -17    3.86    0.47
   1   0  17    3.93    0.45
   1   0  17    3.50    0.42
  -2   0 -17    9.83    0.58
  -2   0 -17   10.10    0.70
  -2   0 -17   11.29    0.73
  -2   0 -17   11.03    0.69
   2   0  17   11.16    0.64
   2   0  17    9.74    0.59
  -3   0 -17    0.50    0.19
  -3   0 -17    0.77    0.24
  -3   0 -17    0.54    0.22
  -3   0 -17    0.33    0.20
   3   0  17    0.62    0.20
   3   0  17    0.35    0.14
   3   0  17    0.55    0.15
  -4   0 -17    7.66    0.61
  -4   0 -17    7.33    0.59
  -4   0 -17    7.38    0.51
   4   0  17    7.10    0.36
   4   0  17    7.74    0.37
   4   0  17    6.83    0.49
  -5   0 -17    4.63    0.58
  -5   0 -17    5.36    0.63
  -5   0 -17    5.06    0.50
   5   0  17    5.07    0.41
   4  -1 -17    4.95    0.35
   4  -1 -17    4.39    0.60
  -4   1  17    4.46    0.35
  -4   1  17    4.34    0.57
   3  -1 -17    8.17    0.64
   3  -1 -17    8.17    0.69
   3  -1 -17    9.29    0.52
  -3   1  17    8.43    0.67
  -3   1  17    9.42    0.48
   2  -1 -17    0.24    0.16
   2  -1 -17    0.77    0.25
   2  -1 -17    0.18    0.18
  -2   1  17    0.51    0.24
  -2   1  17    0.30    0.12
   1  -1 -17    7.45    0.57
   1  -1 -17    7.41    0.58
   1  -1 -17    6.17    0.44
   1  -1 -17    6.66    0.69
  -1   1  17    7.26    0.34
  -1   1  17    6.69    0.56
   0  -1 -17   10.22    0.58
   0  -1 -17   11.52    0.71
   0  -1 -17   11.69    0.71
   0  -1 -17   10.65    0.74
   0   1  17   11.80    0.71
   0   1  17   11.63    0.67
  -1  -1 -17    0.90    0.26
  -1  -1 -17    1.30    0.29
  -1  -1 -17    1.50    0.33
  -1  -1 -17    1.41    0.26
   1   1  17    1.34    0.27
   1   1  17    1.89    0.31
  -2  -1 -17   26.16    1.04
  -2  -1 -17   28.30    1.22
  -2  -1 -17   27.93    1.19
  -2  -1 -17   24.79    1.22
   2   1  17   26.70    0.94
   2   1  17   26.04    1.08
   2   1  17   26.28    1.08
  -3  -1 -17    3.39    0.48
  -3  -1 -17    3.99    0.42
  -3  -1 -17    3.53    0.43
   3   1  17    3.74    0.25
   3   1  17    3.62    0.39
   3   1  17    3.45    0.25
  -4  -1 -17   -0.04    0.15
  -4  -1 -17    0.00    0.16
  -4  -1 -17    0.18    0.18
   4   1  17    0.14    0.15
  -5  -1 -17    0.16    0.15
  -5  -1 -17   -0.07    0.15
  -5  -1 -17    0.39    0.22
   5   1  17    0.11    0.12
   3  -2 -17    6.19    0.71
   3  -2 -17    5.60    0.42
   3  -2 -17    6.25    0.65
  -3   2  17    6.27    0.35
   2  -2 -17    3.10    0.44
   2  -2 -17    2.94    0.47
   2  -2 -17    3.58    0.38
  -2   2  17    3.64    0.50
  -2   2  17    3.17    0.22
   1  -2 -17    2.94    0.42
   1  -2 -17    2.77    0.45
   1  -2 -17    2.80    0.35
  -1   2  17    2.81    0.38
  -1   2  17    3.18    0.45
   0  -2 -17    6.01    0.49
   0  -2 -17    5.14    0.59
   0  -2 -17    6.12    0.52
   0  -2 -17    5.77    0.43
   0   2  17    5.73    0.46
   0   2  17    5.87    0.50
  -1  -2 -17    2.56    0.41
  -1  -2 -17    3.41    0.43
  -1  -2 -17    2.96    0.38
  -1  -2 -17    2.86    0.34
   1   2  17    2.87    0.38
   1   2  17    2.80    0.28
   1   2  17    2.88    0.36
  -2  -2 -17    0.34    0.17
  -2  -2 -17    0.76    0.25
  -2  -2 -17    0.33    0.16
   2   2  17    0.51    0.18
   2   2  17    0.34    0.20
   2   2  17    0.37    0.11
  -3  -2 -17    0.44    0.22
  -3  -2 -17    0.38    0.18
  -3  -2 -17    0.51    0.19
   3   2  17    0.26    0.16
  -4  -2 -17    0.07    0.15
  -4  -2 -17    0.11    0.17
  -4  -2 -17    0.25    0.17
   4   2  17    0.16    0.12
   4   2  17    0.21    0.13
  -5  -2 -17   10.33    0.76
   5   2  17   10.26    0.47
   5   2  17   11.23    0.47
  -6  -2 -17    6.73    0.74
   3  -3 -17    0.15    0.16
   3  -3 -17    0.59    0.26
   3  -3 -17    0.14    0.25
   2  -3 -17   10.32    0.69
   2  -3 -17    8.40    0.72
   2  -3 -17    9.08    0.56
   2  -3 -17    6.97    0.59
   1  -3 -17    0.12    0.15
   1  -3 -17   -0.03    0.15
   1  -3 -17   -0.12    0.15
  -1   3  17    0.06    0.14
   0  -3 -17    0.16    0.16
   0  -3 -17   -0.09    0.14
   0  -3 -17    0.09    0.17
   0   3  17    0.10    0.14
   0   3  17    0.02    0.11
  -1  -3 -17    5.21    0.60
  -1  -3 -17    5.59    0.43
   1   3  17    4.95    0.30
   1   3  17    5.53    0.41
  -2  -3 -17    0.08    0.13
  -2  -3 -17    0.31    0.20
   2   3  17    0.04    0.13
  -3  -3 -17    5.89    0.63
   3   3  17    6.06    0.38
   3   3  17    6.29    0.38
  -4  -3 -17    2.46    0.42
   4   3  17    2.47    0.21
   4   3  17    2.12    0.21
  -5  -3 -17   11.61    0.82
  -6  -3 -17    6.23    0.70
   2  -4 -17    4.98    0.58
   2  -4 -17    3.84    0.43
   2  -4 -17    3.78    0.55
   1  -4 -17    1.48    0.35
   1  -4 -17    1.46    0.35
   1  -4 -17    1.18    0.25
  -1   4  17    1.46    0.28
   0  -4 -17    0.41    0.22
   0   4  17    0.03    0.14
   0   4  17    0.10    0.10
  -1  -4 -17    6.44    0.68
   1   4  17    6.67    0.44
  -2  -4 -17    3.67    0.51
   2   4  17    4.22    0.32
   2   4  17    4.55    0.32
  -3  -4 -17    0.16    0.16
   3   4  17    0.01    0.08
   3   4  17    0.03    0.09
  -4  -4 -17    2.28    0.42
  -5  -4 -17    0.58    0.27
  -6  -4 -17    0.45    0.22
   1  -5 -17    8.51    0.71
   1  -5 -17    8.98    0.74
  -1   5  17    8.97    0.43
  -1   5  17    9.29    0.59
   0  -5 -17    5.29    0.63
   0  -5 -17    3.50    0.53
   0   5  17    4.75    0.39
  -1  -5 -17    1.10    0.32
   1   5  17    1.22    0.22
  -2  -5 -17    1.15    0.31
   2   5  17    1.73    0.20
   2   5  17    1.39    0.19
  -3  -5 -17    0.08    0.18
  -4  -5 -17    0.73    0.29
  -5  -5 -17    1.36    0.36
  -6  -5 -17   -0.03    0.18
  -1  -6 -17    0.86    0.32
  -1  -6 -17    1.97    0.40
   1   6  17    1.54    0.21
   1   6  17    1.59    0.21
  -2  -6 -17   15.86    0.97
  -3  -6 -17    6.74    0.72
  -4  -6 -17    1.40    0.36
  -5  -6 -17    1.27    0.36
   3   3 -18    0.09    0.28
   3   3 -18    0.19    0.21
   3   3 -18    0.39    0.18
  -3  -3  18    0.33    0.24
  -3  -3  18    0.38    0.17
   2   3 -18    3.42    0.53
   2   3 -18    3.83    0.25
   2   3 -18    3.54    0.49
  -2  -3  18    3.97    0.39
  -2  -3  18    3.22    0.49
   1   3 -18    5.47    0.35
   1   3 -18    5.32    0.64
   1   3 -18    5.76    0.61
  -1  -3  18    5.19    0.38
  -1  -3  18    5.83    0.62
   0   3 -18    0.26    0.26
   0   3 -18    0.30    0.15
   0  -3  18    0.07    0.20
   0  -3  18    0.13    0.13
   3   2 -18    3.19    0.22
   3   2 -18    2.84    0.48
   3   2 -18    2.28    0.44
  -3  -2  18    2.85    0.33
  -3  -2  18    2.85    0.45
   2   2 -18    5.96    0.64
   2   2 -18    6.68    0.69
   2   2 -18    5.66    0.63
   2   2 -18    6.35    0.38
  -2  -2  18    6.31    0.64
  -2  -2  18    6.61    0.43
   1   2 -18    6.49    0.66
   1   2 -18    6.55    0.67
   1   2 -18    6.30    0.41
   1   2 -18    6.35    0.66
  -1  -2  18    6.28    0.64
  -1  -2  18    6.52    0.41
   0   2 -18    2.96    0.45
   0   2 -18    3.75    0.51
   0   2 -18    2.39    0.41
   0   2 -18    2.88    0.34
   0  -2  18    3.12    0.30
   0  -2  18    3.12    0.44
  -1   2 -18    0.38    0.17
  -1   2 -18    0.52    0.26
  -1   2 -18    0.65    0.24
  -1   2 -18    0.15    0.20
   1  -2  18    0.54    0.24
  -2   2 -18   -0.22    0.24
  -2   2 -18    0.36    0.17
  -2   2 -18    0.26    0.17
  -2   2 -18   -0.11    0.23
   4   1 -18    4.75    0.63
  -4  -1  18    4.49    0.37
  -4  -1  18    4.38    0.56
   3   1 -18    0.01    0.19
   3   1 -18    0.03    0.11
   3   1 -18    0.26    0.24
  -3  -1  18    0.06    0.14
  -3  -1  18    0.11    0.16
   2   1 -18    3.37    0.48
   2   1 -18    2.78    0.44
   2   1 -18    3.17    0.32
   2   1 -18    4.20    0.56
  -2  -1  18    3.12    0.32
  -2  -1  18    3.56    0.49
   1   1 -18    0.16    0.17
   1   1 -18   -0.04    0.17
   1   1 -18   -0.02    0.12
   1   1 -18   -0.10    0.15
  -1  -1  18    0.02    0.10
  -1  -1  18   -0.17    0.16
   0   1 -18    0.68    0.22
   0   1 -18    0.93    0.27
   0   1 -18    0.90    0.21
   0   1 -18    0.76    0.24
   0  -1  18    0.44    0.13
   0  -1  18    0.55    0.23
  -1   1 -18    0.78    0.27
  -1   1 -18    0.71    0.24
  -1   1 -18    0.43    0.22
  -1   1 -18    0.53    0.20
   1  -1  18    0.37    0.19
  -2   1 -18    0.24    0.20
  -2   1 -18    0.09    0.17
  -2   1 -18   -0.01    0.14
  -2   1 -18    0.14    0.18
  -3   1 -18    7.62    0.62
  -3   1 -18    6.97    0.52
  -3   1 -18    7.54    0.74
   3  -1  18    6.82    0.54
   3  -1  18    7.97    0.48
   3   0 -18    0.26    0.25
   3   0 -18    0.01    0.13
   3   0 -18   -0.07    0.16
  -3   0  18    0.67    0.17
  -3   0  18    0.23    0.19
   2   0 -18    3.03    0.45
   2   0 -18    3.20    0.50
   2   0 -18    2.26    0.40
   2   0 -18    2.93    0.34
  -2   0  18    3.50    0.47
  -2   0  18    2.96    0.29
   1   0 -18   10.75    0.59
   1   0 -18   10.40    0.72
   1   0 -18   11.27    0.77
   1   0 -18   11.93    0.75
  -1   0  18   11.07    0.48
  -1   0  18    9.97    0.69
   0   0 -18    1.30    0.25
   0   0 -18    1.21    0.30
   0   0 -18    1.31    0.31
   0   0 -18    1.64    0.34
   0   0  18    1.42    0.30
   0   0  18    1.18    0.14
  -1   0 -18    1.18    0.31
  -1   0 -18    1.14    0.28
  -1   0 -18    1.63    0.27
  -1   0 -18    1.59    0.31
   1   0  18    0.81    0.23
   1   0  18    1.36    0.30
  -2   0 -18    0.08    0.14
  -2   0 -18    0.05    0.16
  -2   0 -18   -0.05    0.17
  -2   0 -18    0.25    0.19
   2   0  18   -0.15    0.13
  -3   0 -18    0.30    0.18
  -3   0 -18    0.71    0.26
  -3   0 -18    0.54    0.21
   3   0  18    0.39    0.17
   3   0  18    0.20    0.14
  -4   0 -18    0.34    0.22
  -4   0 -18    0.22    0.21
  -4   0 -18    0.20    0.18
   4   0  18    0.53    0.19
   4   0  18    0.10    0.09
   4   0  18    0.16    0.10
   3  -1 -18    0.07    0.24
   3  -1 -18    0.28    0.19
   3  -1 -18    0.59    0.19
  -3   1  18    0.21    0.19
  -3   1  18    0.15    0.11
   2  -1 -18    5.98    0.64
   2  -1 -18    5.99    0.68
   2  -1 -18    6.44    0.44
  -2   1  18    5.95    0.34
  -2   1  18    6.51    0.67
   1  -1 -18   13.93    0.84
   1  -1 -18   15.94    0.94
   1  -1 -18   14.05    0.84
   1  -1 -18   13.24    0.69
  -1   1  18   14.29    0.51
  -1   1  18   15.23    0.87
   0  -1 -18    8.80    0.70
   0  -1 -18    9.59    0.57
   0  -1 -18    9.34    0.66
   0  -1 -18   10.08    0.69
   0   1  18    9.93    0.67
   0   1  18    9.71    0.62
  -1  -1 -18    2.24    0.38
  -1  -1 -18    1.98    0.35
  -1  -1 -18    1.55    0.28
  -1  -1 -18    1.67    0.36
   1   1  18    1.96    0.32
   1   1  18    2.08    0.34
  -2  -1 -18   11.06    0.77
  -2  -1 -18   10.83    0.62
  -2  -1 -18   11.84    0.72
   2   1  18   11.53    0.53
   2   1  18   10.35    0.63
  -3  -1 -18    5.86    0.47
  -3  -1 -18    6.30    0.67
  -3  -1 -18    6.17    0.51
   3   1  18    5.15    0.30
   3   1  18    5.29    0.30
   3   1  18    5.37    0.43
  -4  -1 -18   -0.04    0.14
  -4  -1 -18    0.27    0.19
  -4  -1 -18    0.00    0.17
   4   1  18    0.06    0.15
   3  -2 -18    0.09    0.20
   3  -2 -18   -0.15    0.13
  -3   2  18    0.02    0.10
   2  -2 -18    6.23    0.71
   2  -2 -18    7.41    0.62
   2  -2 -18    6.56    0.47
  -2   2  18    6.79    0.70
   1  -2 -18    1.37    0.35
   1  -2 -18    2.11    0.31
   1  -2 -18    2.13    0.36
  -1   2  18    0.75    0.27
   0  -2 -18    0.51    0.21
   0  -2 -18    0.18    0.16
   0  -2 -18    0.45    0.20
   0  -2 -18    0.66    0.22
   0   2  18    0.32    0.21
   0   2  18    0.28    0.17
  -1  -2 -18    1.48    0.29
  -1  -2 -18    2.38    0.33
  -1  -2 -18    1.42    0.31
  -1  -2 -18    2.17    0.40
   1   2  18    1.64    0.30
   1   2  18    1.96    0.24
   1   2  18    1.64    0.32
  -2  -2 -18   12.38    0.65
  -2  -2 -18   11.68    0.80
  -2  -2 -18   12.10    0.71
   2   2  18   11.56    0.63
   2   2  18   11.16    0.66
   2   2  18   10.83    0.46
  -3  -2 -18   17.61    0.89
  -3  -2 -18   17.40    1.01
  -3  -2 -18   19.11    0.84
   3   2  18   15.90    0.76
  -4  -2 -18    4.77    0.45
  -4  -2 -18    3.03    0.48
   4   2  18    3.18    0.32
  -5  -2 -18    1.46    0.35
   5   2  18    1.04    0.17
   5   2  18    0.70    0.15
   2  -3 -18   17.05    1.07
   2  -3 -18   20.15    1.07
   2  -3 -18   15.95    0.81
   1  -3 -18    2.92    0.50
   1  -3 -18    2.79    0.36
   1  -3 -18    2.40    0.39
  -1   3  18    2.72    0.38
   0  -3 -18    0.10    0.15
   0  -3 -18    0.13    0.21
   0   3  18    0.06    0.14
  -1  -3 -18    2.38    0.43
  -1  -3 -18    1.83    0.30
   1   3  18    1.80    0.29
   1   3  18    1.65    0.18
  -2  -3 -18    1.20    0.26
  -2  -3 -18    1.32    0.32
   2   3  18    0.71    0.19
  -3  -3 -18    0.03    0.16
   3   3  18    0.19    0.13
   3   3  18    0.10    0.12
  -4  -3 -18   -0.06    0.15
   4   3  18    0.10    0.10
   4   3  18    0.04    0.10
  -5  -3 -18    0.44    0.24
   1  -4 -18   -0.06    0.18
   1  -4 -18   -0.17    0.17
   1  -4 -18    0.07    0.20
  -1   4  18   -0.06    0.14
   0  -4 -18    0.12    0.23
   0  -4 -18    0.29    0.17
   0   4  18   -0.08    0.09
   0   4  18    0.02    0.15
  -1  -4 -18   16.23    0.78
  -1  -4 -18   13.36    0.92
   1   4  18   14.54    0.70
  -2  -4 -18    8.05    0.68
  -2  -4 -18   10.53    0.59
   2   4  18    8.30    0.48
   2   4  18   10.38    0.51
  -3  -4 -18    0.95    0.32
   3   4  18    1.12    0.17
   3   4  18    1.05    0.16
  -4  -4 -18    3.45    0.51
  -5  -4 -18    0.28    0.21
  -1  -5 -18    4.14    0.58
   1   5  18    4.19    0.34
  -2  -5 -18   19.18    1.11
   2   5  18   19.28    0.71
  -3  -5 -18    4.01    0.57
  -4  -5 -18    0.40    0.23
   2   2 -19    0.72    0.29
   2   2 -19    0.72    0.16
   2   2 -19    0.82    0.33
  -2  -2  19    0.74    0.19
  -2  -2  19    0.54    0.25
   1   2 -19    3.77    0.36
   1   2 -19    2.54    0.47
   1   2 -19    4.52    0.57
  -1  -2  19    3.00    0.45
  -1  -2  19    3.79    0.31
   0   2 -19    0.17    0.27
   0   2 -19    0.93    0.28
   0   2 -19    1.13    0.23
   0  -2  19    0.70    0.26
   0  -2  19    0.95    0.17
   2   1 -19    5.45    0.38
   2   1 -19    4.84    0.62
   2   1 -19    4.64    0.61
  -2  -1  19    6.63    0.67
  -2  -1  19    6.04    0.39
   1   1 -19   20.07    0.83
   1   1 -19   17.84    1.04
   1   1 -19   18.76    1.07
   1   1 -19   18.87    1.06
  -1  -1  19   19.15    1.02
  -1  -1  19   19.46    0.74
   0   1 -19    4.19    0.57
   0   1 -19    4.84    0.39
   0   1 -19    4.83    0.59
   0   1 -19    4.83    0.58
   0  -1  19    4.25    0.52
   0  -1  19    4.86    0.29
  -1   1 -19    7.68    0.52
  -1   1 -19    9.17    0.70
  -1   1 -19    8.86    0.70
  -1   1 -19    8.32    0.68
   1  -1  19    9.66    0.64
  -2   1 -19    7.64    0.78
  -2   1 -19    7.93    0.53
  -2   1 -19    8.62    0.67
  -2   1 -19    8.38    0.69
   2   0 -19    0.02    0.14
   2   0 -19    0.19    0.25
   2   0 -19   -0.24    0.19
   2   0 -19    0.09    0.17
  -2   0  19    0.00    0.17
  -2   0  19    0.07    0.10
   1   0 -19    4.19    0.42
   1   0 -19    3.98    0.55
   1   0 -19    4.37    0.54
   1   0 -19    5.03    0.58
  -1   0  19    4.50    0.54
  -1   0  19    4.51    0.28
   0   0 -19    2.29    0.39
   0   0 -19    2.48    0.34
   0   0 -19    2.13    0.42
   0   0 -19    2.02    0.37
   0   0  19    2.38    0.38
  -1   0 -19    0.45    0.21
  -1   0 -19    0.18    0.17
  -1   0 -19    0.25    0.21
  -1   0 -19    0.26    0.21
   1   0  19    0.08    0.18
  -2   0 -19    4.82    0.47
  -2   0 -19    4.95    0.59
  -2   0 -19    4.45    0.53
  -2   0 -19    4.62    0.57
   2   0  19    3.98    0.46
  -3   0 -19   13.18    0.86
  -3   0 -19   13.55    0.73
  -3   0 -19   12.30    0.82
   3   0  19   13.02    0.58
   3   0  19   12.87    0.73
   2  -1 -19    0.32    0.21
   2  -1 -19   -0.02    0.23
   2  -1 -19    0.33    0.17
  -2   1  19    0.35    0.23
  -2   1  19    0.48    0.12
   1  -1 -19    0.68    0.26
   1  -1 -19    0.33    0.23
   1  -1 -19    0.55    0.24
   1  -1 -19    0.54    0.20
  -1   1  19    0.34    0.23
   0  -1 -19    8.64    0.66
   0  -1 -19    8.53    0.64
   0  -1 -19    8.49    0.54
   0  -1 -19    9.17    0.72
   0   1  19    8.78    0.65
  -1  -1 -19    0.86    0.26
  -1  -1 -19    0.88    0.24
  -1  -1 -19    1.17    0.29
  -1  -1 -19    0.49    0.24
   1   1  19    0.48    0.23
   1   1  19    0.93    0.24
  -2  -1 -19    6.86    0.51
  -2  -1 -19    6.80    0.56
  -2  -1 -19    6.90    0.71
   2   1  19    7.20    0.51
   2   1  19    6.33    0.38
  -3  -1 -19   28.53    1.16
  -3  -1 -19   29.56    1.29
  -3  -1 -19   28.05    1.36
   3   1  19   27.44    0.87
   3   1  19   26.75    1.12
   3   1  19   27.47    0.87
   1  -2 -19    1.61    0.29
   1  -2 -19    2.83    0.45
   1  -2 -19    2.64    0.47
  -1   2  19    2.33    0.42
   0  -2 -19    3.23    0.46
   0  -2 -19    3.98    0.48
   0  -2 -19    4.43    0.45
   0  -2 -19    4.35    0.57
   0   2  19    3.71    0.49
   0   2  19    4.73    0.49
  -1  -2 -19    1.60    0.31
  -1  -2 -19    1.80    0.30
  -1  -2 -19    1.95    0.40
   1   2  19    2.03    0.31
   1   2  19    1.60    0.22
   1   2  19    1.34    0.29
  -2  -2 -19    2.77    0.45
  -2  -2 -19    2.13    0.33
   2   2  19    2.21    0.31
   2   2  19    1.78    0.18
  -3  -2 -19    2.99    0.37
  -3  -2 -19    2.88    0.47
   3   2  19    2.65    0.33
  -4  -2 -19    0.47    0.20
  -4  -2 -19    0.81    0.30
   4   2  19    0.40    0.16
   1  -3 -19    0.06    0.25
   1  -3 -19    0.24    0.20
   1  -3 -19    0.33    0.19
  -1   3  19    0.00    0.16
   0  -3 -19    0.36    0.22
   0  -3 -19    0.37    0.19
   0   3  19    0.06    0.15
  -1  -3 -19    5.47    0.46
  -1  -3 -19    6.35    0.69
   1   3  19    6.11    0.47
   1   3  19    5.97    0.31
  -2  -3 -19    2.58    0.35
  -2  -3 -19    2.70    0.46
   2   3  19    2.16    0.30
  -3  -3 -19   -0.08    0.14
  -3  -3 -19    0.03    0.16
   3   3  19   -0.04    0.11
  -4  -3 -19    5.85    0.68
   4   3  19    5.32    0.30
   4   3  19    4.92    0.30
  -1  -4 -19    3.93    0.43
  -1  -4 -19    3.14    0.50
   1   4  19    2.64    0.34
  -2  -4 -19    4.30    0.45
  -2  -4 -19    3.90    0.56
   2   4  19    3.65    0.35
  -3  -4 -19    0.52    0.26
   3   4  19    0.39    0.13
   3   4  19    0.46    0.13
   0   0 -20   20.77    0.91
   0   0 -20   20.10    1.11
   0   0 -20   20.02    1.14
   0   0  20   20.10    1.04
   0  -1 -20    4.18    0.59
   0  -1 -20    3.22    0.40
   0  -1 -20    3.77    0.55
   0  -1 -20    3.62    0.49
   0   1  20    3.89    0.50
  -1  -1 -20    4.57    0.61
  -1  -1 -20    5.58    0.52
  -1  -1 -20    5.24    0.59
   1   1  20    6.05    0.50
   1   1  20    4.66    0.51
  -1  -2 -20    7.44    0.53
  -1  -2 -20    7.80    0.80
   1   2  20    7.13    0.58
   1   2  20    7.90    0.56
  -2  -2 -20    2.15    0.33
  -2  -2 -20    2.00    0.42
   2   2  20    1.96    0.17
   2   2  20    2.42    0.33
   0   0   0    0.00    0.00
;
_shelx_hkl_checksum              30896
loop_
_space_group_symop_operation_xyz
'x, y, z'
'-x, -y, -z'
loop_
_atom_site_label
_atom_site_type_symbol
_atom_site_fract_x
_atom_site_fract_y
_atom_site_fract_z
_atom_site_U_iso_or_equiv
_atom_site_adp_type
_atom_site_occupancy
_atom_site_site_symmetry_order
_atom_site_calc_flag
_atom_site_refinement_flags_posn
_atom_site_refinement_flags_adp
MG2 Mg 0.97316(4) 1.04426(5) 0.24536(2) 0.01295(7) Uani 1 1 d . .
CL2 Cl 0.88981(3) 1.31149(3) 0.34863(2) 0.01683(5) Uani 1 1 d . .
CL3 Cl 1.23546(3) 1.08281(4) 0.14750(2) 0.01776(5) Uani 1 1 d . .
O1 O 0.76021(10) 0.95112(10) 0.33495(4) 0.01655(13) Uani 1 1 d . .
O2 O 1.16662(10) 0.79958(10) 0.34102(5) 0.01734(13) Uani 1 1 d . .
O3 O 0.72412(10) 1.23068(10) 0.15197(4) 0.01502(12) Uani 1 1 d . .
O4 O 0.97398(10) 0.83061(10) 0.15127(4) 0.01583(13) Uani 1 1 d . .
C1 C 0.54861(14) 1.09798(16) 0.35174(7) 0.02077(18) Uani 1 1 d . .
H1A H 0.475615 1.026873 0.386877 0.031 Uiso 1 1 calc R U
H1B H 0.482334 1.163019 0.290345 0.031 Uiso 1 1 calc R U
H1C H 0.543755 1.204093 0.389429 0.031 Uiso 1 1 calc R U
C2 C 0.85657(15) 0.84439(15) 0.42405(6) 0.01978(18) Uani 1 1 d . .
H2A H 0.780667 0.772671 0.457435 0.024 Uiso 1 1 calc R U
H2B H 0.855435 0.943862 0.466032 0.024 Uiso 1 1 calc R U
C3 C 1.07485(15) 0.69056(15) 0.40187(6) 0.01984(18) Uani 1 1 d . .
H3A H 1.152822 0.629369 0.461647 0.024 Uiso 1 1 calc R U
H3B H 1.076468 0.578034 0.368919 0.024 Uiso 1 1 calc R U
C4 C 1.38768(15) 0.68876(16) 0.33943(8) 0.0240(2) Uani 1 1 d . .
H4A H 1.438274 0.673438 0.403849 0.036 Uiso 1 1 calc R U
H4B H 1.443617 0.765213 0.295314 0.036 Uiso 1 1 calc R U
H4C H 1.432280 0.551891 0.318028 0.036 Uiso 1 1 calc R U
C5 C 0.68177(15) 1.43951(15) 0.12062(7) 0.01977(18) Uani 1 1 d . .
H5A H 0.780207 1.439463 0.069387 0.030 Uiso 1 1 calc R U
H5B H 0.695160 1.505332 0.174440 0.030 Uiso 1 1 calc R U
H5C H 0.541017 1.516292 0.096627 0.030 Uiso 1 1 calc R U
C6 C 0.70666(15) 1.12796(15) 0.07447(6) 0.01808(17) Uani 1 1 d . .
H6A H 0.795269 1.137524 0.019385 0.022 Uiso 1 1 calc R U
H6B H 0.562041 1.193423 0.053360 0.022 Uiso 1 1 calc R U
C7 C 0.77449(14) 0.90586(15) 0.11081(6) 0.01782(17) Uani 1 1 d . .
H7A H 0.675232 0.894595 0.160005 0.021 Uiso 1 1 calc R U
H7B H 0.783098 0.824821 0.057774 0.021 Uiso 1 1 calc R U
C8 C 1.08018(15) 0.60926(14) 0.16457(7) 0.01965(18) Uani 1 1 d . .
H8A H 1.001053 0.559257 0.209720 0.029 Uiso 1 1 calc R U
H8B H 1.217205 0.563893 0.190023 0.029 Uiso 1 1 calc R U
H8C H 1.094827 0.553387 0.103037 0.029 Uiso 1 1 calc R U
loop_
_atom_site_aniso_label
_atom_site_aniso_U_11
_atom_site_aniso_U_22
_atom_site_aniso_U_33
_atom_site_aniso_U_23
_atom_site_aniso_U_13
_atom_site_aniso_U_12
MG2 0.01327(13) 0.01364(15) 0.01229(13) -0.00076(10) -0.00101(10) -0.00648(11)
CL2 0.02087(10) 0.01623(10) 0.01446(9) -0.00282(7) -0.00071(7) -0.00908(8)
CL3 0.01595(10) 0.02307(12) 0.01703(10) -0.00257(8) 0.00164(7) -0.01145(9)
O1 0.0172(3) 0.0180(3) 0.0138(3) 0.0002(2) 0.0003(2) -0.0080(3)
O2 0.0160(3) 0.0153(3) 0.0183(3) 0.0023(2) -0.0023(2) -0.0058(3)
O3 0.0169(3) 0.0154(3) 0.0134(3) 0.0003(2) -0.0024(2) -0.0081(2)
O4 0.0163(3) 0.0155(3) 0.0174(3) -0.0018(2) -0.0019(2) -0.0086(3)
C1 0.0177(4) 0.0230(5) 0.0217(4) -0.0023(4) 0.0030(3) -0.0098(4)
C2 0.0243(4) 0.0203(5) 0.0130(4) 0.0013(3) 0.0006(3) -0.0097(4)
C3 0.0260(5) 0.0167(4) 0.0149(4) 0.0029(3) -0.0014(3) -0.0091(4)
C4 0.0168(4) 0.0207(5) 0.0301(5) 0.0011(4) -0.0063(4) -0.0049(4)
C5 0.0229(4) 0.0165(4) 0.0186(4) 0.0026(3) -0.0032(3) -0.0086(4)
C6 0.0214(4) 0.0218(5) 0.0141(4) -0.0005(3) -0.0043(3) -0.0122(4)
C7 0.0189(4) 0.0211(5) 0.0175(4) -0.0010(3) -0.0035(3) -0.0123(4)
C8 0.0227(4) 0.0158(4) 0.0206(4) -0.0023(3) -0.0005(3) -0.0089(4)
loop_
_atom_type_symbol
_atom_type_description
_atom_type_scat_dispersion_real
_atom_type_scat_dispersion_imag
_atom_type_scat_source
C C 0.0033 0.0016 'International Tables Vol C Tables 4.2.6.8 and 6.1.1.4'
H H 0.0000 0.0000 'International Tables Vol C Tables 4.2.6.8 and 6.1.1.4'
O O 0.0106 0.0060 'International Tables Vol C Tables 4.2.6.8 and 6.1.1.4'
Mg Mg 0.0486 0.0363 'International Tables Vol C Tables 4.2.6.8 and 6.1.1.4'
Cl Cl 0.1484 0.1585 'International Tables Vol C Tables 4.2.6.8 and 6.1.1.4'
loop_
_geom_angle_atom_site_label_1
_geom_angle_atom_site_label_2
_geom_angle_atom_site_label_3
_geom_angle
O2 MG2 O3 160.64(3)
O2 MG2 O4 91.29(3)
O3 MG2 O4 75.88(3)
O2 MG2 O1 75.51(3)
O3 MG2 O1 88.47(3)
O4 MG2 O1 83.40(3)
O2 MG2 CL3 97.77(2)
O3 MG2 CL3 96.64(2)
O4 MG2 CL3 89.84(2)
O1 MG2 CL3 170.30(2)
O2 MG2 CL2 96.09(2)
O3 MG2 CL2 94.19(2)
O4 MG2 CL2 167.15(2)
O1 MG2 CL2 88.27(2)
CL3 MG2 CL2 99.526(14)
C1 O1 C2 110.31(7)
C1 O1 MG2 120.97(6)
C2 O1 MG2 109.33(5)
C4 O2 C3 112.09(7)
C4 O2 MG2 128.55(6)
C3 O2 MG2 117.35(5)
C5 O3 C6 111.17(7)
C5 O3 MG2 119.98(5)
C6 O3 MG2 114.92(5)
C8 O4 C7 111.91(7)
C8 O4 MG2 127.20(5)
C7 O4 MG2 110.88(5)
O1 C1 H1A 109.5
O1 C1 H1B 109.5
H1A C1 H1B 109.5
O1 C1 H1C 109.5
H1A C1 H1C 109.5
H1B C1 H1C 109.5
O1 C2 C3 107.87(7)
O1 C2 H2A 110.1
C3 C2 H2A 110.1
O1 C2 H2B 110.1
C3 C2 H2B 110.1
H2A C2 H2B 108.4
O2 C3 C2 107.29(7)
O2 C3 H3A 110.3
C2 C3 H3A 110.3
O2 C3 H3B 110.3
C2 C3 H3B 110.3
H3A C3 H3B 108.5
O2 C4 H4A 109.5
O2 C4 H4B 109.5
H4A C4 H4B 109.5
O2 C4 H4C 109.5
H4A C4 H4C 109.5
H4B C4 H4C 109.5
O3 C5 H5A 109.5
O3 C5 H5B 109.5
H5A C5 H5B 109.5
O3 C5 H5C 109.5
H5A C5 H5C 109.5
H5B C5 H5C 109.5
O3 C6 C7 107.50(7)
O3 C6 H6A 110.2
C7 C6 H6A 110.2
O3 C6 H6B 110.2
C7 C6 H6B 110.2
H6A C6 H6B 108.5
O4 C7 C6 106.63(7)
O4 C7 H7A 110.4
C6 C7 H7A 110.4
O4 C7 H7B 110.4
C6 C7 H7B 110.4
H7A C7 H7B 108.6
O4 C8 H8A 109.5
O4 C8 H8B 109.5
H8A C8 H8B 109.5
O4 C8 H8C 109.5
H8A C8 H8C 109.5
H8B C8 H8C 109.5
loop_
_geom_bond_atom_site_label_1
_geom_bond_atom_site_label_2
_geom_bond_distance
MG2 O2 2.0964(7)
MG2 O3 2.1306(7)
MG2 O4 2.1689(7)
MG2 O1 2.2303(7)
MG2 CL3 2.3820(4)
MG2 CL2 2.4026(4)
O1 C1 1.4388(11)
O1 C2 1.4392(11)
O2 C4 1.4335(11)
O2 C3 1.4405(11)
O3 C5 1.4355(11)
O3 C6 1.4435(11)
O4 C8 1.4343(11)
O4 C7 1.4360(11)
C1 H1A 0.9800
C1 H1B 0.9800
C1 H1C 0.9800
C2 C3 1.5023(14)
C2 H2A 0.9900
C2 H2B 0.9900
C3 H3A 0.9900
C3 H3B 0.9900
C4 H4A 0.9800
C4 H4B 0.9800
C4 H4C 0.9800
C5 H5A 0.9800
C5 H5B 0.9800
C5 H5C 0.9800
C6 C7 1.5020(13)
C6 H6A 0.9900
C6 H6B 0.9900
C7 H7A 0.9900
C7 H7B 0.9900
C8 H8A 0.9800
C8 H8B 0.9800
C8 H8C 0.9800
loop_
_geom_torsion_atom_site_label_1
_geom_torsion_atom_site_label_2
_geom_torsion_atom_site_label_3
_geom_torsion_atom_site_label_4
_geom_torsion
C1 O1 C2 C3 178.78(8)
MG2 O1 C2 C3 -45.88(8)
C4 O2 C3 C2 161.68(8)
MG2 O2 C3 C2 -33.03(9)
O1 C2 C3 O2 51.12(10)
C5 O3 C6 C7 174.23(7)
MG2 O3 C6 C7 33.80(8)
C8 O4 C7 C6 -163.99(7)
MG2 O4 C7 C6 47.69(8)
O3 C6 C7 O4 -52.47(9)
