#------------------------------------------------------------------------------
#$Date: 2017-10-05 10:20:19 +0300 (Thu, 05 Oct 2017) $
#$Revision: 201727 $
#$URL: file:///home/coder/svn-repositories/cod/cif/1/54/75/1547576.cif $
#------------------------------------------------------------------------------
#
# This file is available in the Crystallography Open Database (COD),
# http://www.crystallography.net/
#
# All data on this site have been placed in the public domain by the
# contributors.
#
data_1547576
loop_
_publ_author_name
'Yuan, Yang'
'Yu, Bo'
'Bai, Xing-Feng'
'Xu, Zheng'
'Zheng, Zhan-Jiang'
'Cui, Yu-Ming'
'Cao, Jian'
'Xu, Li-Wen'
_publ_section_title
;
 Asymmetric Synthesis of Glutamic Acid Derivatives by Silver-Catalyzed
 Conjugate Addition-Elimination Reactions.
;
_journal_issue                   18
_journal_name_full               'Organic letters'
_journal_page_first              4896
_journal_page_last               4899
_journal_paper_doi               10.1021/acs.orglett.7b02378
_journal_volume                  19
_journal_year                    2017
_chemical_formula_sum            'C21 H19 Br N2 O6'
_chemical_formula_weight         475.29
_space_group_crystal_system      triclinic
_space_group_IT_number           1
_space_group_name_Hall           'P 1'
_space_group_name_H-M_alt        'P 1'
_symmetry_space_group_name_Hall  'P 1'
_symmetry_space_group_name_H-M   'P 1'
_atom_sites_solution_hydrogens   geom
_audit_creation_method           SHELXL-2014/7
_cell_angle_alpha                83.24(2)
_cell_angle_beta                 79.64(2)
_cell_angle_gamma                79.50(2)
_cell_formula_units_Z            1
_cell_length_a                   7.040(9)
_cell_length_b                   7.063(9)
_cell_length_c                   10.762(13)
_cell_measurement_reflns_used    2181
_cell_measurement_temperature    296(2)
_cell_measurement_theta_max      27.45
_cell_measurement_theta_min      2.47
_cell_volume                     515.6(11)
_computing_cell_refinement       'Bruker SMART'
_computing_data_collection       'Bruker SMART'
_computing_data_reduction        'Bruker SAINT'
_computing_molecular_graphics    'Bruker SHELXTL'
_computing_publication_material  'Bruker SHELXTL'
_computing_structure_refinement  'SHELXL-2014/7 (Sheldrick, 2014)'
_computing_structure_solution    'Bruker SHELXTL'
_diffrn_ambient_temperature      296(2)
_diffrn_measured_fraction_theta_full 0.877
_diffrn_measured_fraction_theta_max 0.877
_diffrn_measurement_device_type  'CCD area detector'
_diffrn_measurement_method       'phi and omega scans'
_diffrn_radiation_type           MoK\a
_diffrn_radiation_wavelength     0.71073
_diffrn_reflns_av_R_equivalents  0.0467
_diffrn_reflns_av_unetI/netI     0.0835
_diffrn_reflns_Laue_measured_fraction_full 0.877
_diffrn_reflns_Laue_measured_fraction_max 0.877
_diffrn_reflns_limit_h_max       8
_diffrn_reflns_limit_h_min       -8
_diffrn_reflns_limit_k_max       7
_diffrn_reflns_limit_k_min       -8
_diffrn_reflns_limit_l_max       12
_diffrn_reflns_limit_l_min       -12
_diffrn_reflns_number            2974
_diffrn_reflns_point_group_measured_fraction_full 0.581
_diffrn_reflns_point_group_measured_fraction_max 0.581
_diffrn_reflns_theta_full        25.097
_diffrn_reflns_theta_max         25.097
_diffrn_reflns_theta_min         2.944
_exptl_absorpt_coefficient_mu    2.034
_exptl_absorpt_correction_T_max  0.7456
_exptl_absorpt_correction_T_min  0.3133
_exptl_absorpt_correction_type   multi-scan
_exptl_crystal_colour            colorless
_exptl_crystal_density_diffrn    1.531
_exptl_crystal_description       block
_exptl_crystal_F_000             242
_exptl_crystal_size_max          0.20
_exptl_crystal_size_mid          0.20
_exptl_crystal_size_min          0.20
_refine_diff_density_max         0.964
_refine_diff_density_min         -1.336
_refine_diff_density_rms         0.150
_refine_ls_abs_structure_details
; 
 Flack x determined using 437 quotients [(I+)-(I-)]/[(I+)+(I-)] 
 (Parsons, Flack and Wagner, Acta Cryst. B69 (2013) 249-259). 
;
_refine_ls_abs_structure_Flack   0.161(18)
_refine_ls_extinction_method     none
_refine_ls_goodness_of_fit_ref   1.062
_refine_ls_hydrogen_treatment    constr
_refine_ls_matrix_type           full
_refine_ls_number_parameters     273
_refine_ls_number_reflns         2143
_refine_ls_number_restraints     16
_refine_ls_restrained_S_all      1.059
_refine_ls_R_factor_all          0.0835
_refine_ls_R_factor_gt           0.0770
_refine_ls_shift/su_max          0.000
_refine_ls_shift/su_mean         0.000
_refine_ls_structure_factor_coef Fsqd
_refine_ls_weighting_details
'w=1/[\s^2^(Fo^2^)+(0.1860P)^2^] where P=(Fo^2^+2Fc^2^)/3'
_refine_ls_weighting_scheme      calc
_refine_ls_wR_factor_gt          0.2095
_refine_ls_wR_factor_ref         0.2247
_reflns_Friedel_coverage         0.325
_reflns_Friedel_fraction_full    0.285
_reflns_Friedel_fraction_max     0.285
_reflns_number_gt                1938
_reflns_number_total             2143
_reflns_threshold_expression     'I > 2\s(I)'
_cod_data_source_file            ol7b02378_si_003.cif
_cod_data_source_block           123
_cod_database_code               1547576
_shelx_shelxl_version_number     2014/7
_shelx_space_group_comment
; 
The symmetry employed for this shelxl refinement is uniquely defined 
by the following loop, which should always be used as a source of 
symmetry information in preference to the above space-group names. 
They are only intended as comments. 
;
_shelx_res_file
; 
  
    123.res created by SHELXL-2014/7 
  
  
TITL 123 in P1 
CELL 0.71073   7.0399   7.0633  10.7622  83.238  79.642  79.501 
ZERR    1.00   0.0088   0.0087   0.0132   0.024   0.023   0.022 
LATT -1 
SFAC C  H  N  O  Br 
UNIT 21  19  2  6  1 
OMIT -3 50.2 
L.S. 40 
ACTA 
BOND $H 
delu 0.005 N1 O2 
simu 0.001 N1 O2 
ISOR 0.05 O2 
FMAP 2 
PLAN 5 
TEMP 23.000 
WGHT    0.186000 
FVAR       0.43008 
BR1   5    0.195400    0.366513    0.480147    11.00000    0.07258    0.08240 = 
         0.03390   -0.00610   -0.00444   -0.02244 
C1    1    0.481577    0.356006   -0.226355    11.00000    0.05772    0.05811 = 
         0.01900   -0.00445   -0.01266   -0.02340 
C2    1    0.352578    0.218627   -0.157097    11.00000    0.04176    0.04665 = 
         0.03270   -0.00451   -0.01224   -0.01530 
AFIX  13 
H2    2    0.238293    0.227610   -0.199044    11.00000   -1.20000 
AFIX   0 
C3    1    0.468787    0.012256   -0.159443    11.00000    0.04086    0.04330 = 
         0.03354   -0.00309   -0.00700   -0.01666 
AFIX  23 
H3A   2    0.519958   -0.014358   -0.246631    11.00000   -1.20000 
H3B   2    0.579044    0.002640   -0.115123    11.00000   -1.20000 
AFIX   0 
C4    1    0.343982   -0.137018   -0.098260    11.00000    0.03873    0.03871 = 
         0.04085   -0.01261   -0.00672   -0.01516 
C5    1    0.344168   -0.229229    0.019098    11.00000    0.04591    0.04427 = 
         0.03125    0.00383   -0.01449   -0.01545 
AFIX  43 
H5    2    0.256735   -0.316069    0.043087    11.00000   -1.20000 
AFIX   0 
C6    1    0.192904   -0.179563   -0.164352    11.00000    0.05355    0.03915 = 
         0.03317   -0.00298   -0.02138   -0.01018 
C7    1    0.752671    0.502942   -0.228053    11.00000    0.07052    0.06803 = 
         0.05950   -0.00947   -0.01192   -0.03209 
AFIX 137 
H7A   2    0.845632    0.435934   -0.291538    11.00000   -1.50000 
H7B   2    0.820507    0.540256   -0.167430    11.00000   -1.50000 
H7C   2    0.681413    0.616153   -0.267482    11.00000   -1.50000 
AFIX   0 
C8    1    0.062464   -0.115700   -0.352886    11.00000    0.09952    0.08308 = 
         0.04586    0.00271   -0.04281   -0.04632 
AFIX 137 
H8A   2    0.109388   -0.230245   -0.396618    11.00000   -1.50000 
H8B   2    0.040602   -0.006143   -0.413478    11.00000   -1.50000 
H8C   2   -0.058104   -0.129614   -0.297336    11.00000   -1.50000 
AFIX   0 
C9    1    0.466599   -0.209755    0.115279    11.00000    0.04894    0.04147 = 
         0.03973    0.00663   -0.01469   -0.01286 
C10   1    0.368932   -0.206204    0.239995    11.00000    0.05045    0.09146 = 
         0.05131   -0.01028   -0.00860   -0.02369 
AFIX  43 
H10   2    0.238261   -0.222061    0.258588    11.00000   -1.20000 
AFIX   0 
C11   1    0.463055   -0.179835    0.334135    11.00000    0.06523    0.08645 = 
         0.04856   -0.00431   -0.01364   -0.01164 
AFIX  43 
H11   2    0.395873   -0.170686    0.416482    11.00000   -1.20000 
AFIX   0 
C12   1    0.656761   -0.166833    0.307252    11.00000    0.05436    0.05699 = 
         0.02939    0.00426   -0.01951   -0.01209 
C13   1    0.760361   -0.184242    0.185904    11.00000    0.03578    0.06355 = 
         0.04330    0.00402   -0.00799   -0.01555 
AFIX  43 
H13   2    0.894425   -0.182922    0.169633    11.00000   -1.20000 
AFIX   0 
C14   1    0.662763   -0.203431    0.090174    11.00000    0.04353    0.05317 = 
         0.03596    0.00019   -0.00269   -0.00722 
AFIX  43 
H14   2    0.730106   -0.212187    0.007840    11.00000   -1.20000 
AFIX   0 
C15   1    0.110514    0.267072    0.010993    11.00000    0.04417    0.04022 = 
         0.03938   -0.00860   -0.00921   -0.00212 
AFIX  43 
H15   2    0.031139    0.251457   -0.046168    11.00000   -1.20000 
AFIX   0 
C16   1    0.022729    0.297646    0.144513    11.00000    0.05468    0.02650 = 
         0.03758    0.00042   -0.00219   -0.00290 
C17   1   -0.174842    0.301078    0.178450    11.00000    0.04056    0.04809 = 
         0.07000   -0.00604   -0.00577   -0.00971 
AFIX  43 
H17   2   -0.249251    0.285294    0.118375    11.00000   -1.20000 
AFIX   0 
C18   1   -0.263965    0.328052    0.302234    11.00000    0.04326    0.05929 = 
         0.05914   -0.01038    0.00438   -0.01124 
AFIX  43 
H18   2   -0.398733    0.334501    0.324619    11.00000   -1.20000 
AFIX   0 
C19   1   -0.152101    0.345411    0.392654    11.00000    0.06605    0.04443 = 
         0.04357   -0.00357    0.01088   -0.00436 
AFIX  43 
H19   2   -0.213049    0.358311    0.476074    11.00000   -1.20000 
AFIX   0 
C20   1    0.044692    0.344123    0.362844    11.00000    0.06731    0.03784 = 
         0.03213    0.01751    0.00726   -0.00359 
C21   1    0.129806    0.319008    0.232788    11.00000    0.04022    0.04278 = 
         0.03174   -0.00751    0.00511   -0.00647 
AFIX  43 
H21   2    0.263678    0.317405    0.208492    11.00000   -1.20000 
AFIX   0 
N1    3    0.760933   -0.145031    0.407346    11.00000    0.09813    0.10708 = 
         0.02633   -0.00925   -0.02885   -0.02491 
N2    3    0.287434    0.262141   -0.024990    11.00000    0.04677    0.04170 = 
         0.03063   -0.00584   -0.00408   -0.01399 
O1    4    0.934909   -0.150313    0.386416    11.00000    0.06243    0.12645 = 
         0.07370   -0.02951   -0.03495   -0.00226 
O2    4    0.662638   -0.122597    0.513552    11.00000    0.10056    0.10923 = 
         0.02819   -0.00955   -0.02658   -0.02512 
O3    4    0.076436   -0.282162   -0.121876    11.00000    0.07517    0.08841 = 
         0.04824    0.01452   -0.02678   -0.05352 
O4    4    0.204592   -0.087569   -0.280300    11.00000    0.06939    0.07890 = 
         0.03414   -0.00041   -0.02221   -0.04021 
O5    4    0.471479    0.428634   -0.332367    11.00000    0.12827    0.12900 = 
         0.05282    0.03984   -0.04959   -0.08439 
O6    4    0.620982    0.380109   -0.165851    11.00000    0.05335    0.06164 = 
         0.04997    0.00372   -0.01253   -0.03185 
HKLF 4 
  
REM  123 in P1 
REM R1 =  0.0770 for    1938 Fo > 4sig(Fo)  and  0.0835 for all    2143 data 
REM    273 parameters refined using     16 restraints 
  
END 
  
WGHT      0.1832      0.0000 
  
REM Highest difference peak  0.964,  deepest hole -1.336,  1-sigma level  0.150 
Q1    1   0.1884  0.3731  0.3940  11.00000  0.05    0.96 
Q2    1   0.1925  0.3625  0.5644  11.00000  0.05    0.95 
Q3    1   0.2129  0.3586 -0.3415  11.00000  0.05    0.93 
Q4    1   0.1756  0.3660  0.3065  11.00000  0.05    0.73 
Q5    1   0.0424  0.3107  0.5655  11.00000  0.05    0.67 
;
_shelx_res_checksum              18177
_shelx_hkl_file
; 
   0   1   0   44.03    3.66 
   0   1   0   51.98    4.14 
   0   1   0   46.55    2.95 
   0  -1   0   42.33    4.13 
   0   3   0   36.18    2.26 
   0   3   0   37.04    3.17 
   0   3   0   34.10    2.79 
   0  -3   0   32.73    3.16 
   0   4   0  186.01   16.63 
   0   4   0  191.76   11.86 
   0   4   0  176.91   14.73 
   0  -4   0  189.16   16.63 
   0   5   0   13.20    0.86 
   0  -5   0   10.14    1.16 
   0  -6   0   17.32    1.70 
   0  -7   0    3.52    0.73 
   1  -6   0    7.34    0.95 
   1  -5   0   58.81    4.92 
  -1   5   0   49.77    4.33 
  -1   5   0   53.90    4.91 
  -1   4   0   25.37    2.05 
  -1   4   0   25.16    2.33 
   1  -3   0  206.79   17.87 
  -1   3   0  214.63   12.73 
  -1   3   0  194.82   17.86 
  -1   3   0  183.06   15.83 
   1  -2   0  111.90    8.69 
  -1   2   0   99.19    6.19 
  -1   2   0   86.89    7.70 
  -1   2   0   90.34    8.69 
   1  -1   0  167.01   15.04 
  -1   1   0  166.75   15.03 
  -1   1   0  170.44   13.33 
  -1   0   0  144.10   11.56 
  -1   0   0  114.12   10.27 
  -1  -1   0  300.17   23.79 
  -1  -2   0  146.69   12.16 
  -1  -2   0  125.53    8.66 
  -1  -3   0   59.03    5.51 
  -1  -3   0   63.72    3.92 
   1   4   0    1.92    0.29 
  -1  -4   0    1.45    0.29 
  -1  -4   0    1.27    0.16 
   1   5   0    9.23    0.67 
  -1  -5   0    7.61    0.86 
  -1  -6   0    4.43    0.64 
  -1  -7   0    1.39    0.51 
  -1  -8   0    1.04    0.56 
  -2   5   0    8.35    1.00 
  -2   5   0    8.87    0.88 
   2  -4   0   26.28    2.39 
  -2   4   0   25.38    2.37 
  -2   4   0   25.31    2.11 
   2  -3   0   33.67    3.52 
  -2   3   0   42.27    3.53 
  -2   3   0   40.79    3.13 
   2  -2   0  105.01    8.65 
  -2   2   0   93.58    7.67 
  -2   2   0   91.13    8.65 
  -2   1   0   93.71    8.30 
  -2   1   0   88.34    8.30 
  -2   1   0   96.13    7.37 
  -2   0   0  183.37   16.67 
  -2   0   0  236.75   18.78 
  -2  -1   0  105.62    8.38 
   2   3   0   97.81    8.60 
  -2  -3   0  119.28    9.71 
  -2  -5   0   14.19    1.35 
  -2  -6   0    9.20    0.97 
  -2  -7   0    6.80    0.86 
  -2  -8   0    0.35    0.53 
  -2  -9   0    1.09    0.62 
  -3   5   0   13.60    1.32 
  -3   5   0   15.26    1.50 
  -3   4   0   39.92    3.26 
  -3   4   0   40.51    3.68 
  -3   3   0   56.75    5.14 
  -3   3   0   57.18    4.57 
  -3   2   0   91.07    7.10 
  -3   2   0   87.05    7.98 
  -3   1   0   96.29    8.37 
  -3   1   0   81.86    8.38 
  -3   1   0  102.70    7.45 
  -3   0   0   74.24    6.76 
  -3   0   0   76.94    6.02 
  -3  -1   0  198.02   15.69 
  -3  -2   0   19.48    1.57 
  -3  -3   0  162.97   14.28 
  -3  -3   0  160.96   14.29 
  -3  -3   0  155.55   12.66 
   3   4   0   31.37    2.52 
  -3  -4   0   31.74    2.89 
  -3  -5   0   10.13    0.99 
  -3  -6   0    0.01    0.32 
  -3  -7   0    1.49    0.47 
  -3  -8   0    0.12    0.49 
  -4   6   0    0.27    0.42 
  -4   5   0    6.26    0.90 
  -4   5   0    6.21    0.95 
  -4   4   0    8.03    0.93 
  -4   4   0    8.32    0.98 
  -4   3   0    7.75    0.86 
  -4   3   0    7.50    0.86 
  -4   2   0   63.87    6.01 
  -4   2   0   69.87    5.36 
  -4   1   0    0.31    0.22 
  -4   1   0    0.36    0.21 
  -4   1   0    0.54    0.21 
  -4   0   0   51.53    4.74 
  -4   0   0   54.26    4.24 
  -4  -1   0    6.30    0.63 
  -4  -2   0   53.63    4.28 
  -4  -3   0   22.93    1.69 
  -4  -3   0   18.48    1.88 
   4   4   0   46.97    4.04 
  -4  -4   0   54.54    4.56 
  -4  -5   0   22.21    2.04 
  -4  -6   0    9.29    0.96 
  -4  -7   0    6.01    0.76 
  -4  -8   0   -0.11    0.49 
  -5   6   0    0.31    0.50 
  -5   5   0    2.27    0.80 
  -5   5   0    1.49    0.49 
  -5   4   0    4.32    0.84 
  -5   4   0    4.99    0.79 
  -5   3   0    4.59    0.83 
  -5   3   0    5.83    0.75 
  -5   2   0   15.53    1.41 
  -5   2   0   15.09    1.49 
  -5   1   0    4.25    0.51 
  -5   0   0    6.74    0.77 
  -5   0   0    6.29    0.64 
  -5  -1   0   24.19    2.20 
  -5  -1   0   24.64    2.03 
  -5  -2   0   24.96    2.06 
  -5  -3   0   21.22    1.77 
   5   4   0   22.68    1.77 
  -5  -4   0   19.91    1.77 
  -5  -4   0   21.62    1.95 
  -5  -5   0   11.28    1.09 
  -5  -6   0    2.71    0.52 
  -5  -7   0    3.25    0.61 
  -5  -8   0    0.81    0.55 
  -6   5   0    1.45    0.83 
  -6   5   0    0.72    0.58 
  -6   4   0    5.50    0.97 
  -6   4   0    5.39    0.89 
  -6   3   0    3.82    0.72 
  -6   3   0    2.75    0.59 
  -6   2   0   10.45    1.10 
  -6   2   0   10.06    1.15 
  -6   1   0    7.16    0.92 
  -6   1   0    7.13    0.82 
  -6   0   0   10.99    1.21 
  -6   0   0   12.85    1.17 
  -6  -1   0    2.34    0.38 
  -6  -1   0    2.06    0.40 
  -6  -2   0   14.79    1.32 
  -6  -3   0    4.53    0.67 
  -6  -4   0    3.89    0.67 
  -6  -4   0    5.55    0.57 
  -6  -5   0   23.11    2.13 
  -6  -6   0    1.37    0.44 
  -6  -7   0    4.25    0.71 
  -7   4   0    1.70    0.65 
  -7   4   0    2.06    0.80 
  -7   3   0    5.13    1.02 
  -7   3   0    5.58    0.90 
  -7   2   0    4.90    0.93 
  -7   2   0    4.35    0.72 
  -7   1   0    5.28    0.88 
  -7   1   0    4.63    0.69 
  -7   0   0   20.37    2.12 
  -7   0   0   24.51    1.97 
  -7  -1   0    1.17    0.59 
  -7  -1   0    1.83    0.47 
  -7  -2   0   27.68    2.35 
  -7  -3   0    0.92    0.38 
  -7  -4   0    5.56    0.67 
  -7  -5   0    5.91    0.73 
  -7  -6   0    3.70    0.65 
  -8   3   0    0.38    0.76 
  -8   2   0    0.85    0.70 
  -8   2   0   -0.02    0.66 
  -8   1   0   -0.27    0.56 
  -8   1   0    0.53    0.57 
  -8   0   0    2.86    0.60 
  -8   0   0    2.56    0.62 
  -8  -1   0    1.06    0.55 
  -8  -1   0   -0.06    0.47 
  -8  -2   0    1.99    0.48 
  -8  -2   0    0.26    0.60 
  -8  -3   0    0.93    0.43 
  -8  -4   0    0.06    0.47 
  -8  -5   0    0.16    0.51 
  -9  -1   0    1.28    0.64 
  -9  -1   0    0.88    0.57 
  -9  -2   0    1.18    0.62 
  -9  -2   0    0.38    0.53 
  -8  -5   1    0.71    0.65 
  -8  -4   1    0.17    0.57 
  -8  -3   1   -0.97    0.73 
  -8  -2   1   -0.76    0.71 
  -8  -2   1    1.54    0.52 
  -8  -1   1    3.53    0.64 
  -8   0   1    4.20    0.82 
  -8   0   1    4.81    0.92 
  -8   1   1    3.28    0.70 
  -8   1   1    3.93    0.75 
  -8   2   1    1.56    0.70 
  -8   2   1    1.67    0.72 
  -7  -6   1    1.88    0.63 
  -7  -5   1    4.05    0.76 
  -7  -4   1    5.99    0.79 
  -7  -3   1    6.67    0.83 
  -7   0   1    2.62    0.68 
  -7   1   1   11.07    1.22 
  -7   1   1   11.94    1.26 
  -7   2   1    2.35    0.63 
  -7   2   1    2.50    0.63 
  -7   3   1    2.90    0.76 
  -7   3   1    2.15    0.67 
  -7   4   1    1.35    0.78 
  -7   4   1    0.67    0.66 
  -6  -7   1    2.32    0.59 
  -6  -6   1    1.96    0.51 
  -6  -5   1    3.81    0.60 
  -6  -4   1    8.97    0.94 
  -6  -3   1   12.77    1.19 
  -6  -3   1   12.44    1.21 
  -6  -2   1    7.25    0.72 
  -6  -2   1    6.91    0.83 
  -6   0   1    7.26    1.00 
  -6   1   1   17.68    1.59 
  -6   1   1   16.81    1.73 
  -6   2   1    4.41    0.65 
  -6   2   1    4.35    0.85 
  -6   3   1    5.93    0.84 
  -6   3   1    6.54    0.99 
  -6   4   1    0.29    0.68 
  -6   4   1   -0.16    0.54 
  -6   5   1    0.90    0.84 
  -6   5   1    0.35    0.57 
  -5  -8   1    3.04    0.69 
  -5  -7   1    1.35    0.50 
  -5  -6   1    5.02    0.67 
  -5  -5   1    8.36    0.88 
  -5  -4   1    6.31    0.69 
  -5  -4   1    6.54    0.71 
  -5  -3   1   47.99    3.94 
  -5  -3   1   41.27    3.53 
  -5  -3   1   42.11    3.95 
  -5  -2   1   27.27    2.37 
  -5  -2   1   24.73    2.38 
  -5  -2   1   26.99    2.17 
  -5  -1   1   25.39    2.23 
  -5  -1   1   23.79    2.06 
  -5   0   1   33.80    3.09 
  -5   0   1   34.71    2.81 
  -5   1   1   15.18    1.43 
  -5   1   1   12.84    1.26 
  -5   2   1   10.32    1.06 
  -5   2   1    9.59    1.07 
  -5   3   1   10.04    1.12 
  -5   3   1    9.55    1.10 
  -5   4   1    1.21    0.52 
  -5   4   1    2.04    0.64 
  -5   5   1    0.53    0.52 
  -5   5   1    1.00    0.68 
  -5   6   1    0.36    0.49 
  -4  -8   1    3.53    0.66 
  -4  -7   1    0.27    0.44 
  -4  -6   1    4.25    0.62 
  -4  -5   1    1.09    0.33 
  -4  -4   1    2.69    0.36 
  -4  -4   1    3.65    0.42 
  -4  -3   1    3.21    0.47 
  -4  -3   1    2.85    0.38 
  -4  -3   1    3.76    0.49 
  -4  -2   1  122.49   10.07 
  -4  -2   1  105.46   10.07 
  -4  -2   1  110.25    8.96 
  -4  -1   1   10.51    1.00 
  -4   0   1  117.74    9.16 
  -4   0   1  112.53   10.29 
  -4   2   1   12.80    1.40 
  -4   2   1   16.21    1.31 
  -4   3   1   25.47    2.11 
  -4   3   1   24.23    2.32 
  -4   4   1    4.73    0.76 
  -4   4   1    4.47    0.75 
  -4   5   1    2.89    0.70 
  -4   5   1    2.59    0.48 
  -4   6   1    1.75    0.49 
  -3  -8   1    0.91    0.51 
  -3  -7   1    5.64    0.74 
  -3  -6   1    2.58    0.47 
  -3  -5   1   38.29    3.47 
  -3  -3   1   74.70    5.77 
  -3  -3   1   70.54    6.50 
  -3  -2   1  352.43   32.03 
  -3  -2   1  364.79   32.04 
  -3  -1   1  144.18   11.90 
  -3  -1   1  123.42   11.90 
  -3  -1   1  132.07   10.57 
  -3   0   1  207.66   16.26 
  -3   0   1  202.51   18.33 
  -3   1   1  120.69    9.48 
  -3   1   1   91.05    8.42 
  -3   2   1  102.34    7.88 
  -3   2   1   95.56    8.87 
  -3   3   1   21.88    2.09 
  -3   3   1   23.00    1.88 
  -3   4   1   25.06    2.33 
  -3   4   1   24.55    2.08 
  -3   5   1    5.65    0.86 
  -3   5   1    5.38    0.78 
  -3   6   1    1.29    0.40 
  -2  -8   1    3.33    0.77 
  -2  -7   1    5.53    0.77 
  -2  -6   1   14.57    1.42 
  -2  -5   1    6.61    0.72 
  -2  -4   1   26.53    2.23 
  -2  -4   1   21.39    2.18 
  -2  -3   1   40.56    3.60 
  -2  -3   1   39.03    3.16 
  -2  -2   1   19.30    1.83 
  -2  -2   1   21.13    1.63 
  -2  -1   1  180.14   14.23 
  -2  -1   1  178.63   16.03 
  -2   0   1   25.46    2.05 
  -2   1   1  205.98   16.45 
  -2   1   1  209.15   18.54 
  -2   2   1   39.26    2.79 
  -2   2   1   45.83    3.92 
  -2   2   1   39.24    2.79 
  -2   2   1   49.21    3.49 
   2  -2  -1   43.89    3.92 
  -2   3   1   70.59    4.53 
  -2   3   1   69.30    6.36 
  -2   3   1   72.17    5.64 
  -2   4   1    9.72    1.06 
  -2   4   1    9.98    0.97 
   2  -4  -1   11.19    1.07 
  -2   5   1    7.17    0.88 
  -2   5   1    6.67    0.76 
  -1  -8   1    0.49    0.57 
  -1  -7   1    6.46    0.87 
  -1  -6   1   18.38    1.76 
  -1  -5   1   82.29    7.40 
  -1  -3   1  294.15   26.46 
  -1  -3   1  297.71   18.84 
  -1  -2   1   58.54    5.41 
  -1  -2   1   62.07    3.85 
  -1  -2   1   60.49    5.42 
  -1  -1   1  425.95   38.09 
  -1   0   1  550.68   46.39 
  -1   0   1  521.11   41.17 
   1   0  -1  486.30   46.39 
  -1   2   1  629.98   59.81 
  -1   2   1  658.73   53.04 
  -1   2   1  679.98   42.63 
   1  -2  -1  707.33   59.82 
  -1   3   1  246.25   15.83 
  -1   3   1  248.94   22.22 
  -1   3   1  250.60   19.70 
  -1   4   1  111.84   10.05 
  -1   4   1  123.33    7.17 
  -1   4   1  110.90    8.90 
   1  -4  -1  102.09   10.05 
  -1   5   1   13.35    1.22 
  -1   5   1   15.12    1.04 
  -1   5   1   13.98    1.40 
   1  -5  -1   14.40    1.40 
   1  -6  -1   14.73    1.49 
   0  -7   1    5.16    0.85 
   0  -6   1   64.60    5.86 
   0  -5   1   23.71    2.20 
   0  -4   1  548.02   46.84 
   0  -4   1  511.97   41.48 
   0   4  -1  511.36   41.49 
   0  -3   1   33.10    3.12 
   0  -3   1   34.86    2.75 
   0   3  -1   35.53    2.75 
   0  -2   1 1000.00   85.11 
   0   2  -1  904.68   85.14 
   0  -1   1   84.76    7.58 
   0  -1   1   84.77    6.72 
   0   1   1  113.19    8.23 
   0   1   1  107.45    6.61 
   0   1   1   99.62    9.29 
   0  -1  -1   94.42    9.27 
   0   2   1   15.77    1.01 
   0   2   1   15.80    1.25 
   0   2   1   14.85    1.41 
   0   3   1   55.68    3.50 
   0   3   1   55.63    4.34 
   0   3   1   51.25    4.90 
   0  -3  -1   55.71    4.91 
   0   4   1   18.36    1.73 
   0   4   1   17.80    1.51 
   0   4   1   20.46    1.25 
   0  -4  -1   17.68    1.73 
   0   5   1   16.98    1.48 
   0   5   1   18.07    1.24 
   0  -5  -1   19.14    1.71 
   0  -6  -1    3.57    0.60 
   0  -7  -1    2.27    0.55 
   1  -6   1    2.63    0.59 
   1  -5   1   47.81    4.34 
  -1   5  -1   47.29    3.80 
   1  -4   1   23.15    2.26 
  -1   4  -1   26.18    1.99 
  -1   4  -1   23.87    2.28 
  -1   3  -1  229.78   19.24 
  -1   3  -1  256.12   21.72 
  -1   2  -1   55.99    4.84 
  -1   2  -1   65.83    5.47 
  -1   1  -1  599.03   49.62 
  -1   1  -1  510.61   43.98 
  -1   0  -1   72.99    6.45 
  -1   0  -1   71.23    6.46 
  -1  -1  -1   14.37    1.13 
  -1  -1  -1   13.76    1.27 
   1   2   1   50.17    3.53 
  -1  -2  -1   38.48    3.98 
   1   3   1   78.17    6.13 
  -1  -3  -1   67.57    6.92 
  -1  -3  -1   86.11    6.94 
   1   4   1   16.88    1.13 
   1   4   1   17.47    1.37 
   1   4   1   16.51    1.57 
   1   5   1   74.96    4.67 
  -1  -5  -1   70.54    6.54 
  -1  -6  -1    3.05    0.54 
  -1  -7  -1    5.65    0.78 
  -1  -8  -1    1.41    0.55 
  -2   5  -1    9.38    0.94 
  -2   5  -1   11.38    1.17 
   2  -4   1   42.31    3.84 
  -2   4  -1   44.45    3.84 
  -2   4  -1   39.67    3.39 
   2  -3   1  101.68    9.44 
  -2   3  -1  101.42    8.37 
  -2   3  -1  113.06    9.45 
   2  -2   1  125.84   12.17 
  -2   2  -1  133.84   10.80 
  -2   2  -1  148.55   12.18 
  -2   1  -1   89.80    8.50 
  -2   1  -1  100.02    8.51 
  -2   1  -1   95.48    7.55 
  -2   0  -1  277.01   23.51 
  -2   0  -1  249.15   23.51 
  -2  -1  -1   40.32    3.22 
   2   2   1  196.51   16.41 
  -2  -2  -1  227.59   18.50 
  -2  -2  -1  197.10   16.41 
   2   3   1  122.90    9.34 
  -2  -3  -1  129.44   10.53 
  -2  -3  -1  101.12   10.55 
   2   4   1   50.36    4.02 
  -2  -4  -1   50.62    4.54 
  -2  -5  -1   61.67    5.55 
  -2  -6  -1    9.85    1.02 
  -2  -7  -1    0.51    0.41 
  -2  -8  -1    0.66    0.49 
  -2  -9  -1    0.33    0.60 
  -3   5  -1    5.35    0.70 
  -3   5  -1    4.68    0.83 
  -3   4  -1    5.03    0.72 
  -3   4  -1    4.49    0.66 
  -3   3  -1   33.75    3.05 
  -3   3  -1   32.83    2.70 
  -3   2  -1   14.73    1.37 
  -3   2  -1   14.03    1.23 
  -3   1  -1  140.51   11.14 
  -3   1  -1  140.18   12.55 
  -3   0  -1   91.29    9.24 
  -3   0  -1  111.95    8.22 
  -3   0  -1  107.18    9.24 
  -3  -1  -1   76.61    6.09 
  -3  -2  -1    7.81    0.66 
  -3  -3  -1   50.12    4.38 
  -3  -3  -1   47.82    3.90 
   3   4   1   15.94    1.32 
  -3  -4  -1   16.29    1.57 
  -3  -5  -1    7.68    0.77 
  -3  -6  -1   18.52    1.74 
  -3  -7  -1    2.03    0.46 
  -3  -8  -1    3.79    0.70 
  -3  -9  -1    0.49    0.59 
  -4   5  -1    0.05    0.38 
  -4   5  -1    0.55    0.64 
  -4   4  -1    4.84    0.79 
  -4   4  -1    5.56    0.73 
  -4   3  -1    5.17    0.71 
  -4   3  -1    4.11    0.66 
  -4   2  -1   65.09    5.10 
  -4   2  -1   62.09    5.72 
  -4   1  -1   30.63    2.52 
  -4   1  -1   31.32    2.80 
  -4   0  -1  106.64    9.06 
  -4   0  -1  104.50    8.06 
  -4   0  -1   92.84    9.06 
  -4  -1  -1   60.55    4.84 
  -4  -2  -1   53.58    4.28 
   4   3   1   30.79    2.43 
  -4  -3  -1   29.59    2.44 
  -4  -4  -1   19.40    1.75 
  -4  -4  -1   18.00    1.55 
  -4  -4  -1   19.03    1.71 
  -4  -5  -1    4.31    0.52 
  -4  -6  -1    7.26    0.77 
  -4  -7  -1    2.17    0.49 
  -4  -8  -1    1.25    0.50 
  -5   5  -1    0.46    0.46 
  -5   5  -1    1.30    0.74 
  -5   4  -1    0.68    0.43 
  -5   4  -1    1.38    0.61 
  -5   3  -1    7.65    0.90 
  -5   3  -1    7.53    0.92 
  -5   2  -1    7.69    0.83 
  -5   2  -1    6.60    0.85 
  -5   1  -1    6.05    0.60 
  -5   0  -1   16.71    1.62 
  -5   0  -1   18.25    1.50 
  -5  -1  -1   42.86    3.46 
  -5  -2  -1    5.20    0.63 
   5   3   1   22.94    2.15 
  -5  -3  -1   29.91    2.16 
   5   4   1   -0.01    0.23 
  -5  -4  -1    0.24    0.18 
  -5  -4  -1    0.09    0.22 
  -5  -5  -1    3.26    0.46 
  -5  -6  -1    1.08    0.36 
  -5  -7  -1    5.84    0.72 
  -5  -8  -1    1.71    0.55 
  -6   5  -1    1.83    0.55 
  -6   5  -1    2.24    0.85 
  -6   4  -1    0.20    0.68 
  -6   4  -1    0.23    0.49 
  -6   3  -1    9.63    1.11 
  -6   3  -1    9.57    1.12 
  -6   2  -1    0.88    0.48 
  -6   2  -1    0.49    0.43 
  -6   1  -1   21.19    2.05 
  -6   1  -1   23.12    1.91 
  -6   0  -1    9.97    1.03 
  -6   0  -1   10.42    1.02 
  -6  -1  -1   82.99    6.94 
  -6  -1  -1   71.93    6.20 
  -6  -2  -1   25.51    2.13 
  -6  -3  -1   56.88    4.57 
   6   4   1   18.75    1.51 
  -6  -4  -1   16.46    1.53 
  -6  -5  -1    4.69    0.55 
  -6  -6  -1    5.00    0.62 
  -6  -7  -1    3.26    0.59 
  -7   4  -1    0.87    0.83 
  -7   4  -1    0.49    0.58 
  -7   3  -1   -0.31    0.54 
  -7   3  -1    0.49    0.69 
  -7   2  -1    2.40    0.58 
  -7   2  -1    2.46    0.62 
  -7   1  -1    0.75    0.48 
  -7   1  -1    1.28    0.49 
  -7   0  -1    2.53    0.49 
  -7   0  -1    2.28    0.49 
  -7  -1  -1    8.07    0.94 
  -7  -1  -1   10.05    0.97 
  -7  -2  -1    2.55    0.43 
  -7  -3  -1    6.13    0.80 
  -7  -4  -1    1.02    0.34 
  -7  -5  -1    0.73    0.32 
  -7  -6  -1    0.36    0.40 
  -7  -7  -1    0.73    0.50 
  -8   3  -1    0.57    0.80 
  -8   2  -1    0.47    0.66 
  -8   2  -1   -0.26    0.62 
  -8   1  -1    2.08    0.60 
  -8   1  -1    1.66    0.58 
  -8   0  -1    0.54    0.46 
  -8   0  -1   -0.14    0.49 
  -8  -1  -1    4.01    0.62 
  -8  -1  -1    2.58    0.54 
  -8  -2  -1    2.33    0.49 
   8   3   1    1.91    0.49 
  -8  -3  -1    1.94    0.43 
  -8  -5  -1    3.33    0.59 
  -9   0  -1    1.10    0.60 
  -9   0  -1    0.77    0.56 
  -9  -1  -1   -0.23    0.56 
  -9  -1  -1    0.41    0.52 
  -9  -2  -1    0.88    0.53 
  -9  -2  -1    1.70    0.55 
   9   3   1    0.85    0.54 
  -9  -3  -1    0.42    0.54 
  -9  -3  -1    0.35    0.49 
  -8  -4   2    0.10    0.66 
  -8  -3   2    1.08    0.52 
  -8  -3   2   -1.27    0.81 
  -8  -1   2    1.59    0.56 
  -8   0   2    0.67    0.57 
  -8   0   2    0.28    0.82 
  -8   1   2    1.72    0.73 
  -8   1   2    1.94    0.66 
  -8   2   2    0.40    0.72 
  -8   2   2    0.21    0.68 
  -7  -6   2    2.59    0.77 
  -7  -5   2    2.47    0.71 
  -7  -4   2    3.11    0.69 
  -7   0   2    4.14    0.65 
  -7   1   2    1.29    0.76 
  -7   1   2    1.66    0.56 
  -7   2   2    1.40    0.59 
  -7   2   2    1.61    0.71 
  -7   3   2    1.83    0.79 
  -7   3   2    1.18    0.64 
  -7   4   2    0.14    0.65 
  -7   4   2    1.17    0.82 
  -6  -7   2    1.36    0.65 
  -6  -6   2   13.31    1.41 
  -6  -5   2    5.39    0.79 
  -6  -4   2   14.95    1.47 
  -6  -3   2    6.64    0.81 
  -6  -2   2    7.15    0.90 
  -6   0   2    4.90    0.74 
  -6   0   2    2.76    0.92 
  -6   1   2    3.49    0.79 
  -6   1   2    3.24    0.54 
  -6   2   2    2.99    0.70 
  -6   2   2    2.74    0.56 
  -6   3   2    2.88    0.75 
  -6   3   2    2.57    0.61 
  -6   4   2    2.66    0.80 
  -6   4   2    1.73    0.61 
  -6   5   2    1.42    0.61 
  -6   5   2    2.14    0.89 
  -5  -7   2    1.27    0.52 
  -5  -6   2    7.56    0.89 
  -5  -5   2    2.74    0.56 
  -5  -4   2   22.68    2.10 
  -5  -3   2    2.14    0.34 
  -5  -3   2    2.33    0.46 
  -5  -2   2   16.35    1.48 
  -5  -2   2   17.48    1.57 
  -5  -1   2    7.40    0.71 
  -5   2   2    5.07    0.78 
  -5   3   2    5.97    0.91 
  -5   3   2    6.56    0.86 
  -5   4   2    5.90    0.92 
  -5   4   2    5.65    0.99 
  -5   5   2    1.55    0.53 
  -5   5   2    2.47    0.77 
  -5   6   2    0.67    0.55 
  -4  -8   2    0.92    0.57 
  -4  -7   2    0.59    0.47 
  -4  -6   2   11.86    1.21 
  -4  -5   2    5.67    0.66 
  -4  -4   2   54.94    4.94 
  -4  -3   2   40.11    4.33 
  -4  -3   2   49.92    3.81 
  -4  -3   2   52.14    4.27 
  -4  -2   2   35.45    3.31 
  -4  -2   2   37.31    2.97 
  -4  -2   2   37.45    3.32 
  -4  -1   2   96.65    7.84 
  -4  -1   2  100.30    8.81 
  -4   0   2   26.16    2.22 
  -4   0   2   27.80    2.45 
  -4   2   2   22.38    1.75 
  -4   2   2   18.06    1.96 
  -4   3   2    9.03    0.95 
  -4   3   2    8.23    0.97 
  -4   4   2    6.34    0.88 
  -4   4   2    5.85    0.85 
  -4   5   2    5.73    1.02 
  -4   5   2    5.33    0.91 
  -4   6   2    0.52    0.47 
  -3  -8   2    1.85    0.58 
  -3  -7   2    2.52    0.55 
  -3  -6   2   34.50    3.16 
  -3  -5   2   14.49    1.38 
  -3  -3   2   45.34    3.54 
  -3  -3   2   43.28    3.98 
  -3  -2   2    9.31    0.91 
  -3  -2   2   11.01    1.02 
  -3  -2   2   11.79    1.01 
  -3  -1   2   94.24    8.00 
  -3  -1   2   84.53    7.11 
  -3   0   2   34.16    2.94 
  -3   0   2   38.90    3.29 
  -3   1   2  104.01    9.31 
  -3   2   2    8.69    0.81 
  -3   2   2    7.05    0.56 
  -3   2   2    8.84    0.94 
  -3   3   2   48.16    4.39 
  -3   3   2   46.82    3.12 
  -3   3   2   50.33    3.92 
  -3   4   2   -0.05    0.49 
  -3   4   2   -0.10    0.30 
  -3   5   2    8.54    1.00 
  -3   5   2    7.04    0.87 
  -3   6   2    1.18    0.40 
  -2  -8   2    1.13    0.56 
  -2  -7   2    1.90    0.52 
  -2  -6   2    5.57    0.74 
  -2  -5   2   30.96    2.83 
  -2  -4   2   22.84    1.51 
  -2  -4   2   23.84    2.14 
  -2  -3   2  196.88   15.36 
  -2  -3   2  193.48   12.34 
  -2  -3   2  191.38   17.33 
  -2  -2   2   20.26    1.83 
  -2  -1   2  174.25   15.71 
  -2  -1   2  177.40   13.94 
  -2   1   2  138.93   10.71 
  -2   1   2  130.96    8.60 
  -2   2   2   37.62    2.98 
  -2   2   2   36.30    2.39 
  -2   3   2  150.63   12.34 
  -2   3   2  149.93   13.91 
   2  -3  -2  165.62   13.92 
  -2   4   2   10.34    1.06 
  -2   4   2   10.02    0.94 
  -2   5   2   15.57    1.55 
  -2   5   2   16.17    1.13 
  -2   5   2   14.64    1.36 
  -2   6   2    3.53    0.69 
  -1  -8   2    2.34    0.66 
  -1  -7   2    5.51    0.81 
  -1  -6   2    5.23    0.72 
  -1  -5   2   28.31    2.60 
  -1  -2   2  243.49   23.23 
  -1  -2   2  276.54   20.62 
  -1  -1   2  247.62   22.39 
   1   1  -2  253.40   22.40 
  -1   0   2  214.57   15.94 
  -1   0   2  200.18   17.94 
   1   0  -2  187.57   17.94 
  -1   1   2  562.16   37.30 
  -1   1   2  608.90   46.46 
   1  -1  -2  585.70   52.37 
  -1   2   2    6.49    0.60 
  -1   2   2    6.47    0.46 
  -1   3   2  160.69   14.59 
  -1   3   2  168.00   10.39 
  -1   3   2  172.36   12.94 
   1  -3  -2  151.26   14.59 
  -1   4   2    8.26    0.64 
  -1   4   2    8.10    0.86 
  -1   4   2    8.16    0.77 
  -1   5   2   21.01    1.86 
  -1   5   2   18.89    1.63 
  -1   5   2   19.06    1.33 
   1  -5  -2   19.19    1.86 
   1  -6  -2    2.88    0.62 
  -1   7   2    7.02    0.76 
   0  -7   2    1.29    0.59 
   0  -6   2   49.45    4.51 
   0  -5   2    2.99    0.55 
   0  -4   2   27.63    2.26 
   0  -4   2   29.00    2.59 
   0  -3   2   34.48    2.77 
   0  -3   2   35.04    3.14 
   0  -2   2   28.43    2.56 
   0  -2   2   28.40    2.27 
   0  -1   2   75.95    6.37 
   0  -1   2   66.32    5.65 
   0   0   2  149.65   14.65 
   0   0   2  154.94   12.97 
   0   0  -2  186.23   14.65 
   0   1   2   50.72    4.46 
   0   1   2   44.06    3.96 
   0  -1  -2   54.23    4.46 
   0   2   2  113.92   10.57 
   0   2   2  123.91    9.38 
   0   2   2  116.96    7.54 
   0   3   2   36.59    3.54 
   0   3   2   38.01    2.52 
   0   3   2   39.95    3.14 
   0  -3  -2   42.70    3.55 
   0   4   2   18.43    1.73 
   0   4   2   18.84    1.53 
   0   4   2   18.70    1.24 
   0   5   2   16.49    1.37 
   0   5   2   17.54    1.13 
   0  -5  -2   15.12    1.57 
   0  -6  -2    7.00    0.83 
   0  -7  -2    2.56    0.53 
   1  -5   2    5.70    0.77 
   1  -4   2    6.13    0.54 
   1  -3   2   18.84    1.52 
   1  -3   2   21.45    1.73 
  -1   3  -2   16.02    1.53 
   1  -2   2  110.72   10.39 
   1  -2   2  121.58    9.22 
  -1   2  -2  116.28    9.22 
   1  -1   2  482.21   44.33 
   1  -1   2  535.89   39.34 
  -1   1  -2  469.43   39.33 
   1   0   2  202.91   17.47 
  -1   0  -2  177.33   15.50 
  -1   0  -2  204.35   17.47 
  -1  -2  -2   20.56    2.05 
  -1  -2  -2   24.50    2.05 
   1   3   2  189.87   11.74 
   1   3   2  172.52   14.61 
  -1  -3  -2  190.57   16.47 
   1   4   2   14.92    1.45 
   1   4   2   15.33    1.04 
   1   4   2   14.70    1.29 
  -1  -4  -2   17.54    1.45 
   1   5   2   28.78    2.14 
   1   5   2   26.74    1.74 
  -1  -5  -2   23.87    2.43 
  -1  -6  -2    9.14    1.00 
  -1  -7  -2    2.34    0.52 
  -1  -8  -2    1.45    0.53 
   2  -5   2    1.35    0.25 
  -2   5  -2    0.31    0.53 
   2  -4   2   14.70    1.40 
  -2   4  -2   13.87    1.24 
  -2   4  -2   14.71    1.46 
  -2   3  -2    0.06    0.36 
   2  -2   2  101.35    8.90 
  -2   2  -2  108.43    8.91 
  -2   2  -2   88.38    7.89 
   2  -1   2   68.27    5.49 
  -2   1  -2   61.50    4.87 
  -2   1  -2   58.81    5.49 
  -2   1  -2   56.10    5.48 
  -2   0  -2   68.14    6.10 
   2   1   2  341.15   29.22 
  -2  -1  -2  395.43   29.25 
  -2  -2  -2   68.78    6.17 
   2   3   2   21.74    1.64 
  -2  -3  -2   18.54    1.82 
   2   4   2   31.65    2.61 
  -2  -4  -2   33.10    2.93 
  -2  -5  -2    2.67    0.40 
  -2  -6  -2    7.27    0.80 
  -2  -7  -2    3.74    0.63 
  -2  -8  -2    3.08    0.66 
  -2  -9  -2    1.67    0.63 
  -3   5  -2    1.76    0.66 
  -3   4  -2   11.57    1.27 
  -3   4  -2   12.09    1.06 
  -3   3  -2   11.97    1.26 
  -3   3  -2   13.23    1.10 
  -3   2  -2   27.85    2.42 
  -3   2  -2   32.05    2.74 
  -3   1  -2  138.72   12.74 
  -3   1  -2  143.65   12.74 
  -3   1  -2  145.05   11.31 
  -3   0  -2   62.71    5.40 
  -3   0  -2   57.92    5.40 
   3   1   2  205.22   16.06 
  -3  -1  -2  200.03   16.06 
   3   2   2  104.99    7.41 
  -3  -2  -2   81.52    7.40 
   3   3   2   42.59    3.40 
  -3  -3  -2   42.54    3.83 
   3   4   2   45.77    3.55 
  -3  -4  -2   42.88    3.98 
  -3  -5  -2   12.74    1.19 
  -3  -6  -2    5.93    0.70 
  -3  -7  -2    8.33    0.92 
  -3  -8  -2    2.32    0.53 
  -3  -9  -2    0.78    0.54 
  -4   5  -2    1.49    0.72 
  -4   4  -2   10.85    1.05 
  -4   3  -2   15.52    1.21 
  -4   3  -2   11.38    1.34 
  -4   2  -2   13.61    1.10 
  -4   2  -2   11.01    1.19 
  -4   1  -2   28.82    2.39 
  -4   1  -2   29.85    2.66 
  -4   0  -2   10.37    0.96 
  -4   0  -2   10.55    1.03 
  -4   0  -2   11.90    1.02 
  -4  -1  -2   21.47    1.76 
   4   2   2   33.84    2.83 
  -4  -2  -2   36.54    2.83 
   4   3   2   27.86    2.07 
  -4  -3  -2   23.03    2.07 
   4   4   2    7.79    0.69 
  -4  -4  -2    6.20    0.79 
  -4  -5  -2   10.01    0.96 
  -4  -6  -2    2.12    0.46 
  -4  -7  -2    1.36    0.41 
  -4  -8  -2    2.02    0.51 
  -5   5  -2    2.42    0.49 
  -5   5  -2    1.70    0.82 
  -5   4  -2    5.88    0.87 
  -5   4  -2    5.61    0.88 
  -5   3  -2   16.17    1.55 
  -5   3  -2   18.82    1.74 
  -5   2  -2   14.60    1.45 
  -5   2  -2   15.08    1.34 
  -5   1  -2    8.84    0.85 
  -5   0  -2    2.61    0.44 
  -5  -1  -2   51.84    4.16 
   5   2   2    8.19    0.79 
  -5  -2  -2    9.01    0.81 
   5   3   2  140.63   10.91 
  -5  -3  -2  134.13   10.91 
   5   4   2   31.51    2.78 
  -5  -4  -2   34.69    2.80 
  -5  -4  -2   36.52    3.09 
  -5  -5  -2   57.40    5.16 
  -5  -6  -2   20.57    1.91 
  -5  -7  -2    4.50    0.61 
  -5  -8  -2    4.26    0.65 
  -6   5  -2    0.75    0.86 
  -6   5  -2    0.72    0.51 
  -6   4  -2    0.67    0.47 
  -6   4  -2    0.81    0.71 
  -6   3  -2    2.99    0.55 
  -6   3  -2    3.16    0.73 
  -6   2  -2    7.59    0.89 
  -6   2  -2    7.05    0.89 
  -6   1  -2    8.40    0.95 
  -6   1  -2    9.51    0.96 
  -6   0  -2   10.82    1.01 
  -6   0  -2    9.62    1.00 
  -6  -1  -2   19.90    1.71 
  -6  -1  -2   19.29    1.84 
  -6  -1  -2   21.15    1.84 
   6   2   2    6.52    0.68 
  -6  -2  -2    6.04    0.70 
   6   3   2   51.28    3.84 
  -6  -3  -2   43.95    3.84 
   6   4   2    4.26    0.59 
  -6  -4  -2    3.83    0.64 
  -6  -5  -2   14.54    1.35 
  -6  -6  -2    1.79    0.40 
  -6  -7  -2    3.83    0.60 
  -7   4  -2    0.94    0.56 
  -7   4  -2    1.23    0.86 
  -7   3  -2    0.67    0.52 
  -7   3  -2    0.89    0.73 
  -7   2  -2    1.06    0.49 
  -7   2  -2    1.75    0.65 
  -7   1  -2    2.32    0.55 
  -7   1  -2    2.04    0.48 
  -7   0  -2    4.42    0.61 
  -7   0  -2    3.62    0.72 
  -7  -1  -2    0.99    0.36 
  -7  -1  -2    0.47    0.36 
   7   2   2    2.07    0.41 
   7   3   2    3.29    0.54 
  -7  -3  -2    1.97    0.40 
   7   4   2    1.07    0.37 
  -7  -4  -2    1.14    0.35 
  -7  -5  -2    4.19    0.50 
  -7  -6  -2    2.20    0.43 
  -7  -7  -2    0.30    0.41 
  -8   3  -2    0.67    0.82 
  -8   2  -2    1.29    0.60 
  -8   2  -2    1.88    0.77 
  -8   1  -2    2.54    0.65 
  -8   1  -2    1.29    0.55 
  -8   0  -2    7.13    0.87 
  -8   0  -2    6.80    0.95 
  -8  -1  -2    2.03    0.48 
  -8  -1  -2    2.87    0.49 
   8   2   2    2.66    0.49 
  -8  -2  -2    2.84    0.47 
   8   3   2    2.53    0.47 
  -8  -3  -2    2.26    0.47 
  -9   0  -2   -0.39    0.53 
  -9   0  -2    0.22    0.66 
   9   1   2    2.02    0.60 
  -9  -1  -2    1.70    0.57 
  -9  -1  -2    1.97    0.56 
   9   2   2   -0.17    0.51 
  -9  -2  -2   -0.57    0.48 
  -9  -2  -2    0.53    0.44 
   9   3   2    0.79    0.54 
  -9  -3  -2    1.07    0.51 
  -8  -4   3    0.22    0.78 
  -8  -3   3   -0.64    0.86 
  -8  -2   3    1.04    0.58 
  -8  -2   3   -1.39    0.96 
  -8  -1   3    0.91    0.56 
  -8  -1   3   -1.41    1.09 
  -8   0   3   -0.56    1.00 
  -8   0   3    1.30    0.59 
  -8   1   3   -0.30    0.63 
  -8   1   3   -0.27    0.99 
  -7  -5   3    2.39    0.80 
  -7  -4   3    0.29    0.66 
  -7   1   3    2.97    0.60 
  -7   1   3    0.74    0.92 
  -7   2   3    0.76    0.58 
  -7   2   3    0.55    0.75 
  -7   3   3   -0.22    0.86 
  -7   3   3   -0.58    0.62 
  -6  -6   3    0.17    0.69 
  -6  -5   3    4.26    0.82 
  -6  -4   3    0.72    0.60 
  -6  -3   3    4.10    0.74 
  -6  -3   3    3.69    0.76 
  -6   2   3    4.10    0.97 
  -6   2   3    6.15    0.91 
  -6   3   3    1.96    0.59 
  -6   3   3    1.98    0.75 
  -6   4   3    0.39    0.87 
  -6   4   3    0.02    0.59 
  -6   5   3    0.43    0.96 
  -6   5   3   -0.31    0.58 
  -5  -7   3    1.66    0.64 
  -5  -6   3    0.80    0.57 
  -5  -5   3    8.48    1.00 
  -5  -4   3    4.91    0.73 
  -5  -3   3   17.90    1.88 
  -5  -3   3   22.01    1.71 
  -5  -2   3   12.09    1.24 
  -5   1   3   15.39    1.29 
  -5   1   3   11.08    1.58 
  -5   2   3    4.06    0.81 
  -5   3   3    3.18    0.55 
  -5   3   3    3.30    0.71 
  -5   4   3    1.12    0.74 
  -5   4   3    0.30    0.48 
  -5   5   3    1.27    0.53 
  -5   5   3    1.46    0.84 
  -5   6   3    0.53    0.53 
  -4  -8   3    0.93    0.65 
  -4  -7   3    3.08    0.69 
  -4  -6   3    2.01    0.51 
  -4  -5   3   14.55    1.43 
  -4  -4   3   22.99    2.14 
  -4  -3   3   13.08    1.25 
  -4  -2   3   24.10    2.00 
  -4  -2   3   24.29    2.22 
  -4  -1   3   41.89    3.46 
  -4  -1   3   34.45    3.09 
  -4   0   3   23.69    2.16 
  -4   0   3   28.61    2.40 
  -4   2   3    6.70    0.77 
  -4   2   3    5.12    0.98 
  -4   3   3   28.68    2.38 
  -4   3   3   27.83    2.66 
  -4   4   3    0.18    0.40 
  -4   4   3    0.09    0.63 
  -4   5   3    9.72    1.23 
  -4   5   3    8.79    1.12 
  -4   6   3    0.80    0.49 
  -3  -8   3    3.95    0.83 
  -3  -7   3    4.64    0.71 
  -3  -6   3    1.27    0.45 
  -3  -5   3   14.91    1.44 
  -3  -4   3    8.45    0.87 
  -3  -3   3   14.34    1.33 
  -3  -2   3   95.41    7.14 
  -3  -2   3   84.15    8.06 
  -3  -1   3   91.14    7.60 
  -3  -1   3   99.95    8.56 
  -3   0   3   47.13    4.29 
  -3   1   3   26.20    2.67 
  -3   1   3   30.76    1.85 
  -3   2   3   29.22    2.73 
  -3   3   3   23.19    1.96 
  -3   3   3   23.49    2.20 
  -3   4   3   47.80    3.14 
  -3   4   3   51.26    4.44 
  -3   4   3   46.29    3.92 
  -3   5   3    4.93    0.76 
  -3   5   3    5.40    0.61 
  -3   5   3    6.00    0.91 
  -3   6   3    7.69    0.97 
  -2  -8   3    1.42    0.65 
  -2  -7   3    4.78    0.78 
  -2  -6   3    2.48    0.53 
  -2  -5   3    7.47    0.80 
  -2  -4   3   31.08    2.07 
  -2  -4   3   33.30    2.93 
  -2  -3   3   25.61    2.24 
  -2  -3   3   25.21    1.98 
  -2  -3   3   22.89    1.58 
  -2  -2   3   60.23    4.80 
  -2  -1   3   72.46    5.01 
  -2  -1   3   78.52    7.04 
  -2  -1   3   84.46    7.04 
  -2   0   3   66.10    4.22 
  -2   1   3   55.93    3.16 
   2  -1  -3   42.56    4.43 
  -2   2   3  158.74   10.18 
  -2   2   3  168.69   12.69 
   2  -2  -3  151.92   14.29 
  -2   3   3   57.05    4.58 
  -2   3   3   57.50    5.16 
  -2   3   3   56.63    3.67 
  -2   4   3   49.60    4.42 
  -2   4   3   47.87    3.92 
  -2   4   3   47.76    3.15 
   2  -4  -3   49.33    4.42 
  -2   5   3   16.43    1.22 
  -2   5   3   19.09    1.73 
  -2   5   3   16.70    1.50 
  -2   6   3    4.63    0.62 
  -2   6   3    3.64    0.69 
  -1  -8   3    1.02    0.63 
  -1  -7   3    3.80    0.78 
  -1  -6   3    7.61    0.88 
  -1  -5   3   12.54    1.23 
  -1  -4   3   26.07    2.39 
  -1  -3   3   85.28    6.90 
  -1  -3   3   88.55    7.79 
  -1  -2   3   10.91    1.03 
  -1  -2   3   12.02    1.15 
   1   2  -3   13.35    1.14 
  -1  -1   3  265.69   21.27 
  -1  -1   3  271.08   23.98 
  -1   0   3   34.36    2.43 
  -1   0   3   25.87    2.73 
  -1   1   3    6.85    0.69 
  -1   1   3    8.59    0.55 
  -1   2   3  168.94   12.60 
  -1   2   3  161.88   10.12 
  -1   2   3  144.85   14.21 
   1  -2  -3  159.23   14.20 
  -1   3   3    4.18    0.52 
  -1   3   3    3.97    0.51 
  -1   3   3    4.30    0.38 
  -1   4   3   90.20    6.04 
  -1   4   3   96.48    8.49 
  -1   4   3   95.82    7.52 
   1  -4  -3   95.29    8.48 
  -1   5   3    8.85    0.90 
  -1   5   3    9.77    0.73 
   1  -5  -3    9.74    1.02 
  -1   6   3   24.89    2.17 
  -1   6   3   26.86    1.77 
   1  -6  -3   26.71    2.46 
  -1   7   3    0.53    0.34 
   0  -6   3   11.27    1.21 
   0  -5   3   31.28    2.88 
   0  -4   3   21.69    1.95 
   0  -4   3   20.67    1.72 
   0  -3   3   61.56    5.00 
   0  -3   3   64.22    5.65 
   0  -2   3   51.97    4.43 
   0  -2   3   46.46    3.93 
   0  -1   3   73.09    6.50 
   0  -1   3   90.30    7.33 
   0   0   3  210.45   17.84 
   0   0   3  189.51   15.82 
   0   0  -3  197.82   17.87 
   0   1   3  150.66   11.82 
   0   1   3  140.77   13.32 
   0  -1  -3  155.07   13.32 
   0   2   3  151.87   12.21 
   0   2   3  157.54   13.76 
   0  -2  -3  152.12   13.75 
   0   3   3  112.55    7.23 
   0   3   3  116.20   10.15 
   0   3   3  120.23    9.01 
   0  -3  -3  104.55   10.15 
   0   4   3   31.54    2.16 
   0   4   3   33.47    2.69 
   0   4   3   33.88    3.04 
   0  -4  -3   34.66    3.03 
   0   5   3   23.95    1.91 
   0   5   3   23.85    1.55 
   0  -5  -3   21.79    2.15 
   0  -6  -3   12.44    1.27 
   0  -7  -3    4.10    0.70 
   1  -5   3   30.74    2.85 
   1  -4   3    6.22    0.61 
   1  -4   3    7.48    0.75 
  -1   4  -3    5.54    0.62 
   1  -3   3   52.18    4.16 
  -1   2  -3    1.72    0.31 
   1  -1   3  169.01   13.94 
   1  -1   3  142.89   12.36 
   1   1   3  179.39   14.02 
   1   1   3  183.50   15.80 
  -1  -1  -3  186.64   15.80 
  -1  -1  -3  156.92   15.80 
   1   2   3   16.15    1.40 
   1   2   3   17.46    1.53 
   1   3   3  140.53   11.64 
   1   3   3  121.59   10.34 
   1   3   3  139.06    8.30 
  -1  -3  -3  119.36   11.64 
   1   4   3   28.56    1.78 
   1   4   3   28.07    2.22 
   1   4   3   28.18    2.49 
  -1  -4  -3   24.53    2.49 
   1   5   3   23.10    1.73 
  -1  -5  -3   18.95    1.94 
  -1  -6  -3    8.86    0.95 
  -1  -7  -3    4.72    0.74 
  -1  -8  -3    0.43    0.48 
   2  -5   3   10.24    0.92 
  -2   5  -3    9.70    0.92 
   2  -4   3   14.98    1.30 
   2  -4   3   15.35    1.49 
  -2   4  -3   15.51    1.30 
   2  -3   3   66.01    5.98 
   2  -3   3   74.15    6.75 
  -2   3  -3   85.17    5.99 
   2  -2   3   63.23    5.14 
   2  -2   3   64.13    5.79 
  -2   2  -3   65.99    5.14 
   2  -1   3   55.00    4.73 
   2  -1   3   50.06    4.19 
  -2   0  -3  170.92   14.96 
  -2   0  -3  206.62   16.87 
   2   1   3  164.20   11.46 
  -2  -1  -3  124.83   12.91 
   2   2   3  272.79   21.58 
  -2  -2  -3  271.60   24.31 
  -2  -3  -3   22.83    1.81 
  -2  -3  -3   16.59    1.80 
   2   4   3  103.32    8.06 
  -2  -4  -3   99.10    9.06 
   2   5   3   16.46    1.48 
  -2  -5  -3   18.75    1.65 
  -2  -6  -3   23.02    2.14 
  -2  -7  -3    4.67    0.71 
  -2  -8  -3    4.33    0.70 
  -2  -9  -3    0.70    0.54 
   3  -5   3    5.48    0.66 
  -3   5  -3    5.10    0.67 
   3  -4   3   12.85    1.06 
  -3   4  -3   10.88    1.08 
   3  -3   3   36.99    3.01 
  -3   3  -3   37.88    3.03 
   3  -2   3   50.35    4.11 
  -3   2  -3   52.37    4.12 
  -3   1  -3   26.26    2.44 
  -3   1  -3   27.59    2.19 
  -3   0  -3  141.22   12.63 
  -3  -1  -3   34.07    3.06 
  -3  -2  -3   39.69    3.55 
   3   3   3   84.67    6.92 
  -3  -3  -3   89.29    7.80 
  -3  -4  -3   12.60    1.17 
   3   5   3   20.08    1.61 
  -3  -5  -3   17.21    1.72 
  -3  -6  -3   10.95    1.08 
  -3  -7  -3    1.98    0.47 
  -3  -8  -3    1.10    0.46 
  -3  -9  -3    1.04    0.57 
   4  -5   3    1.70    0.38 
  -4   5  -3    1.27    0.79 
  -4   5  -3    1.97    0.38 
   4  -4   3    1.15    0.33 
  -4   4  -3    1.16    0.66 
  -4   4  -3    1.22    0.32 
  -4   3  -3    7.55    0.94 
  -4   3  -3    6.33    0.73 
  -4   1  -3    8.51    0.85 
  -4   1  -3    8.41    0.77 
   4   0   3  119.34    8.43 
  -4   0  -3  101.05    9.49 
  -4   0  -3   97.79    8.43 
   4   1   3   22.51    1.79 
  -4  -1  -3   21.20    1.80 
   4   2   3   86.77    7.35 
  -4  -2  -3   98.02    7.36 
   4   3   3   19.85    1.57 
  -4  -3  -3   17.62    1.57 
   4   4   3   97.00    8.35 
  -4  -4  -3  113.01    9.41 
  -4  -5  -3    7.35    0.76 
  -4  -6  -3   27.95    2.56 
  -4  -7  -3    4.31    0.63 
  -4  -8  -3    2.11    0.53 
   5  -5   3    0.18    0.39 
  -5   5  -3    0.17    0.36 
  -5   5  -3    0.68    0.87 
  -5   4  -3    0.92    0.37 
  -5   4  -3    0.34    0.71 
  -5   2  -3   22.60    2.11 
  -5   2  -3   22.03    1.88 
  -5   1  -3   21.33    1.98 
   5   0   3   47.24    3.56 
  -5   0  -3   41.42    3.99 
   5   1   3   60.24    4.74 
  -5  -1  -3   59.48    4.74 
  -5  -1  -3   57.90    5.32 
   5   2   3   99.81    8.00 
  -5  -2  -3  101.16    8.00 
   5   3   3   14.89    1.15 
  -5  -3  -3   10.70    1.18 
   5   4   3   74.50    6.30 
  -5  -4  -3   89.61    7.08 
  -5  -4  -3   72.50    6.30 
  -5  -5  -3    7.88    0.80 
  -5  -6  -3    7.07    0.76 
  -5  -7  -3    3.11    0.57 
  -5  -8  -3    1.13    0.48 
   6  -5   3    0.29    0.50 
  -6   5  -3    0.13    0.43 
  -6   5  -3    0.62    0.94 
  -6   4  -3    1.32    0.84 
  -6   4  -3    0.57    0.45 
  -6   3  -3    0.45    0.65 
  -6   3  -3    1.38    0.42 
  -6   2  -3    2.83    0.66 
  -6   2  -3    2.32    0.44 
  -6   1  -3   19.24    1.51 
  -6   1  -3   15.45    1.66 
  -6   0  -3   10.15    0.92 
  -6   0  -3    8.76    0.95 
   6   1   3   20.60    1.95 
  -6  -1  -3   26.37    1.97 
  -6  -1  -3   23.82    2.15 
   6   2   3   14.09    1.28 
  -6  -2  -3   15.73    1.31 
   6   3   3   41.34    3.64 
  -6  -3  -3   48.82    3.65 
   6   4   3    6.28    0.77 
  -6  -4  -3    7.25    0.84 
  -6  -5  -3   13.95    1.31 
  -6  -6  -3    1.92    0.38 
  -6  -7  -3    2.21    0.49 
   7  -4   3   -0.33    0.53 
  -7   4  -3    0.33    0.85 
  -7   4  -3    0.14    0.52 
  -7   3  -3    0.46    0.78 
  -7   3  -3    0.12    0.46 
  -7   2  -3    1.41    0.45 
  -7   2  -3    0.34    0.65 
  -7   1  -3    2.20    0.46 
  -7   1  -3    2.62    0.62 
   7   0   3    7.31    0.87 
  -7   0  -3    8.83    0.90 
  -7   0  -3    7.21    0.87 
   7   1   3    7.45    0.86 
  -7  -1  -3    8.08    0.80 
  -7  -1  -3    6.85    0.83 
   7   2   3    8.71    0.91 
  -7  -2  -3    9.69    0.98 
   7   3   3    4.51    0.69 
  -7  -3  -3    4.57    0.68 
   7   4   3    1.35    0.41 
  -7  -4  -3    2.41    0.43 
  -7  -5  -3    1.91    0.38 
  -7  -6  -3    0.58    0.33 
  -7  -7  -3    0.89    0.44 
  -8   3  -3    0.59    0.89 
   8  -2   3    0.15    0.57 
  -8   2  -3    0.61    0.75 
  -8   2  -3    0.25    0.51 
   8  -1   3    0.64    0.51 
  -8   1  -3    0.17    0.66 
  -8   1  -3    0.57    0.48 
   8   0   3    0.27    0.46 
  -8   0  -3    0.59    0.56 
  -8   0  -3    0.21    0.42 
   8   1   3    4.11    0.71 
  -8  -1  -3    3.24    0.60 
  -8  -1  -3    3.39    0.68 
   8   2   3    0.62    0.42 
  -8  -2  -3    1.32    0.44 
  -8  -2  -3    2.05    0.40 
   8   3   3    4.15    0.76 
  -8  -3  -3    3.90    0.81 
  -8  -4  -3    1.23    0.47 
   9   0   3   -0.13    0.57 
  -9   0  -3   -0.05    0.51 
  -9   0  -3    0.03    0.72 
   9   1   3    0.25    0.53 
  -9  -1  -3   -0.21    0.60 
  -9  -1  -3    0.01    0.46 
   9   2   3    1.36    0.51 
  -9  -2  -3    1.26    0.48 
  -9  -2  -3    0.33    0.52 
   9   3   3    2.25    0.55 
  -9  -3  -3    1.37    0.50 
  -8  -3   4   -0.49    0.97 
  -8  -2   4   -0.97    1.03 
  -8  -2   4    0.61    0.56 
  -8  -1   4    2.52    0.63 
  -8   0   4   -1.71    1.22 
  -8   0   4   -0.06    0.59 
  -8   1   4    2.03    1.24 
  -7  -5   4    0.40    0.88 
  -7  -4   4    0.60    0.74 
  -7  -3   4    1.19    0.49 
  -7  -3   4   -0.37    0.83 
  -7  -2   4    1.25    0.47 
  -7  -2   4   -0.51    0.94 
  -7  -1   4   -0.82    0.99 
  -7  -1   4    1.75    0.52 
  -7   0   4   -0.27    0.49 
  -7   1   4    0.93    1.22 
  -7   2   4   -1.08    1.09 
  -7   2   4    0.16    0.61 
  -7   3   4   -0.11    1.01 
  -7   3   4    0.22    0.64 
  -6  -6   4    1.35    0.87 
  -6  -5   4    1.91    0.81 
  -6  -4   4    1.62    0.75 
  -6  -3   4    7.48    1.02 
  -6  -1   4    7.68    0.98 
  -6   0   4   -0.74    1.06 
  -6   1   4    2.58    0.53 
  -6   1   4    0.53    1.15 
  -6   2   4    3.33    1.22 
  -6   2   4    3.78    0.64 
  -6   3   4    2.51    0.64 
  -6   3   4    2.62    1.00 
  -6   4   4    0.47    0.96 
  -6   4   4    0.17    0.63 
  -5  -7   4    0.58    0.75 
  -5  -6   4    3.71    0.81 
  -5  -5   4    6.21    0.92 
  -5  -4   4    6.62    0.93 
  -5  -3   4    9.88    1.15 
  -5  -2   4   11.12    1.06 
  -5  -1   4   -0.61    0.68 
  -5   0   4   12.48    1.19 
  -5   1   4   10.20    1.07 
  -5   2   4   12.75    1.27 
  -5   3   4   11.40    1.19 
  -5   3   4    9.97    1.33 
  -5   4   4    9.14    1.37 
  -5   4   4    9.35    1.14 
  -5   5   4    6.51    1.22 
  -5   5   4    5.93    1.10 
  -5   6   4    1.65    0.58 
  -4  -7   4    0.90    0.61 
  -4  -6   4    5.82    0.82 
  -4  -5   4   15.38    1.54 
  -4  -4   4    5.97    0.77 
  -4  -3   4   31.93    2.45 
  -4  -3   4   27.94    2.76 
  -4  -2   4    4.32    0.58 
  -4  -2   4    3.46    0.64 
  -4  -1   4   28.92    2.71 
  -4   1   4   41.15    3.89 
  -4   2   4   22.22    1.47 
  -4   3   4   17.99    1.24 
  -4   3   4   18.16    1.24 
  -4   4   4   40.14    3.61 
  -4   4   4   36.68    3.18 
  -4   5   4   14.58    1.64 
  -4   5   4   12.40    1.34 
  -4   6   4   12.30    1.36 
  -3  -8   4    1.40    0.72 
  -3  -7   4    2.26    0.64 
  -3  -6   4    4.52    0.73 
  -3  -5   4    7.08    0.85 
  -3  -4   4   34.08    3.11 
  -3  -3   4   30.68    2.54 
  -3  -3   4   32.08    2.87 
  -3  -2   4   91.82    8.10 
  -3  -2   4   88.41    8.06 
  -3  -2   4   89.20    7.15 
  -3  -1   4   63.40    4.04 
  -3  -1   4   64.72    5.70 
  -3  -1   4   61.96    5.07 
  -3   0   4   93.90    5.64 
  -3   0   4   79.07    7.97 
  -3   0   4   92.16    7.06 
  -3   1   4   18.30    1.19 
  -3   2   4   37.26    2.53 
  -3   2   4   41.13    3.19 
  -3   3   4   19.61    1.76 
  -3   3   4   14.76    1.19 
  -3   3   4   18.69    1.54 
  -3   4   4   20.28    1.86 
  -3   4   4   22.91    2.12 
  -3   5   4    4.86    0.59 
  -3   5   4    3.73    0.73 
  -3   6   4    2.48    0.50 
  -2  -8   4    1.34    0.70 
  -2  -7   4    2.45    0.64 
  -2  -6   4    0.98    0.46 
  -2  -5   4    9.23    1.00 
  -2  -4   4    5.07    0.66 
  -2  -3   4   15.37    1.11 
  -2  -3   4   18.33    1.59 
  -2  -2   4   56.26    4.83 
  -2  -2   4   50.75    4.28 
  -2  -1   4   50.18    3.78 
  -2  -1   4   43.95    4.25 
  -2   0   4  101.10   10.57 
  -2   0   4  105.20    7.52 
  -2   0   4  135.01    9.38 
   2   0  -4  130.33   10.56 
  -2   1   4   54.47    5.11 
  -2   1   4   69.20    4.10 
   2  -1  -4   68.21    5.75 
  -2   2   4   21.18    1.62 
  -2   2   4   20.18    1.28 
   2  -2  -4   16.63    1.79 
  -2   3   4   56.13    4.91 
  -2   3   4   52.16    4.34 
  -2   3   4   51.46    3.47 
   2  -3  -4   56.07    4.88 
  -2   4   4    5.93    0.80 
  -2   4   4    4.96    0.75 
  -2   4   4    5.81    0.54 
  -2   5   4   11.54    1.14 
  -2   5   4   11.99    0.91 
  -2   6   4    2.93    0.47 
  -2   6   4    4.08    0.55 
  -2   7   4    1.81    0.43 
  -1  -7   4    5.76    0.88 
  -1  -6   4    1.85    0.54 
  -1  -5   4   59.67    5.39 
  -1  -4   4   24.73    2.14 
  -1  -4   4   27.91    2.43 
  -1  -3   4   81.97    6.90 
  -1  -3   4   91.22    7.77 
  -1  -2   4  233.61   18.57 
   1   2  -4  181.75   18.56 
  -1  -1   4   45.39    3.35 
   1   1  -4   37.83    3.75 
  -1   0   4  423.46   32.17 
   1   0  -4  387.20   36.27 
  -1   2   4  311.30   23.43 
  -1   2   4  279.31   18.81 
   1  -2  -4  295.77   26.40 
  -1   3   4   55.66    4.99 
  -1   3   4   50.82    3.55 
  -1   3   4   54.71    4.43 
   1  -3  -4   59.84    4.99 
  -1   4   4   61.07    5.40 
  -1   4   4   60.18    4.80 
  -1   4   4   56.79    3.84 
   1  -4  -4   60.88    5.39 
  -1   5   4    1.57    0.34 
  -1   5   4    2.95    0.44 
   1  -5  -4    2.51    0.54 
  -1   6   4    1.99    0.37 
  -1   6   4    2.02    0.32 
   0  -6   4    1.10    0.53 
   0  -5   4   25.69    2.40 
   0  -1   4   61.58    4.92 
   0   0   4   29.62    2.85 
   0   0  -4   32.88    2.84 
   0   1   4  174.32   15.26 
   0  -1  -4  166.79   15.26 
   0   2   4   44.69    3.97 
   0   2   4   55.47    4.47 
   0  -2  -4   48.08    4.45 
   0   3   4   22.53    2.05 
   0   3   4   21.87    1.87 
   0   3   4   22.67    1.47 
   0   4   4   18.44    1.73 
   0   4   4   18.68    1.24 
   0   4   4   18.20    1.57 
   0  -4  -4   18.70    1.73 
   0   5   4    1.80    0.33 
   0   5   4    2.50    0.37 
   0  -5  -4    2.52    0.46 
   0   6   4    3.10    0.55 
   0  -6  -4    1.87    0.48 
   0  -7  -4    3.27    0.74 
   1  -5   4    1.98    0.53 
   1  -4   4    7.04    0.71 
   1  -4   4    7.42    0.84 
   1  -3   4   37.81    3.48 
   1  -3   4   38.87    3.08 
   1  -2   4   24.18    2.15 
   1  -2   4   22.31    1.90 
   1  -1   4  250.46   22.32 
   1  -1   4  313.05   25.18 
   1   0   4   47.02    3.89 
   1   0   4   39.12    3.46 
   1   1   4  255.07   19.43 
   1   1   4  229.38   21.89 
  -1  -1  -4  250.73   21.92 
   1   2   4  156.47   12.53 
   1   2   4  154.89   14.10 
  -1  -2  -4  161.81   14.12 
   1   3   4   58.32    5.12 
   1   3   4   64.72    5.75 
  -1  -3  -4   69.05    5.76 
   1   4   4   32.10    1.88 
   1   4   4   29.13    2.61 
   1   4   4   28.63    2.36 
  -1  -4  -4   24.89    2.61 
   1   5   4   19.23    1.56 
  -1  -5  -4   17.19    1.71 
  -1  -6  -4    0.59    0.37 
  -1  -7  -4    2.87    0.58 
  -1  -8  -4    1.98    0.56 
   2  -5   4    0.58    0.31 
   2  -4   4   15.14    1.22 
  -2   4  -4   12.22    1.20 
   2  -3   4   50.90    3.67 
   2  -3   4   45.63    4.13 
  -2   3  -4   40.02    3.65 
   2  -2   4  153.37   14.32 
   2  -2   4  173.15   12.71 
  -2   2  -4  153.63   12.70 
   2  -1   4  121.33   10.81 
   2  -1   4  132.88    9.60 
  -2   1  -4  107.91    9.59 
  -2   0  -4  427.93   38.22 
   2   1   4   37.23    3.00 
   2   2   4  463.92   36.84 
  -2  -2  -4  419.50   41.55 
  -2  -2  -4  511.16   41.58 
  -2  -3  -4   31.07    2.70 
  -2  -3  -4   28.07    2.72 
   2   4   4  101.40    8.36 
  -2  -4  -4  108.33    9.41 
   2   5   4    2.71    0.43 
  -2  -5  -4    3.94    0.50 
  -2  -6  -4   14.21    1.38 
  -2  -7  -4    0.38    0.41 
  -2  -8  -4    0.94    0.54 
  -2  -9  -4    0.37    0.60 
   3  -5   4    3.41    0.57 
  -3   5  -4    2.40    0.40 
   3  -4   4    9.33    0.94 
  -3   4  -4   10.31    0.96 
   3  -3   4   28.22    2.11 
  -3   3  -4   23.14    2.13 
   3  -2   4   21.96    2.04 
  -3   2  -4   27.91    2.06 
   3  -1   4  119.48    9.33 
  -3   1  -4  102.05   10.51 
  -3   1  -4  130.60    9.34 
  -3   0  -4   58.66    5.08 
  -3   0  -4   53.87    4.51 
   3   1   4  330.64   27.96 
  -3  -1  -4  345.95   27.96 
  -3  -1  -4  382.07   31.52 
   3   2   4   73.44    6.25 
  -3  -2  -4   83.33    7.02 
   3   3   4  121.08   11.22 
  -3  -3  -4  154.15   12.66 
  -3  -3  -4  148.51   12.63 
   3   4   4   16.95    1.55 
  -3  -4  -4   19.13    1.69 
   3   5   4   32.73    2.83 
  -3  -5  -4   35.80    3.13 
  -3  -6  -4    6.98    0.77 
  -3  -7  -4    7.30    0.86 
  -3  -8  -4    1.53    0.55 
   4  -5   4    1.33    0.39 
  -4   5  -4    1.28    0.38 
  -4   5  -4    0.45    0.81 
   4  -4   4    6.38    0.71 
  -4   4  -4    6.62    0.81 
   4  -3   4    5.15    0.64 
  -4   3  -4    5.09    0.66 
   4  -2   4   21.47    1.62 
  -4   2  -4   19.58    1.64 
  -4   2  -4   16.82    1.89 
   4  -1   4   26.46    2.18 
  -4   1  -4   26.97    2.20 
  -4  -1  -4   22.33    2.07 
   4   2   4  114.41    8.56 
  -4  -2  -4  102.32    9.60 
  -4  -2  -4  105.78    8.56 
   4   3   4   38.26    3.16 
  -4  -3  -4   37.93    3.51 
  -4  -3  -4   41.12    3.54 
   4   4   4   74.24    5.92 
  -4  -4  -4   73.87    6.68 
   4   5   4   14.78    1.41 
  -4  -5  -4   16.13    1.49 
  -4  -6  -4   24.81    2.30 
  -4  -7  -4    0.26    0.38 
  -4  -8  -4    2.64    0.59 
   5  -5   4    2.48    0.48 
  -5   5  -4    2.49    0.47 
  -5   5  -4    0.57    0.99 
   5  -4   4    4.08    0.69 
  -5   4  -4    4.29    0.70 
   5  -3   4   10.98    1.06 
  -5   3  -4   11.48    1.08 
   5  -2   4   11.80    1.16 
  -5   2  -4   14.13    1.18 
   5  -1   4   10.54    1.01 
  -5   1  -4   11.77    1.03 
   5   0   4   19.57    1.43 
  -5   0  -4   14.62    1.40 
   5   1   4   22.27    1.74 
  -5  -1  -4   20.37    1.96 
  -5  -1  -4   19.80    1.75 
   5   2   4    4.63    0.64 
  -5  -2  -4    5.06    0.49 
   5   3   4   38.97    3.24 
  -5  -3  -4   40.93    3.25 
   5   4   4   14.95    1.33 
  -5  -4  -4   14.75    1.47 
  -5  -5  -4   31.05    2.85 
  -5  -6  -4    2.72    0.53 
  -5  -7  -4    5.05    0.67 
  -5  -8  -4    1.17    0.54 
   6  -5   4    4.29    0.80 
  -6   5  -4    4.97    0.83 
   6  -4   4    0.75    0.44 
  -6   4  -4    1.04    0.42 
  -6   4  -4    1.23    0.94 
   6  -3   4   13.71    1.32 
  -6   3  -4   14.92    1.33 
   6  -2   4    4.09    0.66 
  -6   2  -4    4.09    0.66 
   6  -1   4   12.57    1.26 
  -6   1  -4   15.67    1.27 
   6   0   4   13.07    1.13 
  -6   0  -4   11.89    1.11 
   6   1   4   11.65    1.13 
  -6  -1  -4   13.59    1.15 
   6   2   4   21.63    1.75 
  -6  -2  -4   19.96    1.76 
   6   3   4    0.55    0.34 
  -6  -3  -4    0.00    0.34 
   6   4   4   25.07    1.90 
  -6  -4  -4   23.04    1.92 
  -6  -4  -4   18.80    2.04 
  -6  -5  -4    2.49    0.52 
  -6  -6  -4    7.87    0.86 
  -6  -7  -4    1.11    0.42 
   7  -4   4    0.40    0.53 
  -7   4  -4    0.67    0.97 
  -7   4  -4    0.91    0.53 
   7  -3   4    1.45    0.51 
  -7   3  -4    1.28    0.47 
  -7   3  -4    0.07    0.86 
   7  -2   4    0.84    0.46 
  -7   2  -4    1.54    0.44 
  -7   2  -4    0.51    0.71 
   7  -1   4    1.29    0.43 
  -7   1  -4    0.10    0.61 
  -7   1  -4    0.81    0.38 
   7   0   4    0.03    0.36 
  -7   0  -4   -0.39    0.50 
  -7   0  -4    0.10    0.36 
   7   1   4    7.89    0.78 
  -7  -1  -4    5.57    0.84 
  -7  -2  -4    1.57    0.37 
   7   3   4    9.92    0.93 
  -7  -3  -4    7.74    0.97 
   7   4   4   11.73    1.13 
  -7  -4  -4   11.09    1.21 
  -7  -5  -4    4.59    0.62 
  -7  -6  -4    3.81    0.58 
  -7  -7  -4    2.63    0.56 
   8  -2   4   -0.16    0.55 
  -8   2  -4   -0.17    0.49 
  -8   2  -4    0.10    0.80 
   8  -1   4    1.10    0.50 
  -8   1  -4   -0.01    0.72 
  -8   1  -4    1.66    0.49 
   8   0   4   -0.24    0.43 
  -8   0  -4    0.15    0.43 
  -8   0  -4   -0.30    0.61 
   8   1   4    0.47    0.43 
  -8  -1  -4   -0.70    0.52 
  -8  -1  -4    1.20    0.42 
   8   2   4    2.63    0.48 
  -8  -2  -4    1.73    0.44 
   8   3   4   -0.21    0.42 
  -8  -3  -4    0.27    0.42 
   8   4   4   12.75    1.24 
  -8  -4  -4   10.78    1.30 
  -9   0  -4   -0.12    0.74 
   9   1   4   -0.09    0.52 
  -9  -1  -4   -0.59    0.65 
  -9  -1  -4    0.22    0.48 
   9   2   4    1.02    0.53 
  -9  -2  -4    0.57    0.47 
   9   3   4    0.21    0.53 
  -9  -3  -4    0.55    0.53 
  -7  -4   5    0.69    0.91 
  -7  -3   5   -0.58    0.95 
  -7  -2   5    0.11    0.99 
  -7  -2   5    1.96    0.55 
  -7  -1   5   -0.56    1.11 
  -7   0   5    1.22    0.55 
  -7   0   5   -0.54    1.38 
  -7   1   5    1.73    0.63 
  -7   2   5    1.22    0.65 
  -7   2   5   -1.80    1.27 
  -6  -5   5    0.93    0.90 
  -6  -4   5    2.20    0.88 
  -6  -3   5    1.32    0.46 
  -6  -3   5    0.31    0.78 
  -6  -1   5    5.87    0.92 
  -6   1   5    1.93    1.34 
  -6   2   5    0.85    0.55 
  -6   3   5    1.41    0.62 
  -6   3   5   -0.19    1.17 
  -6   4   5   -1.25    1.18 
  -6   4   5    0.12    0.67 
  -5  -6   5    0.44    0.82 
  -5  -5   5    0.38    0.75 
  -5  -4   5    4.87    0.95 
  -5  -3   5    9.65    1.03 
  -5  -3   5    9.28    1.19 
  -5   0   5   23.30    2.01 
  -5   1   5   36.97    3.07 
  -5   2   5   12.38    1.18 
  -5   2   5    8.09    1.61 
  -5   3   5   16.23    1.56 
  -5   4   5    0.56    0.53 
  -5   4   5    0.19    0.92 
  -5   5   5    3.39    0.67 
  -4  -7   5    6.17    1.04 
  -4  -6   5    0.77    0.66 
  -4  -5   5    9.43    1.13 
  -4  -4   5   11.34    1.28 
  -4   3   5   20.65    1.85 
  -4   3   5   20.95    2.21 
  -4   4   5    5.46    1.08 
  -4   4   5    5.73    0.89 
  -4   4   5    5.45    0.63 
  -4   5   5    2.26    0.56 
  -4   5   5    2.44    0.44 
  -4   6   5   -0.04    0.49 
  -3  -7   5    0.83    0.69 
  -3  -6   5   11.33    1.24 
  -3  -5   5    1.82    0.54 
  -3  -4   5   26.84    2.52 
  -3  -3   5   21.75    1.77 
  -3  -3   5   20.50    2.00 
  -3  -2   5   25.93    2.28 
  -3  -2   5   23.11    2.01 
  -3  -2   5   23.61    1.58 
  -3  -1   5   28.15    2.83 
  -3  -1   5   31.59    2.52 
  -3  -1   5   31.73    1.98 
  -3   0   5   18.38    1.21 
  -3   1   5   20.20    1.54 
  -3   1   5   15.27    1.82 
  -3   2   5   15.09    1.47 
  -3   2   5   18.11    1.14 
  -3   3   5    8.78    0.69 
  -3   3   5    7.88    0.94 
  -3   3   5    8.23    1.23 
  -3   4   5    2.54    0.62 
  -3   4   5    1.47    0.31 
  -3   4   5    1.79    0.43 
  -3   5   5    0.53    0.33 
  -3   5   5   -0.04    0.39 
  -3   6   5    0.86    0.39 
  -3   6   5    0.38    0.41 
  -3   7   5    0.85    0.46 
  -2  -7   5    1.18    0.64 
  -2  -6   5   11.79    1.30 
  -2  -5   5    9.56    1.05 
  -2  -4   5   60.99    5.51 
  -2  -3   5   56.83    5.04 
  -2  -3   5   54.58    4.46 
  -2  -2   5   93.99    7.48 
  -2  -2   5   93.73    8.44 
  -2  -1   5   84.80    7.66 
  -2  -1   5   83.23    6.80 
   2   1  -5   87.35    7.65 
  -2   0   5   86.93    6.07 
  -2   0   5   69.43    4.86 
   2   0  -5   71.20    6.81 
  -2   1   5   70.36    4.88 
  -2   1   5   74.93    6.10 
   2  -1  -5   83.11    6.85 
  -2   2   5   58.54    3.90 
  -2   2   5   62.42    4.89 
  -2   2   5   65.57    5.53 
   2  -2  -5   56.23    5.47 
  -2   3   5   41.94    3.40 
  -2   3   5   40.61    2.70 
   2  -3  -5   42.48    3.79 
  -2   4   5   26.11    2.28 
  -2   4   5   29.06    2.57 
  -2   4   5   26.46    1.81 
  -2   5   5    6.69    0.62 
  -2   5   5    4.90    0.78 
  -2   6   5    2.11    0.44 
  -2   6   5    2.07    0.38 
  -2   7   5    0.44    0.39 
  -1  -7   5    1.24    0.66 
  -1  -6   5   21.01    2.04 
  -1  -5   5    6.72    0.85 
  -1  -4   5   79.57    7.16 
  -1  -3   5    5.08    0.62 
  -1  -3   5    3.60    0.49 
  -1  -2   5  131.19   10.95 
  -1  -2   5  141.71   12.33 
   1   2  -5  139.75   12.32 
  -1  -1   5    2.60    0.42 
  -1  -1   5    3.63    0.52 
  -1   0   5  134.77   12.39 
  -1   0   5  138.33   11.01 
   1   0  -5  141.49   12.38 
  -1   1   5   27.84    2.14 
   1  -1  -5   23.84    2.37 
  -1   2   5   34.46    2.86 
  -1   2   5   30.00    2.26 
   1  -2  -5   39.85    3.17 
  -1   3   5   38.12    3.06 
  -1   3   5   36.56    2.43 
  -1   4   5   10.90    1.06 
  -1   4   5   11.41    0.81 
  -1   4   5   11.41    1.15 
   1  -4  -5   10.17    1.11 
  -1   5   5    8.90    0.72 
  -1   5   5    8.30    0.92 
   1  -5  -5    7.93    0.92 
  -1   6   5    1.52    0.38 
  -1   6   5    1.78    0.31 
   0  -6   5    3.49    0.78 
   0  -5   5    3.79    0.70 
   0  -4   5   14.89    1.30 
   0  -4   5   13.98    1.39 
   0  -3   5   40.86    3.38 
   0  -3   5   42.42    3.79 
   0  -2   5   60.63    5.21 
   0  -2   5   69.47    5.87 
   0  -1   5   28.37    2.45 
   0  -1   5   31.29    2.73 
   0   0   5   79.47    6.69 
   0   0   5   86.30    7.52 
   0   0  -5   85.25    7.51 
   0   1   5    6.32    0.68 
   0  -1  -5    5.32    0.68 
   0   2   5   37.50    3.22 
   0   2   5   32.96    2.89 
   0   3   5   66.54    5.90 
   0   3   5   66.09    5.26 
   0   3   5   66.63    4.21 
   0  -3  -5   62.51    5.90 
   0   4   5   38.72    2.33 
   0   4   5   38.01    2.92 
   0  -4  -5   30.30    3.25 
   0   5   5   33.86    2.72 
   0   5   5   34.70    2.17 
   0  -5  -5   30.63    3.03 
   0   6   5    8.22    0.85 
   0  -6  -5    7.02    0.88 
   0  -7  -5    2.13    0.57 
   1  -4   5   17.93    1.73 
   1  -4   5   17.82    1.53 
   1  -3   5   54.80    4.29 
   1  -3   5   52.07    4.84 
   1  -2   5  114.23    8.92 
   1  -2   5  110.02   10.06 
   1  -1   5   95.28    7.49 
   1  -1   5   92.62    8.43 
   1   0   5  130.60   10.29 
   1   0   5  127.04   11.59 
  -1   0  -5  130.60   11.60 
   1   1   5  141.89   12.09 
   1   1   5  157.69   13.62 
  -1  -1  -5  156.95   13.62 
   1   2   5   41.22    3.77 
   1   2   5   42.11    3.38 
   1   3   5   76.75    7.39 
   1   3   5   81.55    6.59 
  -1  -3  -5   88.96    7.42 
   1   4   5   25.30    2.24 
   1   4   5   28.51    1.80 
   1   5   5   17.99    1.65 
  -1  -5  -5   19.84    1.80 
  -1  -6  -5   11.59    1.18 
  -1  -7  -5    4.24    0.72 
  -1  -8  -5    1.13    0.57 
   2  -2   5  167.26   16.80 
   2  -2   5  208.13   14.91 
   2  -1   5    0.66    0.28 
   2  -1   5    0.28    0.34 
  -2   1  -5    0.00    0.55 
   2   1   5   49.77    4.25 
  -2  -1  -5   56.25    4.82 
  -2  -2  -5  133.05   11.50 
  -2  -2  -5  123.55   11.49 
   2   3   5   80.42    7.18 
  -2  -3  -5   98.40    8.08 
  -2  -3  -5   91.06    8.11 
   2   4   5   18.80    1.84 
  -2  -4  -5   24.06    2.03 
   2   5   5   35.14    2.85 
  -2  -5  -5   33.53    3.14 
  -2  -6  -5    2.67    0.59 
  -2  -7  -5   12.19    1.26 
  -2  -8  -5    0.88    0.59 
   3  -5   5   11.28    1.16 
   3  -4   5    5.64    0.79 
  -3   4  -5    7.09    0.82 
   3  -3   5   42.84    3.82 
  -3   3  -5   51.98    3.85 
   3  -2   5    9.70    0.95 
   3  -1   5  119.60    9.98 
  -3   1  -5  131.19    9.98 
   3   0   5    5.52    0.63 
  -3   0  -5    4.08    0.70 
   3   1   5  156.50   12.24 
  -3  -1  -5  151.54   13.81 
  -3  -2  -5   15.05    1.42 
   3   3   5   57.92    4.80 
  -3  -3  -5   61.79    5.38 
  -3  -4  -5    5.41    0.70 
   3   5   5   42.70    3.20 
  -3  -5  -5   35.03    3.56 
  -3  -6  -5    0.55    0.42 
  -3  -7  -5   13.53    1.36 
  -3  -8  -5    0.50    0.53 
   4  -5   5    0.02    0.41 
  -4   5  -5    0.36    0.92 
  -4   5  -5    0.27    0.40 
   4  -4   5    7.09    0.86 
  -4   4  -5    7.67    0.86 
   4  -3   5    3.78    0.65 
  -4   3  -5    3.81    0.65 
   4  -2   5   13.36    1.32 
  -4   2  -5   17.02    1.36 
   4  -1   5   10.54    1.05 
  -4   1  -5   12.39    1.10 
  -4  -1  -5   22.28    1.90 
  -4  -2  -5   31.37    2.84 
   4   3   5   17.83    1.55 
  -4  -3  -5   17.66    1.67 
   4   4   5    6.24    0.80 
  -4  -4  -5    6.63    0.92 
  -4  -5  -5   13.71    1.40 
  -4  -6  -5    4.19    0.65 
  -4  -7  -5    3.83    0.63 
  -4  -8  -5    0.12    0.53 
   5  -5   5    0.07    0.42 
  -5   5  -5    0.70    0.99 
  -5   5  -5    0.36    0.43 
   5  -4   5    6.03    0.82 
  -5   4  -5    7.68    0.90 
   5  -3   5    7.43    0.86 
  -5   3  -5    7.04    0.84 
   5  -2   5    8.83    0.90 
   5  -1   5   33.78    2.80 
  -5   1  -5   34.68    2.80 
  -5   0  -5    0.70    0.31 
  -5   0  -5   -0.23    0.47 
  -5  -1  -5   33.84    3.10 
  -5  -2  -5   12.04    1.11 
  -5  -2  -5    9.75    1.10 
   5   3   5   34.61    3.11 
  -5  -3  -5   41.52    3.44 
   5   4   5    8.92    0.89 
  -5  -4  -5    6.43    0.93 
   5   5   5   14.44    1.47 
  -5  -5  -5   16.40    1.57 
  -5  -6  -5    4.27    0.65 
  -5  -7  -5    2.14    0.52 
  -5  -8  -5    0.94    0.52 
   6  -5   5    2.04    0.54 
  -6   5  -5    2.20    0.49 
  -6   5  -5    0.97    1.15 
   6  -4   5    1.89    0.49 
  -6   4  -5    2.21    0.47 
  -6   4  -5    0.68    0.92 
   6  -3   5   10.09    1.04 
  -6   3  -5   10.03    1.11 
   6  -2   5   12.86    1.19 
  -6   2  -5   12.27    1.20 
   6  -1   5    9.21    0.85 
  -6   1  -5    6.54    0.86 
   6   0   5   19.45    1.61 
  -6   0  -5   17.88    1.61 
  -6  -1  -5    8.04    0.88 
   6   2   5   20.57    1.86 
  -6  -2  -5   23.59    1.90 
  -6  -3  -5   13.39    1.39 
  -6  -3  -5   17.68    1.45 
   6   4   5    7.15    0.80 
  -6  -4  -5    5.18    0.73 
  -6  -5  -5    8.93    1.06 
  -6  -6  -5    1.04    0.45 
  -6  -7  -5    2.01    0.52 
  -7   4  -5    0.56    0.99 
   7  -3   5   -0.10    0.48 
  -7   3  -5   -0.04    0.46 
  -7   3  -5    0.36    0.95 
   7  -2   5    1.61    0.47 
  -7   2  -5    1.13    0.45 
  -7   2  -5    0.89    0.87 
   7  -1   5    5.06    0.74 
  -7   1  -5    4.26    0.73 
   7   0   5    6.39    0.77 
  -7   0  -5    5.75    0.77 
   7   1   5    5.25    0.74 
  -7  -1  -5    6.12    0.76 
   7   2   5    7.83    0.92 
  -7  -2  -5    9.69    0.98 
   7   4   5    0.08    0.45 
  -7  -4  -5    0.91    0.34 
  -7  -5  -5    8.16    0.96 
  -7  -6  -5    0.45    0.44 
   8  -2   5    0.16    0.54 
  -8   2  -5    0.19    0.51 
  -8   2  -5    0.37    0.91 
   8  -1   5   -0.29    0.51 
  -8   1  -5   -0.25    0.79 
  -8   1  -5   -0.11    0.47 
   8   0   5    5.49    0.81 
  -8   0  -5    4.66    0.84 
   8   1   5    1.30    0.50 
  -8  -1  -5    1.59    0.44 
   8   2   5    1.81    0.48 
  -8  -2  -5    2.10    0.48 
   8   3   5    2.37    0.53 
  -8  -3  -5    2.78    0.53 
   8   4   5   -0.11    0.51 
  -8  -4  -5    0.50    0.51 
  -8  -5  -5    1.71    0.49 
  -9  -1  -5    0.31    0.73 
   9   2   5   -0.20    0.55 
  -9  -2  -5    0.13    0.61 
  -9  -2  -5    0.16    0.54 
  -7  -3   6   -0.73    1.04 
  -7  -2   6    0.26    1.15 
  -7  -1   6    0.11    1.27 
  -7   0   6    5.16    1.02 
  -7   0   6    5.10    1.67 
  -7   1   6    4.39    0.77 
  -7   1   6    2.34    1.73 
  -7   2   6   -1.87    1.72 
  -6  -5   6    2.52    1.16 
  -6  -4   6    2.55    0.99 
  -6  -3   6    2.91    0.99 
  -6  -2   6    2.07    0.51 
  -6  -2   6    1.09    0.98 
  -6  -1   6    3.96    0.79 
  -6  -1   6    1.79    1.07 
  -6   0   6   -0.20    1.18 
  -6   0   6    1.86    0.51 
  -6   1   6   -1.22    1.42 
  -6   2   6    2.43    0.64 
  -6   2   6    1.79    1.65 
  -6   3   6    0.32    0.64 
  -6   3   6   -2.11    1.37 
  -6   4   6    0.41    0.67 
  -6   4   6   -0.83    1.31 
  -5  -6   6    3.21    1.07 
  -5  -5   6    6.35    1.27 
  -5  -4   6    8.81    1.29 
  -5  -2   6    2.38    0.86 
  -5  -1   6   24.17    2.08 
  -5   1   6   17.68    1.81 
  -5   1   6   23.38    2.39 
  -5   2   6    2.24    1.32 
  -5   3   6    6.03    1.62 
  -5   3   6    5.47    0.97 
  -5   4   6    1.72    1.21 
  -5   4   6    2.57    0.62 
  -5   5   6    0.63    0.61 
  -4  -6   6    7.12    1.15 
  -4  -5   6    9.81    1.27 
  -4  -4   6   21.68    2.16 
  -4  -3   6   30.99    2.65 
  -4  -3   6   33.39    3.04 
  -4  -2   6   51.53    4.15 
  -4  -2   6   50.75    4.69 
  -4  -1   6   15.05    1.28 
  -4  -1   6   12.58    0.89 
  -4   0   6   21.38    2.13 
  -4   0   6   20.12    1.79 
  -4   0   6   19.73    1.33 
  -4   1   6    3.84    0.40 
  -4   1   6    3.38    0.52 
  -4   1   6    2.05    1.10 
  -4   2   6    0.68    0.25 
  -4   2   6    1.04    1.07 
  -4   2   6    1.04    0.44 
  -4   3   6    4.32    0.64 
  -4   3   6    5.55    1.35 
  -4   4   6   -0.38    1.00 
  -4   4   6    0.95    0.50 
  -4   4   6    0.39    0.35 
  -4   5   6    0.55    0.51 
  -4   5   6    0.65    0.41 
  -4   6   6    0.01    0.53 
  -4   6   6    0.86    0.48 
  -3  -7   6    2.78    0.86 
  -3  -6   6    1.50    0.68 
  -3  -5   6   15.50    1.63 
  -3  -4   6   11.01    1.24 
  -3  -3   6   22.84    2.45 
  -3  -3   6   28.25    2.15 
  -3  -2   6   46.87    4.12 
  -3  -2   6   42.89    3.65 
  -3  -2   6   44.91    2.91 
  -3  -1   6   29.84    2.58 
  -3  -1   6   31.80    2.02 
  -3   0   6   18.09    1.82 
  -3   0   6   16.93    1.56 
  -3   1   6    8.84    0.68 
  -3   1   6    8.49    0.98 
  -3   2   6    8.24    0.63 
  -3   2   6    6.09    1.19 
  -3   2   6    6.88    0.92 
  -3   3   6    8.12    0.67 
  -3   3   6    6.28    1.27 
  -3   3   6    7.16    0.95 
  -3   4   6   14.09    1.55 
  -3   4   6   12.40    1.33 
  -3   4   6   13.31    1.00 
  -3   5   6    2.40    0.51 
  -3   5   6    1.85    0.39 
  -3   6   6    1.84    0.44 
  -3   6   6    3.21    0.55 
  -3   7   6    1.23    0.48 
  -2  -7   6    4.06    0.89 
  -2  -6   6    2.75    0.71 
  -2  -5   6    9.32    1.13 
  -2  -4   6   34.90    3.23 
  -2  -3   6   15.50    1.55 
  -2  -3   6   15.43    1.40 
  -2  -2   6   85.09    7.34 
  -2  -2   6   77.59    6.52 
  -2  -1   6   38.58    3.16 
  -2  -1   6   38.16    3.52 
  -2   0   6   42.69    3.83 
  -2   0   6   40.67    3.42 
  -2   1   6   15.75    1.27 
  -2   1   6   11.93    1.43 
  -2   2   6   31.79    2.29 
  -2   2   6   38.47    3.29 
  -2   3   6    5.69    1.03 
  -2   3   6    7.73    0.62 
  -2   3   6    7.59    0.90 
  -2   4   6   16.02    1.55 
  -2   4   6   16.69    1.70 
  -2   4   6   16.37    1.18 
  -2   5   6    7.11    0.69 
  -2   5   6    5.62    0.88 
  -2   6   6    1.10    0.46 
  -2   6   6    1.53    0.35 
  -2   7   6    0.95    0.42 
  -1  -6   6    1.87    0.66 
  -1  -5   6    4.17    0.74 
  -1  -4   6    1.68    0.53 
  -1  -3   6    6.51    0.90 
  -1  -3   6    8.46    0.94 
  -1  -2   6   10.17    1.10 
  -1  -1   6   68.96    5.80 
  -1  -1   6   74.79    6.50 
   1   1  -6   72.21    6.48 
  -1   0   6   21.55    1.95 
  -1   0   6   24.81    2.13 
   1   0  -6   21.00    2.09 
  -1   1   6   55.66    5.14 
  -1   1   6   55.13    4.59 
   1  -1  -6   59.14    5.13 
  -1   2   6   14.71    1.32 
  -1   2   6   12.26    1.00 
   1  -2  -6   14.72    1.36 
  -1   3   6   13.24    1.37 
  -1   3   6   11.72    1.25 
  -1   3   6   12.63    0.93 
   1  -3  -6   13.76    1.29 
  -1   4   6    3.77    0.73 
  -1   4   6    5.06    0.53 
   1  -4  -6    4.77    0.68 
  -1   5   6    9.98    0.79 
  -1   5   6   10.10    1.12 
  -1   6   6    2.96    0.51 
  -1   6   6    3.87    0.62 
   0  -5   6    7.98    1.01 
   0  -4   6   13.02    1.16 
   0  -4   6   10.49    1.23 
   0  -3   6   27.22    2.15 
   0  -3   6   23.38    2.36 
   0  -2   6   50.52    4.76 
   0  -2   6   56.79    4.25 
   0   2  -6   50.13    4.76 
   0  -1   6  154.11   13.43 
   0  -1   6  153.39   11.94 
   0   1  -6  142.23   13.42 
   0   0   6  179.96   15.07 
   0   0   6  175.02   13.39 
   0   0  -6  149.72   15.06 
   0   1   6  221.50   18.47 
   0  -1  -6  191.17   18.47 
   0   2   6   74.15    5.98 
   0   2   6   72.57    6.70 
   0  -2  -6   76.24    6.72 
   0   3   6   44.33    3.50 
   0   3   6   37.96    3.90 
   0  -3  -6   46.19    3.91 
   0   4   6    7.54    0.69 
   0   4   6    6.14    0.90 
   0  -4  -6    9.23    0.90 
   0   5   6    4.12    0.76 
   0  -5  -6    3.76    0.66 
   0   6   6    0.78    0.39 
   0  -6  -6    0.90    0.45 
   1  -4   6   11.55    1.12 
   1  -3   6   26.33    2.60 
   1  -3   6   29.45    2.33 
   1  -2   6   41.44    3.11 
   1  -2   6   34.69    3.48 
   1  -1   6   89.72    7.12 
   1  -1   6   88.48    8.01 
   1   0   6   79.32    5.87 
   1   0   6   77.93    6.60 
  -1   0  -6   62.59    6.59 
   1   1   6   59.36    5.53 
  -1  -1  -6   63.29    5.54 
   1   2   6   86.50    8.23 
   1   2   6   98.35    7.34 
  -1  -2  -6   90.32    8.26 
   1   3   6   15.66    1.42 
  -1  -3  -6   15.60    1.56 
   1   4   6   37.94    2.60 
   1   4   6   35.45    3.24 
  -1  -4  -6   44.21    3.62 
   1   5   6    4.41    0.77 
  -1  -5  -6    3.60    0.66 
   1   6   6    2.52    0.50 
  -1  -6  -6    3.14    0.65 
  -1  -7  -6    5.04    0.79 
  -1  -8  -6    1.56    0.69 
   2  -1   6   64.74    5.05 
   2  -1   6   60.89    5.67 
   2   0   6   73.64    7.36 
   2   0   6   90.43    6.56 
   2   1   6  106.31    8.08 
  -2  -1  -6   96.29    9.09 
   2   2   6  146.64   12.41 
  -2  -2  -6  165.44   13.99 
   2   3   6   76.97    5.77 
  -2  -3  -6   66.64    6.50 
   2   4   6   40.12    3.55 
  -2  -4  -6   46.89    4.02 
   2   5   6   12.49    1.22 
  -2  -5  -6   10.76    1.23 
  -2  -6  -6   10.48    1.16 
  -2  -7  -6    4.24    0.72 
  -2  -8  -6    4.07    0.84 
   3  -4   6    1.80    0.44 
  -3   4  -6    0.17    0.92 
   3   1   6   40.80    3.08 
  -3  -1  -6   34.69    3.48 
  -3  -2  -6   17.57    1.68 
  -3  -2  -6   17.83    1.69 
   3   3   6   72.47    5.52 
  -3  -3  -6   64.94    6.22 
   3   4   6    8.97    1.12 
  -3  -4  -6   12.94    1.31 
  -3  -5  -6    8.46    1.05 
  -3  -6  -6    5.93    0.82 
  -3  -7  -6    1.14    0.52 
  -3  -8  -6    0.71    0.59 
   4  -5   6    1.09    0.50 
   4  -4   6    1.30    0.47 
  -4   4  -6    0.65    0.94 
  -4   4  -6    1.67    0.42 
   4  -3   6    6.00    0.90 
  -4   3  -6    7.90    0.89 
   4  -2   6   30.33    2.42 
  -4   2  -6   27.42    2.45 
   4  -1   6   26.42    2.37 
  -4   1  -6   30.18    2.39 
   4   1   6   72.53    5.82 
   4   2   6   15.59    1.46 
  -4  -2  -6   16.62    1.58 
   4   3   6   54.79    4.14 
  -4  -3  -6   47.38    4.63 
   4   4   6   16.04    1.46 
  -4  -4  -6   16.26    1.67 
   4   5   6   14.03    1.46 
  -4  -5  -6   16.10    1.62 
  -4  -6  -6   16.33    1.67 
  -4  -7  -6    3.50    0.73 
  -4  -8  -6    2.39    0.64 
   5  -5   6    1.94    0.55 
  -5   5  -6    0.60    1.19 
   5  -4   6    2.35    0.52 
  -5   4  -6    1.01    0.99 
  -5   4  -6    2.08    0.48 
   5  -3   6    6.11    0.87 
  -5   3  -6    8.76    0.93 
   5  -2   6   26.38    2.05 
  -5   2  -6   21.85    2.07 
   5  -1   6    8.29    1.00 
  -5   1  -6   11.69    1.06 
   5   0   6   22.14    1.68 
  -5   0  -6   16.09    1.69 
   5   1   6   13.76    1.30 
  -5  -1  -6   15.12    1.37 
   5   3   6   11.36    1.18 
  -5  -3  -6   12.28    1.20 
   5   4   6   22.73    1.75 
  -5  -4  -6   16.41    1.90 
   5   5   6    9.74    1.09 
  -5  -5  -6    8.46    1.19 
  -5  -6  -6    3.67    0.75 
  -5  -7  -6    2.64    0.64 
  -5  -8  -6    0.53    0.55 
   6  -4   6    0.16    0.51 
  -6   4  -6    0.60    0.47 
  -6   4  -6    0.64    1.02 
   6  -3   6    0.40    0.44 
  -6   3  -6    0.22    0.87 
  -6   3  -6    0.76    0.44 
   6  -2   6    0.37    0.40 
  -6   2  -6    0.35    0.81 
  -6   2  -6    1.17    0.42 
   6  -1   6    5.61    0.76 
  -6   1  -6    5.69    0.79 
   6   0   6    3.32    0.67 
  -6   0  -6    4.82    0.73 
   6   1   6   10.97    1.10 
  -6  -1  -6   11.49    1.14 
   6   2   6    4.92    0.76 
  -6  -2  -6    5.02    0.83 
   6   4   6    3.04    0.53 
  -6  -4  -6    3.39    0.61 
   6   5   6    4.63    0.89 
  -6  -5  -6    4.20    0.84 
  -6  -6  -6    3.21    0.71 
  -6  -7  -6    2.42    0.61 
   7  -3   6    1.57    0.54 
  -7   3  -6    1.15    0.94 
  -7   3  -6    2.26    0.54 
   7  -2   6    0.98    0.46 
  -7   2  -6    0.45    0.84 
  -7   2  -6    1.55    0.48 
   7  -1   6    1.09    0.44 
  -7   1  -6    1.87    0.46 
  -7   1  -6   -0.22    0.75 
   7   0   6    0.97    0.42 
  -7   0  -6   -0.17    0.62 
  -7   0  -6    1.25    0.44 
   7   1   6    4.87    0.76 
  -7  -1  -6    5.61    0.81 
   7   2   6    2.17    0.50 
  -7  -2  -6    2.66    0.50 
   7   4   6    2.25    0.54 
  -7  -4  -6    2.93    0.54 
  -7  -5  -6    4.81    0.76 
  -7  -6  -6    1.10    0.55 
  -8   2  -6    0.08    0.91 
   8  -1   6   -0.16    0.51 
  -8   1  -6    0.45    0.48 
  -8   1  -6    0.20    0.82 
   8   0   6   -0.14    0.47 
  -8   0  -6    0.02    0.72 
  -8   0  -6    0.08    0.47 
   8   1   6    0.44    0.47 
  -8  -1  -6    0.77    0.46 
  -8  -1  -6    0.19    0.65 
   8   2   6    1.03    0.52 
  -8  -2  -6    1.12    0.51 
  -8  -2  -6    0.19    0.61 
   8   3   6    1.27    0.52 
  -8  -3  -6    0.12    0.68 
  -8  -3  -6    0.84    0.50 
   8   4   6    5.90    0.98 
  -8  -4  -6    6.66    0.76 
  -8  -5  -6    0.54    0.49 
  -7  -1   7   -0.30    1.30 
  -7  -1   7    2.01    0.64 
  -7   0   7    1.68    0.67 
  -7   0   7   -0.06    1.48 
  -6  -4   7    0.85    1.09 
  -6  -3   7    1.04    1.07 
  -6  -2   7    0.24    0.99 
  -6  -2   7    1.37    0.53 
  -6  -1   7    2.35    0.54 
  -6  -1   7    0.39    1.11 
  -6   0   7    0.20    1.35 
  -6   0   7    1.14    0.55 
  -6   1   7    1.04    0.58 
  -6   1   7   -1.19    1.54 
  -6   2   7    0.62    0.63 
  -6   2   7   -1.66    1.77 
  -6   3   7   -0.33    0.67 
  -5  -5   7    2.52    1.15 
  -5  -4   7    0.99    0.98 
  -5  -3   7    4.53    1.01 
  -5  -2   7    6.13    0.95 
  -5  -1   7   11.60    1.19 
  -5  -1   7    8.17    1.49 
  -5   1   7    4.88    1.00 
  -5   1   7    3.51    1.40 
  -5   2   7   -1.36    1.34 
  -5   2   7    1.35    0.58 
  -5   2   7    0.29    0.27 
  -5   3   7   -1.06    1.62 
  -5   3   7    0.82    0.35 
  -5   3   7    1.44    0.63 
  -5   3   7    0.81    0.35 
  -5   4   7   -0.03    0.62 
  -5   4   7    0.44    0.40 
  -4  -6   7    2.46    1.00 
  -4  -5   7    2.04    1.00 
  -4  -4   7    8.30    1.31 
  -4  -3   7    6.83    0.95 
  -4  -3   7    8.87    1.20 
  -4  -2   7    0.82    0.82 
  -4  -2   7    1.63    0.22 
  -4  -2   7    1.50    0.43 
  -4  -1   7   30.15    2.68 
  -4  -1   7   33.17    3.09 
  -4  -1   7   32.34    2.07 
  -4   0   7    5.89    0.48 
  -4   0   7    5.32    0.87 
  -4   0   7    3.48    1.01 
  -4   1   7   25.25    1.68 
  -4   1   7   25.28    2.23 
  -4   2   7    6.97    1.36 
  -4   2   7    5.61    0.59 
  -4   2   7    4.46    0.93 
  -4   3   7    3.40    1.34 
  -4   3   7    1.44    0.35 
  -4   3   7    2.50    0.58 
  -4   4   7    0.58    0.39 
  -4   4   7    1.23    0.57 
  -4   5   7    0.58    0.56 
  -4   5   7    0.49    0.43 
  -3  -6   7    1.16    0.89 
  -3  -5   7    1.24    0.77 
  -3  -4   7    0.48    0.79 
  -3  -3   7   16.36    1.63 
  -3  -3   7   20.33    1.90 
  -3  -2   7    7.65    1.09 
  -3  -2   7    9.82    1.04 
  -3  -1   7   54.41    4.45 
  -3  -1   7   57.72    3.55 
  -3  -1   7   51.62    5.02 
  -3   0   7   23.43    2.08 
  -3   0   7   24.01    1.61 
  -3   1   7   30.48    2.61 
  -3   1   7   29.28    2.03 
  -3   1   7   31.87    2.95 
  -3   2   7   19.66    1.83 
  -3   2   7   20.84    2.13 
  -3   2   7   19.75    1.39 
  -3   3   7    7.47    1.05 
  -3   3   7    8.51    0.78 
  -3   4   7    2.68    0.39 
  -3   4   7    2.40    0.56 
  -3   5   7    1.24    0.53 
  -3   5   7    1.19    0.38 
  -3   6   7    0.60    0.43 
  -3   6   7    0.00    0.54 
  -2  -6   7    1.09    0.75 
  -2  -5   7    1.10    0.69 
  -2  -4   7    0.39    0.68 
  -2  -3   7    7.82    1.13 
  -2  -3   7   11.30    1.18 
  -2  -2   7    1.33    0.61 
  -2  -2   7    0.83    0.44 
  -2  -1   7   11.00    1.23 
  -2   0   7   22.83    2.21 
  -2   0   7   22.55    2.03 
  -2   1   7   43.13    3.58 
  -2   1   7   47.24    4.00 
  -2   1   7   39.41    2.83 
  -2   2   7   10.92    0.85 
  -2   2   7    9.90    1.15 
  -2   3   7   14.41    1.84 
  -2   3   7   19.02    1.26 
  -2   3   7   19.57    1.66 
  -2   4   7    0.12    0.45 
  -2   4   7    0.56    0.26 
  -2   5   7    2.39    0.37 
  -2   5   7    2.30    0.52 
  -2   6   7    0.60    0.36 
  -2   6   7    0.18    0.50 
  -2   7   7    0.75    0.46 
  -1  -5   7   10.19    1.23 
  -1  -4   7    7.90    1.03 
  -1  -3   7   39.87    3.11 
  -1  -3   7   34.16    3.43 
  -1  -2   7   37.38    3.13 
  -1  -2   7   29.44    2.84 
  -1  -1   7   59.59    4.84 
  -1  -1   7   46.31    4.33 
  -1   0   7   33.22    2.71 
  -1   0   7   31.34    2.98 
   1   0  -7   31.48    2.95 
  -1   2   7   28.20    2.86 
   1  -2  -7   32.74    2.84 
  -1   3   7   47.65    3.70 
  -1   3   7   45.11    2.92 
   1  -3  -7   41.23    4.08 
  -1   4   7   21.21    1.93 
  -1   4   7   22.34    1.51 
  -1   5   7    3.79    0.57 
  -1   5   7    3.14    0.58 
  -1   6   7    4.07    0.86 
  -1   6   7    5.30    0.72 
   0  -4   7   16.94    1.72 
   0  -3   7   35.16    2.67 
   0  -3   7   28.42    2.97 
   0  -2   7   42.12    3.80 
   0  -2   7   42.27    3.41 
   0   2  -7   39.60    3.78 
   0  -1   7   47.59    3.94 
   0  -1   7   46.08    4.38 
   0   1  -7   50.44    4.37 
   0   0   7   18.29    1.51 
   0   0   7   15.58    1.59 
   0   0  -7   14.96    1.56 
   0   1   7   49.05    3.89 
   0  -1  -7   36.01    3.88 
   0   2   7   31.73    2.98 
   0   2   7   32.74    2.71 
   0   3   7   16.45    1.52 
   0  -3  -7   15.88    1.61 
   0   4   7   32.04    2.00 
   0   4   7   29.09    2.53 
   0  -4  -7   27.02    2.75 
   0   5   7    5.94    0.96 
   0   5   7    7.06    0.71 
   0  -5  -7    7.64    0.95 
   0   6   7    6.10    1.01 
   0  -6  -7    7.42    1.00 
   1  -4   7   20.58    1.83 
   1  -2   7   33.15    2.84 
   1  -2   7   35.12    3.17 
   1  -1   7   25.46    2.18 
   1  -1   7   26.82    2.42 
  -1   1  -7   24.71    2.43 
   1   0   7   32.15    3.07 
   1   0   7   34.46    2.77 
   1   1   7   30.43    2.79 
  -1  -1  -7   29.93    2.79 
   1   2   7   75.03    5.27 
  -1  -2  -7   55.39    5.90 
   1   3   7   51.01    3.90 
  -1  -3  -7   44.18    4.40 
   1   4   7  102.23    7.63 
  -1  -4  -7   87.60    8.57 
   1   5   7   18.50    1.80 
  -1  -5  -7   20.22    1.93 
   1   6   7   30.82    2.66 
  -1  -6  -7   30.81    2.92 
  -1  -7  -7    3.46    0.70 
   2  -4   7    0.59    0.44 
  -2  -1  -7   34.61    3.18 
   2   2   7   29.00    2.58 
  -2  -2  -7   33.16    2.89 
  -2  -3  -7   16.38    1.68 
   2   4   7   25.43    2.23 
  -2  -4  -7   26.45    2.53 
   2   5   7   18.69    1.64 
  -2  -5  -7   16.16    1.78 
   2   6   7    7.93    1.22 
  -2  -6  -7    9.60    1.19 
  -2  -7  -7    6.43    1.04 
  -2  -8  -7    0.34    0.68 
   3  -4   7    2.48    0.53 
  -3   4  -7    1.01    1.05 
   3   2   7   28.55    2.62 
  -3  -2  -7   33.82    2.89 
   3   3   7   30.74    2.59 
  -3  -3  -7   30.85    2.91 
   3   4   7   20.39    1.85 
  -3  -4  -7   20.48    2.08 
   3   5   7   12.55    1.23 
  -3  -5  -7    8.97    1.27 
  -3  -6  -7    6.08    0.94 
  -3  -7  -7    7.23    1.03 
  -3  -8  -7    1.14    0.70 
   4  -4   7    1.64    0.55 
  -4   4  -7    0.68    1.15 
   4   2   7   42.94    3.52 
  -4  -2  -7   42.67    3.91 
   4   3   7    6.77    1.01 
  -4  -3  -7    7.61    0.91 
   4   4   7   21.01    1.83 
  -4  -4  -7   18.89    2.02 
   4   5   7   10.52    1.17 
  -4  -5  -7    7.42    1.28 
  -4  -6  -7    3.85    0.89 
  -4  -7  -7    3.77    0.80 
  -4  -8  -7    0.84    0.65 
   5  -4   7   -0.05    0.54 
  -5   4  -7    0.56    0.47 
  -5   4  -7    0.49    1.09 
   5  -3   7    1.05    0.52 
  -5   3  -7    1.38    0.48 
  -5   3  -7    0.41    0.97 
   5  -2   7    0.63    0.46 
  -5   2  -7    0.32    0.93 
   5   0   7    2.85    0.50 
  -5   0  -7    0.40    0.78 
   5   3   7   14.37    1.43 
  -5  -3  -7   15.16    1.47 
   5   4   7    1.52    0.49 
   5   5   7    0.52    0.51 
  -5  -5  -7    0.94    0.75 
  -5  -6  -7    0.24    0.66 
  -5  -7  -7   -0.01    0.63 
   6  -4   7    0.45    0.60 
  -6   4  -7    0.70    0.51 
  -6   4  -7    0.18    1.12 
   6  -3   7    2.62    0.57 
  -6   3  -7    1.09    1.08 
  -6   3  -7    2.99    0.56 
   6  -2   7    2.09    0.52 
   6  -1   7    4.48    0.81 
  -6   1  -7    5.02    0.83 
   6   0   7    9.36    1.06 
  -6   0  -7    9.74    1.08 
   6   4   7    8.29    1.12 
  -6  -4  -7    8.67    1.00 
   6   5   7    0.69    0.56 
  -6  -5  -7    0.21    0.63 
  -6  -6  -7    3.18    0.75 
  -6  -7  -7   -0.03    0.61 
   7  -3   7   -0.23    0.58 
  -7   3  -7    0.78    0.54 
  -7   3  -7    0.88    1.03 
   7  -2   7    0.37    0.50 
  -7   2  -7    0.35    0.95 
  -7   2  -7    1.05    0.52 
   7  -1   7    1.78    0.52 
  -7   1  -7    2.40    0.54 
   7   0   7    0.80    0.48 
  -7   0  -7    1.31    0.49 
  -7   0  -7    0.23    0.77 
   7   1   7    9.30    1.04 
  -7  -1  -7    8.75    1.06 
   7   2   7    1.02    0.49 
  -7  -2  -7    0.68    0.78 
   7   4   7    2.21    0.62 
  -7  -4  -7    2.52    0.53 
  -7  -5  -7    2.52    0.63 
  -7  -6  -7    1.40    0.64 
   8  -1   7    0.22    0.55 
  -8   1  -7    1.02    0.56 
  -8   1  -7    0.88    0.93 
   8   0   7    1.22    0.54 
  -8   0  -7    0.50    0.81 
  -8   0  -7    1.99    0.56 
   8   1   7    0.81    0.54 
  -8  -1  -7    0.74    0.80 
  -8  -1  -7    1.85    0.53 
   8   2   7    1.58    0.58 
  -8  -2  -7    2.57    0.58 
  -8  -2  -7    0.69    0.81 
   8   3   7    2.99    0.60 
  -8  -3  -7    0.41    0.84 
   8   4   7    3.42    0.72 
  -8  -4  -7    3.65    0.63 
  -6  -3   8    0.71    1.21 
  -6  -2   8    0.27    1.16 
  -6  -2   8    0.33    0.57 
  -6  -1   8    0.56    1.22 
  -6  -1   8    0.26    0.61 
  -6   0   8    1.44    0.68 
  -6   0   8   -0.31    1.40 
  -6   1   8   -0.07    1.64 
  -6   1   8   -0.14    0.67 
  -6   2   8   -2.74    1.84 
  -6   2   8   -0.14    0.72 
  -5  -4   8    7.07    1.44 
  -5  -3   8    2.16    1.09 
  -5  -2   8    5.96    1.33 
  -5  -2   8    4.50    0.70 
  -5  -1   8    5.76    1.01 
  -5  -1   8    7.46    1.40 
  -5   0   8    0.79    1.10 
  -5   1   8    8.88    1.21 
  -5   2   8   -0.04    0.30 
  -5   2   8    2.23    0.66 
  -5   2   8   -0.61    1.45 
  -5   3   8    3.95    0.81 
  -5   3   8    4.07    1.87 
  -5   4   8    0.47    0.44 
  -5   4   8    1.16    0.76 
  -4  -5   8    2.70    1.09 
  -4  -4   8    9.18    1.46 
  -4  -3   8    3.60    1.02 
  -4  -2   8    6.79    1.31 
  -4  -2   8    9.98    0.66 
  -4  -2   8    8.91    1.10 
  -4  -1   8    7.96    0.63 
  -4  -1   8    6.88    1.05 
  -4   0   8    9.52    1.20 
  -4   0   8    9.59    0.77 
  -4   1   8    8.28    0.74 
  -4   1   8    8.04    1.14 
  -4   2   8    5.51    1.06 
  -4   2   8    8.03    1.45 
  -4   2   8    5.76    0.70 
  -4   3   8    3.76    0.62 
  -4   3   8    3.16    0.70 
  -4   3   8    3.70    1.45 
  -4   4   8    0.41    0.42 
  -4   4   8    0.74    0.62 
  -4   5   8    0.64    0.64 
  -4   5   8    0.10    0.46 
  -3  -6   8    1.31    0.98 
  -3  -5   8    1.52    0.94 
  -3  -4   8    6.88    1.16 
  -3  -3   8    5.76    1.08 
  -3  -3   8    3.64    0.60 
  -3  -2   8   15.82    1.62 
  -3  -2   8   16.85    1.77 
  -3  -1   8    1.06    0.83 
  -3  -1   8    1.18    0.34 
  -3  -1   8    0.54    0.49 
  -3   0   8   12.93    1.49 
  -3   0   8   11.64    1.36 
  -3   0   8   12.38    1.00 
  -3   1   8    2.03    0.33 
  -3   1   8    2.33    0.92 
  -3   1   8    1.44    0.56 
  -3   2   8   11.57    1.43 
  -3   2   8    8.46    1.20 
  -3   2   8    8.66    0.81 
  -3   3   8    3.88    0.63 
  -3   3   8    3.86    0.68 
  -3   4   8    4.40    0.71 
  -3   4   8    3.55    0.48 
  -3   5   8    0.96    0.59 
  -3   5   8    0.83    0.42 
  -3   6   8    0.47    0.59 
  -3   6   8    0.60    0.47 
  -2  -6   8    0.84    0.92 
  -2  -5   8    1.32    0.83 
  -2  -4   8    6.80    1.10 
  -2  -3   8   12.45    1.50 
  -2  -3   8   14.49    1.52 
  -2  -2   8   47.72    4.15 
  -2  -2   8   41.62    3.72 
  -2  -1   8   14.01    1.54 
  -2   0   8   25.06    2.28 
  -2   0   8   20.65    2.11 
  -2   1   8   22.98    1.67 
  -2   1   8   24.04    2.15 
  -2   2   8   14.05    1.08 
  -2   2   8   12.78    1.42 
  -2   3   8   16.99    1.28 
  -2   3   8   18.23    1.71 
  -2   4   8   10.64    0.94 
  -2   4   8   11.54    1.30 
  -2   5   8    7.12    1.09 
  -2   5   8    7.35    0.84 
  -2   6   8    2.42    0.62 
  -2   6   8    2.00    0.44 
  -1  -4   8   11.16    1.36 
  -1  -3   8   23.92    2.20 
  -1  -3   8   20.50    2.04 
  -1  -2   8   37.55    3.33 
  -1  -2   8   33.43    3.01 
  -1  -1   8   44.94    4.37 
  -1  -1   8   50.20    3.94 
  -1   0   8   50.21    4.49 
  -1   0   8   58.96    5.01 
  -1   1   8   16.96    1.91 
  -1   1   8   22.69    1.84 
  -1   3   8   10.96    1.21 
  -1   3   8   11.04    0.97 
  -1   4   8   11.79    1.00 
  -1   4   8   12.20    1.32 
  -1   5   8    6.45    1.02 
  -1   5   8    6.55    0.76 
  -1   6   8    1.57    0.40 
  -1   6   8    1.53    0.55 
   0  -3   8   18.39    1.67 
   0  -3   8   16.79    1.79 
   0  -2   8   25.71    2.15 
   0  -2   8   22.83    2.33 
   0  -1   8   39.08    3.64 
   0  -1   8   40.36    3.27 
   0   1  -8   38.48    3.61 
   0   0   8   80.04    6.27 
   0   0   8   79.54    7.04 
   0   0  -8   73.48    7.01 
   0   1   8   24.98    2.27 
   0   1   8   26.16    2.51 
   0  -1  -8   28.85    2.53 
   0  -2  -8   26.62    2.56 
   0   3   8   31.88    2.62 
   0  -3  -8   29.05    2.87 
   0   4   8    4.58    0.68 
   0   4   8    4.11    0.64 
   0  -4  -8    4.03    0.73 
   0   5   8   23.48    2.18 
   0  -5  -8   23.71    2.33 
   0   6   8    1.01    0.54 
   1  -4   8    1.03    0.50 
   1  -3   8   12.61    1.32 
   1  -1   8   35.08    2.92 
  -1   1  -8   34.63    3.25 
   1   0   8  197.87   15.19 
  -1   0  -8  183.77   17.09 
   1   1   8   30.93    2.56 
   1   2   8  172.13   13.72 
  -1  -2  -8  172.24   15.46 
   1   3   8   15.11    1.38 
  -1  -3  -8   11.88    1.52 
   1   4   8   47.88    3.81 
  -1  -4  -8   43.89    4.26 
   1   5   8    0.60    0.53 
  -1  -5  -8    0.82    0.62 
   1   6   8    6.52    1.22 
  -1  -6  -8    8.70    1.16 
  -1  -7  -8    0.33    0.71 
   2  -4   8   16.98    1.67 
   2   0   8   67.63    6.03 
  -2   0  -8   81.79    6.78 
   2   3   8   70.48    5.99 
  -2  -3  -8   78.08    6.77 
   2   4   8    5.82    0.96 
  -2  -4  -8    6.12    1.08 
   2   5   8   13.72    1.50 
  -2  -5  -8   13.15    1.56 
   2   6   8    1.95    0.56 
  -2  -6  -8    0.21    0.73 
  -2  -7  -8    0.32    0.75 
  -2  -8  -8   -0.19    0.73 
   3  -4   8    7.57    1.12 
   3  -3   8    3.31    0.59 
  -3   3  -8    1.93    1.31 
   3   1   8   72.77    5.31 
  -3  -1  -8   58.09    5.92 
   3   2   8   45.52    3.83 
  -3  -2  -8   47.44    4.26 
   3   3   8   19.19    1.80 
  -3  -3  -8   19.88    1.96 
  -3  -4  -8    9.38    1.28 
   3   5   8    2.31    0.59 
  -3  -5  -8    2.22    0.86 
  -3  -6  -8    2.62    0.84 
  -3  -7  -8    1.58    0.84 
  -3  -8  -8    2.29    0.82 
   4  -4   8    1.88    0.62 
  -4   4  -8    0.95    1.33 
   4  -3   8    0.27    0.57 
  -4   3  -8    1.06    1.18 
   4   1   8    1.25    0.53 
  -4  -1  -8    0.19    0.86 
   4   2   8   21.01    1.99 
  -4  -2  -8   22.67    2.12 
   4   3   8   10.82    1.33 
  -4  -3  -8   13.92    1.36 
   4   4   8   10.18    1.28 
  -4  -4  -8   10.49    1.33 
   4   5   8    2.70    0.63 
  -4  -5  -8    1.85    0.88 
  -4  -6  -8    0.47    0.80 
  -4  -7  -8   -0.44    0.78 
   5  -4   8    0.42    0.59 
  -5   4  -8    0.52    1.22 
   5  -3   8    1.72    0.58 
  -5   3  -8    1.04    1.21 
  -5   1  -8    0.87    1.02 
  -5  -3  -8    3.13    0.65 
   5   4   8   24.33    2.24 
  -5  -4  -8   25.80    2.43 
   5   5   8    4.26    0.74 
  -5  -6  -8    5.01    1.01 
  -5  -7  -8    1.58    0.81 
  -6   4  -8    1.19    1.25 
   6  -3   8    0.13    0.57 
  -6   3  -8    1.06    1.18 
   6  -2   8    1.63    0.55 
  -6   2  -8    0.50    0.98 
   6  -1   8    3.06    0.58 
  -6   1  -8    0.60    0.98 
   6   0   8    1.15    0.54 
  -6   0  -8    0.98    0.91 
   6   3   8    5.68    0.95 
  -6  -3  -8    4.41    0.74 
   6   4   8    7.94    1.10 
  -6  -4  -8    6.59    0.96 
  -6  -5  -8    4.78    0.85 
  -6  -6  -8   -0.70    0.70 
   7  -2   8   -0.10    0.57 
  -7   2  -8    0.55    1.06 
   7  -1   8    2.73    0.61 
  -7   1  -8    4.87    0.87 
  -7   1  -8    1.09    0.97 
   7   0   8    0.12    0.52 
  -7   0  -8    1.41    0.53 
  -7   0  -8    0.63    0.86 
   7   1   8    1.03    0.54 
  -7  -1  -8    0.60    0.88 
   7   2   8    0.66    0.55 
  -7  -2  -8    0.08    0.92 
   7   3   8    1.22    0.58 
  -7  -3  -8    0.24    0.86 
   7   4   8   -0.24    0.58 
  -7  -4  -8    0.44    0.52 
  -7  -5  -8    5.52    0.90 
   8   0   8    0.15    0.61 
  -8   0  -8    0.27    0.92 
   8   1   8    0.61    0.57 
  -8  -1  -8    0.42    0.88 
   8   2   8    0.97    0.63 
  -8  -2  -8    0.62    0.93 
   8   3   8   -0.25    0.64 
  -8  -3  -8   -0.01    0.92 
  -5  -3   9    8.42    1.68 
  -5  -2   9    4.54    0.78 
  -5  -2   9    5.60    1.35 
  -5  -1   9    3.70    1.20 
  -5  -1   9    5.16    1.05 
  -5   0   9    3.11    1.15 
  -5   1   9    5.52    1.60 
  -5   1   9    2.66    0.76 
  -5   2   9    3.93    1.57 
  -5   3   9    0.21    0.78 
  -5   3   9   -0.61    0.41 
  -4  -4   9    1.08    1.08 
  -4  -3   9    1.87    1.06 
  -4  -3   9    2.00    0.32 
  -4  -2   9    3.35    0.69 
  -4  -2   9    2.42    1.10 
  -4  -2   9    4.07    0.44 
  -4  -1   9    1.65    0.62 
  -4  -1   9    0.88    1.00 
  -4  -1   9    2.16    0.32 
  -4   0   9    6.19    0.65 
  -4   0   9    5.33    1.24 
  -4   0   9    5.09    0.83 
  -4   1   9    2.73    0.41 
  -4   1   9    3.32    1.32 
  -4   1   9    2.43    0.71 
  -4   2   9    1.36    0.69 
  -4   2   9    1.57    0.41 
  -4   2   9    2.29    1.33 
  -4   3   9    1.07    0.71 
  -4   3   9    0.61    0.41 
  -4   4   9   -0.02    0.46 
  -4   4   9    0.08    0.69 
  -3  -5   9    1.85    1.11 
  -3  -4   9    1.74    0.99 
  -3  -3   9    2.00    1.00 
  -3  -2   9   11.76    1.56 
  -3  -2   9   12.80    1.40 
  -3  -1   9    9.21    1.34 
  -3  -1   9    8.46    1.34 
  -3  -1   9   10.75    0.96 
  -3   0   9   24.09    2.37 
  -3   0   9   27.01    2.60 
  -3   0   9   26.85    1.83 
  -3   1   9    9.12    1.30 
  -3   1   9   10.51    1.40 
  -3   1   9    8.65    0.88 
  -3   2   9   13.37    1.13 
  -3   2   9   14.40    1.57 
  -3   3   9    2.50    0.71 
  -3   3   9    2.77    0.45 
  -3   4   9    3.44    0.75 
  -3   4   9    3.33    0.52 
  -3   5   9   -0.05    0.44 
  -3   5   9    0.72    0.66 
  -2  -4   9    3.34    0.97 
  -2  -3   9   18.39    1.87 
  -2  -3   9   15.57    1.78 
  -2  -2   9   24.90    2.36 
  -2  -2   9   21.36    2.22 
  -2  -1   9   44.28    4.14 
  -2  -1   9   44.31    3.76 
  -2   0   9   13.74    1.54 
  -2   1   9   35.40    3.17 
  -2   1   9   37.68    2.51 
  -2   2   9   21.37    1.61 
  -2   2   9   22.75    2.07 
  -2   3   9   13.63    1.13 
  -2   3   9   14.19    1.51 
  -2   4   9    7.68    1.16 
  -2   4   9    6.69    0.83 
  -2   5   9    2.55    0.67 
  -2   5   9    2.46    0.47 
  -2   6   9    0.60    0.47 
  -2   6   9    0.58    0.64 
  -1  -3   9    6.56    1.09 
  -1  -3   9    6.65    1.15 
  -1  -2   9   21.24    2.13 
  -1  -2   9   20.36    1.97 
  -1  -1   9   26.12    2.62 
  -1  -1   9   27.66    2.45 
  -1   0   9   31.06    3.07 
  -1   0   9   33.92    2.83 
  -1   1   9   32.17    2.81 
  -1   2   9   12.54    1.43 
  -1   3   9   13.15    1.47 
  -1   3   9   11.98    1.12 
  -1   4   9    2.56    0.44 
  -1   4   9    2.93    0.64 
  -1   5   9    1.61    0.43 
  -1   5   9    1.71    0.60 
  -1   6   9    1.19    0.63 
   0  -3   9   11.96    1.44 
   0  -2   9   22.29    2.03 
   0  -1   9   22.83    2.08 
   0   0   9   17.60    1.72 
   0   1   9   74.66    6.11 
   0  -1  -9   75.94    6.84 
   0  -2  -9    6.99    1.07 
   0   3   9   36.96    2.85 
   0  -3  -9   29.06    3.11 
   0   4   9    9.10    1.04 
   0   4   9   10.16    1.24 
   0   5   9    3.05    0.71 
   0   6   9    2.16    0.65 
   1  -3   9   19.41    1.85 
   1  -2   9  106.45    8.55 
   1  -1   9   21.54    2.27 
  -1   1  -9   28.85    2.46 
   1   0   9  117.97    9.98 
  -1   0  -9  131.36   11.22 
   1   1   9    1.94    0.52 
  -1  -1  -9    2.36    0.57 
   1   2   9   94.18    7.98 
  -1  -2  -9  104.43    8.98 
   1   4   9   31.78    2.63 
  -1  -4  -9   27.98    2.90 
  -1  -5  -9    5.75    1.01 
   1   6   9    1.71    0.65 
  -1  -6  -9    2.68    0.88 
   2  -3   9   40.48    3.42 
  -2   2  -9    0.12    1.09 
   2  -1   9   61.58    5.04 
  -2   0  -9   13.12    1.44 
  -2  -1  -9   34.68    3.24 
   2   2   9   72.93    5.44 
  -2  -2  -9   60.76    6.08 
   2   3   9    4.98    0.92 
  -2  -3  -9    3.16    0.77 
  -2  -4  -9   20.18    2.15 
  -2  -5  -9    5.49    1.26 
  -2  -6  -9    3.45    0.96 
  -2  -7  -9    1.81    0.97 
   3  -4   9    1.17    0.64 
   3  -3   9    2.56    0.67 
  -3   3  -9    1.05    1.38 
  -3   2  -9    0.92    1.27 
   3  -1   9    5.38    1.02 
  -3   1  -9    0.76    1.23 
   3   0   9   16.47    1.53 
  -3   0  -9   12.00    1.58 
   3   1   9    8.89    1.21 
  -3  -2  -9   10.97    1.24 
   3   3   9    1.71    0.57 
  -3  -3  -9    2.23    0.67 
  -3  -4  -9    9.75    1.37 
  -3  -5  -9    7.02    1.23 
  -3  -6  -9    6.77    1.39 
  -3  -7  -9    0.91    1.01 
   4  -4   9    1.14    0.70 
   4  -3   9    1.20    0.63 
  -4   3  -9    0.84    1.38 
   4  -2   9    4.04    0.71 
  -4   2  -9    0.81    1.32 
   4   1   9   34.05    3.23 
  -4  -1  -9   41.18    3.55 
   4   2   9   13.76    1.41 
  -4  -2  -9   10.72    1.32 
   4   3   9   11.31    1.51 
  -4  -3  -9   15.83    1.53 
   4   4   9   17.24    1.64 
  -4  -4  -9   13.98    1.69 
   4   5   9    7.59    1.23 
  -4  -5  -9    4.74    1.13 
  -4  -6  -9    6.28    1.19 
  -4  -7  -9    2.97    1.03 
   5  -4   9   -0.19    0.70 
   5  -3   9    0.13    0.68 
  -5   3  -9    1.55    1.40 
  -5   1  -9    0.54    1.24 
   5   2   9   13.41    1.54 
  -5  -2  -9   14.11    1.49 
   5   3   9   11.92    1.42 
  -5  -3  -9    9.63    1.21 
   5   4   9    5.48    1.11 
  -5  -4  -9    4.90    0.91 
  -5  -5  -9    3.71    0.94 
  -5  -6  -9    0.44    0.85 
  -5  -7  -9    2.03    0.92 
   6  -3   9    0.01    0.66 
  -6   3  -9    1.93    1.35 
   6  -2   9   -0.25    0.62 
  -6   2  -9    0.88    1.14 
   6  -1   9    2.56    0.66 
  -6   1  -9    0.93    1.16 
   6   0   9    5.37    0.99 
  -6   0  -9    0.83    1.11 
   6   2   9    3.29    0.68 
  -6  -2  -9    0.67    1.04 
   6   3   9    7.81    1.21 
  -6  -3  -9    7.99    0.96 
   6   4   9   -0.08    0.64 
  -6  -4  -9    1.19    0.63 
   6   5   9   -0.07    0.71 
  -6  -5  -9   -0.98    0.68 
  -6  -6  -9    0.79    0.77 
  -7   2  -9    2.00    1.21 
   7  -1   9   -0.64    0.61 
  -7   1  -9    0.61    1.09 
   7   0   9    0.29    0.60 
  -7   0  -9    1.33    1.10 
   7   1   9    3.31    0.68 
  -7  -1  -9    1.37    1.09 
   7   2   9    0.04    0.65 
  -7  -2  -9    0.39    1.03 
   7   3   9    8.45    1.24 
  -7  -3  -9    9.29    1.09 
   7   4   9   -0.35    0.67 
  -7  -4  -9    0.38    0.58 
   7   5   9   -0.14    0.69 
  -7  -5  -9   -0.81    0.65 
  -8  -1  -9    0.83    1.07 
  -8  -2  -9    1.34    1.11 
  -8  -3  -9    0.57    1.01 
  -5  -1  10    1.02    0.79 
  -5  -1  10    2.26    1.29 
  -5   0  10    0.26    1.23 
  -5   0  10   -0.45    0.28 
  -5   0  10   -0.04    0.76 
  -5   1  10   -0.29    0.33 
  -5   1  10    0.13    0.80 
  -4  -3  10    2.65    1.33 
  -4  -3  10    1.63    0.28 
  -4  -2  10    0.56    0.70 
  -4  -2  10    2.46    1.26 
  -4  -2  10    1.48    0.31 
  -4  -1  10    4.95    0.89 
  -4  -1  10    4.94    0.62 
  -4  -1  10    4.26    1.23 
  -4   0  10    0.17    0.74 
  -4   0  10   -0.22    1.07 
  -4   0  10    0.37    0.38 
  -4   1  10    4.02    0.87 
  -4   1  10    3.62    0.50 
  -4   2  10    0.52    0.46 
  -4   2  10    0.47    0.78 
  -4   3  10    0.45    0.79 
  -4   3  10    0.38    0.51 
  -3  -4  10    8.73    1.49 
  -3  -3  10    7.31    1.39 
  -3  -2  10    8.58    1.43 
  -3  -2  10    9.56    1.48 
  -3  -1  10   19.56    1.43 
  -3  -1  10   15.90    1.93 
  -3   0  10    9.81    1.41 
  -3   0  10    9.65    1.02 
  -3   0  10   10.43    1.43 
  -3   1  10    9.17    0.99 
  -3   1  10   11.00    1.43 
  -3   2  10    4.83    0.89 
  -3   2  10    4.57    0.59 
  -3   3  10    5.04    0.92 
  -3   3  10    5.47    0.63 
  -3   4  10    1.29    0.75 
  -3   4  10    0.37    0.50 
  -2  -2  10   10.89    1.63 
  -2  -2  10   12.96    1.60 
  -2  -1  10   10.30    1.46 
  -2   0  10   19.91    2.13 
  -2   1  10    8.58    1.54 
  -2   1  10   12.12    1.07 
  -2   2  10   10.47    1.39 
  -2   2  10   11.00    1.11 
  -2   3  10    4.67    0.61 
  -2   3  10    5.93    1.12 
  -2   4  10    1.70    0.50 
  -2   4  10    2.05    0.75 
  -2   5  10    1.79    0.76 
  -2   5  10    0.72    0.49 
  -1  -3  10   14.59    1.68 
  -1  -2  10   11.54    1.44 
  -1  -1  10   20.21    2.05 
  -1   0  10    9.01    1.31 
  -1   1  10   13.98    1.59 
  -1   2  10    8.44    1.29 
  -1   3  10    7.41    1.24 
  -1   3  10    6.73    0.95 
  -1   4  10    4.00    0.76 
  -1   4  10    3.38    0.55 
  -1   5  10   -0.13    0.46 
  -1   5  10    0.66    0.63 
  -1   6  10    1.04    0.74 
   0  -3  10   21.96    2.12 
   0  -2  10   11.43    1.47 
   0   0  10   18.57    1.85 
   0   1  10   43.49    3.68 
   0   2  10   25.69    2.35 
   0   3  10   17.42    1.77 
   0   4  10   12.80    1.50 
   0   4  10   13.00    1.26 
   0   5  10    6.58    1.25 
   0   6  10    2.19    0.73 
   1  -3  10    8.88    1.29 
   1  -2  10   20.64    1.95 
   1  -1  10   50.14    4.16 
   1   0  10   21.81    2.33 
  -1   0 -10   29.75    2.53 
   1   1  10   63.90    5.08 
  -1  -1 -10   59.89    5.66 
   1   2  10    2.27    0.62 
  -1  -2 -10    3.13    0.70 
   1   3  10   46.44    3.58 
  -1  -3 -10   38.00    3.98 
  -1  -5 -10    8.12    1.28 
   1   6  10    2.82    0.74 
   2  -3  10    0.38    0.61 
   2  -2  10   18.40    1.84 
   2  -1  10    3.85    0.73 
  -2   1 -10    0.54    1.08 
  -2   1 -10    2.44    0.75 
  -2   0 -10   15.20    1.65 
   2   1  10   34.24    2.92 
  -2  -1 -10   32.81    3.16 
   2   3  10   26.17    2.26 
  -2  -3 -10   23.30    2.48 
   2   4  10    2.02    0.65 
  -2  -6 -10   -1.19    0.99 
  -2  -7 -10    0.41    1.08 
   3  -3  10   -0.28    0.69 
  -3   2 -10    0.90    1.41 
   3   0  10   10.91    1.46 
  -3   0 -10   10.96    1.45 
   3   1  10   69.30    5.54 
  -3  -1 -10   65.23    6.13 
   3   2  10   26.54    2.66 
  -3  -2 -10   32.21    2.84 
   3   3  10   36.91    3.38 
  -3  -3 -10   42.03    3.76 
   3   4  10   12.94    1.48 
  -3  -4 -10   12.00    1.61 
  -3  -5 -10    3.52    1.10 
  -3  -6 -10   -1.61    1.01 
  -3  -7 -10    0.68    1.09 
   4  -4  10   -0.56    0.76 
   4  -3  10    1.43    0.80 
  -4   3 -10    1.11    1.58 
   4  -2  10    2.93    0.79 
  -4   2 -10    1.05    1.49 
   4   1  10   25.55    2.30 
  -4  -1 -10   22.20    2.40 
  -4  -2 -10   31.42    2.99 
   4   3  10   10.39    1.50 
  -4  -3 -10   12.25    1.43 
   4   4  10    9.45    1.34 
  -4  -4 -10    7.67    1.23 
   4   5  10    4.95    0.89 
  -4  -6 -10   -1.57    0.98 
   5  -3  10    0.94    0.76 
  -5   3 -10    1.82    1.51 
   5  -2  10    1.11    0.78 
  -5   2 -10    1.50    1.42 
   5  -1  10    3.61    0.80 
  -5   1 -10    1.80    1.47 
   5   0  10    2.16    0.76 
  -5   0 -10    0.76    1.34 
   5   2  10    6.87    1.27 
  -5  -2 -10    5.99    1.01 
   5   3  10    9.32    1.52 
  -5  -3 -10    9.88    1.21 
   5   4  10    3.66    0.84 
  -5  -4 -10    4.81    0.99 
   5   5  10    2.01    0.81 
  -5  -5 -10    0.11    0.87 
  -5  -6 -10   -1.00    0.89 
   6  -2  10    0.96    0.72 
  -6   2 -10    0.81    1.33 
   6  -1  10    1.19    0.71 
  -6   1 -10    1.39    1.36 
   6   0  10    0.26    0.68 
  -6   0 -10    0.71    1.28 
   6   1  10    0.47    0.71 
  -6  -1 -10    0.73    1.19 
   6   2  10    0.17    0.71 
  -6  -2 -10    0.80    0.66 
  -6  -2 -10    0.38    1.17 
   6   3  10    4.12    0.86 
  -6  -3 -10    4.41    0.89 
   6   4  10    2.67    0.81 
  -6  -4 -10    3.53    0.78 
   6   5  10    3.33    0.84 
  -6  -5 -10    1.74    0.80 
   7   0  10   -0.27    0.69 
  -7   0 -10    1.33    1.22 
   7   1  10    1.05    0.71 
  -7  -1 -10    0.84    1.24 
   7   2  10    0.48    0.72 
  -7  -2 -10    0.42    1.10 
   7   3  10    0.40    0.76 
  -7  -3 -10    1.16    0.63 
   7   4  10    2.73    0.89 
  -7  -4 -10    3.42    0.76 
  -4  -1  11    3.32    0.48 
  -4  -1  11    3.08    0.93 
  -4   0  11    4.82    0.79 
  -4   0  11    6.07    1.02 
  -4   1  11    4.79    1.00 
  -4   1  11    4.34    0.61 
  -4   2  11    3.84    0.98 
  -3  -2  11    4.82    0.94 
  -3  -1  11    3.72    0.85 
  -3   0  11    6.86    1.34 
  -3   0  11    5.88    0.91 
  -3   1  11    5.24    0.98 
  -3   1  11    5.62    0.70 
  -3   2  11    3.57    0.63 
  -3   2  11    4.38    0.93 
  -3   3  11    2.72    0.59 
  -3   3  11    2.69    0.87 
  -2  -2  11   11.96    1.73 
  -2  -1  11   11.85    1.63 
  -2   0  11    9.02    1.48 
  -2   1  11   15.92    1.99 
  -2   1  11   19.46    1.47 
  -2   2  11    4.36    0.67 
  -2   2  11    3.76    0.83 
  -2   3  11    4.57    0.68 
  -2   3  11    4.91    0.89 
  -2   4  11    1.62    0.57 
  -2   4  11    2.39    0.80 
  -1  -2  11    8.64    1.50 
  -1  -1  11   15.81    1.85 
  -1   0  11   15.45    1.83 
  -1   1  11   12.70    1.59 
  -1   2  11   17.15    1.85 
  -1   3  11    8.77    1.12 
  -1   3  11    9.72    1.42 
  -1   4  11    4.53    0.67 
  -1   5  11    1.87    0.59 
   0  -3  11   10.35    1.52 
   0  -2  11   15.78    1.73 
   0  -1  11   26.05    2.49 
   0   0  11   33.75    2.99 
   0   1  11   26.02    2.43 
   0   2  11   18.94    1.93 
   0   3  11   21.45    2.10 
   0   4  11   10.35    1.44 
   0   5  11   14.21    1.69 
   0   6  11    3.37    0.80 
   1  -3  11   12.11    1.56 
   1  -2  11    1.39    0.66 
   1  -1  11   13.96    1.59 
   1   0  11    5.81    1.20 
   1   1  11   17.93    1.86 
   1   2  11   12.71    1.54 
   1   3  11   20.40    2.03 
   1   4  11    8.70    1.33 
   1   5  11   10.52    1.54 
   2  -3  11    3.42    0.83 
   2  -2  11    5.18    0.87 
   2  -1  11   11.31    1.61 
   2   0  11    7.93    1.48 
  -2   0 -11    9.67    1.33 
   2   1  11   16.20    1.73 
  -2  -1 -11   14.90    1.73 
   2   2  11   17.87    1.98 
  -2  -2 -11   21.39    2.09 
   2   3  11   16.95    1.68 
  -2  -3 -11   12.96    1.73 
  -2  -4 -11    6.80    1.34 
   3  -3  11    7.58    1.50 
   3  -2  11    7.91    1.40 
   3  -1  11   13.04    1.72 
  -3   1 -11   14.86    1.90 
   3   0  11   19.32    2.11 
  -3   0 -11   20.04    2.12 
   3   1  11   11.71    1.55 
  -3  -1 -11    9.36    1.36 
   3   2  11   24.71    2.37 
  -3  -2 -11   24.30    2.49 
   3   3  11   16.18    1.67 
  -3  -3 -11   12.34    1.75 
   3   4  11   13.83    1.54 
  -3  -4 -11    9.90    1.61 
   3   5  11    9.23    1.57 
   4  -3  11    1.86    0.91 
   4  -2  11    5.44    0.97 
  -4   2 -11    2.38    1.73 
   4  -1  11    1.24    0.85 
  -4   1 -11    1.90    1.53 
   4   0  11    4.84    0.99 
  -4   0 -11    5.40    1.11 
   4   1  11    0.96    0.83 
  -4  -1 -11    1.51    0.72 
   4   2  11    3.06    0.88 
  -4  -2 -11    2.18    0.76 
   4   3  11    7.94    1.46 
  -4  -3 -11    7.75    1.21 
   4   4  11    5.28    0.94 
  -4  -4 -11    5.40    1.07 
   4   5  11    4.69    0.93 
  -4  -5 -11    2.36    1.12 
   4   6  11    3.51    0.94 
  -4  -6 -11   -0.23    1.08 
   5  -2  11    1.61    0.90 
  -5   2 -11    2.29    1.63 
   5  -1  11    2.81    0.92 
  -5   1 -11    1.44    1.64 
   5   0  11    1.99    0.89 
  -5   0 -11    1.02    1.39 
   5   1  11    5.86    1.05 
  -5  -1 -11    5.88    1.16 
   5   2  11    0.05    0.83 
  -5  -2 -11    2.18    0.76 
   5   3  11    2.52    0.90 
  -5  -3 -11    3.07    0.81 
   5   4  11    2.77    0.97 
  -5  -4 -11    3.98    0.94 
   5   5  11    0.94    0.84 
  -5  -5 -11    0.07    0.94 
   6  -1  11    1.98    0.85 
  -6   1 -11    2.34    1.54 
   6   0  11    0.62    0.85 
  -6   0 -11    0.93    1.36 
   6   1  11    4.35    0.95 
  -6  -1 -11    4.50    0.97 
  -6  -1 -11    1.33    1.41 
   6   2  11    2.01    0.90 
  -6  -2 -11    3.34    0.80 
  -6  -2 -11    0.52    1.27 
   6   3  11    2.43    0.91 
  -6  -3 -11    3.54    0.84 
   6   4  11    2.43    0.98 
  -6  -4 -11    3.63    0.91 
  -7  -2 -11    0.86    1.25 
  -3  -1  12    8.20    1.55 
  -3  -1  12    9.85    1.11 
  -3   0  12    3.91    0.94 
  -3   0  12    3.77    0.70 
  -3   1  12    3.97    0.69 
  -3   1  12    4.98    1.01 
  -2  -2  12    6.99    1.40 
  -2  -1  12   10.13    1.59 
  -2   0  12   12.93    1.70 
  -2   1  12   11.90    1.29 
  -2   2  12    9.33    1.41 
  -2   2  12    8.27    1.17 
  -2   3  12    0.70    0.64 
  -2   3  12    2.90    0.84 
  -1  -2  12   13.92    1.85 
  -1  -1  12    8.95    1.49 
  -1   0  12   33.70    3.10 
  -1   1  12   11.77    1.60 
  -1   2  12   21.69    2.22 
  -1   3  12    8.43    1.46 
  -1   3  12    7.86    1.12 
  -1   4  12    3.65    0.71 
   0  -2  12   13.00    1.67 
   0  -1  12   10.10    1.51 
   0   0  12   19.48    2.05 
   0   1  12   13.94    1.69 
   0   2  12   20.63    2.09 
   0   3  12    7.27    1.33 
   0   4  12   16.15    1.84 
   1  -3  12    1.94    0.82 
   1  -2  12    8.18    1.54 
   1  -1  12    8.58    1.44 
   1   0  12   12.66    1.63 
   1   1  12   13.11    1.67 
   1   2  12   16.86    1.87 
   1   3  12    9.23    1.45 
   1   4  12   10.86    1.60 
   1   5  12    7.97    1.54 
   2  -3  12    6.91    1.39 
   2  -2  12    4.25    0.91 
   2  -1  12   16.97    1.92 
   2   0  12   14.72    1.78 
   2   1  12   19.52    2.06 
   2   2  12   24.57    2.29 
  -2  -2 -12   21.43    2.40 
   2   3  12   17.89    1.88 
  -2  -3 -12   15.36    1.94 
   2   4  12   14.39    1.76 
   2   5  12    8.08    1.47 
   3  -3  12    1.01    0.88 
   3  -2  12    1.93    0.98 
   3  -1  12    7.34    1.16 
   3   0  12   12.79    1.80 
  -3   0 -12   12.14    1.69 
   3   1  12    7.53    1.56 
  -3  -1 -12    7.47    1.39 
   3   2  12   11.07    1.62 
  -3  -2 -12   10.87    1.51 
   3   3  12    2.98    0.86 
  -3  -3 -12    2.22    0.90 
   3   4  12   10.50    1.53 
  -3  -4 -12    7.61    1.51 
   3   5  12    2.04    0.86 
  -3  -5 -12   -1.14    1.06 
   4  -2  12    0.73    0.96 
   4  -1  12    4.97    1.09 
  -4   1 -12    1.84    1.75 
  -4   1 -12    5.85    1.31 
   4   0  12    3.90    1.07 
  -4   0 -12    2.05    1.69 
  -4   0 -12    5.42    1.12 
   4   1  12   11.10    1.86 
  -4  -1 -12   12.19    1.60 
   4   2  12    8.77    1.74 
  -4  -2 -12   12.00    1.55 
   4   3  12    4.89    1.06 
  -4  -3 -12    6.10    1.19 
   4   4  12    1.45    0.88 
  -4  -4 -12    2.66    0.94 
   4   5  12    3.28    1.00 
  -4  -5 -12    2.47    1.08 
   5  -1  12    0.68    0.99 
  -5   1 -12    1.44    1.82 
   5   0  12    3.76    1.13 
  -5   0 -12    4.21    1.16 
  -5   0 -12    1.44    1.70 
   5   1  12   -0.38    0.98 
  -5  -1 -12    0.61    0.87 
   5   2  12    8.25    1.74 
  -5  -2 -12   11.17    1.48 
   5   3  12    0.89    0.99 
  -5  -3 -12    1.76    0.85 
   5   4  12    1.62    0.99 
  -5  -4 -12    2.53    0.97 
  -6  -1 -12    1.79    1.54 
  -1  -1  13   11.61    1.68 
  -1   0  13   10.56    1.61 
  -1   1  13   11.91    1.69 
  -1   2  13    7.77    1.54 
   0  -2  13   10.60    1.76 
   0  -1  13    8.97    1.57 
   0   0  13   14.01    1.89 
   0   1  13    7.94    1.59 
   0   2  13   11.43    1.62 
   0   3  13    7.05    1.43 
   1  -2  13    4.06    0.97 
   1  -1  13   10.31    1.66 
   1   0  13   10.31    1.64 
   1   1  13    5.13    1.01 
   1   2  13    7.50    1.50 
   1   3  13   11.17    1.73 
   1   4  13    9.07    1.51 
   2  -2  13    4.18    1.07 
   2  -1  13    3.20    0.99 
   2   0  13    7.74    1.58 
   2   1  13    9.31    1.77 
   2   2  13    3.16    0.97 
   2   3  13    9.65    1.75 
   2   4  13    4.50    1.01 
   3  -1  13    1.77    1.05 
   3   0  13   10.24    1.83 
   3   1  13    1.92    1.02 
   3   2  13   12.49    1.89 
  -3  -2 -13   14.29    1.77 
   3   3  13    0.84    0.95 
  -3  -3 -13    0.31    0.95 
   3   4  13   10.12    1.79 
  -3  -4 -13    7.44    1.40 
   4   0  13   -0.86    1.12 
   4   1  13    5.15    1.34 
  -4  -1 -13    6.85    1.36 
   4   2  13    2.37    1.09 
  -4  -2 -13    0.87    0.93 
   4   3  13    4.77    1.14 
   0   0   0    0.00    0.00 
;
_shelx_hkl_checksum              30886
loop_
_space_group_symop_operation_xyz
'x, y, z'
loop_
_atom_site_label
_atom_site_type_symbol
_atom_site_fract_x
_atom_site_fract_y
_atom_site_fract_z
_atom_site_U_iso_or_equiv
_atom_site_adp_type
_atom_site_occupancy
_atom_site_site_symmetry_order
_atom_site_calc_flag
_atom_site_refinement_flags_posn
_atom_site_refinement_flags_adp
Br1 Br 0.19540(10) 0.36651(10) 0.48015(9) 0.0622(5) Uani 1 1 d . .
C1 C 0.482(2) 0.3560(19) -0.2264(11) 0.042(3) Uani 1 1 d . .
C2 C 0.3526(16) 0.2186(16) -0.1571(11) 0.038(2) Uani 1 1 d . .
H2 H 0.2383 0.2276 -0.1990 0.046 Uiso 1 1 calc R U
C3 C 0.4688(16) 0.0123(16) -0.1594(12) 0.038(2) Uani 1 1 d . .
H3A H 0.5200 -0.0144 -0.2466 0.045 Uiso 1 1 calc R U
H3B H 0.5790 0.0026 -0.1151 0.045 Uiso 1 1 calc R U
C4 C 0.3440(15) -0.1370(15) -0.0983(12) 0.038(2) Uani 1 1 d . .
C5 C 0.3442(16) -0.2292(16) 0.0191(12) 0.039(2) Uani 1 1 d . .
H5 H 0.2567 -0.3161 0.0431 0.047 Uiso 1 1 calc R U
C6 C 0.1929(17) -0.1796(16) -0.1644(12) 0.040(3) Uani 1 1 d . .
C7 C 0.753(2) 0.503(2) -0.2281(17) 0.063(4) Uani 1 1 d . .
H7A H 0.8456 0.4359 -0.2915 0.094 Uiso 1 1 calc R U
H7B H 0.8205 0.5403 -0.1674 0.094 Uiso 1 1 calc R U
H7C H 0.6814 0.6162 -0.2675 0.094 Uiso 1 1 calc R U
C8 C 0.062(3) -0.116(3) -0.3529(17) 0.069(5) Uani 1 1 d . .
H8A H 0.1094 -0.2302 -0.3966 0.103 Uiso 1 1 calc R U
H8B H 0.0406 -0.0061 -0.4135 0.103 Uiso 1 1 calc R U
H8C H -0.0581 -0.1296 -0.2973 0.103 Uiso 1 1 calc R U
C9 C 0.4666(18) -0.2098(16) 0.1153(13) 0.043(3) Uani 1 1 d . .
C10 C 0.369(2) -0.206(3) 0.2400(17) 0.063(4) Uani 1 1 d . .
H10 H 0.2383 -0.2221 0.2586 0.075 Uiso 1 1 calc R U
C11 C 0.463(3) -0.180(3) 0.3341(17) 0.066(4) Uani 1 1 d . .
H11 H 0.3959 -0.1707 0.4165 0.080 Uiso 1 1 calc R U
C12 C 0.6568(19) -0.1668(19) 0.3073(12) 0.046(3) Uani 1 1 d . .
C13 C 0.7604(17) -0.184(2) 0.1859(13) 0.047(3) Uani 1 1 d . .
H13 H 0.8944 -0.1829 0.1696 0.057 Uiso 1 1 calc R U
C14 C 0.6628(18) -0.2034(18) 0.0902(13) 0.045(3) Uani 1 1 d . .
H14 H 0.7301 -0.2122 0.0078 0.054 Uiso 1 1 calc R U
C15 C 0.1105(17) 0.2671(16) 0.0110(12) 0.041(3) Uani 1 1 d . .
H15 H 0.0311 0.2515 -0.0462 0.049 Uiso 1 1 calc R U
C16 C 0.0227(19) 0.2976(15) 0.1445(12) 0.041(3) Uani 1 1 d . .
C17 C -0.175(2) 0.301(2) 0.1785(18) 0.053(4) Uani 1 1 d . .
H17 H -0.2493 0.2853 0.1184 0.063 Uiso 1 1 calc R U
C18 C -0.264(2) 0.328(2) 0.3022(16) 0.055(3) Uani 1 1 d . .
H18 H -0.3987 0.3345 0.3246 0.066 Uiso 1 1 calc R U
C19 C -0.152(2) 0.3454(19) 0.3927(15) 0.054(3) Uani 1 1 d . .
H19 H -0.2130 0.3583 0.4761 0.065 Uiso 1 1 calc R U
C20 C 0.045(2) 0.3441(17) 0.3628(14) 0.050(3) Uani 1 1 d . .
C21 C 0.1298(17) 0.3190(17) 0.2328(12) 0.039(2) Uani 1 1 d . .
H21 H 0.2637 0.3174 0.2085 0.047 Uiso 1 1 calc R U
N1 N 0.761(3) -0.145(3) 0.4073(13) 0.074(3) Uani 1 1 d . U
N2 N 0.2874(14) 0.2621(13) -0.0250(10) 0.039(2) Uani 1 1 d . .
O1 O 0.9349(19) -0.150(2) 0.3864(14) 0.085(4) Uani 1 1 d . .
O2 O 0.663(2) -0.123(2) 0.5136(11) 0.076(3) Uani 1 1 d . U
O3 O 0.0764(17) -0.2822(17) -0.1219(10) 0.065(3) Uani 1 1 d . .
O4 O 0.2046(16) -0.0876(15) -0.2803(9) 0.056(2) Uani 1 1 d . .
O5 O 0.471(3) 0.429(2) -0.3324(13) 0.095(5) Uani 1 1 d . .
O6 O 0.6210(14) 0.3801(15) -0.1659(11) 0.052(2) Uani 1 1 d . .
loop_
_atom_site_aniso_label
_atom_site_aniso_U_11
_atom_site_aniso_U_22
_atom_site_aniso_U_33
_atom_site_aniso_U_23
_atom_site_aniso_U_13
_atom_site_aniso_U_12
Br1 0.0726(8) 0.0824(9) 0.0339(7) -0.0061(5) -0.0044(5) -0.0224(6)
C1 0.058(7) 0.058(7) 0.019(6) -0.004(5) -0.013(5) -0.023(6)
C2 0.042(5) 0.047(6) 0.033(6) -0.005(5) -0.012(5) -0.015(4)
C3 0.041(5) 0.043(6) 0.034(6) -0.003(4) -0.007(4) -0.017(4)
C4 0.039(5) 0.039(6) 0.041(7) -0.013(5) -0.007(5) -0.015(4)
C5 0.046(6) 0.044(6) 0.031(6) 0.004(5) -0.014(5) -0.015(4)
C6 0.054(6) 0.039(6) 0.033(6) -0.003(5) -0.021(5) -0.010(5)
C7 0.071(9) 0.068(9) 0.060(10) -0.009(7) -0.012(7) -0.032(7)
C8 0.100(12) 0.083(10) 0.046(9) 0.003(8) -0.043(9) -0.046(9)
C9 0.049(6) 0.041(6) 0.040(7) 0.007(5) -0.015(5) -0.013(5)
C10 0.050(7) 0.091(11) 0.051(9) -0.010(8) -0.009(7) -0.024(7)
C11 0.065(9) 0.086(11) 0.049(9) -0.004(8) -0.014(7) -0.012(7)
C12 0.054(7) 0.057(7) 0.029(6) 0.004(5) -0.020(5) -0.012(5)
C13 0.036(5) 0.064(7) 0.043(7) 0.004(6) -0.008(5) -0.016(5)
C14 0.044(6) 0.053(7) 0.036(7) 0.000(5) -0.003(5) -0.007(5)
C15 0.044(6) 0.040(6) 0.039(7) -0.009(5) -0.009(5) -0.002(4)
C16 0.055(7) 0.027(5) 0.038(7) 0.000(4) -0.002(5) -0.003(4)
C17 0.041(6) 0.048(7) 0.070(11) -0.006(7) -0.006(6) -0.010(5)
C18 0.043(6) 0.059(8) 0.059(9) -0.010(6) 0.004(6) -0.011(5)
C19 0.066(8) 0.044(7) 0.044(9) -0.004(6) 0.011(6) -0.004(6)
C20 0.067(9) 0.038(6) 0.032(7) 0.018(5) 0.007(5) -0.004(5)
C21 0.040(6) 0.043(6) 0.032(6) -0.008(5) 0.005(5) -0.006(4)
N1 0.098(8) 0.107(6) 0.026(6) -0.009(5) -0.029(6) -0.025(5)
N2 0.047(5) 0.042(5) 0.031(5) -0.006(4) -0.004(4) -0.014(4)
O1 0.062(7) 0.126(10) 0.074(9) -0.030(8) -0.035(6) -0.002(6)
O2 0.101(8) 0.109(6) 0.028(6) -0.010(5) -0.027(6) -0.025(5)
O3 0.075(6) 0.088(7) 0.048(6) 0.015(5) -0.027(5) -0.054(5)
O4 0.069(6) 0.079(6) 0.034(5) 0.000(5) -0.022(5) -0.040(5)
O5 0.128(11) 0.129(11) 0.053(8) 0.040(8) -0.050(9) -0.084(9)
O6 0.053(5) 0.062(6) 0.050(7) 0.004(5) -0.013(5) -0.032(4)
loop_
_atom_type_symbol
_atom_type_description
_atom_type_scat_dispersion_real
_atom_type_scat_dispersion_imag
_atom_type_scat_source
C C 0.0033 0.0016 'International Tables Vol C Tables 4.2.6.8 and 6.1.1.4'
H H 0.0000 0.0000 'International Tables Vol C Tables 4.2.6.8 and 6.1.1.4'
N N 0.0061 0.0033 'International Tables Vol C Tables 4.2.6.8 and 6.1.1.4'
O O 0.0106 0.0060 'International Tables Vol C Tables 4.2.6.8 and 6.1.1.4'
Br Br -0.2901 2.4595 'International Tables Vol C Tables 4.2.6.8 and 6.1.1.4'
loop_
_geom_angle_atom_site_label_1
_geom_angle_atom_site_label_2
_geom_angle_atom_site_label_3
_geom_angle
O5 C1 O6 121.6(13)
O5 C1 C2 124.0(11)
O6 C1 C2 114.2(11)
N2 C2 C1 110.9(9)
N2 C2 C3 108.8(10)
C1 C2 C3 108.8(10)
N2 C2 H2 109.5
C1 C2 H2 109.5
C3 C2 H2 109.5
C4 C3 C2 112.0(9)
C4 C3 H3A 109.2
C2 C3 H3A 109.2
C4 C3 H3B 109.2
C2 C3 H3B 109.2
H3A C3 H3B 107.9
C5 C4 C6 114.0(10)
C5 C4 C3 126.5(10)
C6 C4 C3 119.3(11)
C4 C5 C9 128.4(10)
C4 C5 H5 115.8
C9 C5 H5 115.8
O3 C6 O4 124.0(10)
O3 C6 C4 125.4(12)
O4 C6 C4 110.7(11)
O6 C7 H7A 109.5
O6 C7 H7B 109.5
H7A C7 H7B 109.5
O6 C7 H7C 109.5
H7A C7 H7C 109.5
H7B C7 H7C 109.5
O4 C8 H8A 109.5
O4 C8 H8B 109.5
H8A C8 H8B 109.5
O4 C8 H8C 109.5
H8A C8 H8C 109.5
H8B C8 H8C 109.5
C14 C9 C10 119.5(12)
C14 C9 C5 125.1(12)
C10 C9 C5 115.3(11)
C11 C10 C9 120.4(14)
C11 C10 H10 119.8
C9 C10 H10 119.8
C12 C11 C10 119.4(16)
C12 C11 H11 120.3
C10 C11 H11 120.3
C11 C12 C13 121.2(12)
C11 C12 N1 120.1(14)
C13 C12 N1 118.6(13)
C14 C13 C12 119.1(11)
C14 C13 H13 120.5
C12 C13 H13 120.5
C9 C14 C13 120.2(12)
C9 C14 H14 119.9
C13 C14 H14 119.9
N2 C15 C16 120.7(11)
N2 C15 H15 119.7
C16 C15 H15 119.7
C21 C16 C17 119.5(13)
C21 C16 C15 122.7(11)
C17 C16 C15 117.8(13)
C16 C17 C18 120.1(16)
C16 C17 H17 120.0
C18 C17 H17 120.0
C17 C18 C19 119.9(13)
C17 C18 H18 120.0
C19 C18 H18 120.0
C20 C19 C18 121.9(13)
C20 C19 H19 119.0
C18 C19 H19 119.0
C19 C20 C21 116.0(14)
C19 C20 Br1 122.8(11)
C21 C20 Br1 121.2(10)
C16 C21 C20 122.5(12)
C16 C21 H21 118.7
C20 C21 H21 118.7
O2 N1 O1 122.7(13)
O2 N1 C12 116.9(15)
O1 N1 C12 120.5(14)
C15 N2 C2 113.9(10)
C6 O4 C8 115.6(11)
C1 O6 C7 117.2(13)
loop_
_geom_bond_atom_site_label_1
_geom_bond_atom_site_label_2
_geom_bond_distance
Br1 C20 1.826(17)
C1 O5 1.203(18)
C1 O6 1.316(16)
C1 C2 1.493(17)
C2 N2 1.464(15)
C2 C3 1.537(17)
C2 H2 0.9800
C3 C4 1.511(15)
C3 H3A 0.9700
C3 H3B 0.9700
C4 C5 1.351(18)
C4 C6 1.472(14)
C5 C9 1.494(15)
C5 H5 0.9300
C6 O3 1.187(17)
C6 O4 1.333(17)
C7 O6 1.412(18)
C7 H7A 0.9600
C7 H7B 0.9600
C7 H7C 0.9600
C8 O4 1.429(16)
C8 H8A 0.9600
C8 H8B 0.9600
C8 H8C 0.9600
C9 C14 1.367(18)
C9 C10 1.39(2)
C10 C11 1.35(2)
C10 H10 0.9300
C11 C12 1.36(2)
C11 H11 0.9300
C12 C13 1.38(2)
C12 N1 1.444(18)
C13 C14 1.369(18)
C13 H13 0.9300
C14 H14 0.9300
C15 N2 1.231(16)
C15 C16 1.483(18)
C15 H15 0.9300
C16 C21 1.351(18)
C16 C17 1.37(2)
C17 C18 1.39(2)
C17 H17 0.9300
C18 C19 1.39(2)
C18 H18 0.9300
C19 C20 1.36(2)
C19 H19 0.9300
C20 C21 1.438(18)
C21 H21 0.9300
N1 O2 1.24(2)
N1 O1 1.20(2)
