#------------------------------------------------------------------------------
#$Date: 2017-11-07 03:28:23 +0200 (Tue, 07 Nov 2017) $
#$Revision: 202851 $
#$URL: file:///home/coder/svn-repositories/cod/cif/1/54/77/1547701.cif $
#------------------------------------------------------------------------------
#
# This file is available in the Crystallography Open Database (COD),
# http://www.crystallography.net/
#
# All data on this site have been placed in the public domain by the
# contributors.
#
data_1547701
loop_
_publ_author_name
'Horwitz, Matthew A.'
'Fulton, Jennifer L.'
'Johnson, Jeffrey S.'
_publ_section_title
;
 Enantio- and Diastereoselective Organocatalytic Conjugate Additions of
 Nitroalkanes to Enone Diesters.
;
_journal_issue                   21
_journal_name_full               'Organic letters'
_journal_page_first              5783
_journal_page_last               5785
_journal_paper_doi               10.1021/acs.orglett.7b02735
_journal_volume                  19
_journal_year                    2017
_chemical_absolute_configuration ad
_chemical_formula_moiety         'C21 H28 Br N O7'
_chemical_formula_sum            'C21 H28 Br N O7'
_chemical_formula_weight         486.35
_chemical_name_common            166HC
_space_group_crystal_system      triclinic
_space_group_IT_number           1
_space_group_name_Hall           'P 1'
_space_group_name_H-M_alt        'P 1'
_symmetry_space_group_name_Hall  'P 1'
_symmetry_space_group_name_H-M   'P 1'
_atom_sites_solution_hydrogens   geom
_cell_angle_alpha                89.3430(11)
_cell_angle_beta                 87.7380(12)
_cell_angle_gamma                86.3034(12)
_cell_formula_units_Z            1
_cell_length_a                   5.84650(10)
_cell_length_b                   9.7587(2)
_cell_length_c                   9.8846(2)
_cell_measurement_reflns_used    123
_cell_measurement_temperature    100
_cell_measurement_theta_max      26.0631
_cell_measurement_theta_min      2.0801
_cell_volume                     562.324(19)
_computing_cell_refinement       'APEX3 v2016.5-0 (Bruker AXS)'
_computing_data_collection       'Bruker Instrument Service v2013.12.0.0'
_computing_data_reduction        'SAINT V8.38A (Bruker AXS Inc., 2017)'
_computing_structure_refinement  'XL (Sheldrick, 2008)'
_computing_structure_solution    'XS, VERSION 2013/1'
_diffrn_ambient_temperature      100
_diffrn_detector_area_resol_mean 8.3333
_diffrn_measured_fraction_theta_full 0.998
_diffrn_measured_fraction_theta_max 0.998
_diffrn_measurement_device_type  'Bruker-Nonius X8 Kappa APEX II'
_diffrn_measurement_method       'phi and omega scans'
_diffrn_radiation_monochromator  graphite
_diffrn_radiation_type           MoK\a
_diffrn_radiation_wavelength     0.71073
_diffrn_reflns_av_R_equivalents  0.0271
_diffrn_reflns_av_unetI/netI     0.0573
_diffrn_reflns_limit_h_max       8
_diffrn_reflns_limit_h_min       -8
_diffrn_reflns_limit_k_max       14
_diffrn_reflns_limit_k_min       -14
_diffrn_reflns_limit_l_max       14
_diffrn_reflns_limit_l_min       -14
_diffrn_reflns_number            21897
_diffrn_reflns_theta_full        31.56
_diffrn_reflns_theta_max         31.56
_diffrn_reflns_theta_min         2.06
_diffrn_source                   'fine-focus sealed tube'
_exptl_absorpt_coefficient_mu    1.868
_exptl_absorpt_correction_T_max  0.75
_exptl_absorpt_correction_T_min  0.70
_exptl_absorpt_correction_type   multi-scan
_exptl_absorpt_process_details
;
SADABS-2016/2 - Bruker AXS area detector scaling and absorption correction
;
_exptl_crystal_colour            colourless
_exptl_crystal_density_diffrn    1.436
_exptl_crystal_density_method    'not measured'
_exptl_crystal_description       block
_exptl_crystal_F_000             252
_exptl_crystal_size_max          0.195
_exptl_crystal_size_mid          0.157
_exptl_crystal_size_min          0.109
_refine_diff_density_max         0.594
_refine_diff_density_min         -0.468
_refine_ls_abs_structure_details
;

Flack x determined using 3167 quotients [(I+)-(I-)]/[(I+)+(I-)]
(Parsons, Flack and Wagner, Acta Cryst. B69 (2013) 249-259).
;
_refine_ls_abs_structure_Flack   0.024(3)
_refine_ls_extinction_method     none
_refine_ls_goodness_of_fit_ref   0.879
_refine_ls_hydrogen_treatment    constr
_refine_ls_matrix_type           full
_refine_ls_number_parameters     278
_refine_ls_number_reflns         7421
_refine_ls_number_restraints     3
_refine_ls_restrained_S_all      0.879
_refine_ls_R_factor_all          0.0280
_refine_ls_R_factor_gt           0.0253
_refine_ls_shift/su_max          0.000
_refine_ls_shift/su_mean         0.000
_refine_ls_structure_factor_coef Fsqd
_refine_ls_weighting_details     'w=1/[\s^2^(Fo^2^)] where P=(Fo^2^+2Fc^2^)/3'
_refine_ls_weighting_scheme      calc
_refine_ls_wR_factor_gt          0.0493
_refine_ls_wR_factor_ref         0.0500
_reflns_number_gt                7033
_reflns_number_total             7421
_reflns_threshold_expression     'I > 2\s(I)'
_cod_data_source_file            ol7b02735_si_001.cif
_cod_data_source_block           rds671
_cod_depositor_comments
;
The following automatic conversions were performed:

'_exptl_absorpt_correction_type' value 'Multi-Scan' changed to
'multi-scan' according to
/home/data/users/saulius/crontab/automatic-downloads/rss-feeds/ACS/lib/dictionaries/cif_core.dic
dictionary named 'cif_core.dic' version 2.4.2 from 2011-04-26.

Automatic conversion script
Id: cif_fix_values 4973 2017-02-22 13:04:09Z antanas 

 Adding full bibliography for 1547701.cif.
;
_cod_database_code               1547701
_shelx_res_file
;
TITL rds671_0m in P1
    rds671_0m.res
    created by SHELXL-2016/6 at 00:37:25 on 18-Jul-2017
CELL 0.71073 5.8465 9.7587 9.8846 89.343 87.738 86.3034
ZERR 1 0.0001 0.0002 0.0002 0.0011 0.0012 0.0012
LATT -1
SFAC C H Br N O
UNIT 21 28 1 1 7

L.S. 10
PLAN  5
SIZE 0.109 0.157 0.195
TEMP -173.14
BOND $h
list 4
conf
fmap 2
acta

WGHT    0.000000
FVAR       0.38070
BR1   3   -0.159200    0.630800    1.041620    11.00000    0.02428    0.01564 =
         0.01405   -0.00507    0.00585   -0.00376
O1    5   -0.036313    0.215521    0.491228    11.00000    0.01306    0.01954 =
         0.01619   -0.00616   -0.00144   -0.00310
O2    5    0.470502    0.385960    0.117650    11.00000    0.14370    0.05895 =
         0.02690   -0.02020    0.04377   -0.06711
O3    5    0.680954    0.396741    0.291659    11.00000    0.02562    0.07265 =
         0.07901    0.05703    0.02058    0.01181
O4    5    0.214622   -0.045319    0.379675    11.00000    0.01874    0.01545 =
         0.01703    0.00205   -0.00112   -0.00774
O5    5    0.290715    0.108247    0.212892    11.00000    0.01754    0.01306 =
         0.00866   -0.00097   -0.00254   -0.00337
O6    5    0.435446    0.111737    0.663858    11.00000    0.01927    0.01504 =
         0.00952   -0.00014    0.00045    0.00243
O7    5    0.633686   -0.040732    0.525397    11.00000    0.01230    0.01147 =
         0.01120    0.00245    0.00058    0.00300
N1    4    0.500186    0.387047    0.240079    11.00000    0.05425    0.01313 =
         0.03251    0.00720    0.02447    0.00237
C1    1    0.108552    0.284259    0.536613    11.00000    0.01070    0.01077 =
         0.00989    0.00132   -0.00113    0.00068
C2    1    0.336820    0.292580    0.455552    11.00000    0.01290    0.00925 =
         0.00810   -0.00008    0.00022   -0.00020
AFIX  13
H2    2    0.445493    0.339298    0.512512    11.00000   -1.20000
AFIX   0
C3    1    0.287959    0.383569    0.330326    11.00000    0.02307    0.01275 =
         0.01070    0.00156    0.00176    0.00047
AFIX  13
H3    2    0.164486    0.343717    0.278943    11.00000   -1.20000
AFIX   0
C4    1    0.214210    0.530632    0.364863    11.00000    0.03485    0.01144 =
         0.01581    0.00016   -0.00154    0.00604
AFIX 137
H4A   2    0.067484    0.533563    0.416561    11.00000   -1.50000
H4B   2    0.196683    0.584506    0.281210    11.00000   -1.50000
H4C   2    0.330618    0.569235    0.419224    11.00000   -1.50000
AFIX   0
C5    1    0.442023    0.147092    0.422704    11.00000    0.00974    0.01023 =
         0.00857    0.00010    0.00036   -0.00119
AFIX  13
H5    2    0.589515    0.158237    0.370225    11.00000   -1.20000
AFIX   0
C6    1    0.298205    0.057319    0.338422    11.00000    0.01019    0.01318 =
         0.00988   -0.00104    0.00058    0.00073
C7    1    0.501122    0.071924    0.553200    11.00000    0.00865    0.01034 =
         0.01181    0.00087   -0.00048   -0.00130
C8    1    0.059469    0.363703    0.664158    11.00000    0.01072    0.01032 =
         0.01015    0.00054   -0.00155    0.00071
C9    1    0.210225    0.452245    0.717208    11.00000    0.01053    0.01415 =
         0.01294   -0.00100    0.00172   -0.00164
AFIX  43
H9    2    0.357354    0.459984    0.674542    11.00000   -1.20000
AFIX   0
C10   1    0.148096    0.529177    0.831499    11.00000    0.01423    0.01337 =
         0.01364   -0.00235   -0.00155   -0.00311
AFIX  43
H10   2    0.251701    0.589179    0.867314    11.00000   -1.20000
AFIX   0
C11   1   -0.066177    0.517392    0.892466    11.00000    0.01781    0.01035 =
         0.00824   -0.00007    0.00097    0.00169
C12   1   -0.217425    0.426327    0.845301    11.00000    0.01164    0.01590 =
         0.01409   -0.00075    0.00258   -0.00106
AFIX  43
H12   2   -0.361836    0.416335    0.890586    11.00000   -1.20000
AFIX   0
C13   1   -0.153060    0.350429    0.730816    11.00000    0.01178    0.01406 =
         0.01324   -0.00094   -0.00114   -0.00239
AFIX  43
H13   2   -0.255282    0.288318    0.697126    11.00000   -1.20000
AFIX   0
C14   1    0.171900    0.038788    0.105358    11.00000    0.01522    0.01932 =
         0.01147   -0.00497   -0.00307   -0.00268
C15   1   -0.081618    0.036704    0.143223    11.00000    0.01439    0.04162 =
         0.02133   -0.00633   -0.00226   -0.00087
AFIX 137
H15A  2   -0.102777   -0.022128    0.223167    11.00000   -1.50000
H15B  2   -0.162201    0.000683    0.067539    11.00000   -1.50000
H15C  2   -0.143793    0.130208    0.163446    11.00000   -1.50000
AFIX   0
C16   1    0.286371   -0.103422    0.083141    11.00000    0.02155    0.01850 =
         0.02047   -0.00862    0.00085   -0.00258
AFIX 137
H16A  2    0.451774   -0.096578    0.067242    11.00000   -1.50000
H16B  2    0.222454   -0.144930    0.004325    11.00000   -1.50000
H16C  2    0.258891   -0.160699    0.163494    11.00000   -1.50000
AFIX   0
C17   1    0.212828    0.130445   -0.017156    11.00000    0.02980    0.02747 =
         0.01236   -0.00077   -0.00425   -0.00476
AFIX 137
H17A  2    0.145342    0.223209    0.001270    11.00000   -1.50000
H17B  2    0.141434    0.093255   -0.095708    11.00000   -1.50000
H17C  2    0.378134    0.134050   -0.036135    11.00000   -1.50000
AFIX   0
C18   1    0.707408   -0.137996    0.633303    11.00000    0.01128    0.01150 =
         0.01389    0.00456   -0.00150    0.00036
C19   1    0.498161   -0.192216    0.706804    11.00000    0.01649    0.01569 =
         0.02037    0.00653   -0.00079   -0.00213
AFIX 137
H19A  2    0.415144   -0.117589    0.757475    11.00000   -1.50000
H19B  2    0.547103   -0.265803    0.769620    11.00000   -1.50000
H19C  2    0.397283   -0.228225    0.640721    11.00000   -1.50000
AFIX   0
C20   1    0.840178   -0.250054    0.553188    11.00000    0.01811    0.01312 =
         0.02304    0.00214    0.00056    0.00455
AFIX 137
H20A  2    0.738908   -0.289592    0.489483    11.00000   -1.50000
H20B  2    0.898627   -0.321912    0.615230    11.00000   -1.50000
H20C  2    0.969028   -0.211267    0.502938    11.00000   -1.50000
AFIX   0
C21   1    0.861675   -0.067916    0.727763    11.00000    0.01724    0.01960 =
         0.02010    0.00375   -0.00645   -0.00188
AFIX 137
H21A  2    0.985933   -0.027607    0.674623    11.00000   -1.50000
H21B  2    0.926855   -0.135596    0.791903    11.00000   -1.50000
H21C  2    0.771628    0.004607    0.777623    11.00000   -1.50000
AFIX   0
HKLF 4




REM  rds671_0m in P1
REM R1 =  0.0253 for    7033 Fo > 4sig(Fo)  and  0.0280 for all    7421 data
REM    278 parameters refined using      3 restraints

END

WGHT      0.0000      0.0000

REM Highest difference peak  0.594,  deepest hole -0.468,  1-sigma level  0.054
Q1    1   0.6072  0.3540  0.1674  11.00000  0.05    0.50
Q2    1   0.0689 -0.0953 -0.0742  11.00000  0.05    0.40
Q3    1   0.6811  0.4659  0.3467  11.00000  0.05    0.39
Q4    1   0.6493  0.3780  0.2727  11.00000  0.05    0.35
Q5    1   0.2601 -0.1410 -0.0306  11.00000  0.05    0.35
;
_shelx_res_checksum              33051
_shelx_hkl_file
;
   1   0   0   33.88    2.06
   1   0   0   31.85    2.15
   1   0   0   32.44    2.04
   1   0   0   31.10    2.01
   1   0   0   31.34    2.25
   1   0   0   30.65    2.21
   1   0   0   32.68    2.10
   1   0   0   31.37    2.16
   1   0   0   32.46    2.06
   1   0   0   33.29    2.04
  -2   0   0  299.08   18.16
  -2   0   0  294.30   18.27
  -2   0   0  315.88   18.14
  -2   0   0  294.71   18.30
  -2   0   0  301.12   18.19
  -2   0   0  304.07   18.60
  -2   0   0  290.05   18.50
  -2   0   0  299.33   18.17
   2   0   0  275.92   18.37
   2   0   0  287.61   18.16
   2   0   0  281.05   18.35
   2   0   0  283.23   18.57
   2   0   0  286.89   18.51
   2   0   0  288.14   18.20
  -3   0   0  187.25   12.05
  -3   0   0  182.77   11.82
  -3   0   0  184.27   12.00
  -3   0   0  185.53   11.85
  -3   0   0  187.41   12.35
  -3   0   0  186.97   11.87
  -3   0   0  184.71   12.44
   3   0   0  196.40   12.37
   3   0   0  185.40   11.95
   3   0   0  197.35   11.89
   3   0   0  202.96   12.54
   3   0   0  195.74   12.18
  -4   0   0    5.47    1.29
  -4   0   0    5.56    0.62
  -4   0   0    5.81    1.23
  -4   0   0    5.86    0.90
  -4   0   0    5.14    0.67
  -4   0   0    5.77    0.97
   4   0   0    9.38    1.28
   4   0   0    8.42    1.50
   4   0   0    9.78    1.42
  -5   0   0   58.68    4.14
  -5   0   0   58.18    4.46
  -5   0   0   59.67    4.54
  -5   0   0   60.45    5.21
  -5   0   0   58.73    5.00
   5   0   0   67.13    4.79
   5   0   0   68.65    5.14
   5   0   0   68.86    4.47
   5   0   0   66.73    4.25
   5   0   0   66.25    4.83
  -6   0   0   27.34    2.64
  -6   0   0   33.66    2.65
  -6   0   0   32.26    3.28
   6   0   0   26.84    2.41
   6   0   0   26.22    2.82
   6   0   0   27.73    3.18
   6   0   0   27.40    2.93
  -7   0   0    7.44    1.52
  -7   0   0    6.37    1.67
   7   0   0    6.35    1.75
   7   0   0    6.33    1.80
  -8   0   0   14.72    2.35
   8   0   0   10.65    2.49
   8  -1   0   14.06    2.59
   8  -1   0   13.23    2.50
  -8   1   0    7.90    1.75
  -8   1   0    9.64    2.04
   7  -1   0   18.32    2.57
   7  -1   0   17.88    2.69
  -7   1   0   17.92    2.40
  -7   1   0   21.26    2.21
   6  -1   0   29.85    2.94
   6  -1   0   29.02    2.87
   6  -1   0   30.84    2.62
  -6   1   0   27.62    3.27
  -6   1   0   28.72    2.71
  -6   1   0   27.08    2.57
   5  -1   0   24.50    2.58
   5  -1   0   25.88    2.94
   5  -1   0   27.17    2.49
   5  -1   0   26.06    2.69
  -5   1   0   32.53    2.63
  -5   1   0   32.94    2.58
  -5   1   0   34.98    3.22
  -5   1   0   33.85    3.29
  -5   1   0   32.31    2.21
  -5   1   0   32.02    2.14
   4  -1   0   71.63    4.87
   4  -1   0   69.97    4.69
   4  -1   0   68.74    5.04
   4  -1   0   67.70    5.33
  -4   1   0   70.48    4.60
  -4   1   0   75.02    5.45
  -4   1   0   71.47    4.67
  -4   1   0   74.57    4.95
  -4   1   0   72.86    5.50
  -4   1   0   70.56    4.89
   3  -1   0  185.68   12.72
   3  -1   0  183.46   12.44
   3  -1   0  190.05   12.21
   3  -1   0  193.62   12.35
  -3   1   0  195.55   12.36
  -3   1   0  197.47   12.80
  -3   1   0  198.83   12.77
  -3   1   0  200.54   12.16
  -3   1   0  198.56   12.36
  -3   1   0  200.66   12.22
   2  -1   0   55.96    4.22
   2  -1   0   54.29    4.25
   2  -1   0   55.63    4.12
   2  -1   0   55.59    4.28
   2  -1   0   54.41    4.44
  -2   1   0   76.35    4.28
  -2   1   0   75.20    4.61
  -2   1   0   75.70    4.59
  -2   1   0   72.59    4.25
  -2   1   0   72.26    4.16
   1  -1   0  293.36   18.25
   1  -1   0  300.37   18.28
   1  -1   0  291.77   18.35
   1  -1   0  289.08   18.29
   1  -1   0  278.63   18.41
   1  -1   0  287.72   18.26
  -1   1   0  302.12   18.25
  -1   1   0  296.69   18.32
  -1   1   0  298.65   18.26
  -1   1   0  294.60   18.43
  -1   1   0  299.75   18.24
   0  -1   0   74.68    4.57
   0  -1   0   64.19    4.56
   0  -1   0   72.85    4.54
   0  -1   0   74.08    4.58
   0  -1   0   75.28    4.57
   0  -1   0   75.60    4.59
   0  -1   0   75.31    4.57
   0  -1   0   71.43    4.63
  -1  -1   0  580.37   36.61
  -1  -1   0  562.30   36.30
  -1  -1   0  598.32   36.40
  -1  -1   0  585.61   36.40
  -1  -1   0  582.08   36.25
  -1  -1   0  600.74   36.20
   1   1   0  584.14   36.18
   1   1   0  577.11   37.00
   1   1   0  588.39   36.43
   1   1   0  564.73   36.72
   1   1   0  593.27   36.36
   1   1   0  574.86   36.08
   1   1   0  578.08   36.27
  -2  -1   0   90.43    5.58
  -2  -1   0   90.67    5.62
  -2  -1   0   88.28    5.67
  -2  -1   0   88.10    5.82
  -2  -1   0   90.45    5.62
  -2  -1   0   89.79    5.97
   2   1   0   85.33    5.57
   2   1   0   86.07    5.80
   2   1   0   84.17    5.77
   2   1   0   84.81    5.95
   2   1   0   87.36    5.82
   2   1   0   89.99    5.47
   2   1   0   89.37    5.76
  -3  -1   0   30.73    2.16
  -3  -1   0   30.17    2.26
  -3  -1   0   30.50    2.12
  -3  -1   0   30.91    2.09
  -3  -1   0   32.13    2.69
  -3  -1   0   31.88    2.50
   3   1   0   30.89    1.94
   3   1   0   30.56    2.05
   3   1   0   31.39    2.13
   3   1   0   29.23    2.35
   3   1   0   27.77    2.44
   3   1   0   28.20    2.39
   3   1   0   28.98    2.62
  -4  -1   0   56.83    3.77
  -4  -1   0   58.45    4.55
  -4  -1   0   55.55    3.96
  -4  -1   0   55.91    4.28
  -4  -1   0   59.25    3.74
  -4  -1   0   57.75    3.87
   4   1   0   51.23    4.07
   4   1   0   55.28    3.79
   4   1   0   55.32    4.30
   4   1   0   56.42    4.53
   4   1   0   54.41    4.17
   4   1   0   55.83    3.76
  -5  -1   0   15.94    1.38
  -5  -1   0   15.41    2.33
  -5  -1   0   14.31    1.68
  -5  -1   0   15.92    1.57
  -5  -1   0   15.87    2.06
   5   1   0   16.79    1.91
   5   1   0   15.53    2.24
   5   1   0   16.35    2.06
   5   1   0   18.00    1.53
   5   1   0   15.94    1.39
   5   1   0   14.48    2.02
  -6  -1   0   24.94    2.93
  -6  -1   0   21.97    2.44
  -6  -1   0   23.05    2.34
   6   1   0   28.51    2.96
   6   1   0   29.23    2.88
   6   1   0   29.58    2.32
   6   1   0   29.82    2.93
  -7  -1   0    6.47    1.34
  -7  -1   0    5.48    1.50
   7   1   0    2.88    1.61
  -8  -1   0    0.70    1.30
   8   1   0    3.10    1.68
   8  -2   0   11.23    2.36
   8  -2   0    9.09    2.32
  -8   2   0   16.85    2.49
  -8   2   0   16.58    2.35
   7  -2   0    6.50    1.88
   7  -2   0    6.83    1.52
   7  -2   0    4.99    1.73
  -7   2   0    6.06    1.52
  -7   2   0    8.41    1.70
   6  -2   0    5.54    1.53
   6  -2   0    6.35    1.40
   6  -2   0    7.63    1.60
  -6   2   0   13.69    1.80
  -6   2   0   11.22    1.63
   5  -2   0   18.73    2.60
   5  -2   0   20.24    2.23
   5  -2   0   20.02    2.03
  -5   2   0   21.71    2.72
  -5   2   0   22.48    2.15
  -5   2   0   22.63    1.67
  -5   2   0   24.39    1.86
  -5   2   0   24.30    2.22
  -5   2   0   22.21    2.72
   4  -2   0    7.03    1.51
   4  -2   0    7.91    1.27
  -4   2   0   11.94    1.31
  -4   2   0   12.42    1.15
  -4   2   0   10.97    1.68
  -4   2   0   11.66    0.96
  -4   2   0   12.53    1.77
  -4   2   0    9.68    1.29
  -3   2   0   22.60    1.83
  -3   2   0   21.79    2.22
  -3   2   0   22.02    1.73
  -3   2   0   23.12    2.29
  -3   2   0   22.33    1.44
  -3   2   0   22.10    1.84
   2  -2   0  384.14   23.97
   2  -2   0  379.14   23.66
   2  -2   0  381.70   23.63
   2  -2   0  380.74   23.58
   2  -2   0  390.05   23.42
  -2   2   0  368.15   23.42
  -2   2   0  374.93   23.60
  -2   2   0  374.18   23.55
  -2   2   0  371.72   23.58
  -2   2   0  375.08   23.94
   1  -2   0   10.29    1.14
   1  -2   0   10.69    0.80
   1  -2   0   10.05    0.90
   1  -2   0   10.20    0.96
   1  -2   0    9.27    0.94
   1  -2   0    9.74    0.90
   0  -2   0  155.62    8.71
   0  -2   0  152.43    8.76
   0  -2   0  153.27    8.78
   0  -2   0  156.49    8.77
   0  -2   0  158.94    8.66
   0  -2   0  145.82    8.89
   0   2   0  115.73    8.73
   0   2   0  116.36    8.74
   0   2   0  120.76    8.69
   0   2   0  120.39    8.78
  -1  -2   0  165.32   12.20
  -1  -2   0  175.88   11.95
  -1  -2   0  168.40   12.03
  -1  -2   0  172.93   12.01
   1   2   0  206.33   12.13
   1   2   0  202.14   12.08
   1   2   0  205.42   12.28
   1   2   0  207.77   11.93
   1   2   0  206.46   11.99
   1   2   0  213.21   11.97
  -2  -2   0   35.63    2.34
  -2  -2   0   34.63    2.41
  -2  -2   0   33.44    2.71
  -2  -2   0   34.25    2.42
  -2  -2   0   36.02    2.49
  -3  -2   0  197.97   12.55
  -3  -2   0  187.34   11.96
  -3  -2   0  193.35   12.06
  -3  -2   0  193.26   11.95
   3   2   0  186.55   12.23
   3   2   0  185.86   12.25
   3   2   0  187.24   12.51
   3   2   0  184.44   11.93
  -4  -2   0   66.12    4.85
  -4  -2   0   64.21    4.71
  -4  -2   0   64.85    4.69
  -4  -2   0   68.01    5.39
   4   2   0   76.67    4.65
   4   2   0   75.04    5.50
   4   2   0   71.86    5.13
   4   2   0   72.79    5.14
   4   2   0   74.40    4.70
  -5  -2   0   21.62    1.70
  -5  -2   0   22.02    1.88
   5   2   0   14.08    1.38
   5   2   0   15.71    1.46
   5   2   0   13.31    1.91
   5   2   0   15.78    2.38
   5   2   0   17.00    2.04
  -6  -2   0   10.37    1.64
  -6  -2   0   11.65    1.47
   6   2   0    8.36    1.75
   6   2   0    8.19    1.77
  -7  -2   0   24.51    2.64
  -7  -2   0   22.13    2.34
   7   2   0   28.09    3.16
  -8  -2   0    0.69    1.48
  -8  -2   0    1.58    1.36
   8   2   0    2.63    1.77
   8  -3   0    8.58    2.26
   8  -3   0   10.09    2.28
  -8   3   0    6.67    1.85
  -8   3   0    6.03    1.65
   7  -3   0    9.01    1.77
   7  -3   0    6.69    1.84
   7  -3   0    9.09    2.11
  -7   3   0    7.03    1.69
  -7   3   0    8.61    1.79
   6  -3   0   16.94    2.16
   6  -3   0   15.95    2.08
   6  -3   0   15.02    2.29
  -6   3   0   16.89    2.18
  -6   3   0   17.20    2.22
   5  -3   0   42.08    3.72
   5  -3   0   43.15    3.83
  -5   3   0   54.20    3.79
  -5   3   0   46.02    4.35
  -5   3   0   46.58    3.24
  -5   3   0   48.20    3.77
  -5   3   0   50.44    4.54
  -5   3   0   50.15    3.52
   4  -3   0   71.92    5.17
   4  -3   0   68.45    5.02
   4  -3   0   70.44    5.58
  -4   3   0   70.48    5.00
  -4   3   0   74.71    5.66
  -4   3   0   70.92    4.87
  -4   3   0   72.09    5.04
  -4   3   0   70.74    5.61
   3  -3   0   12.70    1.42
   3  -3   0   13.03    1.40
   3  -3   0   11.52    1.72
  -3   3   0   12.03    1.21
  -3   3   0   10.95    1.27
  -3   3   0   12.81    0.99
  -3   3   0   12.05    1.34
  -3   3   0   13.71    1.77
   2  -3   0   60.95    4.70
   2  -3   0   61.67    4.65
   2  -3   0   63.57    4.70
   2  -3   0   62.59    5.00
  -2   3   0   80.51    4.72
  -2   3   0   76.43    5.15
  -2   3   0   75.06    4.54
  -2   3   0   76.40    4.68
   1  -3   0  121.03    7.66
   1  -3   0  129.68    7.95
   1  -3   0  125.69    7.60
   1  -3   0  126.41    7.58
   1  -3   0  125.92    7.65
   1  -3   0  127.73    7.67
  -1   3   0  116.17    7.40
  -1   3   0  109.48    7.56
  -1   3   0  108.33    7.59
  -1   3   0  107.81    7.59
  -1   3   0  109.14    7.87
   0  -3   0   78.78    4.87
   0  -3   0   80.37    4.79
   0  -3   0   75.25    4.93
   0  -3   0   75.61    4.96
   0  -3   0   71.94    5.12
   0  -3   0   75.40    4.95
  -1  -3   0  542.86   34.95
  -1  -3   0  543.29   34.64
  -1  -3   0  575.50   34.61
  -1  -3   0  551.51   34.68
   1   3   0  566.30   34.75
   1   3   0  579.85   34.64
   1   3   0  546.19   34.72
   1   3   0  563.87   34.97
  -2  -3   0   32.39    2.19
  -2  -3   0   29.75    2.47
  -2  -3   0   28.98    2.09
  -2  -3   0   32.85    2.16
   2   3   0   27.81    2.26
   2   3   0   27.33    1.91
   2   3   0   28.05    1.95
   2   3   0   27.54    2.45
   2   3   0   24.66    2.10
  -3  -3   0   75.49    6.02
  -3  -3   0   72.34    5.55
  -3  -3   0   75.02    5.46
  -3  -3   0   78.77    5.58
  -3  -3   0   78.35    5.67
   3   3   0   96.51    5.93
   3   3   0   90.25    5.79
   3   3   0   92.50    5.31
   3   3   0   92.47    5.60
   3   3   0   92.90    6.19
  -4  -3   0  184.90   12.16
  -4  -3   0  190.98   12.26
  -4  -3   0  185.64   12.42
  -4  -3   0  193.01   12.97
  -4  -3   0  185.39   12.32
   4   3   0  196.55   13.00
   4   3   0  202.33   12.24
   4   3   0  196.05   12.58
   4   3   0  191.92   12.64
  -5  -3   0    8.08    1.48
  -5  -3   0    9.82    1.28
  -5  -3   0   10.92    1.54
  -5  -3   0    9.68    2.02
  -5  -3   0    9.06    1.23
   5   3   0   13.93    1.22
   5   3   0   12.44    1.28
   5   3   0   13.40    2.31
   5   3   0   14.24    1.88
   5   3   0   12.60    1.74
   5   3   0   13.49    1.09
  -6  -3   0   24.66    2.21
  -6  -3   0   25.03    2.51
  -6  -3   0   24.32    2.28
  -6  -3   0   26.89    2.68
   6   3   0   32.98    3.09
  -7  -3   0    8.01    1.76
  -7  -3   0    8.91    1.69
   7   3   0    8.03    2.01
  -8  -3   0   15.70    2.66
  -8  -3   0   15.54    2.45
   8   3   0   13.93    2.74
   8  -4   0    3.58    1.85
  -8   4   0    6.52    1.77
  -8   4   0    5.64    1.80
   7  -4   0   12.05    2.13
   7  -4   0   12.58    2.43
   7  -4   0   13.50    2.25
  -7   4   0    8.09    1.84
  -7   4   0    8.80    1.84
   6  -4   0   12.33    2.00
   6  -4   0   12.49    2.07
  -6   4   0    8.39    1.67
  -6   4   0   11.20    1.66
  -6   4   0   10.34    1.78
   5  -4   0   19.44    2.14
   5  -4   0   17.66    2.18
  -5   4   0   21.09    1.93
  -5   4   0   17.86    1.60
  -5   4   0   19.91    2.08
  -5   4   0   18.36    2.07
   4  -4   0   28.99    2.89
   4  -4   0   31.78    3.38
   4  -4   0   32.26    2.94
  -4   4   0   35.78    2.37
  -4   4   0   35.53    3.47
  -4   4   0   37.49    2.80
  -4   4   0   36.27    2.87
  -4   4   0   36.56    3.51
  -4   4   0   38.64    2.90
   3  -4   0   52.55    4.06
   3  -4   0   50.50    4.07
   3  -4   0   52.85    4.52
  -3   4   0   58.54    4.06
  -3   4   0   59.90    3.77
  -3   4   0   55.55    3.98
  -3   4   0   62.90    4.69
   2  -4   0   69.03    4.83
   2  -4   0   71.16    4.82
   2  -4   0   70.83    5.30
   2  -4   0   72.64    4.91
   2  -4   0   71.95    4.90
  -2   4   0   75.19    5.36
  -2   4   0   71.25    4.84
  -2   4   0   69.19    4.82
  -2   4   0   68.93    4.72
   1  -4   0  167.38   11.48
   1  -4   0  157.61   11.74
   1  -4   0  159.44   11.39
   1  -4   0  159.90   11.34
   1  -4   0  163.36   11.46
  -1   4   0  202.74   11.47
  -1   4   0  202.09   11.47
  -1   4   0  203.46   11.51
  -1   4   0  206.66   11.90
   0  -4   0  275.40   17.34
   0  -4   0  277.33   17.30
   0  -4   0  283.28   17.10
   0  -4   0  276.36   17.31
   0  -4   0  286.58   17.19
   0   4   0  273.02   17.28
   0   4   0  266.29   17.31
   0   4   0  273.38   17.57
   0   4   0  269.77   17.36
  -1  -4   0   31.53    2.42
  -1  -4   0   29.07    1.89
  -1  -4   0   29.00    1.83
  -1  -4   0   28.52    1.99
   1   4   0   21.82    2.25
   1   4   0   22.24    1.99
   1   4   0   20.91    1.93
   1   4   0   21.95    1.87
  -2  -4   0  183.27   11.73
  -2  -4   0  185.60   11.68
  -2  -4   0  180.55   12.14
  -2  -4   0  181.62   11.73
   2   4   0  183.28   11.57
   2   4   0  180.56   11.85
   2   4   0  185.53   12.15
   2   4   0  186.64   11.45
   2   4   0  187.57   11.79
   3   4   0   26.07    2.60
   3   4   0   26.91    1.87
   3   4   0   26.45    2.37
   3   4   0   27.21    2.28
   3   4   0   28.03    2.17
   4   4   0   26.67    2.55
   4   4   0   26.23    2.19
   4   4   0   29.47    2.96
   4   4   0   25.76    2.37
  -5  -4   0  174.34   11.97
  -5  -4   0  183.04   12.17
  -5  -4   0  180.67   11.90
  -5  -4   0  176.31   12.83
  -5  -4   0  182.66   11.78
   5   4   0  189.32   12.26
   5   4   0  185.26   12.42
   5   4   0  188.60   11.82
   5   4   0  189.41   11.83
  -6  -4   0    8.79    1.52
  -6  -4   0    8.15    1.24
  -6  -4   0    8.71    1.31
  -6  -4   0    8.35    1.73
   6   4   0    6.80    1.73
  -7  -4   0   28.63    3.27
  -7  -4   0   28.13    2.94
   7   4   0   31.10    3.51
  -8  -4   0    3.84    1.62
  -8  -4   0    3.37    1.54
   8   4   0    2.46    1.74
   7  -5   0    6.62    2.06
   7  -5   0    6.41    1.84
  -7   5   0    6.49    1.76
  -7   5   0    6.28    1.70
   6  -5   0   11.10    2.02
   6  -5   0   11.56    2.14
  -6   5   0   11.16    1.92
  -6   5   0   10.77    1.87
  -6   5   0   12.19    1.70
   5  -5   0   14.39    1.94
   5  -5   0   13.77    2.06
  -5   5   0    6.77    1.46
  -5   5   0    7.96    1.37
  -5   5   0    7.00    1.50
   4  -5   0    8.88    1.67
   4  -5   0    9.00    1.70
  -4   5   0   15.17    1.26
  -4   5   0   14.39    1.68
  -4   5   0   14.26    1.54
  -4   5   0   14.38    2.23
  -4   5   0   13.76    1.64
   3  -5   0   14.43    1.57
   3  -5   0   17.68    1.79
   3  -5   0   15.42    1.73
   3  -5   0   15.13    2.08
  -3   5   0   13.90    1.60
  -3   5   0   13.83    1.36
  -3   5   0   14.96    2.06
  -3   5   0   16.49    1.66
   2  -5   0   18.20    1.75
   2  -5   0   18.00    1.85
   2  -5   0   16.54    1.72
   2  -5   0   18.66    1.85
   2  -5   0   18.22    2.17
  -2   5   0   22.67    2.30
  -2   5   0   24.60    1.80
  -2   5   0   25.61    1.92
   1  -5   0  230.04   14.07
   1  -5   0  222.71   13.96
   1  -5   0  222.96   14.43
   1  -5   0  214.54   14.02
   1  -5   0  223.48   13.88
  -1   5   0  220.91   14.01
  -1   5   0  214.33   14.38
  -1   5   0  216.62   13.96
  -1   5   0  212.37   14.00
   0  -5   0   18.44    1.29
   0  -5   0   19.30    1.63
   0  -5   0   19.69    1.65
   0  -5   0   18.58    1.60
   0  -5   0   18.57    1.43
  -1  -5   0  111.49    7.02
  -1  -5   0  118.82    6.84
  -1  -5   0  113.79    6.92
   1   5   0  101.83    7.40
   1   5   0  101.46    7.18
   1   5   0  100.24    7.02
   1   5   0  102.50    7.08
   1   5   0  101.18    6.94
  -2  -5   0   75.78    5.68
  -2  -5   0   79.17    5.49
  -2  -5   0   77.12    5.62
  -2  -5   0   80.32    6.14
   2   5   0   89.47    5.36
   2   5   0   91.01    5.83
   2   5   0   90.48    5.58
   2   5   0   90.26    6.22
   2   5   0   90.46    5.87
  -3  -5   0   40.47    2.69
  -3  -5   0   38.27    2.74
  -3  -5   0   38.01    3.30
  -3  -5   0   35.78    2.71
   3   5   0   30.80    2.82
   3   5   0   31.19    2.66
   3   5   0   30.06    3.08
   3   5   0   30.24    2.36
  -4  -5   0   19.07    1.79
  -4  -5   0   18.16    2.34
  -4  -5   0   21.13    1.91
  -4  -5   0   19.78    1.84
   4   5   0   15.81    1.27
   4   5   0   17.45    2.33
   4   5   0   17.78    2.04
   4   5   0   16.60    1.82
   4   5   0   17.87    1.77
   5   5   0    3.75    1.35
   5   5   0    5.99    1.11
   5   5   0    6.51    1.26
  -6  -5   0   22.78    2.35
  -6  -5   0   22.32    2.48
  -6  -5   0   20.66    2.19
   6   5   0   19.36    2.63
  -7  -5   0    3.34    1.49
  -7  -5   0    3.12    1.46
   7   5   0    1.17    1.54
  -8  -5   0    4.99    1.68
  -8  -5   0    5.95    1.98
   8   5   0    2.77    1.89
   7  -6   0    0.17    1.41
   7  -6   0    0.25    1.45
  -7   6   0    1.24    1.40
  -7   6   0    0.38    1.45
   6  -6   0   10.18    2.19
   6  -6   0   12.56    2.23
  -6   6   0   13.77    1.98
  -6   6   0   11.20    2.06
  -6   6   0   11.39    2.14
   5  -6   0   27.14    2.97
   5  -6   0   32.53    3.31
  -5   6   0   30.08    2.87
  -5   6   0   34.21    3.17
  -5   6   0   31.31    2.86
   4  -6   0   56.72    4.44
   4  -6   0   58.01    4.41
  -4   6   0   54.37    4.24
  -4   6   0   58.34    4.34
  -4   6   0   52.02    4.18
  -4   6   0   54.56    3.88
   3  -6   0   40.74    3.31
   3  -6   0   44.84    3.54
   3  -6   0   40.36    3.97
   3  -6   0   39.02    3.40
  -3   6   0   41.12    3.93
  -3   6   0   46.82    3.42
  -3   6   0   45.24    3.20
  -3   6   0   44.64    3.38
   2  -6   0   67.13    4.61
   2  -6   0   63.52    4.74
   2  -6   0   69.84    5.36
   2  -6   0   66.49    4.76
   2  -6   0   66.73    4.66
  -2   6   0   62.49    5.21
  -2   6   0   66.71    4.62
  -2   6   0   66.58    4.69
  -2   6   0   63.45    4.69
   1  -6   0   48.15    3.81
   1  -6   0   48.53    3.62
   1  -6   0   47.71    3.72
   1  -6   0   44.55    3.79
   1  -6   0   47.17    4.20
  -1   6   0   60.78    3.83
  -1   6   0   61.91    3.92
  -1   6   0   60.87    4.37
  -1   6   0   59.25    3.89
   0  -6   0   48.21    3.26
   0  -6   0   45.70    3.30
   0  -6   0   49.36    3.07
   0  -6   0   48.16    3.30
   0  -6   0   48.25    2.86
   0   6   0   37.34    3.29
   0   6   0   39.87    3.69
   0   6   0   40.77    3.55
   0   6   0   37.81    3.21
  -1  -6   0    9.14    1.11
  -1  -6   0    9.65    1.25
  -1  -6   0    8.15    0.95
   1   6   0   12.74    1.52
   1   6   0   12.99    1.29
   1   6   0   12.22    1.69
   1   6   0   13.01    1.44
   1   6   0   13.10    1.34
  -2  -6   0   71.60    4.41
  -2  -6   0   66.43    4.12
  -2  -6   0   68.99    4.96
  -2  -6   0   68.76    4.28
  -2  -6   0   69.68    4.13
   2   6   0   50.54    4.33
   2   6   0   52.55    4.13
   2   6   0   54.54    4.37
   2   6   0   52.30    4.70
   2   6   0   55.16    3.88
  -3  -6   0   57.53    4.60
  -3  -6   0   52.04    3.95
  -3  -6   0   55.23    3.94
  -3  -6   0   54.22    3.87
   3   6   0   53.85    4.14
   3   6   0   51.30    4.48
   3   6   0   50.30    3.97
   3   6   0   52.53    3.66
  -4  -6   0   20.64    2.10
  -4  -6   0   18.55    1.95
  -4  -6   0   20.46    2.07
  -4  -6   0   21.98    2.70
   4   6   0   21.42    1.58
   4   6   0   19.72    1.98
   4   6   0   18.48    2.26
   4   6   0   18.80    2.02
   4   6   0   22.57    3.06
  -5  -6   0   72.83    5.15
  -5  -6   0   67.22    4.94
  -5  -6   0   71.02    5.00
   5   6   0   62.00    5.33
   5   6   0   63.68    4.93
  -6  -6   0    3.96    1.44
  -6  -6   0    4.15    1.34
  -6  -6   0    4.24    1.19
   6   6   0    6.29    1.80
  -7  -6   0    2.79    1.49
  -7  -6   0    3.61    1.42
   7   6   0    3.21    1.75
  -8  -6   0   16.88    2.80
  -8  -6   0   17.41    2.75
   8   6   0   20.66    3.50
   7  -7   0    1.88    1.76
   7  -7   0    1.53    1.69
  -7   7   0   -0.32    1.28
  -7   7   0    3.86    1.78
   6  -7   0    8.86    2.08
   6  -7   0    7.46    1.98
  -6   7   0    9.61    1.85
  -6   7   0   11.34    1.90
  -6   7   0    9.97    2.00
   5  -7   0   22.60    2.81
   5  -7   0   18.56    2.68
  -5   7   0   18.20    2.54
  -5   7   0   23.19    2.43
  -5   7   0   18.55    2.33
   4  -7   0   29.36    2.98
   4  -7   0   29.63    2.86
  -4   7   0   27.66    2.33
  -4   7   0   26.15    2.60
  -4   7   0   25.78    2.72
  -4   7   0   29.13    2.79
   3  -7   0   66.54    4.68
   3  -7   0   70.14    4.93
   3  -7   0   66.27    4.87
  -3   7   0   64.25    4.75
  -3   7   0   57.55    4.63
  -3   7   0   61.15    4.51
  -3   7   0   56.49    5.26
   2  -7   0   98.97    7.19
   2  -7   0   95.79    6.50
   2  -7   0  103.41    6.33
   2  -7   0   96.71    6.38
   2  -7   0   94.92    6.53
  -2   7   0   85.64    6.97
  -2   7   0   83.50    6.39
  -2   7   0   86.82    6.36
  -2   7   0   85.05    6.32
   1  -7   0   92.11    6.08
   1  -7   0   93.50    6.18
   1  -7   0   94.72    6.25
   1  -7   0   96.38    5.92
   1  -7   0   94.01    6.72
  -1   7   0   84.52    6.16
  -1   7   0   82.25    6.05
  -1   7   0   83.61    6.62
  -1   7   0   78.67    6.11
   0  -7   0   64.15    4.72
   0  -7   0   62.06    4.99
   0  -7   0   65.29    4.94
   0  -7   0   66.10    5.00
   0  -7   0   66.02    4.49
   0   7   0   83.51    5.12
   0   7   0   83.80    5.61
   0   7   0   83.29    5.76
   0   7   0   81.77    5.23
  -1  -7   0  112.10    7.49
  -1  -7   0  111.16    7.29
  -1  -7   0  109.46    7.58
   1   7   0  117.55    7.94
   1   7   0  112.35    7.60
   1   7   0  111.41    7.55
   1   7   0  118.08    8.27
   1   7   0  116.23    7.77
  -2  -7   0   30.69    2.35
  -2  -7   0   28.49    2.31
  -2  -7   0   29.22    2.58
   2   7   0   31.26    3.13
   2   7   0   32.88    2.83
   2   7   0   31.67    2.75
   2   7   0   32.35    2.11
   2   7   0   30.15    2.46
   2   7   0   31.32    2.73
  -3  -7   0   34.56    3.58
  -3  -7   0   32.89    2.84
  -3  -7   0   33.60    3.03
  -3  -7   0   35.67    2.80
  -3  -7   0   32.08    2.90
   3   7   0   42.58    3.20
   3   7   0   40.44    3.66
   3   7   0   39.21    3.19
  -4  -7   0   54.18    4.12
  -4  -7   0   55.78    4.04
  -4  -7   0   56.78    4.12
   4   7   0   48.44    3.61
   4   7   0   50.90    4.12
   4   7   0   54.39    4.40
   4   7   0   50.86    4.11
  -5  -7   0    9.43    1.68
  -5  -7   0    9.40    1.76
  -5  -7   0    9.17    1.63
   5   7   0   14.37    2.23
   5   7   0   15.96    1.92
  -6  -7   0   33.77    3.21
  -6  -7   0   33.08    3.41
  -6  -7   0   39.92    3.48
   6   7   0   37.90    3.86
  -7  -7   0   15.23    2.48
  -7  -7   0   15.89    2.41
   7   7   0   12.26    2.71
   6  -8   0    0.59    1.49
   6  -8   0    1.07    1.49
  -6   8   0    0.28    1.21
  -6   8   0    1.80    1.30
  -6   8   0    0.30    1.35
   5  -8   0   32.31    3.30
   5  -8   0   27.71    3.10
  -5   8   0   26.11    2.95
  -5   8   0   24.22    2.85
  -5   8   0   23.54    2.75
   4  -8   0   18.26    2.44
   4  -8   0   19.96    2.49
  -4   8   0   22.48    2.41
  -4   8   0   19.11    2.36
   3  -8   0   15.87    2.19
   3  -8   0   14.08    2.20
   3  -8   0   17.04    2.09
  -3   8   0   21.92    2.20
  -3   8   0   20.82    2.20
  -3   8   0   23.71    2.08
   2  -8   0   31.01    2.72
   2  -8   0   33.78    2.94
   2  -8   0   32.88    2.92
  -2   8   0   30.12    3.40
  -2   8   0   33.37    2.80
  -2   8   0   32.58    2.91
  -2   8   0   31.62    2.82
   1  -8   0   43.77    3.63
   1  -8   0   48.14    3.52
   1  -8   0   48.23    3.70
   1  -8   0   47.09    3.29
  -1   8   0   41.77    3.47
  -1   8   0   44.81    3.61
  -1   8   0   46.02    4.14
  -1   8   0   42.09    3.60
   0  -8   0   61.14    4.54
   0  -8   0   62.48    4.56
   0  -8   0   61.68    4.65
   0  -8   0   61.96    4.24
   0   8   0   63.44    4.74
   0   8   0   61.61    4.61
   0   8   0   65.07    5.09
   0   8   0   64.65    5.32
  -1  -8   0   25.32    2.07
  -1  -8   0   23.55    1.79
  -1  -8   0   24.23    2.08
  -1  -8   0   22.60    2.12
   1   8   0   19.97    2.23
   1   8   0   20.02    2.03
   1   8   0   20.94    2.66
   1   8   0   19.36    2.34
   1   8   0   19.59    2.05
  -2  -8   0   45.26    3.41
  -2  -8   0   45.90    3.78
  -2  -8   0   47.50    3.53
   2   8   0   48.31    3.82
   2   8   0   54.86    4.14
   2   8   0   50.34    4.45
   2   8   0   48.55    3.67
   2   8   0   49.72    3.94
  -3  -8   0   36.07    2.80
  -3  -8   0   30.88    3.05
  -3  -8   0   38.12    3.20
   3   8   0   37.45    3.33
   3   8   0   37.62    2.89
   3   8   0   35.33    3.31
   3   8   0   37.00    3.21
  -4  -8   0   14.94    1.91
  -4  -8   0   12.72    1.83
  -4  -8   0   15.93    2.08
   4   8   0   17.13    2.03
   4   8   0   15.85    2.15
  -5  -8   0   18.48    2.29
  -5  -8   0   17.71    2.33
  -5  -8   0   19.39    2.18
   5   8   0   15.02    2.23
   5   8   0   18.25    2.74
  -6  -8   0   10.22    1.88
  -6  -8   0    9.75    2.01
  -6  -8   0   10.52    1.90
   6   8   0   11.52    1.92
   6   8   0   10.42    2.28
  -7  -8   0    9.95    2.17
  -7  -8   0   12.73    2.30
   7   8   0   13.57    2.86
   6  -9   0    5.27    2.14
   6  -9   0    7.71    2.25
  -6   9   0    7.55    1.93
  -6   9   0    9.87    2.05
  -6   9   0    9.66    2.16
   5  -9   0    0.06    1.51
   5  -9   0    0.45    1.43
  -5   9   0    1.23    1.19
  -5   9   0   -0.11    1.10
  -5   9   0    1.77    1.42
   4  -9   0   15.01    2.41
   4  -9   0   13.90    2.34
  -4   9   0   10.55    1.99
  -4   9   0   15.04    2.28
   3  -9   0   13.02    2.07
   3  -9   0   12.55    1.80
   3  -9   0   11.29    1.99
  -3   9   0   10.80    1.68
  -3   9   0   10.05    1.87
  -3   9   0   11.25    1.79
   2  -9   0   14.59    2.23
   2  -9   0   15.95    2.06
   2  -9   0   16.62    2.22
  -2   9   0   25.22    2.32
  -2   9   0   23.49    2.27
  -2   9   0   23.19    2.36
   1  -9   0   39.99    3.70
   1  -9   0   44.87    3.38
   1  -9   0   44.48    3.64
   1  -9   0   43.58    3.79
  -1   9   0   50.34    3.87
  -1   9   0   48.15    4.39
  -1   9   0   51.16    3.73
  -1   9   0   49.31    3.93
   0  -9   0   57.92    4.57
   0  -9   0   61.33    4.51
   0  -9   0   61.08    4.16
   0  -9   0   62.57    4.63
   0   9   0   60.32    5.07
   0   9   0   61.69    4.45
   0   9   0   59.97    4.60
   0   9   0   60.39    4.72
  -1  -9   0   27.56    2.51
  -1  -9   0   27.90    2.58
  -1  -9   0   27.15    2.14
  -1  -9   0   29.45    2.66
   1   9   0   27.82    2.97
   1   9   0   29.30    2.68
   1   9   0   30.14    2.64
   1   9   0   27.75    2.78
  -2  -9   0   33.56    2.99
  -2  -9   0   32.73    2.67
   2   9   0   34.18    3.00
   2   9   0   34.33    3.20
   2   9   0   31.21    2.83
   2   9   0   30.75    3.08
  -3  -9   0   17.17    2.11
  -3  -9   0   19.27    2.28
   3   9   0   16.14    2.26
   3   9   0   16.01    2.24
   3   9   0   15.82    1.83
  -4  -9   0   22.92    2.57
  -4  -9   0   21.46    2.44
   4   9   0   22.79    2.69
   4   9   0   20.96    2.66
  -5  -9   0   16.75    2.27
  -5  -9   0   12.71    2.15
  -5  -9   0   14.38    2.20
   5   9   0   14.01    2.45
   5   9   0   15.17    2.27
  -6  -9   0   16.93    2.52
  -6  -9   0   16.33    2.40
  -6  -9   0   17.46    2.40
   6   9   0   14.32    2.79
   6   9   0   12.30    2.18
  -7  -9   0    5.07    1.81
   7   9   0    5.56    2.30
   5 -10   0   24.02    3.58
   5 -10   0   24.55    3.67
  -5  10   0   29.31    3.18
  -5  10   0   32.34    3.32
  -5  10   0   31.47    3.46
   4 -10   0    8.96    2.09
   4 -10   0   10.09    2.16
  -4  10   0    8.55    1.91
  -4  10   0    6.68    1.79
   3 -10   0   32.54    3.17
   3 -10   0   30.68    3.38
   3 -10   0   34.46    3.43
  -3  10   0   31.59    3.21
  -3  10   0   36.96    3.33
  -3  10   0   34.25    3.15
   2 -10   0   11.15    2.07
   2 -10   0    9.87    1.68
   2 -10   0    7.98    1.78
  -2  10   0   10.54    1.84
  -2  10   0   10.52    1.77
  -2  10   0   10.89    1.88
   1 -10   0   42.83    3.77
   1 -10   0   44.35    3.64
   1 -10   0   47.57    3.88
   1 -10   0   47.58    3.91
  -1  10   0   43.02    3.82
  -1  10   0   42.16    3.82
  -1  10   0   44.28    3.65
   0 -10   0   32.61    3.00
   0 -10   0   34.79    3.28
   0 -10   0   29.68    3.07
   0  10   0   38.05    3.07
   0  10   0   36.94    3.79
   0  10   0   38.17    3.27
   0  10   0   38.05    3.39
  -1 -10   0   51.80    4.23
  -1 -10   0   51.08    4.23
  -1 -10   0   50.62    4.31
   1  10   0   57.72    4.83
   1  10   0   57.89    4.60
   1  10   0   59.98    4.39
  -2 -10   0   73.68    5.15
  -2 -10   0   73.74    5.44
  -2 -10   0   70.54    5.45
  -2 -10   0   69.80    5.30
   2  10   0   70.64    5.40
   2  10   0   69.20    5.65
   2  10   0   72.64    5.77
   2  10   0   69.83    5.31
  -3 -10   0   48.21    4.17
  -3 -10   0   48.55    4.27
   3  10   0   49.01    3.85
   3  10   0   49.66    4.30
   3  10   0   47.77    4.31
  -4 -10   0    4.28    1.48
  -4 -10   0    5.80    1.51
   4  10   0   11.31    2.17
   4  10   0   11.96    2.06
  -5 -10   0   18.30    2.64
  -5 -10   0   17.21    2.61
   5  10   0   15.38    2.73
   5  10   0   21.21    2.64
  -6 -10   0    1.04    1.34
  -6 -10   0    1.99    1.49
  -6 -10   0    0.29    1.18
   6  10   0    2.88    1.75
   6  10   0    3.82    1.59
   5 -11   0   10.37    2.45
   5 -11   0    9.66    2.53
  -5  11   0    6.92    1.92
  -5  11   0    7.24    2.02
  -5  11   0    8.15    2.21
   4 -11   0   16.41    2.82
   4 -11   0   14.39    2.83
  -4  11   0   23.17    3.09
  -4  11   0   23.82    3.14
   3 -11   0   14.75    2.23
   3 -11   0   19.05    2.82
   3 -11   0   14.70    2.51
  -3  11   0   16.79    2.38
  -3  11   0   13.72    2.32
  -3  11   0   16.72    2.60
   2 -11   0   11.65    2.26
   2 -11   0   13.14    2.02
   2 -11   0   11.71    2.19
  -2  11   0   14.70    2.25
  -2  11   0   12.70    2.14
  -2  11   0   18.21    2.36
   1 -11   0   20.72    2.32
   1 -11   0   23.55    2.58
   1 -11   0   22.86    2.63
  -1  11   0   19.14    2.48
  -1  11   0   19.55    2.67
  -1  11   0   16.68    2.33
   0 -11   0   12.53    2.09
   0 -11   0   11.07    1.87
   0 -11   0   10.69    1.77
   0  11   0   14.35    2.26
   0  11   0   12.48    2.07
   0  11   0   11.06    1.75
  -1 -11   0   11.23    1.91
  -1 -11   0   12.09    1.80
  -1 -11   0   12.12    1.86
   1  11   0    7.36    1.74
   1  11   0    7.90    1.80
   1  11   0    8.70    1.54
  -2 -11   0   10.79    1.82
  -2 -11   0    9.24    1.87
  -2 -11   0    8.79    1.50
  -2 -11   0    7.41    1.76
   2  11   0   11.57    1.89
   2  11   0   12.26    1.84
   2  11   0   11.58    2.09
  -3 -11   0   30.86    3.17
  -3 -11   0   30.67    3.10
   3  11   0   27.53    3.15
   3  11   0   27.38    2.71
   3  11   0   27.12    3.15
  -4 -11   0   22.66    2.93
  -4 -11   0   28.62    3.14
   4  11   0   26.51    3.17
   4  11   0   28.44    3.20
  -5 -11   0    5.31    1.81
  -5 -11   0    1.88    1.44
   5  11   0    7.76    2.01
   5  11   0    4.62    1.96
   4 -12   0   -0.87    1.61
   4 -12   0   -0.56    1.49
  -4  12   0    0.33    1.45
  -4  12   0    0.80    1.48
   3 -12   0    4.49    1.50
   3 -12   0    4.00    1.93
   3 -12   0    5.57    2.09
  -3  12   0    3.73    1.84
  -3  12   0    2.71    1.39
  -3  12   0    0.67    1.43
   2 -12   0   16.45    2.68
   2 -12   0   16.31    2.67
   2 -12   0   13.60    2.23
  -2  12   0   19.68    2.53
  -2  12   0   19.38    2.55
  -2  12   0   15.41    2.49
   1 -12   0    4.24    1.60
   1 -12   0    8.20    1.84
   1 -12   0    7.84    1.60
  -1  12   0    3.75    1.50
  -1  12   0    3.89    1.51
  -1  12   0    4.75    1.63
   0 -12   0   60.09    4.89
   0 -12   0   58.20    4.64
   0 -12   0   56.21    4.52
   0  12   0   55.24    4.45
   0  12   0   52.95    4.89
   0  12   0   49.22    4.67
  -1 -12   0    9.84    1.81
  -1 -12   0    9.02    1.98
  -1 -12   0    8.71    1.75
  -1 -12   0    9.87    1.97
   1  12   0    7.60    1.73
   1  12   0    8.00    2.05
   1  12   0    9.84    1.66
  -2 -12   0    1.50    1.38
  -2 -12   0    1.78    1.24
  -2 -12   0    0.61    1.35
   2  12   0   -0.64    1.11
   2  12   0    0.57    1.05
  -3 -12   0    6.92    2.02
  -3 -12   0    9.39    1.85
  -3 -12   0    7.50    1.87
   3  12   0    9.77    1.72
   3  12   0    9.88    2.01
   3  12   0    8.89    2.26
  -4 -12   0    8.42    1.94
  -4 -12   0    8.88    2.11
   4  12   0    9.29    2.21
   4  12   0    9.08    2.18
  -5 -12   0    1.35    1.52
   5  12   0    4.15    1.73
   5  12   0    5.08    2.07
   3 -13   0    5.05    2.01
   3 -13   0    5.25    2.05
  -3  13   0    4.87    1.83
  -3  13   0    5.74    1.99
   2 -13   0    3.78    1.72
   2 -13   0    3.56    1.75
  -2  13   0    3.48    1.61
  -2  13   0    3.35    1.72
  -2  13   0    3.82    1.58
   1 -13   0   13.49    2.52
   1 -13   0   12.80    2.56
   1 -13   0   12.55    2.17
  -1  13   0   19.68    2.56
  -1  13   0   17.14    2.69
  -1  13   0   20.77    2.94
   0 -13   0    1.22    1.18
   0 -13   0    0.19    1.40
   0 -13   0    0.78    1.23
   0  13   0   -0.88    1.10
   0  13   0    1.63    1.44
   0  13   0   -0.59    0.98
  -1 -13   0   17.25    2.64
  -1 -13   0   14.87    2.28
  -1 -13   0   18.33    2.58
  -1 -13   0   19.91    2.85
   1  13   0   14.92    2.70
   1  13   0   17.18    2.26
   1  13   0   17.14    2.47
  -2 -13   0   15.08    2.50
  -2 -13   0   13.79    2.64
  -2 -13   0   12.13    2.16
   2  13   0   13.28    2.66
   2  13   0   12.41    2.21
  -3 -13   0    9.52    1.97
  -3 -13   0    7.52    1.92
  -3 -13   0    6.70    2.14
   3  13   0    7.26    2.11
   3  13   0    5.58    1.85
  -4 -13   0    4.28    1.97
  -4 -13   0    3.17    1.54
   4  13   0    6.34    2.19
   4  13   0    4.93    1.76
   1 -14   0   12.56    2.63
   1 -14   0   13.26    2.63
   1 -14   0   15.78    2.95
  -1  14   0   15.16    2.75
  -1  14   0   13.17    2.36
  -1  14   0   17.14    2.95
   0 -14   0    0.35    1.46
   0 -14   0    0.48    1.44
   0 -14   0    1.03    1.69
   0  14   0    2.05    1.73
   0  14   0    1.46    1.39
   0  14   0    0.64    1.71
  -1 -14   0   16.27    2.84
  -1 -14   0   15.80    2.72
   1  14   0   18.99    3.08
   1  14   0   20.53    2.98
  -2 -14   0    1.94    1.63
  -2 -14   0    2.66    1.70
   2  14   0    3.17    1.69
   2  14   0    6.03    2.24
   2  14  -1    9.06    2.09
   2  14  -1   10.49    2.55
  -2 -14   1    8.45    2.27
  -2 -14   1    9.62    2.51
   1  14  -1   10.39    2.41
   1  14  -1    6.80    1.96
  -1 -14   1    8.90    2.25
  -1 -14   1    9.62    2.25
   0  14  -1    2.76    1.61
   0  14  -1    3.86    1.97
   0 -14   1    7.42    1.98
   0 -14   1    2.62    1.69
  -1  14  -1    4.30    1.59
  -1  14  -1    5.49    1.85
  -1  14  -1    3.62    1.81
   1 -14   1    0.81    1.60
   1 -14   1    2.63    1.62
   4  13  -1   21.98    3.31
   4  13  -1   22.47    3.40
  -4 -13   1   17.58    2.90
  -4 -13   1   20.94    3.15
   3  13  -1    6.45    2.02
   3  13  -1    5.72    1.85
  -3 -13   1    8.50    2.16
  -3 -13   1    5.60    2.10
   2  13  -1    9.18    1.93
   2  13  -1   10.12    2.34
  -2 -13   1    3.93    1.82
  -2 -13   1    7.39    2.12
   1  13  -1   11.41    2.15
   1  13  -1   10.51    2.31
  -1 -13   1   10.11    2.16
   0  13  -1   11.91    2.41
   0  13  -1    8.55    1.71
   0  13  -1    9.56    2.17
   0 -13   1    8.09    2.05
   0 -13   1    6.79    1.86
  -1  13  -1   20.14    3.00
  -1  13  -1   17.79    2.61
  -1  13  -1   18.23    2.90
   1 -13   1   23.25    2.95
   1 -13   1   22.02    3.11
  -2  13  -1    6.00    1.92
  -2  13  -1    6.19    1.78
  -2  13  -1    8.25    2.00
   2 -13   1    4.20    1.78
   2 -13   1    2.81    1.74
  -3  13  -1    6.03    1.92
  -3  13  -1    5.66    1.97
   3 -13   1    6.42    2.10
   3 -13   1    8.31    2.33
   5  12  -1   17.44    2.81
   5  12  -1   14.84    2.93
  -5 -12   1   13.60    2.67
  -5 -12   1   14.04    2.71
   4  12  -1    6.73    2.11
   4  12  -1    9.12    2.25
  -4 -12   1    5.41    1.81
  -4 -12   1    6.05    1.97
   3  12  -1   42.48    4.02
   3  12  -1   42.89    4.37
   3  12  -1   45.38    4.49
  -3 -12   1   49.71    4.43
  -3 -12   1   49.05    4.03
  -3 -12   1   49.79    4.44
   2  12  -1   32.56    3.54
   2  12  -1   31.61    3.12
  -2 -12   1   30.09    3.43
  -2 -12   1   29.94    3.01
   1  12  -1   16.97    2.76
   1  12  -1   17.77    2.52
   1  12  -1   16.86    2.07
  -1 -12   1   14.33    2.12
  -1 -12   1   19.48    2.69
  -1 -12   1   20.02    2.43
   0  12  -1   18.58    2.76
   0  12  -1   18.67    2.29
   0  12  -1   20.78    3.01
   0 -12   1   24.03    2.41
   0 -12   1   20.47    2.46
   0 -12   1   23.93    2.86
  -1  12  -1   23.06    2.67
  -1  12  -1   22.93    2.90
  -1  12  -1   26.93    3.00
   1 -12   1   22.22    2.49
   1 -12   1   20.78    2.96
   1 -12   1   22.26    2.90
   1 -12   1   23.51    2.94
  -2  12  -1   12.79    2.48
  -2  12  -1   10.75    2.16
  -2  12  -1   13.89    2.39
   2 -12   1   14.16    2.46
   2 -12   1   17.07    2.64
  -3  12  -1    9.09    1.87
  -3  12  -1    7.16    2.12
  -3  12  -1    9.56    2.04
   3 -12   1   10.32    2.30
   3 -12   1    7.16    2.09
  -4  12  -1    6.41    2.11
  -4  12  -1    7.98    1.87
  -4  12  -1    8.49    2.11
   4 -12   1    8.28    2.33
   4 -12   1    5.15    2.25
   5  11  -1    3.57    1.77
   5  11  -1    3.40    1.56
  -5 -11   1    1.09    1.49
  -5 -11   1    1.99    1.44
   4  11  -1   19.26    2.88
   4  11  -1   18.51    2.91
  -4 -11   1   18.43    2.82
  -4 -11   1   23.11    2.92
   3  11  -1   11.13    1.77
   3  11  -1   12.37    2.24
   3  11  -1   14.04    2.33
  -3 -11   1    5.20    1.71
   2  11  -1   23.73    2.70
   2  11  -1   25.90    3.05
   2  11  -1   23.78    2.93
  -2 -11   1   30.22    2.75
  -2 -11   1   30.92    3.13
   1  11  -1   44.00    3.60
   1  11  -1   43.28    4.09
   1  11  -1   38.56    3.73
  -1 -11   1   51.02    3.82
  -1 -11   1   48.59    3.80
  -1 -11   1   47.77    4.07
   0  11  -1   34.73    3.03
   0  11  -1   32.29    3.11
   0  11  -1   32.58    3.29
   0 -11   1   31.09    2.93
   0 -11   1   31.61    3.13
   0 -11   1   31.33    3.21
  -1  11  -1   14.49    2.29
  -1  11  -1   15.97    2.17
  -1  11  -1   16.69    2.34
   1 -11   1   17.54    2.47
   1 -11   1   18.98    2.49
   1 -11   1   15.73    2.02
  -2  11  -1   20.06    2.56
  -2  11  -1   18.67    2.47
  -2  11  -1   22.53    2.77
   2 -11   1   25.44    2.50
   2 -11   1   24.85    2.89
   2 -11   1   23.50    2.95
  -3  11  -1    2.86    1.46
  -3  11  -1    2.59    1.28
  -3  11  -1    2.36    1.39
   3 -11   1    3.50    1.72
   3 -11   1    2.00    1.64
   3 -11   1    2.19    1.19
  -4  11  -1    7.78    1.98
  -4  11  -1    6.40    1.69
  -4  11  -1    8.22    2.07
   4 -11   1    5.77    1.94
   4 -11   1    9.35    2.20
  -5  11  -1    0.95    1.63
  -5  11  -1    0.58    1.33
  -5  11  -1    1.64    1.49
   5 -11   1    0.49    1.68
   5 -11   1    2.13    1.92
   6  10  -1   11.24    2.19
   6  10  -1   13.99    2.86
  -6 -10   1   16.37    2.37
  -6 -10   1   10.24    2.26
  -6 -10   1   12.10    2.35
   5  10  -1    6.68    2.04
   5  10  -1    7.49    1.89
  -5 -10   1   13.25    2.24
  -5 -10   1   11.44    2.20
   4  10  -1   12.33    2.22
   4  10  -1   13.17    2.38
  -4 -10   1    9.08    1.99
  -4 -10   1   12.30    2.14
   3  10  -1   34.09    2.91
   3  10  -1   33.51    3.38
   3  10  -1   31.25    3.29
  -3 -10   1   29.53    3.09
  -3 -10   1   33.83    3.33
   2  10  -1    5.75    1.06
   2  10  -1    5.75    1.51
   2  10  -1    5.88    1.59
   2  10  -1    4.04    1.18
  -2 -10   1    4.56    1.08
  -2 -10   1    3.58    1.16
  -2 -10   1    4.48    1.33
   1  10  -1   15.43    2.26
   1  10  -1   16.58    1.80
   1  10  -1   14.93    1.87
   1  10  -1   15.75    2.27
  -1 -10   1   16.07    2.25
  -1 -10   1   13.85    1.80
  -1 -10   1   14.51    1.83
   0  10  -1   31.81    3.06
   0  10  -1   32.10    3.20
   0  10  -1   36.95    2.95
   0  10  -1   35.80    3.54
   0 -10   1   30.01    3.25
   0 -10   1   37.22    3.29
   0 -10   1   36.05    2.96
   0 -10   1   37.83    3.12
  -1  10  -1   11.88    1.97
  -1  10  -1   10.25    1.84
  -1  10  -1   12.42    1.76
   1 -10   1   13.37    1.67
   1 -10   1   13.50    2.11
   1 -10   1   13.38    2.00
   1 -10   1   12.75    1.55
  -2  10  -1   19.98    2.41
  -2  10  -1   18.42    2.18
  -2  10  -1   19.78    2.37
   2 -10   1   17.07    2.08
   2 -10   1   17.29    2.01
   2 -10   1   18.45    2.43
   2 -10   1   17.20    2.45
  -3  10  -1   17.69    2.55
  -3  10  -1   14.82    2.21
  -3  10  -1   16.76    2.09
   3 -10   1   11.18    2.12
   3 -10   1   11.09    1.86
   3 -10   1   13.10    2.28
  -4  10  -1    3.88    1.50
  -4  10  -1    4.45    1.44
  -4  10  -1    5.01    1.60
   4 -10   1    6.74    1.89
   4 -10   1    6.28    1.89
  -5  10  -1    4.02    1.67
  -5  10  -1    3.15    1.61
  -5  10  -1    2.62    1.55
   5 -10   1    5.43    1.97
   5 -10   1    5.15    1.93
   6   9  -1   14.76    2.25
   6   9  -1   12.96    2.79
  -6  -9   1   17.35    2.35
  -6  -9   1   15.61    2.61
  -6  -9   1   15.51    2.35
   5   9  -1    7.19    1.73
   5   9  -1    6.85    2.11
  -5  -9   1   11.48    1.93
  -5  -9   1   14.57    1.97
  -5  -9   1   11.90    2.04
  -5  -9   1   11.23    2.02
   4   9  -1   33.16    3.29
   4   9  -1   31.82    3.41
  -4  -9   1   30.80    2.75
  -4  -9   1   26.71    2.90
  -4  -9   1   32.37    3.08
   3   9  -1   27.08    2.48
   3   9  -1   27.97    2.91
   3   9  -1   26.29    2.88
  -3  -9   1   27.78    2.75
  -3  -9   1   31.45    2.93
  -3  -9   1   30.24    2.47
   2   9  -1   54.92    4.08
   2   9  -1   47.78    3.60
   2   9  -1   49.64    3.97
   2   9  -1   51.16    3.99
  -2  -9   1   43.44    3.44
  -2  -9   1   41.65    3.42
  -2  -9   1   41.64    3.86
   1   9  -1   65.73    4.74
   1   9  -1   64.38    4.94
   1   9  -1   63.84    4.52
   1   9  -1   69.11    5.18
  -1  -9   1   61.27    4.82
  -1  -9   1   62.42    4.64
  -1  -9   1   62.33    4.47
  -1  -9   1   60.85    4.61
   0  -9   1    6.93    1.20
   0  -9   1    6.30    1.39
   0  -9   1    7.25    1.09
   0  -9   1    6.62    1.29
  -1   9  -1   49.62    3.87
  -1   9  -1   50.89    4.56
  -1   9  -1   48.72    3.96
  -1   9  -1   47.00    3.98
   1  -9   1   49.69    3.98
   1  -9   1   49.31    3.79
   1  -9   1   51.93    4.12
   1  -9   1   52.42    3.74
  -2   9  -1   23.89    2.67
  -2   9  -1   23.76    2.59
  -2   9  -1   23.22    2.56
   2  -9   1   35.28    3.03
   2  -9   1   33.08    2.66
   2  -9   1   31.79    2.65
   2  -9   1   31.54    2.91
  -3   9  -1    7.86    1.69
  -3   9  -1    9.08    1.72
  -3   9  -1   11.74    1.72
   3  -9   1   10.71    1.63
   3  -9   1    9.86    1.87
   3  -9   1    8.88    1.85
  -4   9  -1   17.53    2.29
  -4   9  -1   15.45    2.29
  -4   9  -1   15.46    2.26
   4  -9   1   13.72    2.38
   4  -9   1   11.96    2.23
  -5   9  -1   16.39    2.44
  -5   9  -1   16.74    2.53
  -5   9  -1   16.90    2.53
   5  -9   1   15.61    2.82
   5  -9   1   14.81    2.67
  -6   9  -1    3.24    1.78
  -6   9  -1    4.73    1.66
  -6   9  -1    4.03    1.70
   6  -9   1    4.82    2.09
   6  -9   1    7.35    2.13
   7   8  -1    5.10    2.14
  -7  -8   1    2.11    1.63
  -7  -8   1    3.14    1.55
   6   8  -1   12.67    1.97
   6   8  -1   13.26    2.49
  -6  -8   1   11.41    1.90
  -6  -8   1   10.32    2.03
  -6  -8   1   15.21    2.08
   5   8  -1   44.84    4.17
   5   8  -1   45.90    3.84
  -5  -8   1   42.31    3.90
  -5  -8   1   43.27    3.60
  -5  -8   1   40.22    3.63
   4   8  -1    2.15    1.35
   4   8  -1    1.71    1.15
  -4  -8   1    5.12    1.28
  -4  -8   1    5.51    1.23
  -4  -8   1    4.73    1.29
  -4  -8   1    5.24    1.21
   3   8  -1   26.96    2.68
   3   8  -1   26.39    2.60
   3   8  -1   26.60    2.17
   3   8  -1   25.59    2.36
  -3  -8   1   24.53    2.49
  -3  -8   1   23.01    2.39
  -3  -8   1   22.19    2.22
   2   8  -1   30.52    2.90
   2   8  -1   32.39    2.64
   2   8  -1   32.21    2.93
   2   8  -1   33.01    2.99
   2   8  -1   32.37    2.38
  -2  -8   1   31.83    2.53
  -2  -8   1   35.78    2.63
  -2  -8   1   33.14    2.88
   1   8  -1    8.57    1.46
   1   8  -1    8.51    1.82
   1   8  -1    6.96    1.41
   1   8  -1    7.61    1.35
   1   8  -1    8.29    1.35
   0   8  -1  123.20    8.18
   0   8  -1  112.07    7.64
   0   8  -1  114.12    8.33
   0   8  -1  111.44    7.73
   0   8  -1  116.24    7.50
   0  -8   1  108.33    7.05
   0  -8   1  113.30    7.49
   0  -8   1  103.50    7.55
   0  -8   1  109.79    7.37
   0  -8   1  108.16    7.68
  -1   8  -1   39.48    2.91
  -1   8  -1   38.64    2.81
  -1   8  -1   36.45    3.39
  -1   8  -1   37.12    2.87
   1  -8   1   28.60    2.71
   1  -8   1   29.27    3.20
   1  -8   1   27.02    2.49
   1  -8   1   27.72    2.79
   1  -8   1   27.45    2.52
  -2   8  -1   23.95    2.50
  -2   8  -1   26.95    2.53
  -2   8  -1   26.35    3.06
  -2   8  -1   26.97    2.48
   2  -8   1   29.61    2.72
   2  -8   1   27.16    2.62
   2  -8   1   29.30    2.48
   2  -8   1   30.29    2.48
  -3   8  -1   29.88    3.01
  -3   8  -1   28.73    3.03
  -3   8  -1   33.11    2.85
   3  -8   1   37.50    3.20
   3  -8   1   35.26    3.19
   3  -8   1   36.42    2.94
  -4   8  -1   19.90    2.46
  -4   8  -1   19.48    2.23
  -4   8  -1   18.31    2.30
   4  -8   1   21.36    2.52
   4  -8   1   21.11    2.57
  -5   8  -1    3.60    1.44
  -5   8  -1    4.97    1.49
  -5   8  -1    4.43    1.51
   5  -8   1    7.09    1.90
   5  -8   1    5.68    1.70
  -6   8  -1   10.67    2.27
  -6   8  -1    9.13    1.85
  -6   8  -1   10.75    2.04
   6  -8   1   10.58    2.31
   6  -8   1   14.59    2.64
   7   7  -1    9.20    2.39
  -7  -7   1    5.94    1.93
  -7  -7   1    6.84    1.80
   6   7  -1    4.95    1.71
  -6  -7   1    1.09    1.09
  -6  -7   1    2.27    1.26
  -6  -7   1    1.57    1.09
   5   7  -1   10.83    1.70
   5   7  -1    9.79    1.98
  -5  -7   1    9.20    1.59
  -5  -7   1    8.98    1.55
  -5  -7   1   11.20    1.86
   4   7  -1   18.47    2.28
   4   7  -1   16.39    2.01
  -4  -7   1   12.60    1.77
  -4  -7   1   13.04    1.64
  -4  -7   1   13.10    1.90
   3   7  -1   41.35    3.75
   3   7  -1   37.94    2.51
   3   7  -1   37.40    3.24
   3   7  -1   36.55    2.71
   3   7  -1   37.62    2.94
   3   7  -1   38.97    3.19
  -3  -7   1   32.41    2.80
  -3  -7   1   32.89    3.57
  -3  -7   1   33.21    2.84
  -3  -7   1   34.15    3.01
   2   7  -1   31.02    2.96
   2   7  -1   34.29    3.51
   2   7  -1   31.00    2.92
   2   7  -1   33.06    2.55
   2   7  -1   33.91    2.77
   2   7  -1   31.73    2.97
  -2  -7   1   42.54    3.76
  -2  -7   1   43.89    3.09
  -2  -7   1   43.27    2.72
  -2  -7   1   44.72    2.87
   1   7  -1   14.41    1.66
   1   7  -1   15.49    1.69
   1   7  -1   16.76    1.85
   1   7  -1   14.44    1.77
   1   7  -1   15.61    2.12
  -1  -7   1   19.05    1.82
  -1  -7   1   18.54    1.56
  -1  -7   1   18.01    1.58
   0   7  -1   75.70    5.55
   0   7  -1   73.79    5.16
   0   7  -1   68.59    4.99
   0   7  -1   73.18    5.25
   0   7  -1   71.59    5.70
   0  -7   1   72.94    5.21
   0  -7   1   69.59    4.92
   0  -7   1   75.13    5.03
   0  -7   1   75.27    5.11
   0  -7   1   76.40    4.73
  -1   7  -1   12.69    1.51
  -1   7  -1   11.44    1.39
  -1   7  -1   13.33    1.48
  -1   7  -1   13.39    1.87
   1  -7   1    8.17    1.33
   1  -7   1    9.50    1.77
   1  -7   1    8.35    1.17
   1  -7   1    9.77    1.48
   1  -7   1    7.70    1.16
  -2   7  -1   87.93    5.41
  -2   7  -1   84.72    6.10
  -2   7  -1   82.80    5.44
  -2   7  -1   86.89    5.39
   2  -7   1   67.52    5.40
   2  -7   1   68.25    5.25
   2  -7   1   67.84    5.43
   2  -7   1   70.91    5.99
   2  -7   1   67.89    5.21
  -3   7  -1    5.11    1.06
  -3   7  -1    5.18    1.23
  -3   7  -1    5.82    1.28
  -3   7  -1    3.94    1.52
   3  -7   1    7.74    1.36
   3  -7   1    7.17    1.23
   3  -7   1    7.19    1.47
   3  -7   1    5.67    1.33
  -4   7  -1   16.78    1.88
  -4   7  -1   16.38    1.92
  -4   7  -1   15.10    2.02
  -4   7  -1   15.55    1.57
   4  -7   1    9.84    1.91
   4  -7   1   10.51    1.96
  -5   7  -1   23.93    2.55
  -5   7  -1   23.71    2.54
  -5   7  -1   25.18    2.71
   5  -7   1   24.96    2.90
   5  -7   1   20.51    2.80
  -6   7  -1    9.29    1.83
  -6   7  -1    9.18    1.73
  -6   7  -1    8.75    1.92
   6  -7   1    6.94    1.86
   6  -7   1    8.66    2.15
  -7   7  -1    8.42    2.09
  -7   7  -1    6.77    1.89
   7  -7   1    6.31    2.10
   7  -7   1    6.97    2.07
   7   6  -1   16.33    3.00
  -7  -6   1   17.27    2.48
  -7  -6   1   19.91    2.79
   6   6  -1   25.15    2.30
   6   6  -1   23.33    2.83
  -6  -6   1   19.01    2.24
  -6  -6   1   18.59    2.45
  -6  -6   1   16.43    2.06
   5   6  -1   22.12    2.72
   5   6  -1   23.05    2.37
  -5  -6   1   24.53    2.37
  -5  -6   1   26.21    2.40
  -5  -6   1   30.01    2.80
   4   6  -1   30.88    3.11
   4   6  -1   27.23    2.53
   4   6  -1   27.60    2.73
  -4  -6   1   37.91    2.73
  -4  -6   1   37.62    3.57
  -4  -6   1   36.08    2.80
  -4  -6   1   33.84    2.90
   3   6  -1   28.91    2.71
   3   6  -1   33.08    3.19
   3   6  -1   33.07    2.26
   3   6  -1   33.34    2.16
   3   6  -1   32.05    2.63
  -3  -6   1   28.52    2.39
  -3  -6   1   25.07    2.43
  -3  -6   1   26.52    3.03
  -3  -6   1   26.97    2.56
   2   6  -1   40.91    3.30
   2   6  -1   41.94    2.97
   2   6  -1   38.82    3.17
   2   6  -1   42.76    2.81
   2   6  -1   41.49    3.14
   2   6  -1   44.18    3.67
  -2  -6   1   39.28    2.97
  -2  -6   1   38.99    3.13
  -2  -6   1   40.30    2.84
  -2  -6   1   39.50    2.97
  -2  -6   1   41.52    3.66
   1   6  -1  163.63   11.05
   1   6  -1  179.25   11.17
   1   6  -1  167.30   11.48
   1   6  -1  171.06   10.92
   1   6  -1  166.66   11.02
  -1  -6   1  163.80   10.99
  -1  -6   1  168.92   10.82
  -1  -6   1  172.44   10.83
   0  -6   1   17.83    1.54
   0  -6   1   17.66    1.54
   0  -6   1   19.06    1.76
   0  -6   1   17.72    1.93
   0  -6   1   16.42    1.62
  -1   6  -1   92.16    6.73
  -1   6  -1   90.13    6.35
  -1   6  -1   91.60    6.25
  -1   6  -1   89.07    6.33
   1  -6   1   95.33    5.84
   1  -6   1   95.18    6.23
   1  -6   1   96.00    6.79
   1  -6   1   94.93    6.42
   1  -6   1   92.89    6.19
   1  -6   1   97.94    6.39
  -2   6  -1   89.72    6.57
  -2   6  -1   89.63    5.94
  -2   6  -1   81.00    5.93
  -2   6  -1   84.14    5.99
   2  -6   1   88.58    5.92
   2  -6   1   90.45    6.13
   2  -6   1   88.16    6.60
   2  -6   1   87.63    6.11
   2  -6   1   87.73    5.95
  -3   6  -1   71.39    5.06
  -3   6  -1   70.83    5.03
  -3   6  -1   71.03    4.82
  -3   6  -1   80.26    5.92
   3  -6   1   64.48    5.02
   3  -6   1   67.89    5.16
   3  -6   1   66.61    5.66
   3  -6   1   64.40    5.06
  -4   6  -1   20.51    2.02
  -4   6  -1   19.03    2.09
  -4   6  -1   17.89    2.05
  -4   6  -1   18.03    1.62
   4  -6   1   18.92    2.20
   4  -6   1   14.56    2.05
  -5   6  -1   24.57    2.59
  -5   6  -1   27.11    2.59
  -5   6  -1   27.15    2.60
   5  -6   1   21.88    2.67
   5  -6   1   22.82    2.71
  -6   6  -1    4.85    1.29
  -6   6  -1    3.54    1.39
  -6   6  -1    3.39    1.54
   6  -6   1    2.76    1.52
   6  -6   1    5.40    1.70
  -7   6  -1    2.02    1.43
  -7   6  -1    3.39    1.58
   7  -6   1    4.59    1.81
   7  -6   1    1.71    1.64
   8   5  -1    1.35    1.74
  -8  -5   1    3.35    1.85
  -8  -5   1    1.51    1.42
   7   5  -1    7.13    2.05
  -7  -5   1    9.34    1.99
  -7  -5   1    9.66    1.84
   6   5  -1   24.14    2.23
   6   5  -1   18.65    2.72
  -6  -5   1   23.46    2.40
  -6  -5   1   22.51    2.19
  -6  -5   1   21.00    2.54
   5   5  -1   81.17    6.19
   5   5  -1   84.71    5.61
  -5  -5   1   78.30    5.88
  -5  -5   1   76.12    5.54
  -5  -5   1   76.83    5.60
   4   5  -1  181.90   12.03
   4   5  -1  189.17   12.46
   4   5  -1  187.30   12.11
   4   5  -1  187.04   12.92
  -4  -5   1  187.19   12.04
  -4  -5   1  185.54   12.23
  -4  -5   1  183.95   12.03
  -4  -5   1  187.56   12.88
   3   5  -1   26.93    2.61
   3   5  -1   25.50    2.05
   3   5  -1   27.27    2.42
   3   5  -1   26.43    2.89
   3   5  -1   27.40    2.06
   3   5  -1   26.27    2.25
  -3  -5   1   35.99    3.06
  -3  -5   1   36.17    2.43
  -3  -5   1   36.29    2.54
   2   5  -1  226.30   14.03
   2   5  -1  226.15   14.80
   2   5  -1  228.28   14.45
   2   5  -1  230.02   14.12
   2   5  -1  216.45   14.22
   2   5  -1  214.54   14.32
  -2  -5   1  217.86   14.15
  -2  -5   1  226.06   14.33
  -2  -5   1  223.47   14.79
  -2  -5   1  228.69   14.01
   1   5  -1   69.98    4.86
   1   5  -1   67.40    5.14
   1   5  -1   66.20    4.81
   1   5  -1   68.67    4.84
   1   5  -1   69.07    4.69
  -1  -5   1   73.52    4.63
  -1  -5   1   71.74    4.66
  -1  -5   1   72.17    4.82
   0   5  -1   62.67    4.26
   0   5  -1   61.24    4.19
   0   5  -1   61.61    4.41
   0   5  -1   61.99    4.61
   0   5  -1   59.25    4.06
   0  -5   1   57.97    4.21
   0  -5   1   57.38    4.06
   0  -5   1   59.58    4.41
   0  -5   1   60.55    4.14
   0  -5   1   63.33    4.08
  -1   5  -1  107.70    7.33
  -1   5  -1  105.64    7.40
  -1   5  -1  106.94    7.38
  -1   5  -1  106.50    7.72
   1  -5   1  113.46    7.05
   1  -5   1  115.97    7.49
   1  -5   1  122.91    7.48
   1  -5   1  115.35    7.35
   1  -5   1  116.46    7.80
   1  -5   1  113.32    7.28
  -2   5  -1   21.22    1.80
  -2   5  -1   21.96    1.90
  -2   5  -1   21.40    1.89
  -2   5  -1   21.71    2.38
   2  -5   1   21.63    2.00
   2  -5   1   22.88    2.03
   2  -5   1   21.56    1.61
   2  -5   1   22.94    1.83
   2  -5   1   22.13    2.37
   2  -5   1   21.58    1.92
  -3   5  -1  115.55    7.36
  -3   5  -1  116.72    7.60
  -3   5  -1  118.53    8.29
  -3   5  -1  112.12    7.58
   3  -5   1  108.45    8.19
   3  -5   1  112.05    7.72
   3  -5   1  114.83    7.72
   3  -5   1  104.65    7.62
   3  -5   1  112.38    7.35
  -4   5  -1   53.97    3.64
  -4   5  -1   55.86    4.17
  -4   5  -1   51.77    4.02
  -4   5  -1   56.00    4.86
  -4   5  -1   51.53    4.02
   4  -5   1   54.68    4.25
   4  -5   1   52.32    4.22
  -5   5  -1   22.23    2.33
  -5   5  -1   22.89    2.21
  -5   5  -1   24.36    2.27
   5  -5   1   19.13    2.32
   5  -5   1   14.73    2.35
  -6   5  -1   10.30    1.78
  -6   5  -1    9.78    1.81
  -6   5  -1    6.90    1.38
   6  -5   1    8.94    1.93
   6  -5   1    9.37    1.87
  -7   5  -1    6.24    1.74
  -7   5  -1    5.16    1.65
   7  -5   1    5.53    1.83
   7  -5   1    8.96    1.98
   8   4  -1   17.14    3.11
  -8  -4   1   11.21    2.48
  -8  -4   1   13.52    2.33
   7   4  -1   18.92    3.05
  -7  -4   1   25.09    2.57
  -7  -4   1   24.47    2.91
   6   4  -1    8.91    1.38
   6   4  -1    9.49    1.90
  -6  -4   1   10.18    1.61
  -6  -4   1   10.03    1.81
   5   4  -1   30.72    2.63
   5   4  -1   32.92    2.52
   5   4  -1   31.80    2.46
   5   4  -1   27.65    2.85
  -5  -4   1   29.51    2.78
  -5  -4   1   27.12    2.37
  -5  -4   1   27.58    2.56
  -5  -4   1   29.57    2.26
   4   4  -1   53.02    3.72
   4   4  -1   53.50    3.68
   4   4  -1   52.91    4.40
   4   4  -1   50.64    3.99
  -4  -4   1   48.87    3.66
  -4  -4   1   46.96    3.60
  -4  -4   1   48.88    3.84
  -4  -4   1   48.01    4.30
   3   4  -1  207.58   12.99
   3   4  -1  208.88   12.64
   3   4  -1  203.51   13.22
   3   4  -1  195.47   12.88
   3   4  -1  210.76   13.59
   3   4  -1  208.89   12.78
  -3  -4   1  201.96   12.93
  -3  -4   1  200.24   13.06
  -3  -4   1  192.88   12.88
  -3  -4   1  195.82   13.50
   2   4  -1   24.74    1.66
   2   4  -1   26.49    1.94
   2   4  -1   24.57    2.27
   2   4  -1   25.63    1.68
   2   4  -1   26.73    2.07
  -2  -4   1   18.24    1.88
  -2  -4   1   20.91    1.73
  -2  -4   1   19.25    2.16
  -2  -4   1   20.61    1.55
   1   4  -1   43.52    3.19
   1   4  -1   40.00    3.17
   1   4  -1   42.95    3.45
   1   4  -1   41.93    3.13
   1   4  -1   42.84    3.05
  -1  -4   1   47.14    3.52
  -1  -4   1   48.58    3.00
  -1  -4   1   46.95    3.19
  -1  -4   1   48.21    3.09
   0   4  -1  220.40   14.06
   0   4  -1  214.22   14.16
   0   4  -1  211.62   13.89
   0   4  -1  223.64   14.38
   0   4  -1  221.92   14.00
   0  -4   1  217.15   14.18
   0  -4   1  221.55   14.05
   0  -4   1  235.91   13.93
   0  -4   1  222.01   13.94
   0  -4   1  228.51   13.98
  -1   4  -1   60.13    4.34
  -1   4  -1   60.04    4.01
  -1   4  -1   63.18    3.99
  -1   4  -1   60.97    4.03
   1  -4   1   56.32    3.89
   1  -4   1   55.38    4.32
   1  -4   1   56.49    3.98
   1  -4   1   57.66    3.76
   1  -4   1   59.25    4.06
   1  -4   1   56.84    4.06
  -2   4  -1   58.58    3.81
  -2   4  -1   57.31    3.68
  -2   4  -1   58.50    4.29
  -2   4  -1   54.77    3.77
   2  -4   1   51.75    3.71
   2  -4   1   50.80    3.57
   2  -4   1   52.22    3.85
   2  -4   1   51.66    3.78
   2  -4   1   53.87    3.85
   2  -4   1   49.95    4.16
  -3   4  -1    5.03    0.90
  -3   4  -1    5.12    1.30
  -3   4  -1    5.46    0.93
  -3   4  -1    5.32    0.95
  -3   4  -1    5.85    0.71
   3  -4   1    2.87    1.07
   3  -4   1    3.77    0.93
   3  -4   1    4.27    0.97
   3  -4   1    3.93    0.94
   3  -4   1    4.12    0.78
  -4   4  -1   16.80    1.61
  -4   4  -1   17.41    2.30
  -4   4  -1   19.96    1.84
  -4   4  -1   18.68    2.27
  -4   4  -1   18.49    1.74
   4  -4   1   11.34    1.77
   4  -4   1   10.62    1.71
   4  -4   1   12.38    2.23
  -5   4  -1   30.67    2.83
  -5   4  -1   28.87    2.35
  -5   4  -1   30.24    2.70
  -5   4  -1   30.61    2.55
   5  -4   1   31.06    2.91
   5  -4   1   29.82    2.93
  -6   4  -1   38.54    3.56
  -6   4  -1   45.65    3.37
  -6   4  -1   45.52    3.81
   6  -4   1   36.44    3.60
   6  -4   1   43.12    3.90
  -7   4  -1   10.22    1.97
  -7   4  -1   11.70    2.10
   7  -4   1    9.25    1.88
   7  -4   1    8.16    2.05
   7  -4   1    7.77    1.76
  -8   4  -1   11.39    2.33
  -8   4  -1    7.91    1.92
   8  -4   1   12.78    2.70
   8  -4   1   10.24    2.62
   8   3  -1    2.31    1.69
  -8  -3   1    3.39    1.76
  -8  -3   1    4.47    1.56
   7   3  -1   29.18    3.17
  -7  -3   1   21.01    2.64
  -7  -3   1   22.83    2.81
   6   3  -1   29.74    3.23
   6   3  -1   28.32    2.49
  -6  -3   1   31.82    2.45
  -6  -3   1   27.69    2.70
  -6  -3   1   31.74    2.97
   5   3  -1   17.78    2.06
  -5  -3   1   11.52    1.32
  -5  -3   1   13.67    1.33
  -5  -3   1   13.72    2.19
  -5  -3   1   11.41    1.75
  -5  -3   1   13.15    1.57
   4   3  -1    7.40    0.98
   4   3  -1    5.17    1.34
   4   3  -1    5.83    1.23
   4   3  -1    6.44    1.07
   4   3  -1    5.44    0.83
  -4  -3   1    4.52    0.69
  -4  -3   1    4.70    0.90
  -4  -3   1    5.46    1.36
  -4  -3   1    4.65    0.80
  -4  -3   1    4.32    0.99
   3   3  -1   75.74    5.30
   3   3  -1   74.51    5.22
   3   3  -1   74.66    5.31
   3   3  -1   73.43    5.53
   3   3  -1   72.17    5.78
  -3  -3   1   88.66    5.31
  -3  -3   1   88.33    5.94
  -3  -3   1   86.26    5.13
  -3  -3   1   79.85    5.28
  -3  -3   1   85.23    5.50
   2   3  -1  116.63    7.10
   2   3  -1  117.06    6.98
   2   3  -1  114.77    7.58
   2   3  -1  116.51    7.06
   2   3  -1  115.63    7.21
   2   3  -1  114.96    7.35
  -2  -3   1   97.75    7.19
  -2  -3   1  101.15    7.50
  -2  -3   1  100.69    7.08
   1   3  -1   81.62    5.45
   1   3  -1   83.08    5.50
   1   3  -1   79.14    5.55
   1   3  -1   82.26    5.62
  -1  -3   1   88.83    5.53
  -1  -3   1   87.11    5.58
  -1  -3   1   88.76    5.85
  -1  -3   1   89.26    5.45
  -1  -3   1   86.33    5.39
   0   3  -1  171.62   11.21
   0   3  -1  175.49   10.86
   0   3  -1  166.23   10.96
   0   3  -1  170.81   10.93
   0   3  -1  172.58   11.06
   0  -3   1  177.55   10.98
   0  -3   1  177.11   10.91
   0  -3   1  175.25   11.06
   0  -3   1  172.33   10.84
   0  -3   1  172.67   10.90
  -1   3  -1  181.53   10.43
  -1   3  -1  185.26   10.73
  -1   3  -1  186.93   10.41
  -1   3  -1  183.87   10.41
   1  -3   1  153.64   10.32
   1  -3   1  157.69   10.47
   1  -3   1  149.26   10.63
   1  -3   1  149.20   10.42
   1  -3   1  152.28   10.26
   1  -3   1  143.49   10.38
  -2   3  -1  150.67   10.32
  -2   3  -1  149.68    9.88
  -2   3  -1  149.86    9.89
  -2   3  -1  150.87    9.75
   2  -3   1  151.94    9.93
   2  -3   1  158.83   10.34
   2  -3   1  161.03    9.96
   2  -3   1  157.79    9.97
   2  -3   1  158.79    9.81
  -3   3  -1   78.83    5.55
  -3   3  -1   79.62    5.64
  -3   3  -1   81.51    5.60
  -3   3  -1   81.12    6.13
  -3   3  -1   82.50    5.33
   3  -3   1   84.31    6.19
   3  -3   1   85.14    5.75
   3  -3   1   90.36    5.73
   3  -3   1   88.23    5.63
  -4   3  -1   14.65    2.10
  -4   3  -1   15.13    1.55
  -4   3  -1   14.52    2.08
  -4   3  -1   14.97    1.48
  -4   3  -1   15.29    1.63
   4  -3   1   16.04    1.84
   4  -3   1   13.21    1.61
   4  -3   1   15.01    2.09
   4  -3   1   14.07    1.68
  -5   3  -1   21.28    2.74
  -5   3  -1   22.37    1.88
  -5   3  -1   22.23    2.27
  -5   3  -1   23.49    2.07
  -5   3  -1   23.31    2.26
  -5   3  -1   24.36    2.93
   5  -3   1   29.91    2.56
  -6   3  -1   17.39    2.09
  -6   3  -1   16.55    2.22
   6  -3   1   13.80    2.17
   6  -3   1   15.59    2.16
  -7   3  -1   31.07    3.06
  -7   3  -1   29.14    3.05
   7  -3   1   28.45    3.10
   7  -3   1   30.22    3.38
   7  -3   1   29.93    3.27
  -8   3  -1    3.01    1.53
  -8   3  -1    3.24    1.55
   8  -3   1    0.43    1.56
   8  -3   1    1.51    1.64
   8   2  -1    3.69    1.77
  -8  -2   1    6.30    1.80
  -8  -2   1    2.75    1.74
   7   2  -1    7.83    1.99
  -7  -2   1   11.97    1.91
  -7  -2   1    9.17    1.91
   6   2  -1   17.62    2.36
   6   2  -1   19.61    1.80
  -6  -2   1   18.74    2.07
  -6  -2   1   17.48    1.83
   5   2  -1   23.73    1.70
   5   2  -1   24.40    2.34
   5   2  -1   23.10    2.41
   5   2  -1   18.62    2.96
   5   2  -1   24.33    1.96
  -5  -2   1   20.07    2.13
  -5  -2   1   20.53    1.89
  -5  -2   1   21.76    1.78
  -5  -2   1   23.36    2.77
   4   2  -1   71.06    5.49
   4   2  -1   66.11    4.99
   4   2  -1   73.53    4.58
   4   2  -1   69.12    4.79
   4   2  -1   68.95    5.14
   4   2  -1   72.84    4.71
  -4  -2   1   71.53    4.89
  -4  -2   1   69.69    4.69
  -4  -2   1   73.57    5.57
  -4  -2   1   73.07    4.71
   3   2  -1   34.30    2.53
   3   2  -1   35.22    2.66
   3   2  -1   34.51    3.07
   3   2  -1   33.67    2.47
   3   2  -1   36.39    2.29
   3   2  -1   32.64    2.76
  -3  -2   1   36.32    2.48
  -3  -2   1   36.87    2.60
  -3  -2   1   36.50    3.06
  -3  -2   1   36.36    2.42
   2   2  -1  309.10   20.13
   2   2  -1  301.51   19.94
   2   2  -1  309.01   19.94
   2   2  -1  313.39   19.77
   2   2  -1  296.09   19.85
   2   2  -1  300.28   20.33
   2   2  -1  313.26   19.98
  -2  -2   1  344.33   20.09
  -2  -2   1  340.83   20.37
  -2  -2   1  345.14   19.97
  -2  -2   1  348.57   19.84
   1   2  -1  792.51   49.52
   1   2  -1  796.53   49.73
   1   2  -1  762.16   49.75
   1   2  -1  807.36   49.72
   1   2  -1  779.49   49.88
  -1  -2   1  796.83   50.56
  -1  -2   1  809.03   49.63
  -1  -2   1  795.04   49.28
  -1  -2   1  812.96   49.63
   0   2  -1  232.45   15.32
   0   2  -1  222.83   15.47
   0   2  -1  238.64   15.36
   0   2  -1  240.31   15.27
   0   2  -1  222.13   15.38
   0  -2   1  268.57   15.38
   0  -2   1  259.58   15.41
   0  -2   1  253.06   15.24
   0  -2   1  255.28   15.30
   0  -2   1  265.92   15.34
  -1   2  -1  368.22   24.91
  -1   2  -1  368.65   24.69
  -1   2  -1  376.77   24.64
  -1   2  -1  364.48   24.67
   1  -2   1  418.22   24.95
   1  -2   1  437.42   24.75
   1  -2   1  424.63   24.88
   1  -2   1  416.26   24.64
   1  -2   1  400.29   24.72
  -2   2  -1   15.83    1.43
  -2   2  -1   17.22    1.43
  -2   2  -1   14.59    1.24
  -2   2  -1   15.20    1.74
  -2   2  -1   15.82    1.47
   2  -2   1   21.84    1.88
   2  -2   1   22.08    1.60
   2  -2   1   21.87    1.61
   2  -2   1   21.10    1.52
  -3   2  -1   50.40    4.06
  -3   2  -1   47.69    3.56
  -3   2  -1   52.07    3.63
  -3   2  -1   50.78    3.98
  -3   2  -1   51.32    3.54
   3  -2   1   52.27    3.65
   3  -2   1   50.44    3.70
   3  -2   1   54.64    3.70
   3  -2   1   52.56    4.09
  -4   2  -1  113.94    8.39
  -4   2  -1  110.22    7.62
  -4   2  -1  117.44    8.34
  -4   2  -1  112.69    7.78
  -4   2  -1  114.97    7.81
  -4   2  -1  112.04    7.55
   4  -2   1  125.31    7.88
   4  -2   1  123.79    7.97
   4  -2   1  126.51    8.48
   4  -2   1  120.14    7.91
  -5   2  -1   25.16    2.33
  -5   2  -1   25.27    2.88
  -5   2  -1   25.40    2.05
  -5   2  -1   27.39    2.37
  -5   2  -1   25.60    2.94
  -5   2  -1   28.14    2.00
   5  -2   1   18.28    2.23
  -6   2  -1   26.18    2.63
  -6   2  -1   26.24    2.69
   6  -2   1   27.55    2.90
   6  -2   1   28.97    2.72
  -7   2  -1    3.55    1.34
  -7   2  -1    1.42    1.09
   7  -2   1    2.31    1.37
   7  -2   1    3.01    1.29
   7  -2   1    2.20    1.37
  -8   2  -1   14.96    2.41
  -8   2  -1   10.88    2.21
   8  -2   1   15.36    2.82
   8  -2   1   19.02    3.03
   8   1  -1   17.68    2.98
  -8  -1   1   15.09    2.44
   7   1  -1    2.69    1.59
  -7  -1   1    4.65    1.41
  -7  -1   1    4.85    1.17
   6   1  -1   20.22    2.53
   6   1  -1   17.68    2.52
  -6  -1   1   25.15    2.76
  -6  -1   1   26.18    2.18
  -6  -1   1   25.27    2.34
   5   1  -1   43.55    4.03
   5   1  -1   49.72    4.13
   5   1  -1   43.22    4.07
   5   1  -1   46.23    3.64
   5   1  -1   47.84    3.56
   5   1  -1   46.30    4.51
  -5  -1   1   58.23    3.74
  -5  -1   1   61.94    4.80
  -5  -1   1   57.75    4.26
  -5  -1   1   58.57    3.93
  -5  -1   1   60.28    3.52
   4   1  -1   83.61    6.11
   4   1  -1   85.63    5.68
   4   1  -1   79.44    5.70
   4   1  -1   85.64    5.25
   4   1  -1   80.23    5.67
   4   1  -1   82.77    5.35
  -4  -1   1   75.94    5.29
  -4  -1   1   78.74    5.17
  -4  -1   1   76.16    5.41
  -4  -1   1   78.19    6.05
  -4  -1   1   76.27    5.66
   3   1  -1   25.88    1.73
   3   1  -1   22.93    2.28
   3   1  -1   24.16    2.06
   3   1  -1   25.50    2.07
   3   1  -1   24.99    1.86
   3   1  -1   23.23    2.07
   2   1  -1  188.31   10.95
   2   1  -1  183.83   10.76
   2   1  -1  183.07   10.86
   2   1  -1  175.70   10.96
   2   1  -1  179.85   11.26
   2   1  -1  179.42   10.90
   2   1  -1  183.18   11.06
  -2  -1   1  163.60   10.80
  -2  -1   1  162.60   10.95
  -2  -1   1  162.33   10.80
  -2  -1   1  160.57   11.20
  -2  -1   1  155.25   10.87
   1   1  -1    3.43    0.44
   1   1  -1    3.06    0.27
   1   1  -1    3.80    0.55
   1   1  -1    3.02    0.32
   1   1  -1    2.83    0.61
   1   1  -1    2.92    0.33
   1   1  -1    3.38    0.46
   0   1  -1  252.46   14.88
   0   1  -1  260.90   14.88
   0   1  -1  250.82   14.86
   0   1  -1  247.59   14.88
   0   1  -1  243.31   15.26
   0   1  -1  258.88   14.98
   0   1  -1  247.58   15.10
   0  -1   1  222.50   14.92
   0  -1   1  234.56   14.85
   0  -1   1  214.03   15.19
   0  -1   1  223.82   14.88
   0  -1   1  231.21   14.87
   0  -1   1  237.23   14.88
   0  -1   1  225.33   14.87
  -1   1  -1  899.75   59.72
  -1   1  -1  943.27   58.59
  -1   1  -1  946.75   58.68
  -1   1  -1  883.03   58.67
  -1   1  -1  927.05   58.43
   1  -1   1 1000.00   58.97
   1  -1   1  935.41   58.52
   1  -1   1  980.72   58.28
   1  -1   1  952.89   58.81
   1  -1   1  914.46   59.41
  -2   1  -1   52.34    3.39
  -2   1  -1   54.00    3.70
  -2   1  -1   53.92    3.79
  -2   1  -1   46.10    3.38
  -2   1  -1   51.54    3.42
  -2   1  -1   53.39    3.46
   2  -1   1   52.33    3.23
   2  -1   1   49.56    3.49
   2  -1   1   48.62    3.49
   2  -1   1   50.01    3.54
   2  -1   1   52.00    3.78
  -3   1  -1  142.55    9.65
  -3   1  -1  143.53    9.28
  -3   1  -1  143.32    9.13
  -3   1  -1  144.57    9.28
  -3   1  -1  144.54    9.16
  -3   1  -1  140.55    9.68
   3  -1   1  148.29    9.75
   3  -1   1  143.76    9.37
   3  -1   1  146.99    9.40
  -4   1  -1   26.66    2.15
  -4   1  -1   27.52    2.63
  -4   1  -1   26.30    1.91
  -4   1  -1   28.57    2.19
  -4   1  -1   25.66    1.91
  -4   1  -1   26.87    2.64
   4  -1   1   22.18    2.02
   4  -1   1   23.24    2.24
   4  -1   1   24.59    2.57
   4  -1   1   23.21    2.21
  -5   1  -1   45.44    3.17
  -5   1  -1   46.77    3.54
  -5   1  -1   45.41    4.14
  -5   1  -1   44.34    3.50
  -5   1  -1   45.44    3.18
  -5   1  -1   44.27    4.08
   5  -1   1   44.54    3.47
   5  -1   1   45.73    4.11
   5  -1   1   47.64    3.73
  -6   1  -1    1.84    1.00
  -6   1  -1    1.38    0.88
   6  -1   1    0.10    0.91
   6  -1   1   -0.25    0.78
  -7   1  -1    7.40    1.55
  -7   1  -1    7.90    1.63
   7  -1   1    4.39    1.60
   7  -1   1    7.57    1.85
   7  -1   1    6.63    1.48
  -8   1  -1   -0.46    1.11
  -8   1  -1    1.38    1.35
   8  -1   1   -1.11    1.46
   8  -1   1    0.45    1.59
   8   0  -1    1.91    1.52
  -8   0   1    4.00    1.56
   7   0  -1    9.94    2.13
   7   0  -1   12.19    2.26
  -7   0   1   11.50    1.91
  -7   0   1   10.04    1.62
   6   0  -1    3.49    1.37
   6   0  -1    4.50    0.95
   6   0  -1    3.27    1.24
   6   0  -1    4.61    1.42
  -6   0   1    2.33    0.91
  -6   0   1    2.04    1.02
  -6   0   1    2.68    1.23
   5   0  -1   29.15    2.28
   5   0  -1   29.46    2.77
   5   0  -1   27.52    2.28
   5   0  -1   31.60    2.76
   5   0  -1   29.88    2.91
  -5   0   1   30.90    3.19
  -5   0   1   29.17    2.89
  -5   0   1   27.17    2.48
  -5   0   1   29.31    2.40
   4   0  -1   26.82    2.39
   4   0  -1   25.24    2.57
   4   0  -1   24.86    1.89
   4   0  -1   24.63    2.23
   4   0  -1   24.51    1.88
   4   0  -1   22.99    2.13
  -4   0   1   22.62    1.56
  -4   0   1   22.01    1.99
  -4   0   1   24.02    2.30
  -4   0   1   22.74    1.60
  -4   0   1   21.56    2.43
  -4   0   1   22.43    1.90
   3   0  -1  371.88   21.43
   3   0  -1  364.95   22.05
   3   0  -1  350.65   21.43
   3   0  -1  344.27   21.62
   3   0  -1  349.67   21.64
   3   0  -1  349.66   21.76
  -3   0   1  331.86   21.25
  -3   0   1  329.75   21.74
  -3   0   1  330.99   21.49
  -3   0   1  327.12   21.94
  -3   0   1  342.03   21.26
  -3   0   1  325.00   21.42
   2   0  -1   67.72    5.18
   2   0  -1   67.99    4.92
   2   0  -1   68.97    4.87
   2   0  -1   67.90    4.95
   2   0  -1   67.29    5.02
   2   0  -1   69.08    4.82
   2   0  -1   67.04    4.95
  -2   0   1   82.50    4.85
  -2   0   1   84.51    4.79
  -2   0   1   84.29    4.72
  -2   0   1   84.26    5.09
  -2   0   1   80.66    4.75
  -2   0   1   77.92    4.88
  -2   0   1   82.24    5.26
   1   0  -1  398.26   24.25
   1   0  -1  417.11   24.05
   1   0  -1  408.51   23.96
   1   0  -1  411.64   23.79
   1   0  -1  413.18   23.77
   1   0  -1  417.21   24.41
   1   0  -1  394.17   23.78
  -1   0   1  359.98   23.70
  -1   0   1  339.39   24.22
  -1   0   1  345.39   23.89
  -1   0   1  356.03   23.72
  -1   0   1  343.05   23.70
   0   0  -1    9.71    0.66
   0   0  -1    9.59    0.67
   0   0  -1    9.64    0.68
   0   0  -1    9.74    0.66
   0   0  -1    9.55    0.70
   0   0  -1    9.71    0.67
   0   0  -1    9.10    0.64
  -1   0  -1  192.72   11.01
  -1   0  -1  188.16   11.09
  -1   0  -1  194.26   11.00
  -1   0  -1  187.34   11.02
  -1   0  -1  192.43   11.02
  -1   0  -1  187.88   11.19
  -1   0  -1  189.75   11.01
   1   0   1  163.04   11.01
   1   0   1  159.37   11.06
   1   0   1  154.74   11.07
   1   0   1  157.51   11.15
   1   0   1  163.20   11.04
   1   0   1  164.47   10.98
  -2   0  -1  288.79   18.17
  -2   0  -1  304.19   18.42
  -2   0  -1  293.68   18.08
  -2   0  -1  296.56   18.45
  -2   0  -1  292.10   18.11
  -2   0  -1  288.82   18.17
  -2   0  -1  296.87   18.12
   2   0   1  291.61   18.00
   2   0   1  284.38   18.39
   2   0   1  279.97   18.26
   2   0   1  284.17   18.44
   2   0   1  298.84   17.98
   2   0   1  280.83   18.20
  -3   0  -1   25.83    2.18
  -3   0  -1   26.27    1.70
  -3   0  -1   25.14    1.63
  -3   0  -1   24.21    2.21
  -3   0  -1   25.72    1.84
  -3   0  -1   26.79    1.73
  -3   0  -1   26.68    1.83
   3   0   1   18.67    1.51
   3   0   1   18.65    1.91
   3   0   1   19.47    2.05
   3   0   1   18.78    2.04
   3   0   1   18.46    1.81
  -4   0  -1   70.00    4.61
  -4   0  -1   75.14    5.35
  -4   0  -1   70.43    5.27
  -4   0  -1   71.26    4.56
  -4   0  -1   72.30    4.85
  -4   0  -1   71.75    4.80
   4   0   1   67.36    5.32
   4   0   1   65.64    4.93
   4   0   1   68.68    4.48
   4   0   1   67.06    5.01
  -5   0  -1    3.35    0.93
  -5   0  -1    4.80    0.74
  -5   0  -1    4.06    0.94
  -5   0  -1    3.60    1.25
  -5   0  -1    4.16    1.32
   5   0   1    1.86    1.06
   5   0   1    1.78    0.89
   5   0   1    1.84    0.75
  -6   0  -1   17.29    1.94
  -6   0  -1   16.43    2.14
  -6   0  -1   18.97    2.55
   6   0   1   19.12    2.31
   6   0   1   18.18    1.93
   6   0   1   16.78    2.18
  -7   0  -1    2.47    1.24
  -7   0  -1    3.71    1.18
   7   0   1    6.53    1.70
   7   0   1    6.10    1.74
  -8   0  -1    4.19    1.76
  -8   0  -1    4.12    1.49
   8   0   1    2.73    1.65
   8  -1  -1    7.79    2.25
   8  -1  -1    9.37    2.15
  -8   1   1   10.01    2.06
   7  -1  -1   16.67    2.53
   7  -1  -1   16.19    2.55
  -7   1   1   18.63    2.17
  -7   1   1   17.73    2.36
   6  -1  -1   37.70    3.59
   6  -1  -1   37.20    3.55
   6  -1  -1   39.56    3.25
  -6   1   1   43.91    4.08
  -6   1   1   44.07    3.32
  -6   1   1   42.68    3.46
   5  -1  -1   23.31    2.35
   5  -1  -1   27.71    2.74
   5  -1  -1   24.10    2.40
   5  -1  -1   27.05    1.97
   5  -1  -1   26.73    2.11
  -5   1   1   19.37    2.06
  -5   1   1   22.37    2.17
  -5   1   1   19.48    2.52
  -5   1   1   20.43    2.68
  -5   1   1   21.48    1.73
   4  -1  -1   14.19    1.73
   4  -1  -1   15.46    1.56
   4  -1  -1   17.15    1.50
   4  -1  -1   15.04    1.88
   4  -1  -1   16.95    1.76
  -4   1   1   17.07    1.57
  -4   1   1   18.82    1.18
  -4   1   1   15.92    1.62
  -4   1   1   17.23    2.00
  -4   1   1   18.22    1.35
  -4   1   1   19.86    2.30
  -3   1   1    7.59    0.77
  -3   1   1    8.68    0.63
  -3   1   1    8.69    0.65
  -3   1   1    7.78    1.18
  -3   1   1    7.97    1.28
  -3   1   1    7.61    0.89
  -3   1   1    7.07    0.96
   2  -1  -1  186.13   10.16
   2  -1  -1  175.84   10.24
   2  -1  -1  175.29   10.16
   2  -1  -1  177.93   10.45
   2  -1  -1  179.74    9.93
  -2   1   1  142.46   10.05
  -2   1   1  140.85   10.10
  -2   1   1  141.65   10.43
  -2   1   1  140.95   10.34
  -2   1   1  143.03   10.13
   1  -1  -1  438.45   27.62
   1  -1  -1  447.65   27.65
   1  -1  -1  434.66   28.23
   1  -1  -1  438.39   27.87
   1  -1  -1  425.47   27.97
   1  -1  -1  447.13   27.65
   1  -1  -1  447.98   27.91
  -1   1   1  484.78   28.34
   0  -1  -1  468.66   28.21
   0  -1  -1  457.93   28.09
   0  -1  -1  460.69   28.01
   0  -1  -1  448.38   28.21
   0  -1  -1  460.14   27.97
   0  -1  -1  463.71   28.12
   0   1   1  408.89   27.75
   0   1   1  462.60   27.96
   0   1   1  427.63   28.17
   0   1   1  434.12   27.87
  -1  -1  -1  327.34   18.59
  -1  -1  -1  321.96   18.57
  -1  -1  -1  316.69   18.57
  -1  -1  -1  328.49   19.10
  -1  -1  -1  324.11   18.57
   1   1   1  258.36   18.63
   1   1   1  268.46   18.60
   1   1   1  267.21   18.54
   1   1   1  279.88   18.55
  -2  -1  -1  152.44   11.04
  -2  -1  -1  158.34   10.86
  -2  -1  -1  160.37   10.82
  -2  -1  -1  156.27   10.83
  -2  -1  -1  152.03   10.83
   2   1   1  192.87   10.79
   2   1   1  188.70   10.93
   2   1   1  187.29   11.13
   2   1   1  193.15   11.04
   2   1   1  182.83   11.13
  -3  -1  -1   78.17    4.73
  -3  -1  -1   77.66    4.65
  -3  -1  -1   73.99    4.75
  -3  -1  -1   79.48    4.69
  -3  -1  -1   79.90    5.13
  -3  -1  -1   79.71    5.18
   3   1   1   66.92    4.50
   3   1   1   61.36    4.76
   3   1   1   64.75    4.52
   3   1   1   64.35    4.88
   3   1   1   60.86    5.00
   3   1   1   64.39    5.02
  -4  -1  -1   21.72    2.20
  -4  -1  -1   25.48    2.61
  -4  -1  -1   25.32    2.67
  -4  -1  -1   25.54    2.19
  -4  -1  -1   24.36    2.05
  -4  -1  -1   25.89    2.10
   4   1   1   30.05    2.42
   4   1   1   30.60    1.97
   4   1   1   30.72    2.55
   4   1   1   34.04    2.80
   4   1   1   33.04    1.92
   4   1   1   32.21    2.88
  -5  -1  -1   40.82    3.88
  -5  -1  -1   40.19    3.78
  -5  -1  -1   38.43    3.22
  -5  -1  -1   38.55    3.02
  -5  -1  -1   37.81    3.07
  -5  -1  -1   38.38    3.29
   5   1   1   48.57    2.90
   5   1   1   44.65    3.51
   5   1   1   45.10    3.15
   5   1   1   47.27    4.01
   5   1   1   46.71    3.94
   5   1   1   48.73    3.65
  -6  -1  -1   17.81    1.96
  -6  -1  -1   20.34    1.94
   6   1   1   12.55    2.18
   6   1   1   11.48    1.53
   6   1   1   12.94    2.16
   6   1   1   14.94    2.12
  -7  -1  -1   21.65    2.53
  -7  -1  -1   23.70    2.47
   7   1   1   21.99    2.89
  -8  -1  -1   11.97    2.24
   8   1   1   16.53    2.84
   8  -2  -1   11.15    2.45
   8  -2  -1    9.47    2.17
  -8   2   1   10.51    2.11
  -8   2   1   10.41    1.85
   7  -2  -1    6.35    1.91
   7  -2  -1    9.26    1.99
  -7   2   1    7.27    1.57
  -7   2   1    5.69    1.49
   6  -2  -1   46.99    3.99
   6  -2  -1   47.69    3.89
   6  -2  -1   47.92    3.70
  -6   2   1   42.33    3.61
  -6   2   1   41.21    3.68
   5  -2  -1   28.99    3.19
   5  -2  -1   31.22    2.95
   5  -2  -1   28.78    2.67
   5  -2  -1   31.16    2.86
  -5   2   1   34.45    3.50
  -5   2   1   34.60    2.75
  -5   2   1   36.77    2.49
  -5   2   1   35.22    2.82
  -5   2   1   32.36    3.36
   4  -2  -1   27.17    2.55
   4  -2  -1   28.84    2.70
   4  -2  -1   32.81    2.52
   4  -2  -1   30.08    2.59
   4  -2  -1   31.66    3.10
  -4   2   1   36.55    2.66
  -4   2   1   36.61    2.68
  -4   2   1   36.92    3.22
  -4   2   1   35.66    2.22
  -4   2   1   34.92    2.42
  -4   2   1   35.62    3.23
   3  -2  -1   84.09    5.17
   3  -2  -1   81.90    5.58
   3  -2  -1   78.91    5.22
   3  -2  -1   81.05    5.06
  -3   2   1   71.75    4.83
  -3   2   1   71.20    5.09
  -3   2   1   72.90    4.98
  -3   2   1   72.97    5.51
  -3   2   1   71.74    5.55
  -3   2   1   74.18    5.10
   2  -2  -1  106.83    7.88
   2  -2  -1  108.48    7.54
   2  -2  -1  104.56    7.57
   2  -2  -1  107.87    7.62
   2  -2  -1  102.78    7.59
  -2   2   1  139.20    7.63
  -2   2   1  136.35    7.98
  -2   2   1  138.82    7.57
   1  -2  -1  109.97    6.64
   1  -2  -1  107.66    6.65
   1  -2  -1  110.09    6.66
   1  -2  -1  109.19    6.89
  -1   2   1   96.49    6.61
  -1   2   1   96.42    6.57
  -1   2   1   96.49    6.85
   0  -2  -1  299.33   18.05
   0  -2  -1  310.24   18.16
   0  -2  -1  282.04   18.15
   0  -2  -1  303.28   18.10
   0  -2  -1  298.89   18.16
   0   2   1  275.83   18.16
   0   2   1  287.08   18.18
   0   2   1  286.60   18.07
   0   2   1  280.10   18.15
   0   2   1  292.63   18.09
   0   2   1  290.54   18.10
  -1  -2  -1  213.71   13.91
  -1  -2  -1  216.86   13.69
  -1  -2  -1  210.44   13.74
  -1  -2  -1  215.50   13.77
  -1  -2  -1  206.72   13.75
   1   2   1  234.24   13.80
   1   2   1  235.33   13.80
   1   2   1  224.31   13.91
   1   2   1  221.67   13.78
  -2  -2  -1  258.24   15.24
  -2  -2  -1  262.28   15.57
  -2  -2  -1  258.65   15.26
  -2  -2  -1  255.99   15.28
  -2  -2  -1  251.44   15.27
   2   2   1  224.88   15.49
   2   2   1  220.35   15.21
   2   2   1  226.91   15.47
   2   2   1  232.01   15.38
  -3  -2  -1   51.76    3.88
  -3  -2  -1   51.36    3.86
  -3  -2  -1   53.39    4.27
  -3  -2  -1   49.96    3.82
  -3  -2  -1   50.70    3.91
   3   2   1   61.16    4.12
   3   2   1   63.74    4.28
   3   2   1   64.53    4.37
   3   2   1   64.53    3.85
   3   2   1   65.33    4.20
  -4  -2  -1  101.83    7.08
  -4  -2  -1  100.84    7.19
  -4  -2  -1  109.75    7.07
  -4  -2  -1  116.17    7.80
  -4  -2  -1  107.23    7.12
   4   2   1  112.79    7.63
   4   2   1  106.07    7.44
   4   2   1  111.70    6.95
   4   2   1  111.45    7.49
   4   2   1  107.58    6.95
   4   2   1  109.61    7.72
  -5  -2  -1   61.26    4.68
  -5  -2  -1   64.51    5.41
  -5  -2  -1   59.49    4.77
  -5  -2  -1   61.89    4.54
  -5  -2  -1   60.55    4.60
   5   2   1   71.44    5.54
   5   2   1   70.54    4.37
   5   2   1   71.38    4.43
   5   2   1   75.60    5.39
   5   2   1   73.11    5.20
  -6  -2  -1   23.77    2.12
  -6  -2  -1   22.24    2.21
  -6  -2  -1   24.15    2.43
   6   2   1   29.15    2.91
   6   2   1   26.41    2.91
  -7  -2  -1    5.73    1.28
  -7  -2  -1    4.67    1.39
   7   2   1    3.81    1.63
  -8  -2  -1    5.52    1.65
   8   2   1    3.52    1.96
   8  -3  -1   11.05    2.52
  -8   3   1   11.51    2.07
  -8   3   1   11.18    2.30
   7  -3  -1    8.08    1.79
   7  -3  -1    5.78    1.86
   7  -3  -1    6.51    1.60
  -7   3   1    4.90    1.52
  -7   3   1    3.26    1.41
   6  -3  -1   17.77    2.54
   6  -3  -1   18.62    2.15
   6  -3  -1   18.80    2.27
  -6   3   1   15.86    2.14
  -6   3   1   14.90    2.18
   5  -3  -1   15.80    2.12
   5  -3  -1   16.16    2.40
   5  -3  -1   17.07    1.94
   5  -3  -1   16.30    1.89
  -5   3   1   15.77    1.83
  -5   3   1   18.30    2.44
  -5   3   1   19.52    1.68
  -5   3   1   18.45    1.92
   4  -3  -1   72.07    5.25
   4  -3  -1   69.56    4.55
   4  -3  -1   66.04    4.62
  -4   3   1   59.94    3.97
  -4   3   1   58.24    4.25
  -4   3   1   59.38    5.01
  -4   3   1   61.52    5.07
  -4   3   1   57.57    4.41
  -4   3   1   58.50    4.41
   3  -3  -1  160.73   11.17
   3  -3  -1  149.73   10.62
   3  -3  -1  152.82   10.69
  -3   3   1  171.87   11.18
  -3   3   1  172.47   10.64
  -3   3   1  169.61   11.13
  -3   3   1  165.54   10.62
  -3   3   1  171.68   10.56
  -3   3   1  167.90   10.38
   2  -3  -1  178.73   10.71
   2  -3  -1  181.68   11.11
   2  -3  -1  175.65   10.69
   2  -3  -1  179.61   10.71
  -2   3   1  155.44   11.00
  -2   3   1  153.04   10.62
  -2   3   1  152.19   10.58
  -2   3   1  157.98   10.52
   1  -3  -1  170.48   10.45
   1  -3  -1  163.86   10.41
   1  -3  -1  161.29   10.73
   1  -3  -1  159.14   10.43
  -1   3   1  159.80   10.40
  -1   3   1  169.85   10.76
   0   3   1   65.03    4.23
   0   3   1   62.91    4.06
   0   3   1   63.72    3.98
   0   3   1   64.74    4.01
   0   3   1   60.24    4.17
   0   3   1   63.00    4.41
  -1  -3  -1  152.11    9.05
  -1  -3  -1  143.10    9.27
  -1  -3  -1  153.94    9.02
  -1  -3  -1  146.47    8.98
  -1  -3  -1  153.05    9.09
   1   3   1  135.32    9.07
   1   3   1  134.33    9.01
   1   3   1  127.78    9.21
   1   3   1  134.99    9.05
  -2  -3  -1  120.62    8.06
  -2  -3  -1  120.38    8.03
  -2  -3  -1  118.74    8.35
  -2  -3  -1  123.87    8.10
  -2  -3  -1  126.28    7.80
   2   3   1  131.09    8.42
   2   3   1  129.04    8.10
   2   3   1  130.30    8.20
   2   3   1  131.02    8.22
  -3  -3  -1  132.57    8.44
  -3  -3  -1  136.77    8.42
  -3  -3  -1  137.67    8.36
  -3  -3  -1  133.79    8.43
  -3  -3  -1  139.40    8.92
   3   3   1  121.67    8.34
   3   3   1  120.27    8.64
   3   3   1  125.63    8.59
   3   3   1  126.18    8.82
   3   3   1  124.79    8.62
  -4  -3  -1   55.79    3.34
   4   3   1   40.23    3.46
   4   3   1   40.94    3.68
   4   3   1   41.01    3.53
   4   3   1   43.94    3.52
   4   3   1   41.23    3.08
  -5  -3  -1  154.97    9.95
  -5  -3  -1  151.16    9.85
  -5  -3  -1  154.17    9.72
  -5  -3  -1  153.38    9.73
  -5  -3  -1  160.48   10.66
   5   3   1  147.55    9.55
   5   3   1  135.85   10.13
   5   3   1  141.49   10.24
   5   3   1  142.24   10.51
   5   3   1  147.43    9.52
  -6  -3  -1    8.76    1.60
  -6  -3  -1    9.33    1.40
  -6  -3  -1   11.82    1.54
  -6  -3  -1   10.69    1.78
   6   3   1   14.73    2.16
   6   3   1   12.89    2.16
  -7  -3  -1   24.67    2.70
  -7  -3  -1   27.97    2.58
  -7  -3  -1   33.04    3.16
   7   3   1   21.65    3.06
  -8  -3  -1   11.54    2.18
  -8  -3  -1   10.69    2.08
   8   3   1   11.10    2.57
   8  -4  -1   10.33    2.46
  -8   4   1    7.55    1.92
  -8   4   1    6.48    2.04
   7  -4  -1    6.01    1.66
   7  -4  -1    6.65    2.00
  -7   4   1    8.54    1.79
  -7   4   1   10.84    1.96
   6  -4  -1    6.28    1.66
   6  -4  -1    7.74    1.67
   6  -4  -1    7.56    1.61
  -6   4   1   12.37    1.85
  -6   4   1    9.45    1.66
   5  -4  -1   69.56    5.00
   5  -4  -1   65.35    5.12
  -5   4   1   66.41    4.72
  -5   4   1   63.66    4.92
  -5   4   1   66.27    4.95
   4  -4  -1   39.54    4.04
   4  -4  -1   40.51    3.63
   4  -4  -1   37.87    3.53
  -4   4   1   48.87    3.14
  -4   4   1   47.11    3.54
  -4   4   1   47.79    4.20
  -4   4   1   55.08    4.47
  -4   4   1   49.07    3.43
  -4   4   1   51.40    3.64
  -3   4   1   23.22    1.86
  -3   4   1   23.26    2.07
  -3   4   1   25.44    2.59
  -3   4   1   25.24    2.05
   2  -4  -1  224.73   14.66
   2  -4  -1  218.32   15.10
   2  -4  -1  213.67   14.66
   2  -4  -1  228.18   14.68
  -2   4   1  239.09   14.66
  -2   4   1  243.34   14.65
  -2   4   1  236.70   14.54
  -2   4   1  237.61   15.16
   1  -4  -1  104.10    6.56
   1  -4  -1  105.94    6.54
   1  -4  -1  101.65    6.87
   1  -4  -1  104.78    6.50
  -1   4   1   80.12    6.77
   0  -4  -1  203.74   13.53
   0  -4  -1  216.42   13.35
   0  -4  -1  210.74   13.60
   0  -4  -1  208.69   13.58
   0  -4  -1  221.32   13.35
   0   4   1  212.17   13.59
   0   4   1  219.12   13.35
   0   4   1  214.79   13.46
   0   4   1  222.53   13.36
   0   4   1  219.01   13.92
   0   4   1  214.06   13.64
  -1  -4  -1  146.47    8.85
  -1  -4  -1  146.36    9.02
  -1  -4  -1  151.76    9.05
  -1  -4  -1  148.77    9.12
   1   4   1  133.80    9.12
   1   4   1  135.39    9.00
   1   4   1  133.82    9.03
   1   4   1  137.31    9.39
   1   4   1  140.60    9.09
   1   4   1  141.92    8.82
  -2  -4  -1  155.76    9.33
  -2  -4  -1  153.41    9.24
  -2  -4  -1  150.35    9.26
  -2  -4  -1  156.18    9.70
   2   4   1  136.48    9.35
   2   4   1  134.55    9.60
   2   4   1  144.53    9.33
   2   4   1  132.75    9.29
   2   4   1  132.63    9.12
  -3  -4  -1  128.60    7.67
  -3  -4  -1  109.97    7.94
  -3  -4  -1  109.68    7.96
  -3  -4  -1  119.20    8.46
  -3  -4  -1  110.97    7.98
   3   4   1  129.30    8.31
   3   4   1  121.18    8.00
   3   4   1  130.26    7.79
   3   4   1  125.96    8.23
   3   4   1  128.55    8.52
   3   4   1  128.37    8.21
  -4  -4  -1  174.95   10.95
  -4  -4  -1  180.13   10.97
  -4  -4  -1  172.94   11.54
  -4  -4  -1  166.36   10.87
   4   4   1  167.00   10.50
   4   4   1  161.96   10.80
   4   4   1  161.64   11.18
   4   4   1  160.56   11.45
   4   4   1  162.95   11.18
  -5  -4  -1   10.87    1.44
  -5  -4  -1    8.70    1.83
  -5  -4  -1    7.96    1.20
  -5  -4  -1    9.73    1.49
  -5  -4  -1    7.43    1.36
  -6  -4  -1   40.88    3.48
  -6  -4  -1   39.59    3.22
  -6  -4  -1   39.24    3.40
  -6  -4  -1   42.23    3.20
   6   4   1   35.15    3.70
  -7  -4  -1    4.13    1.57
  -7  -4  -1    4.77    1.48
   7   4   1    6.60    1.86
  -8  -4  -1    3.11    1.55
  -8  -4  -1    1.27    1.40
   8   4   1    0.67    1.63
   7  -5  -1   12.04    2.22
   7  -5  -1    8.85    2.29
  -7   5   1   10.37    2.01
  -7   5   1   11.35    2.08
   6  -5  -1    3.74    1.48
   6  -5  -1    5.01    1.43
  -6   5   1    4.52    1.41
  -6   5   1    2.95    1.24
  -6   5   1    4.32    1.24
   5  -5  -1   52.65    4.57
   5  -5  -1   55.57    4.69
  -5   5   1   60.45    4.37
  -5   5   1   62.26    4.51
  -5   5   1   58.48    4.50
   4  -5  -1   43.69    3.48
   4  -5  -1   44.50    3.45
  -4   5   1   37.77    3.15
  -4   5   1   38.70    3.87
  -4   5   1   39.57    2.86
  -4   5   1   36.83    3.18
  -4   5   1   43.22    4.04
  -4   5   1   38.45    3.27
   3  -5  -1  149.12    9.83
   3  -5  -1  151.73   10.49
   3  -5  -1  145.25    9.78
   3  -5  -1  146.70    9.84
  -3   5   1  142.34    9.69
  -3   5   1  149.20    9.77
  -3   5   1  150.31   10.43
  -3   5   1  149.21    9.54
   2  -5  -1   73.09    5.31
   2  -5  -1   78.54    5.36
   2  -5  -1   76.17    5.38
   2  -5  -1   78.37    5.87
  -2   5   1   78.06    5.31
  -2   5   1   77.09    5.25
  -2   5   1   78.87    5.88
  -2   5   1   80.34    5.34
   1  -5  -1  193.13   13.18
   1  -5  -1  188.60   13.59
   1  -5  -1  189.98   13.18
   1  -5  -1  195.63   13.23
  -1   5   1  225.99   13.26
  -1   5   1  225.79   13.75
  -1   5   1  230.68   13.29
   0  -5  -1  240.27   15.64
   0  -5  -1  243.53   15.70
   0  -5  -1  250.28   15.41
   0  -5  -1  256.08   15.37
   0  -5  -1  243.47   15.69
   0   5   1  249.08   15.70
   0   5   1  246.03   15.54
   0   5   1  256.51   16.10
   0   5   1  242.69   15.74
  -1  -5  -1   19.64    1.72
  -1  -5  -1   17.29    1.73
  -1  -5  -1   19.30    1.51
   1   5   1   24.88    1.82
   1   5   1   23.80    1.97
   1   5   1   27.57    1.88
   1   5   1   25.96    2.26
  -2  -5  -1   18.62    1.67
  -2  -5  -1   18.55    2.07
  -2  -5  -1   18.72    1.58
  -2  -5  -1   17.60    1.63
  -2  -5  -1   19.83    1.77
   2   5   1   20.79    2.15
   2   5   1   19.47    1.77
   2   5   1   22.08    1.86
   2   5   1   20.47    1.62
  -3  -5  -1   67.88    4.49
  -3  -5  -1   67.92    4.47
  -3  -5  -1   70.22    4.56
  -3  -5  -1   77.56    5.23
   3   5   1   58.54    4.23
   3   5   1   53.29    4.45
   3   5   1   60.20    4.96
   3   5   1   58.45    4.62
   4   5   1   49.11    3.21
   4   5   1   46.16    3.85
   4   5   1   46.48    3.56
   4   5   1   47.59    4.18
   4   5   1   45.97    3.81
  -5  -5  -1   61.52    4.49
  -5  -5  -1   62.29    4.48
  -5  -5  -1   59.39    4.53
  -5  -5  -1   62.92    5.77
   5   5   1   60.16    4.76
   5   5   1   57.82    4.32
   5   5   1   54.48    4.77
  -6  -5  -1   16.11    2.19
  -6  -5  -1   16.45    2.02
  -6  -5  -1   20.33    2.36
   6   5   1   19.54    2.56
  -7  -5  -1    1.93    1.27
  -7  -5  -1    2.00    1.41
   7   5   1    5.34    1.86
  -8  -5  -1   10.65    2.14
  -8  -5  -1   13.50    2.36
   8   5   1   10.09    2.53
   7  -6  -1   14.11    2.73
   7  -6  -1   11.75    2.40
  -7   6   1   15.03    2.42
  -7   6   1   13.31    2.39
   6  -6  -1   15.37    2.46
   6  -6  -1   19.31    2.83
  -6   6   1   17.90    2.08
  -6   6   1   17.74    2.42
  -6   6   1   13.46    2.17
   5  -6  -1   11.39    2.05
   5  -6  -1   10.22    1.76
  -5   6   1    5.31    1.41
  -5   6   1    6.45    1.48
  -5   6   1    6.45    1.35
   4  -6  -1   63.30    5.37
   4  -6  -1   63.63    5.37
  -4   6   1   76.32    5.36
  -4   6   1   76.49    5.31
  -4   6   1   75.37    5.29
  -4   6   1   77.15    4.97
   3  -6  -1    9.28    1.45
   3  -6  -1    9.38    1.51
   3  -6  -1    9.94    1.52
   3  -6  -1    8.41    1.80
  -3   6   1    7.81    1.14
  -3   6   1    6.62    1.65
  -3   6   1    6.93    1.27
  -3   6   1    9.34    1.39
   2  -6  -1   66.06    4.85
   2  -6  -1   65.04    5.37
   2  -6  -1   66.13    4.80
   2  -6  -1   67.26    4.89
  -2   6   1   68.70    4.75
  -2   6   1   74.00    5.53
  -2   6   1   69.96    4.83
  -2   6   1   64.12    4.79
   1  -6  -1  149.33    9.98
   1  -6  -1  152.01   10.03
   1  -6  -1  150.80    9.98
  -1   6   1  148.25   10.00
  -1   6   1  155.48   10.52
  -1   6   1  161.77   10.07
   0  -6  -1   34.98    2.17
   0  -6  -1   34.53    2.05
   0  -6  -1   32.03    2.52
   0  -6  -1   33.81    2.52
   0  -6  -1   32.36    2.55
   0   6   1   26.79    2.79
   0   6   1   28.85    2.50
   0   6   1   29.40    2.58
   0   6   1   28.40    2.32
  -1  -6  -1  100.15    7.08
  -1  -6  -1   95.86    6.78
  -1  -6  -1   93.28    7.04
   1   6   1  114.87    7.70
   1   6   1  114.79    7.54
   1   6   1  115.00    7.15
   1   6   1  118.15    7.18
   1   6   1  113.99    7.31
  -2  -6  -1   65.63    4.64
  -2  -6  -1   72.53    5.33
  -2  -6  -1   71.88    4.69
  -2  -6  -1   69.45    4.78
  -2  -6  -1   66.43    4.55
  -2  -6  -1   71.57    4.45
   2   6   1   63.94    4.58
   2   6   1   65.39    5.18
   2   6   1   62.62    4.77
   2   6   1   61.81    4.74
  -3  -6  -1   20.18    2.04
  -3  -6  -1   18.65    1.97
  -3  -6  -1   20.51    2.51
  -3  -6  -1   17.85    2.02
   3   6   1   28.10    2.36
   3   6   1   28.51    1.98
   3   6   1   25.86    2.71
   3   6   1   27.77    2.27
  -4  -6  -1   15.92    1.66
  -4  -6  -1   15.59    1.74
  -4  -6  -1   14.80    1.58
   4   6   1   10.71    1.79
   4   6   1   12.26    1.66
   4   6   1   12.09    1.21
   4   6   1   11.93    1.79
   4   6   1   11.19    2.17
  -5  -6  -1   15.62    2.04
  -5  -6  -1   17.61    2.02
  -5  -6  -1   18.33    2.12
   5   6   1   20.87    2.46
   5   6   1   20.03    2.06
  -6  -6  -1   18.34    2.30
  -6  -6  -1   18.51    2.24
  -6  -6  -1   17.86    2.15
   6   6   1   17.60    2.74
  -7  -6  -1   21.98    2.91
  -7  -6  -1   26.72    2.99
   7   6   1   24.43    3.24
  -8  -6  -1    6.18    1.92
  -8  -6  -1    4.31    1.86
   8   6   1    4.50    2.20
   7  -7  -1    5.92    1.97
   7  -7  -1    4.78    1.92
  -7   7   1    5.35    1.93
  -7   7   1    4.86    1.73
   6  -7  -1    0.03    1.22
   6  -7  -1    1.27    1.58
  -6   7   1    2.74    1.19
  -6   7   1    1.15    1.31
  -6   7   1    2.66    1.41
   5  -7  -1   13.04    2.14
   5  -7  -1   11.50    2.01
  -5   7   1    7.83    1.58
  -5   7   1    7.17    1.60
  -5   7   1   10.25    1.81
   4  -7  -1   45.67    3.73
   4  -7  -1   46.45    3.74
  -4   7   1   39.21    3.43
  -4   7   1   37.16    3.15
  -4   7   1   42.10    3.55
   3  -7  -1   15.35    2.08
   3  -7  -1   14.17    1.93
   3  -7  -1   11.70    1.96
  -3   7   1   19.66    2.01
  -3   7   1   19.47    1.89
  -3   7   1   20.63    2.05
  -3   7   1   19.87    2.68
   2  -7  -1   22.19    2.00
   2  -7  -1   19.08    2.01
   2  -7  -1   22.11    2.59
   2  -7  -1   22.20    2.04
  -2   7   1   15.01    2.32
  -2   7   1   17.12    1.90
  -2   7   1   15.39    1.86
  -2   7   1   15.83    1.84
   1  -7  -1   52.30    3.87
   1  -7  -1   54.01    3.93
   1  -7  -1   50.54    3.79
  -1   7   1   50.57    4.36
  -1   7   1   50.04    3.84
  -1   7   1   48.42    3.81
   0  -7  -1   34.16    2.65
   0  -7  -1   33.18    2.65
   0  -7  -1   36.12    2.65
   0  -7  -1   36.13    2.25
   0   7   1   28.78    2.62
   0   7   1   30.15    2.71
   0   7   1   29.43    3.14
   0   7   1   28.78    2.99
  -1  -7  -1   72.94    4.88
  -1  -7  -1   69.53    4.84
  -1  -7  -1   69.34    4.47
  -1  -7  -1   72.93    4.98
   1   7   1   67.09    4.84
   1   7   1   67.22    5.01
   1   7   1   67.58    4.88
   1   7   1   70.32    5.30
   1   7   1   69.68    5.47
  -2  -7  -1   43.53    3.17
  -2  -7  -1   38.07    3.51
  -2  -7  -1   43.86    3.47
  -2  -7  -1   43.29    3.37
   2   7   1   53.05    3.70
   2   7   1   54.38    4.27
   2   7   1   50.88    3.50
   2   7   1   53.15    3.77
  -3  -7  -1   77.56    5.05
  -3  -7  -1   75.99    5.78
  -3  -7  -1   73.30    5.00
  -3  -7  -1   75.16    5.12
   3   7   1   67.33    4.82
   3   7   1   65.36    5.16
   3   7   1   64.33    5.57
   3   7   1   63.32    5.14
  -4  -7  -1   61.80    4.88
  -4  -7  -1   67.41    4.95
  -4  -7  -1   60.44    4.93
  -4  -7  -1   67.05    6.35
   4   7   1   72.07    4.62
   4   7   1   70.84    5.30
   4   7   1   70.22    5.09
  -5  -7  -1   11.50    1.79
  -5  -7  -1   11.50    1.74
  -5  -7  -1   12.23    1.81
   5   7   1    9.69    1.93
   5   7   1    9.32    1.65
  -6  -7  -1   17.27    2.27
  -6  -7  -1   14.73    2.19
  -6  -7  -1   17.42    2.41
   6   7   1   12.68    2.44
  -7  -7  -1    8.35    1.91
  -7  -7  -1    8.47    1.92
   7   7   1   15.24    2.86
   6  -8  -1    9.42    2.27
   6  -8  -1   10.13    2.45
  -6   8   1   14.50    2.20
  -6   8   1   15.02    2.40
  -6   8   1   13.81    2.40
   5  -8  -1    1.91    1.38
   5  -8  -1    2.45    1.45
  -5   8   1    4.08    1.47
  -5   8   1    4.53    1.50
  -5   8   1    5.72    1.52
   4  -8  -1   13.35    2.00
   4  -8  -1   13.20    2.17
   4  -8  -1   11.28    2.03
  -4   8   1    9.20    1.78
  -4   8   1   10.82    1.88
   3  -8  -1   38.54    3.22
   3  -8  -1   42.23    3.53
   3  -8  -1   37.44    3.36
  -3   8   1   33.39    3.20
  -3   8   1   32.64    3.19
  -3   8   1   37.13    3.11
   2  -8  -1   28.22    2.57
   2  -8  -1   26.92    2.70
   2  -8  -1   26.80    2.67
  -2   8   1   27.46    2.61
  -2   8   1   30.32    3.33
  -2   8   1   29.01    2.69
  -2   8   1   33.11    2.70
   1  -8  -1   10.35    1.56
   1  -8  -1    9.41    1.58
   1  -8  -1    8.58    1.45
  -1   8   1   13.17    2.02
  -1   8   1   12.48    1.64
  -1   8   1   11.84    1.65
  -1   8   1   11.84    1.64
   0  -8  -1   72.35    5.54
   0  -8  -1   71.39    5.54
   0  -8  -1   72.52    5.53
   0  -8  -1   75.39    5.10
   0   8   1   86.88    5.77
   0   8   1   88.01    6.29
   0   8   1   83.76    5.64
   0   8   1   85.19    6.33
  -1  -8  -1   56.60    4.32
  -1  -8  -1   53.21    4.31
  -1  -8  -1   56.53    4.29
  -1  -8  -1   56.58    3.84
   1   8   1   61.40    4.33
   1   8   1   65.10    4.93
   1   8   1   64.28    5.10
   1   8   1   62.34    4.61
   1   8   1   59.53    4.36
  -2  -8  -1   16.81    1.90
  -2  -8  -1   18.49    1.47
  -2  -8  -1   18.30    1.79
  -2  -8  -1   19.58    2.05
   2   8   1   18.37    2.02
   2   8   1   19.52    2.17
   2   8   1   19.37    1.86
   2   8   1   19.53    2.30
   2   8   1   19.17    2.46
  -3  -8  -1   47.47    3.64
  -3  -8  -1   44.95    3.93
  -3  -8  -1   45.15    4.02
   3   8   1   59.82    3.91
   3   8   1   60.47    4.35
   3   8   1   60.31    4.28
  -4  -8  -1   24.31    2.35
  -4  -8  -1   24.81    2.26
  -4  -8  -1   23.87    2.25
   4   8   1   16.77    2.52
   4   8   1   16.13    2.31
   4   8   1   16.34    1.80
  -5  -8  -1    4.72    1.36
  -5  -8  -1    5.03    1.46
  -5  -8  -1    7.52    1.64
   5   8   1    7.94    1.83
   5   8   1    6.39    1.48
  -6  -8  -1   19.49    2.57
  -6  -8  -1   18.88    2.51
  -6  -8  -1   18.72    2.38
   6   8   1   14.66    2.68
   6   8   1   15.47    2.41
  -7  -8  -1    5.61    1.69
  -7  -8  -1    4.47    1.54
   7   8   1    2.02    1.72
   6  -9  -1    2.84    1.87
   6  -9  -1    2.93    1.90
  -6   9   1    4.66    1.82
  -6   9   1    2.58    1.39
  -6   9   1    3.13    1.70
   5  -9  -1   20.00    3.07
   5  -9  -1   23.45    3.33
  -5   9   1   26.34    3.06
  -5   9   1   27.65    3.07
  -5   9   1   27.66    2.93
   4  -9  -1    1.24    1.21
   4  -9  -1    1.07    1.40
   4  -9  -1    1.26    1.26
  -4   9   1    3.57    1.38
  -4   9   1    2.74    1.34
   3  -9  -1   29.70    3.24
   3  -9  -1   28.79    2.92
   3  -9  -1   25.34    3.06
  -3   9   1   39.43    3.27
  -3   9   1   32.74    3.07
  -3   9   1   35.73    3.01
   2  -9  -1   16.71    2.09
   2  -9  -1   17.33    2.01
   2  -9  -1   16.52    2.21
  -2   9   1   13.72    2.04
  -2   9   1   14.72    1.97
  -2   9   1   13.05    1.99
   1  -9  -1   31.71    2.83
   1  -9  -1   31.58    2.87
   1  -9  -1   34.07    2.84
  -1   9   1   27.62    2.67
  -1   9   1   28.21    2.78
  -1   9   1   30.13    2.88
  -1   9   1   28.49    3.39
   0  -9  -1   31.22    2.86
   0  -9  -1   30.03    2.82
   0  -9  -1   27.09    2.72
   0   9   1   33.07    3.01
   0   9   1   34.30    3.46
   0   9   1   34.27    2.88
  -1  -9  -1   38.39    3.09
  -1  -9  -1   37.89    3.04
  -1  -9  -1   41.14    3.05
  -1  -9  -1   37.61    3.04
   1   9   1   31.48    2.83
   1   9   1   30.83    3.39
   1   9   1   30.95    3.14
   1   9   1   29.04    2.94
  -2  -9  -1   58.66    4.89
  -2  -9  -1   60.98    4.77
  -2  -9  -1   61.99    4.69
   2   9   1   68.64    4.96
   2   9   1   68.38    5.14
   2   9   1   69.35    5.39
   2   9   1   69.30    4.83
  -3  -9  -1   32.83    2.91
  -3  -9  -1   33.21    3.11
   3   9   1   30.75    3.17
   3   9   1   31.66    3.05
   3   9   1   29.94    3.09
   3   9   1   33.32    2.77
  -4  -9  -1   25.18    2.80
  -4  -9  -1   24.94    2.71
   4   9   1   31.82    3.04
   4   9   1   32.04    3.19
  -5  -9  -1    7.84    1.63
  -5  -9  -1    8.74    1.81
  -5  -9  -1    8.38    1.78
   5   9   1   11.64    1.96
   5   9   1   12.59    2.29
  -6  -9  -1    0.25    1.25
  -6  -9  -1    0.56    1.20
   6   9   1    3.19    1.66
   6   9   1    1.47    1.25
  -7  -9  -1    3.91    1.78
  -7  -9  -1    6.02    1.80
   7   9   1    3.66    1.95
   5 -10  -1    7.91    2.15
   5 -10  -1    5.42    2.09
  -5  10   1    2.89    1.47
  -5  10   1    1.91    1.44
  -5  10   1    2.19    1.54
   4 -10  -1   27.69    3.19
   4 -10  -1   25.68    3.17
   4 -10  -1   26.57    3.00
  -4  10   1   24.95    3.02
  -4  10   1   24.94    3.02
   3 -10  -1    7.42    1.78
   3 -10  -1    4.14    1.35
   3 -10  -1    5.74    1.66
  -3  10   1    4.72    1.40
  -3  10   1    5.34    1.60
  -3  10   1    5.76    1.58
   2 -10  -1   23.84    2.72
   2 -10  -1   20.30    2.50
   2 -10  -1   23.46    2.67
  -2  10   1   27.64    2.89
  -2  10   1   23.48    2.55
  -2  10   1   26.43    2.77
   1 -10  -1   48.41    3.73
   1 -10  -1   44.06    3.76
   1 -10  -1   43.73    3.77
  -1  10   1   42.11    3.78
  -1  10   1   42.19    3.68
  -1  10   1   42.91    3.92
   0 -10  -1   66.28    4.86
   0 -10  -1   63.31    4.76
   0 -10  -1   66.84    4.82
   0  10   1   58.76    5.00
   0  10   1   53.51    4.77
  -1 -10  -1   25.03    2.57
  -1 -10  -1   22.66    2.60
  -1 -10  -1   21.15    2.40
  -1 -10  -1   22.22    2.47
   1  10   1   29.14    3.21
   1  10   1   25.18    2.43
   1  10   1   24.02    2.71
   1  10   1   24.35    2.47
  -2 -10  -1   21.66    2.29
  -2 -10  -1   21.08    2.24
   2  10   1   11.33    1.78
   2  10   1   13.12    1.98
   2  10   1   12.85    2.22
   2  10   1   14.65    2.29
  -3 -10  -1   17.93    2.21
  -3 -10  -1   15.51    2.27
   3  10   1   18.89    2.44
   3  10   1   17.16    2.05
   3  10   1   16.93    2.30
  -4 -10  -1   30.30    3.01
  -4 -10  -1   25.44    2.77
   4  10   1   24.58    3.10
   4  10   1   25.92    3.09
  -5 -10  -1   15.36    2.27
  -5 -10  -1   13.11    2.26
   5  10   1   12.49    2.49
   5  10   1   12.40    2.31
  -6 -10  -1    7.19    1.92
  -6 -10  -1    7.52    1.92
   6  10   1    8.34    2.26
   6  10   1    9.83    2.07
   5 -11  -1   14.66    2.90
   5 -11  -1   11.29    2.68
  -5  11   1   18.04    2.86
  -5  11   1   17.33    2.68
  -5  11   1   18.03    2.84
   4 -11  -1   11.29    2.19
   4 -11  -1   12.39    2.48
   4 -11  -1   13.79    2.72
  -4  11   1    6.21    2.06
  -4  11   1    5.77    1.90
   3 -11  -1    6.14    1.56
   3 -11  -1    6.95    1.91
   3 -11  -1    5.82    1.91
  -3  11   1    3.78    1.53
  -3  11   1    5.17    1.51
  -3  11   1    5.24    1.65
   2 -11  -1   15.13    2.20
   2 -11  -1   14.80    2.36
   2 -11  -1   17.87    2.53
  -2  11   1   14.10    2.34
  -2  11   1   13.56    2.23
  -2  11   1   12.97    2.16
   1 -11  -1    2.53    1.24
   1 -11  -1    2.81    1.27
   1 -11  -1    3.76    1.50
  -1  11   1    6.69    1.60
  -1  11   1    6.50    1.65
  -1  11   1    7.04    1.69
   0 -11  -1   21.78    2.42
   0 -11  -1   22.25    2.56
   0 -11  -1   21.39    2.37
   0  11   1   17.79    2.55
   0  11   1   18.63    2.75
   0  11   1   14.91    2.23
  -1 -11  -1   54.93    4.41
  -1 -11  -1   53.79    4.35
  -1 -11  -1   58.83    4.40
  -1 -11  -1   54.22    4.54
   1  11   1   51.33    4.48
   1  11   1   51.55    4.66
  -2 -11  -1   23.43    2.44
  -2 -11  -1   24.67    2.55
  -2 -11  -1   22.68    2.66
  -2 -11  -1   23.31    2.77
   2  11   1   22.72    2.84
   2  11   1   22.63    2.55
   2  11   1   26.58    2.72
  -3 -11  -1    6.68    1.56
  -3 -11  -1    6.37    1.70
   3  11   1    5.69    1.50
   3  11   1    4.64    1.36
   3  11   1    5.83    1.78
  -4 -11  -1   14.27    2.17
  -4 -11  -1   10.45    2.14
   4  11   1   12.14    2.27
   4  11   1   14.30    2.40
  -5 -11  -1   14.99    2.64
   5  11   1   16.80    2.78
   5  11   1   16.68    2.76
   4 -12  -1    6.01    2.06
   4 -12  -1    5.10    1.81
   4 -12  -1    6.62    2.16
  -4  12   1    8.95    2.20
  -4  12   1    9.57    2.31
   3 -12  -1   27.00    3.23
   3 -12  -1   22.29    2.88
   3 -12  -1   21.65    3.19
  -3  12   1   20.53    2.98
  -3  12   1   21.70    2.97
  -3  12   1   21.83    2.78
   2 -12  -1    6.20    1.84
   2 -12  -1    6.36    1.74
   2 -12  -1    6.63    1.90
  -2  12   1    9.48    1.91
  -2  12   1    8.27    1.98
  -2  12   1   12.21    2.09
   1 -12  -1   13.03    2.34
   1 -12  -1   14.53    2.36
   1 -12  -1   18.03    2.41
  -1  12   1   13.76    2.44
  -1  12   1   15.19    2.26
  -1  12   1   14.73    2.47
   0 -12  -1    6.33    1.70
   0 -12  -1    8.31    1.84
   0 -12  -1    8.01    1.84
   0 -12  -1    8.36    1.77
   0  12   1   15.74    2.11
   0  12   1   15.56    2.57
   0  12   1   17.40    2.53
  -1 -12  -1    7.65    1.88
  -1 -12  -1    7.85    1.76
  -1 -12  -1    8.85    1.80
  -1 -12  -1    9.78    1.88
   1  12   1    8.29    1.81
   1  12   1    7.56    1.62
   1  12   1    5.79    1.86
  -2 -12  -1   26.60    3.04
  -2 -12  -1   26.15    2.90
  -2 -12  -1   28.07    3.15
  -2 -12  -1   24.97    2.94
   2  12   1   26.12    2.85
   2  12   1   28.21    3.30
  -3 -12  -1   21.14    2.78
  -3 -12  -1   21.47    2.60
  -3 -12  -1   20.17    2.92
   3  12   1   21.46    2.76
   3  12   1   24.65    3.07
   3  12   1   24.02    2.66
  -4 -12  -1   10.39    2.23
   4  12   1    8.82    2.18
   4  12   1   10.01    2.33
  -5 -12  -1    4.56    1.88
   5  12   1    6.96    2.00
   5  12   1    6.91    2.02
   3 -13  -1    9.81    2.21
   3 -13  -1    7.11    2.33
   3 -13  -1   13.29    2.53
  -3  13   1   13.47    2.44
  -3  13   1   14.14    2.71
   2 -13  -1   15.37    2.51
   2 -13  -1   20.46    2.96
   2 -13  -1   17.07    2.57
   2 -13  -1   14.46    2.77
  -2  13   1   15.23    2.58
  -2  13   1   15.41    2.70
  -2  13   1   13.40    2.42
   1 -13  -1   11.48    2.43
   1 -13  -1   14.92    2.57
   1 -13  -1   14.12    2.45
   1 -13  -1   15.02    2.39
  -1  13   1   17.62    2.76
  -1  13   1   17.74    2.62
  -1  13   1   20.56    2.97
   0 -13  -1   24.20    2.94
   0 -13  -1   24.39    3.09
   0 -13  -1   20.57    3.02
   0  13   1   28.35    3.54
   0  13   1   30.55    3.55
   0  13   1   27.49    3.04
  -1 -13  -1    6.32    1.70
  -1 -13  -1    7.58    2.15
  -1 -13  -1    7.51    1.87
  -1 -13  -1    6.01    1.66
   1  13   1    1.69    1.43
   1  13   1    2.89    1.66
   1  13   1    3.70    1.41
  -2 -13  -1   14.61    2.42
  -2 -13  -1   16.15    2.57
  -2 -13  -1   14.14    2.59
   2  13   1   23.46    3.04
   2  13   1   22.50    2.76
  -3 -13  -1   10.24    2.43
  -3 -13  -1    9.05    2.12
   3  13   1    8.97    2.18
   3  13   1    9.59    2.24
  -4 -13  -1   20.22    2.93
  -4 -13  -1   18.53    2.97
   4  13   1   17.13    2.88
   4  13   1   19.28    3.24
   1 -14  -1    4.80    2.09
   1 -14  -1    6.16    1.81
   1 -14  -1    6.97    2.13
   1 -14  -1    8.65    2.25
  -1  14   1   10.24    2.22
  -1  14   1    7.93    2.00
  -1  14   1    7.89    2.13
   0 -14  -1   26.02    3.06
   0 -14  -1   23.56    3.28
   0 -14  -1   25.08    3.40
   0 -14  -1   27.42    3.26
   0  14   1   21.00    2.86
   0  14   1   19.89    3.18
   0  14   1   19.44    3.25
  -1 -14  -1   10.44    2.70
  -1 -14  -1   10.81    2.16
  -1 -14  -1   11.65    2.52
   1  14   1   17.24    2.98
   1  14   1   13.30    2.44
  -2 -14  -1   15.66    2.52
  -2 -14  -1   16.29    2.88
   2  14   1    7.21    1.96
   2  14   1    5.99    2.17
   1  14  -2    9.45    2.13
   1  14  -2    7.79    2.39
  -1 -14   2    8.27    2.34
   0  14  -2    8.32    2.22
   0  14  -2    6.93    1.95
   0 -14   2    7.62    1.98
   0 -14   2    6.88    2.28
   3  13  -2    2.33    1.87
  -3 -13   2    3.90    1.85
  -3 -13   2    4.09    1.89
   2  13  -2   26.61    3.03
   2  13  -2   30.05    3.62
  -2 -13   2   31.28    3.70
   1  13  -2    1.93    1.43
   1  13  -2    2.17    1.55
  -1 -13   2    4.50    1.92
   0  13  -2   14.42    2.51
   0  13  -2   12.40    2.44
   0 -13   2   11.09    2.48
   0 -13   2   13.82    2.29
  -1  13  -2    6.05    1.85
  -1  13  -2    7.94    1.71
  -1  13  -2    5.37    1.80
   1 -13   2    5.34    1.70
   1 -13   2    5.03    2.03
   1 -13   2    5.46    1.93
  -2  13  -2    5.99    1.80
  -2  13  -2    6.44    1.95
  -2  13  -2    6.94    2.00
   2 -13   2   12.49    2.53
   2 -13   2    8.51    2.14
   4  12  -2   14.26    2.61
   4  12  -2   12.03    2.61
  -4 -12   2    9.53    2.34
  -4 -12   2   13.08    2.54
   3  12  -2    7.55    2.11
   3  12  -2    7.34    2.04
  -3 -12   2    4.11    1.68
  -3 -12   2    5.11    1.85
   2  12  -2   19.21    2.90
   2  12  -2   18.31    2.43
  -2 -12   2   15.78    2.71
   1  12  -2   13.41    2.15
   1  12  -2   11.84    2.38
  -1 -12   2   15.07    2.51
  -1 -12   2   10.03    1.79
   0  12  -2   11.08    2.19
   0  12  -2   12.81    2.16
   0  12  -2   10.87    1.74
   0 -12   2    9.89    2.12
   0 -12   2    8.90    1.86
  -1  12  -2   33.64    3.27
  -1  12  -2   31.90    3.56
  -1  12  -2   31.48    3.42
   1 -12   2   35.63    3.70
   1 -12   2   32.65    3.35
   1 -12   2   31.79    3.55
  -2  12  -2   10.76    1.96
  -2  12  -2    8.39    2.02
  -2  12  -2    9.79    1.91
   2 -12   2    4.97    1.86
   2 -12   2    6.29    1.91
  -3  12  -2   13.67    2.60
  -3  12  -2   12.65    2.22
  -3  12  -2   14.46    2.37
   3 -12   2   14.93    2.81
   3 -12   2   13.74    2.62
  -4  12  -2    5.13    1.78
  -4  12  -2    1.38    1.57
   4 -12   2    5.19    2.20
   4 -12   2    5.53    2.12
   5  11  -2   17.38    2.81
   5  11  -2   17.84    3.02
  -5 -11   2   19.07    2.79
  -5 -11   2   15.93    2.69
   4  11  -2    1.40    1.48
   4  11  -2    1.39    1.34
  -4 -11   2    1.26    1.36
  -4 -11   2    1.31    1.50
   3  11  -2   37.87    3.30
   3  11  -2   36.94    3.78
   3  11  -2   37.89    3.78
  -3 -11   2   36.26    3.69
   2  11  -2   28.22    2.87
   2  11  -2   31.31    3.25
  -2 -11   2   27.98    2.72
  -2 -11   2   25.26    3.13
   1  11  -2    6.81    1.24
   1  11  -2    7.75    1.68
   1  11  -2    6.57    1.90
  -1 -11   2    3.66    1.19
  -1 -11   2    3.64    1.57
  -1 -11   2    5.08    1.22
   0  11  -2   28.80    3.23
   0  11  -2   24.33    2.51
   0  11  -2   28.48    2.94
   0 -11   2   30.42    2.63
   0 -11   2   29.74    3.12
   0 -11   2   28.41    2.79
  -1  11  -2   20.70    2.67
  -1  11  -2   19.98    2.51
  -1  11  -2   19.28    2.24
   1 -11   2   20.06    2.64
   1 -11   2   18.91    2.55
   1 -11   2   17.70    2.88
  -2  11  -2   11.98    2.10
  -2  11  -2   12.79    2.12
  -2  11  -2   11.81    2.05
   2 -11   2   14.08    2.36
   2 -11   2   12.66    2.19
  -3  11  -2    6.82    1.86
  -3  11  -2    6.05    1.71
  -3  11  -2    8.14    1.69
   3 -11   2    5.51    1.77
   3 -11   2    4.47    1.75
  -4  11  -2   14.64    2.58
  -4  11  -2   13.73    2.52
  -4  11  -2   15.22    2.24
   4 -11   2   10.31    2.43
   4 -11   2   13.35    2.65
  -5  11  -2    9.20    2.28
   5 -11   2   11.60    2.67
   6  10  -2   17.72    3.21
   6  10  -2   17.88    2.70
  -6 -10   2   15.70    2.34
  -6 -10   2   15.86    2.52
  -6 -10   2   14.44    2.63
   5  10  -2    4.07    1.80
   5  10  -2    5.63    1.77
  -5 -10   2    6.93    1.66
  -5 -10   2    6.17    1.90
   4  10  -2   16.34    2.77
   4  10  -2   16.19    2.50
  -4 -10   2   16.93    2.43
  -4 -10   2   19.92    2.73
   3  10  -2   20.90    2.58
   3  10  -2   20.51    2.17
   3  10  -2   22.72    2.78
  -3 -10   2   14.43    2.40
   2  10  -2   18.77    2.50
   2  10  -2   16.31    2.52
   2  10  -2   16.20    2.16
  -2 -10   2   23.07    2.11
  -2 -10   2   23.60    2.19
  -2 -10   2   22.62    2.67
   1  10  -2   99.32    6.98
   1  10  -2   98.82    7.23
   1  10  -2  102.32    6.69
   1  10  -2   98.90    7.43
  -1 -10   2   96.58    6.74
  -1 -10   2   94.25    6.72
  -1 -10   2   93.47    6.78
  -1 -10   2   98.48    7.16
   0  10  -2   16.87    2.04
   0  10  -2   16.38    2.31
   0  10  -2   15.37    1.72
   0  10  -2   15.41    2.20
   0 -10   2   10.70    1.53
   0 -10   2   11.78    1.85
   0 -10   2    9.89    1.56
   0 -10   2   11.28    1.96
  -1  10  -2   26.55    2.74
  -1  10  -2   26.55    2.47
  -1  10  -2   25.26    2.83
   1 -10   2   25.80    2.82
   1 -10   2   24.21    2.37
   1 -10   2   24.83    2.26
   1 -10   2   23.61    2.58
  -2  10  -2   17.08    2.23
  -2  10  -2   15.76    2.42
  -2  10  -2   17.97    2.37
   2 -10   2   22.68    2.73
   2 -10   2   20.38    2.19
   2 -10   2   19.95    2.57
   2 -10   2   21.18    2.12
  -3  10  -2    0.29    1.20
  -3  10  -2    2.45    1.40
  -3  10  -2    1.21    1.01
   3 -10   2    1.94    1.17
   3 -10   2    2.01    1.52
   3 -10   2    0.55    1.26
  -4  10  -2    9.32    2.02
  -4  10  -2    9.85    2.06
  -4  10  -2    9.31    1.78
   4 -10   2   14.06    2.54
   4 -10   2   11.28    2.23
  -5  10  -2    5.40    1.79
  -5  10  -2    3.73    1.64
  -5  10  -2    4.79    1.67
   5 -10   2    0.53    1.75
   5 -10   2    3.22    1.79
   6   9  -2    9.95    1.99
   6   9  -2    9.13    2.48
  -6  -9   2   10.54    2.08
  -6  -9   2    7.51    1.77
  -6  -9   2    9.84    2.17
  -6  -9   2    9.08    1.80
   5   9  -2   22.24    2.99
   5   9  -2   26.22    2.83
  -5  -9   2   20.17    2.80
  -5  -9   2   18.96    2.40
  -5  -9   2   18.58    2.55
  -5  -9   2   20.36    2.36
   4   9  -2   37.38    3.62
   4   9  -2   38.97    3.83
  -4  -9   2   43.02    3.73
  -4  -9   2   39.95    3.55
  -4  -9   2   39.63    3.48
   3   9  -2    0.98    1.05
   3   9  -2    1.27    1.12
   3   9  -2    0.87    0.75
  -3  -9   2    2.21    0.98
  -3  -9   2    2.19    1.28
   2   9  -2   39.33    3.23
   2   9  -2   40.55    3.62
   2   9  -2   41.05    2.96
   2   9  -2   41.10    2.91
   2   9  -2   42.61    3.57
  -2  -9   2   37.89    3.56
  -2  -9   2   35.66    2.97
  -2  -9   2   36.02    3.06
   1   9  -2    9.10    1.57
   1   9  -2   10.82    1.36
   1   9  -2   11.33    1.95
   1   9  -2   10.26    1.82
  -1  -9   2   15.56    1.63
  -1  -9   2   16.63    2.06
   0   9  -2   66.55    5.00
   0   9  -2   65.78    4.64
   0   9  -2   66.65    4.73
   0   9  -2   65.95    4.32
   0  -9   2   52.64    4.54
   0  -9   2   51.30    4.21
   0  -9   2   51.37    4.13
   0  -9   2   51.94    4.30
  -1   9  -2   27.17    3.01
  -1   9  -2   25.76    2.56
  -1   9  -2   29.09    2.39
  -1   9  -2   27.64    2.61
   1  -9   2   23.95    2.62
   1  -9   2   23.28    2.91
   1  -9   2   23.94    2.43
   1  -9   2   22.71    2.14
   1  -9   2   21.06    2.31
  -2   9  -2   43.62    3.64
  -2   9  -2   47.49    3.63
  -2   9  -2   49.07    3.85
   2  -9   2   41.37    3.66
   2  -9   2   37.77    3.64
   2  -9   2   39.60    3.45
   2  -9   2   41.81    3.32
  -3   9  -2   30.92    2.85
  -3   9  -2   28.94    2.89
  -3   9  -2   29.62    3.02
   3  -9   2   29.62    3.06
   3  -9   2   32.17    3.02
   3  -9   2   32.48    3.21
  -4   9  -2   11.69    1.85
  -4   9  -2    9.57    1.91
  -4   9  -2   12.09    2.06
   4  -9   2   11.10    2.12
   4  -9   2   11.60    2.23
  -5   9  -2   27.09    3.03
  -5   9  -2   25.78    3.11
  -5   9  -2   29.93    3.11
   5  -9   2   24.48    3.37
   5  -9   2   25.74    3.31
  -6   9  -2    5.37    1.67
  -6   9  -2    7.04    2.05
  -6   9  -2    6.27    1.85
   6  -9   2    5.80    2.10
   6  -9   2    5.36    2.14
   7   8  -2    4.20    2.26
  -7  -8   2    8.40    2.06
  -7  -8   2    5.87    1.59
   6   8  -2    9.35    2.33
   6   8  -2    8.55    1.73
  -6  -8   2    6.78    1.61
  -6  -8   2    9.12    1.71
  -6  -8   2    7.47    1.87
   5   8  -2   20.42    3.02
   5   8  -2   18.10    2.29
  -5  -8   2   20.87    2.39
  -5  -8   2   20.98    2.58
  -5  -8   2   22.46    2.24
   4   8  -2   14.80    1.91
   4   8  -2   11.22    2.03
  -4  -8   2    8.84    1.46
  -4  -8   2   10.73    1.89
  -4  -8   2   10.00    1.63
  -4  -8   2   11.31    1.82
   3   8  -2   60.84    4.15
   3   8  -2   61.48    4.60
   3   8  -2   58.47    4.68
  -3  -8   2   52.08    4.52
  -3  -8   2   54.43    4.30
   2   8  -2   39.59    3.20
   2   8  -2   41.07    3.30
   2   8  -2   40.72    3.52
   2   8  -2   43.22    3.55
   2   8  -2   43.15    2.95
   2   8  -2   40.17    3.00
  -2  -8   2   41.92    3.01
  -2  -8   2   40.55    3.24
  -2  -8   2   39.92    3.47
   1   8  -2   27.50    2.48
   1   8  -2   27.70    2.37
   1   8  -2   24.75    2.03
   1   8  -2   25.81    2.49
   1   8  -2   24.34    2.94
   1   8  -2   24.16    2.39
  -1  -8   2   21.67    2.37
  -1  -8   2   23.78    2.16
  -1  -8   2   26.02    2.19
  -1  -8   2   21.64    2.05
   0   8  -2    9.21    2.05
   0   8  -2   10.75    1.72
   0   8  -2   10.66    1.40
   0   8  -2   10.66    1.76
   0  -8   2   16.84    1.29
   0  -8   2   17.67    1.61
   0  -8   2   15.19    1.83
   0  -8   2   17.54    1.68
   0  -8   2   17.50    1.48
  -1   8  -2   95.66    6.93
  -1   8  -2   93.56    7.29
  -1   8  -2   95.44    6.72
  -1   8  -2  103.82    7.75
  -1   8  -2   95.83    6.92
   1  -8   2   97.82    6.78
   1  -8   2  103.22    7.05
   1  -8   2   97.91    6.88
   1  -8   2  103.55    7.49
   1  -8   2  104.45    6.65
  -2   8  -2   45.50    4.15
  -2   8  -2   44.52    3.43
  -2   8  -2   44.00    3.39
  -2   8  -2   43.37    3.49
   2  -8   2   40.02    3.60
   2  -8   2   37.55    3.11
   2  -8   2   37.37    3.42
   2  -8   2   39.65    3.46
   2  -8   2   37.53    3.30
  -3   8  -2   49.29    3.75
  -3   8  -2   50.42    3.87
  -3   8  -2   47.37    3.92
   3  -8   2   45.39    4.03
   3  -8   2   47.34    3.87
   3  -8   2   45.05    3.98
  -4   8  -2   19.93    2.18
  -4   8  -2   20.68    2.41
  -4   8  -2   21.38    2.42
   4  -8   2   18.15    2.58
   4  -8   2   15.77    2.51
  -5   8  -2   12.01    1.99
  -5   8  -2   11.35    2.05
  -5   8  -2    9.38    1.79
   5  -8   2    9.99    2.23
   5  -8   2    9.05    2.13
  -6   8  -2   11.03    2.30
  -6   8  -2    8.31    1.86
  -6   8  -2   10.25    2.04
   6  -8   2   12.12    2.55
   6  -8   2   10.40    2.26
   7   7  -2   10.47    2.46
  -7  -7   2    9.42    2.00
  -7  -7   2   11.29    2.27
   6   7  -2   28.12    3.48
   6   7  -2   29.63    3.92
   6   7  -2   28.56    2.95
  -6  -7   2   33.49    3.06
  -6  -7   2   32.45    2.96
  -6  -7   2   33.73    3.34
   5   7  -2   30.78    3.37
   5   7  -2   33.27    3.03
  -5  -7   2   33.45    2.95
  -5  -7   2   34.92    2.94
  -5  -7   2   30.55    3.27
   4   7  -2   41.77    3.89
   4   7  -2   42.13    4.12
  -4  -7   2   56.90    3.81
  -4  -7   2   51.79    3.91
  -4  -7   2   52.44    4.09
   3   7  -2   63.29    5.20
   3   7  -2   68.54    4.80
   3   7  -2   65.02    4.83
   3   7  -2   65.06    4.84
   3   7  -2   68.18    5.40
  -3  -7   2   80.75    6.11
  -3  -7   2   81.15    5.03
  -3  -7   2   76.69    5.12
  -3  -7   2   83.19    5.39
   2   7  -2   31.13    3.23
   2   7  -2   34.43    2.25
   2   7  -2   30.24    2.78
   2   7  -2   31.34    2.77
   2   7  -2   33.78    2.38
   2   7  -2   33.81    2.52
   2   7  -2   34.66    2.57
  -2  -7   2   24.15    2.45
  -2  -7   2   26.62    2.74
  -2  -7   2   26.07    3.16
   1   7  -2   77.03    5.55
   1   7  -2   71.96    5.30
   1   7  -2   71.85    5.10
   1   7  -2   73.62    5.52
   1   7  -2   72.32    5.91
   1   7  -2   73.30    5.46
  -1  -7   2   79.94    5.30
  -1  -7   2   82.28    5.24
  -1  -7   2   86.20    5.59
  -1  -7   2   82.11    5.24
   0   7  -2   72.74    5.77
   0   7  -2   76.51    5.63
   0   7  -2   73.04    6.27
   0   7  -2   78.09    5.91
   0   7  -2   76.97    6.07
   0  -7   2   90.63    5.80
   0  -7   2   90.48    6.00
   0  -7   2   92.11    5.64
   0  -7   2   95.34    5.82
   0  -7   2   88.75    6.17
   0  -7   2   90.38    5.52
   1  -7   2   26.72    2.09
   1  -7   2   25.80    1.83
   1  -7   2   26.11    2.27
   1  -7   2   25.40    2.74
   1  -7   2   24.29    2.34
   1  -7   2   26.00    2.42
  -2   7  -2  103.97    8.08
  -2   7  -2   97.51    7.32
  -2   7  -2  104.05    7.36
  -2   7  -2   94.16    7.39
   2  -7   2  119.05    7.47
   2  -7   2  113.51    8.14
   2  -7   2  108.45    7.51
   2  -7   2  117.25    7.25
   2  -7   2  107.35    7.49
   2  -7   2  112.63    7.60
   2  -7   2  113.87    6.92
  -3   7  -2   25.09    2.33
  -3   7  -2   24.21    2.95
  -3   7  -2   23.26    2.13
  -3   7  -2   22.21    2.32
   3  -7   2   23.88    2.53
   3  -7   2   21.84    2.40
   3  -7   2   23.80    2.48
  -4   7  -2   20.74    2.29
  -4   7  -2   19.46    2.26
  -4   7  -2   20.35    2.46
  -4   7  -2   20.71    2.15
   4  -7   2   20.56    2.46
   4  -7   2   17.90    2.35
  -5   7  -2    6.53    1.59
  -5   7  -2    6.06    1.46
  -5   7  -2    6.43    1.54
   5  -7   2    7.74    1.81
   5  -7   2    6.10    1.71
  -6   7  -2    3.33    1.53
  -6   7  -2    4.81    1.49
  -6   7  -2    4.54    1.48
   6  -7   2    5.32    1.79
   6  -7   2    2.63    1.65
  -7   7  -2    0.17    1.26
  -7   7  -2   -0.36    1.37
   7  -7   2    2.08    1.61
   7  -7   2    0.33    1.49
   7   6  -2    3.73    1.81
  -7  -6   2    7.25    1.60
  -7  -6   2   10.02    2.23
   6   6  -2    5.18    1.35
   6   6  -2    5.03    1.76
  -6  -6   2    4.55    1.62
  -6  -6   2    7.79    1.46
   5   6  -2   24.20    2.77
   5   6  -2   25.31    2.38
  -5  -6   2   22.83    2.68
  -5  -6   2   20.00    2.17
  -5  -6   2   24.16    2.26
   4   6  -2   73.58    5.64
   4   6  -2   74.71    4.99
   4   6  -2   71.92    5.32
  -4  -6   2   73.21    6.74
  -4  -6   2   73.13    5.23
  -4  -6   2   75.39    5.48
  -4  -6   2   74.69    5.18
   3   6  -2   27.91    2.14
   3   6  -2   26.94    2.09
   3   6  -2   26.30    2.96
   3   6  -2   27.83    2.67
   3   6  -2   28.53    2.12
   3   6  -2   26.58    2.08
   3   6  -2   25.94    2.52
  -3  -6   2   31.50    2.32
  -3  -6   2   30.38    2.55
  -3  -6   2   31.53    3.13
   2   6  -2   57.27    4.62
   2   6  -2   58.41    4.30
   2   6  -2   57.58    4.31
   2   6  -2   57.69    4.57
   2   6  -2   57.57    4.25
   2   6  -2   60.18    5.05
  -2  -6   2   73.64    5.23
  -2  -6   2   68.10    4.62
  -2  -6   2   71.86    4.19
  -2  -6   2   71.92    4.52
   1   6  -2  112.61    7.68
   1   6  -2  115.26    7.63
   1   6  -2  109.29    8.04
   1   6  -2  115.41    7.31
   1   6  -2  112.33    7.51
   1   6  -2  114.49    7.69
  -1  -6   2  118.59    7.52
  -1  -6   2  111.77    7.63
  -1  -6   2  113.91    7.39
   0   6  -2   70.87    5.25
   0   6  -2   69.40    4.59
   0   6  -2   66.99    4.73
   0   6  -2   69.90    4.99
   0   6  -2   73.51    4.89
   0  -6   2   65.87    4.65
   0  -6   2   65.77    4.95
   0  -6   2   63.22    4.78
   0  -6   2   66.44    4.53
   0  -6   2   66.72    4.68
  -1   6  -2   52.27    4.09
  -1   6  -2   52.34    3.78
  -1   6  -2   54.33    3.79
  -1   6  -2   51.92    3.62
   1  -6   2   47.04    3.47
   1  -6   2   50.74    3.76
   1  -6   2   52.72    3.39
   1  -6   2   49.25    3.81
   1  -6   2   50.58    4.09
   1  -6   2   46.05    3.66
   2  -6   2    7.44    1.27
   2  -6   2    6.72    1.24
   2  -6   2    8.16    1.69
   2  -6   2    6.15    0.81
   2  -6   2    7.45    1.29
   2  -6   2    7.68    1.21
   2  -6   2    7.76    1.02
  -3   6  -2    6.42    1.65
  -3   6  -2    4.87    1.16
  -3   6  -2    7.26    1.08
  -3   6  -2    5.49    1.14
  -3   6  -2    5.70    1.19
   3  -6   2    8.08    1.38
   3  -6   2    9.90    1.54
   3  -6   2    8.42    1.01
   3  -6   2    6.89    1.35
   3  -6   2    7.46    1.72
  -4   6  -2   56.82    4.26
  -4   6  -2   56.50    4.32
  -4   6  -2   56.18    3.89
  -4   6  -2   54.20    4.31
   4  -6   2   57.39    4.05
   4  -6   2   50.88    4.39
   4  -6   2   53.88    4.44
  -5   6  -2    9.71    1.78
  -5   6  -2   12.16    1.81
  -5   6  -2    8.86    1.65
   5  -6   2   11.92    1.99
   5  -6   2   14.04    2.26
  -6   6  -2   24.06    2.61
  -6   6  -2   23.68    2.82
  -6   6  -2   25.05    2.73
   6  -6   2   22.44    2.89
   6  -6   2   26.44    3.12
  -7   6  -2    3.00    1.50
  -7   6  -2    6.06    1.75
   7  -6   2    5.66    1.95
   7  -6   2    4.02    1.90
   8   5  -2    3.44    2.03
  -8  -5   2    4.20    1.78
  -8  -5   2    3.32    1.60
   7   5  -2   35.13    3.81
  -7  -5   2   30.39    3.12
  -7  -5   2   29.94    3.40
   6   5  -2   19.83    2.21
   6   5  -2   20.87    2.70
  -6  -5   2   16.43    2.24
  -6  -5   2   18.11    2.44
   5   5  -2    2.14    0.94
   5   5  -2    0.80    1.10
   5   5  -2    2.25    0.91
  -5  -5   2    4.93    0.98
  -5  -5   2    5.47    1.34
  -5  -5   2    4.83    1.08
   4   5  -2   68.41    4.70
   4   5  -2   71.39    5.53
   4   5  -2   73.62    4.52
   4   5  -2   71.65    4.36
   4   5  -2   70.67    5.09
  -4  -5   2   56.98    4.76
  -4  -5   2   55.83    4.54
  -4  -5   2   57.45    5.26
  -4  -5   2   54.62    4.47
   3   5  -2  101.31    6.56
   3   5  -2  105.64    7.47
   3   5  -2   98.44    6.80
   3   5  -2  100.66    7.02
   3   5  -2  102.25    6.44
   3   5  -2  100.74    6.42
   3   5  -2  102.56    6.44
  -3  -5   2   98.62    6.61
  -3  -5   2   99.55    7.38
  -3  -5   2   90.76    6.80
   2   5  -2   60.13    4.38
   2   5  -2   60.83    4.12
   2   5  -2   58.57    4.46
   2   5  -2   60.28    4.12
   2   5  -2   62.46    4.10
   2   5  -2   60.76    4.79
  -2  -5   2   62.78    4.40
  -2  -5   2   61.29    4.29
  -2  -5   2   61.13    3.96
  -2  -5   2   62.13    4.82
  -2  -5   2   63.47    4.13
   1   5  -2  126.56    8.12
   1   5  -2  131.07    7.95
   1   5  -2  128.99    8.00
   1   5  -2  133.40    8.14
   1   5  -2  125.80    8.45
   1   5  -2  129.23    7.75
  -1  -5   2  109.74    7.92
  -1  -5   2  110.71    8.04
  -1  -5   2  111.16    7.80
  -1  -5   2  113.99    8.43
   0   5  -2  109.54    6.90
   0   5  -2  103.80    7.27
   0   5  -2  104.38    6.71
   0   5  -2  108.10    6.96
   0   5  -2  103.48    7.05
   0  -5   2  100.60    6.66
   0  -5   2  101.11    6.81
   0  -5   2  103.26    7.07
   0  -5   2  104.15    6.83
   0  -5   2  101.94    6.94
  -1   5  -2   30.81    2.87
  -1   5  -2   31.97    2.79
  -1   5  -2   33.82    2.89
  -1   5  -2   31.28    3.12
   1  -5   2   45.99    3.38
   1  -5   2   44.62    3.00
   1  -5   2   42.60    2.75
   1  -5   2   43.62    2.71
   1  -5   2   43.03    3.06
   1  -5   2   46.61    3.02
  -2   5  -2   89.92    5.66
  -2   5  -2   89.65    6.28
  -2   5  -2   91.17    5.72
  -2   5  -2   92.26    5.79
   2  -5   2   79.94    5.47
   2  -5   2   78.62    5.78
   2  -5   2   79.41    5.72
   2  -5   2   79.58    5.54
   2  -5   2   78.87    5.77
   2  -5   2   81.27    6.20
   2  -5   2   81.55    5.81
  -3   5  -2   20.81    2.13
  -3   5  -2   23.09    2.04
  -3   5  -2   20.58    1.88
  -3   5  -2   20.58    2.67
  -3   5  -2   21.42    2.11
   3  -5   2   26.68    2.29
   3  -5   2   25.78    2.30
   3  -5   2   27.95    2.40
   3  -5   2   27.75    2.80
   3  -5   2   26.96    2.01
  -4   5  -2    3.32    1.04
  -4   5  -2    3.88    1.43
  -4   5  -2    4.16    1.03
  -4   5  -2    4.64    1.14
   4  -5   2    2.61    0.86
   4  -5   2    3.04    1.05
   4  -5   2    1.82    1.03
  -5   5  -2   39.80    3.20
  -5   5  -2   37.47    3.36
  -5   5  -2   38.88    3.25
   5  -5   2   38.18    3.48
   5  -5   2   37.65    3.50
  -6   5  -2    2.93    1.07
  -6   5  -2    2.47    1.39
  -6   5  -2    3.36    1.36
   6  -5   2    1.24    1.27
   6  -5   2    1.28    1.33
  -7   5  -2   17.66    2.60
  -7   5  -2   18.12    2.64
   7  -5   2   17.91    2.84
   7  -5   2   16.04    2.66
   8   4  -2    2.24    1.91
  -8  -4   2    4.36    1.84
  -8  -4   2    4.37    1.56
   7   4  -2    6.38    1.89
  -7  -4   2    4.23    1.59
  -7  -4   2    4.37    1.45
   6   4  -2   30.47    2.71
   6   4  -2   31.78    3.31
  -6  -4   2   31.35    2.77
  -6  -4   2   29.14    3.22
   5   4  -2   32.05    2.67
   5   4  -2   30.57    2.56
   5   4  -2   29.08    3.02
  -5  -4   2   31.82    2.94
  -5  -4   2   31.13    2.48
  -5  -4   2   30.63    2.59
   4   4  -2   31.53    2.46
   4   4  -2   31.53    2.39
   4   4  -2   32.03    2.27
   4   4  -2   31.08    2.80
   4   4  -2   32.00    3.15
  -4  -4   2   28.60    2.64
  -4  -4   2   27.61    2.33
  -4  -4   2   28.91    3.06
  -4  -4   2   24.41    2.31
   3   4  -2   26.71    1.90
   3   4  -2   26.91    2.71
   3   4  -2   27.70    1.86
   3   4  -2   24.84    2.06
   3   4  -2   26.67    1.78
   3   4  -2   22.61    2.37
   3   4  -2   25.60    2.23
  -3  -4   2   32.40    2.47
  -3  -4   2   31.02    2.15
  -3  -4   2   29.85    2.83
   2   4  -2   89.83    5.87
   2   4  -2   92.69    5.95
   2   4  -2   88.69    6.49
   2   4  -2   89.27    5.78
   2   4  -2   90.62    6.25
   2   4  -2   92.79    5.70
   2   4  -2   89.75    6.11
  -2  -4   2   92.16    6.16
  -2  -4   2   92.37    6.51
  -2  -4   2   93.34    5.72
  -2  -4   2   90.77    5.90
   1   4  -2   45.65    3.29
   1   4  -2   46.99    2.97
   1   4  -2   45.87    3.14
   1   4  -2   44.22    3.11
   1   4  -2   43.87    3.51
   1   4  -2   46.01    3.32
   0   4  -2   48.92    3.51
   0   4  -2   46.49    3.67
   0   4  -2   48.95    3.39
   0   4  -2   50.37    3.47
   0   4  -2   48.72    3.25
  -1   4  -2   14.80    1.57
  -1   4  -2   15.05    1.51
  -1   4  -2   14.97    1.57
   1  -4   2   21.16    1.74
   1  -4   2   22.44    1.46
   1  -4   2   19.29    1.65
   1  -4   2   19.42    1.88
   1  -4   2   20.65    1.64
   1  -4   2   20.32    1.47
  -2   4  -2   61.35    4.67
  -2   4  -2   62.41    4.10
  -2   4  -2   61.62    4.19
  -2   4  -2   61.73    4.23
   2  -4   2   61.23    4.28
   2  -4   2   58.31    4.24
   2  -4   2   58.16    4.06
   2  -4   2   62.24    4.70
   2  -4   2   54.96    4.19
  -3   4  -2   85.11    6.42
  -3   4  -2   85.21    5.77
  -3   4  -2   83.61    5.85
  -3   4  -2   84.78    5.84
  -3   4  -2   85.89    5.60
   3  -4   2   87.73    5.98
   3  -4   2   84.56    5.75
   3  -4   2   85.32    5.97
   3  -4   2   84.06    5.91
   3  -4   2   89.05    6.52
  -4   4  -2   37.72    3.39
  -4   4  -2   32.57    2.70
  -4   4  -2   33.27    2.84
  -4   4  -2   37.01    3.57
  -4   4  -2   33.30    2.74
   4  -4   2   32.56    3.45
   4  -4   2   34.13    2.81
   4  -4   2   31.83    2.88
   4  -4   2   34.71    3.04
  -5   4  -2    6.51    1.36
  -5   4  -2    6.70    1.21
  -5   4  -2    7.06    1.32
  -5   4  -2    8.06    1.11
   5  -4   2    3.77    1.31
   5  -4   2    3.37    1.16
   5  -4   2    4.39    1.28
  -6   4  -2    2.88    1.01
  -6   4  -2    3.20    1.22
  -6   4  -2    3.13    1.30
   6  -4   2    6.83    1.62
   6  -4   2    7.07    1.73
  -7   4  -2    2.87    1.44
  -7   4  -2    5.07    1.55
   7  -4   2    7.21    1.92
   7  -4   2    5.83    1.74
  -8   4  -2    3.74    1.81
  -8   4  -2    3.19    1.70
   8  -4   2    6.37    2.09
   8  -4   2    6.15    1.97
   8  -4   2    4.87    1.76
   8   3  -2    0.46    1.73
  -8  -3   2    1.63    1.74
  -8  -3   2    0.92    1.22
   7   3  -2    6.83    2.01
  -7  -3   2   12.65    2.22
  -7  -3   2   12.81    1.89
   6   3  -2    1.74    0.94
   6   3  -2    2.52    1.30
  -6  -3   2    3.38    1.18
  -6  -3   2    4.18    1.32
   5   3  -2   34.79    2.80
   5   3  -2   34.39    3.19
   5   3  -2   34.09    2.79
  -5  -3   2   32.25    3.01
  -5  -3   2   33.67    2.53
  -5  -3   2   32.08    2.75
  -5  -3   2   34.20    2.47
  -5  -3   2   36.63    4.10
   4   3  -2   21.99    2.14
   4   3  -2   20.53    1.70
   4   3  -2   22.38    1.76
   4   3  -2   21.12    1.82
   4   3  -2   19.36    2.41
   4   3  -2   20.07    1.76
  -4  -3   2   17.03    1.41
  -4  -3   2   16.54    1.57
  -4  -3   2   17.05    1.67
  -4  -3   2   18.78    1.94
  -4  -3   2   16.45    2.23
   3   3  -2  120.22    7.48
   3   3  -2  122.82    7.34
   3   3  -2  126.08    7.81
   3   3  -2  118.11    7.52
   3   3  -2  121.53    8.12
  -3  -3   2  102.70    7.39
  -3  -3   2  101.78    7.61
  -3  -3   2  103.70    7.98
   2   3  -2   21.96    1.82
   2   3  -2   22.57    1.59
   2   3  -2   23.13    1.73
   2   3  -2   23.11    1.98
   2   3  -2   22.58    2.22
   1   3  -2   65.51    4.58
   1   3  -2   63.66    4.76
   1   3  -2   61.89    4.95
   1   3  -2   67.71    4.49
   1   3  -2   61.60    4.80
   1   3  -2   64.83    4.64
  -1  -3   2   82.50    4.60
  -1  -3   2   80.36    4.58
  -1  -3   2   82.57    4.86
  -1  -3   2   81.36    5.13
  -1  -3   2   78.01    4.77
   0   3  -2  634.91   39.18
   0   3  -2  628.56   39.23
   0   3  -2  619.60   39.13
   0   3  -2  640.41   39.23
   0   3  -2  619.30   39.36
   0  -3   2  643.42   39.14
   0  -3   2  633.86   39.19
   0  -3   2  613.31   39.14
   0  -3   2  640.40   39.80
  -1   3  -2  141.32   10.53
  -1   3  -2  143.94   10.29
  -1   3  -2  146.95   10.33
  -1   3  -2  148.40   10.27
   1  -3   2  179.22   10.41
   1  -3   2  175.61   10.19
   1  -3   2  172.32   10.27
   1  -3   2  176.40   10.67
   1  -3   2  177.68   10.43
  -2   3  -2   32.22    2.56
  -2   3  -2   33.46    2.57
  -2   3  -2   30.64    2.46
  -2   3  -2   32.00    2.94
  -2   3  -2   30.64    2.42
   2  -3   2   44.34    3.13
   2  -3   2   43.55    2.75
  -3   3  -2   44.56    2.92
  -3   3  -2   44.47    3.56
  -3   3  -2   42.83    2.94
  -3   3  -2   45.41    3.02
   3  -3   2   35.34    2.97
   3  -3   2   35.09    2.92
   3  -3   2   33.76    3.00
   3  -3   2   35.11    3.37
   3  -3   2   36.43    2.91
  -4   3  -2   48.05    3.91
  -4   3  -2   52.38    3.84
  -4   3  -2   50.02    4.51
  -4   3  -2   50.41    3.72
  -4   3  -2   52.07    4.44
  -4   3  -2   47.27    3.82
   4  -3   2   59.37    4.68
   4  -3   2   56.87    4.03
   4  -3   2   58.04    4.01
   4  -3   2   58.60    4.10
  -5   3  -2    7.25    1.13
  -5   3  -2    7.99    2.21
  -5   3  -2    6.79    1.05
  -5   3  -2    6.51    1.64
  -5   3  -2    6.81    1.34
  -5   3  -2    5.89    1.25
   5  -3   2    4.78    1.22
   5  -3   2    7.41    1.43
   5  -3   2    6.57    1.34
  -6   3  -2   29.78    2.75
  -6   3  -2   25.00    2.22
  -6   3  -2   28.29    2.58
   6  -3   2   19.14    2.42
   6  -3   2   18.42    2.53
  -7   3  -2    0.89    1.27
  -7   3  -2    1.32    1.16
   7  -3   2    1.41    1.39
   7  -3   2    0.49    1.09
  -8   3  -2    5.13    1.88
  -8   3  -2    7.37    1.81
   8  -3   2    6.10    2.15
   8  -3   2    6.44    2.00
   8   2  -2   19.10    3.14
  -8  -2   2   16.52    2.45
  -8  -2   2   13.50    2.62
   7   2  -2    8.63    2.03
  -7  -2   2    9.31    2.06
  -7  -2   2    9.54    1.84
   6   2  -2   27.92    2.39
   6   2  -2   26.41    2.81
  -6  -2   2   25.04    2.59
  -6  -2   2   25.12    2.76
  -6  -2   2   25.48    2.32
   5   2  -2   33.33    3.06
   5   2  -2   35.69    2.72
   5   2  -2   32.62    2.87
  -5  -2   2   32.32    2.36
  -5  -2   2   34.57    2.90
  -5  -2   2   35.70    3.63
  -5  -2   2   31.22    2.71
  -5  -2   2   33.00    2.48
   4   2  -2   19.62    1.94
   4   2  -2   21.66    1.98
   4   2  -2   20.06    1.52
   4   2  -2   21.63    1.95
   4   2  -2   19.69    2.41
   4   2  -2   18.22    2.09
  -4  -2   2   25.12    1.94
  -4  -2   2   23.72    2.15
  -4  -2   2   25.43    2.03
  -4  -2   2   27.85    2.67
  -4  -2   2   25.06    1.73
  -4  -2   2   26.40    1.74
   3   2  -2  225.00   14.10
   3   2  -2  228.20   13.83
   3   2  -2  215.68   13.86
   3   2  -2  223.02   13.81
   3   2  -2  220.55   14.41
   3   2  -2  218.36   13.86
  -3  -2   2  210.21   13.98
  -3  -2   2  216.32   13.62
  -3  -2   2  214.67   13.79
  -3  -2   2  221.27   13.72
  -3  -2   2  211.20   13.79
  -3  -2   2  216.15   14.39
   2   2  -2   68.97    4.48
   2   2  -2   67.40    5.06
   2   2  -2   66.37    4.67
   2   2  -2   66.61    4.67
   2   2  -2   67.78    4.83
  -2  -2   2   72.17    5.05
  -2  -2   2   73.07    4.81
  -2  -2   2   73.14    4.42
  -2  -2   2   72.55    4.60
  -2  -2   2   78.71    4.54
   1   2  -2   65.43    4.57
   1   2  -2   66.41    4.39
   1   2  -2   66.71    4.27
   1   2  -2   68.38    4.46
   1   2  -2   70.02    4.36
  -1  -2   2   62.62    4.56
  -1  -2   2   66.49    4.42
  -1  -2   2   64.66    4.19
   0   2  -2  597.73   36.69
   0   2  -2  609.99   37.09
   0   2  -2  595.38   36.83
   0   2  -2  609.35   36.94
   0  -2   2  580.52   36.38
   0  -2   2  580.87   36.52
   0  -2   2  564.24   36.51
   0  -2   2  570.70   37.27
  -1   2  -2  549.68   32.84
  -1   2  -2  544.13   32.69
  -1   2  -2  514.30   32.57
  -1   2  -2  522.54   32.54
  -1   2  -2  524.73   32.54
   1  -2   2  512.49   32.82
   1  -2   2  524.70   32.61
   1  -2   2  521.59   32.62
   1  -2   2  505.69   32.55
  -2   2  -2   69.58    4.67
  -2   2  -2   66.11    4.21
  -2   2  -2   66.12    4.16
  -2   2  -2   70.07    4.26
   2  -2   2   57.61    4.24
   2  -2   2   57.61    4.57
   2  -2   2   58.79    4.23
   2  -2   2   55.37    4.27
  -3   2  -2  132.26    8.31
  -3   2  -2  129.16    8.31
  -3   2  -2  130.69    8.38
  -3   2  -2  130.74    8.71
  -3   2  -2  136.79    8.92
   3  -2   2  121.34    8.41
   3  -2   2  125.91    8.41
   3  -2   2  119.52    8.46
   3  -2   2  126.90    8.88
  -4   2  -2    8.19    1.64
  -4   2  -2    9.84    1.09
  -4   2  -2    8.56    1.29
  -4   2  -2    7.96    1.07
  -4   2  -2    8.59    1.60
  -4   2  -2    8.39    1.20
   4  -2   2    6.80    1.25
   4  -2   2    8.78    1.71
   4  -2   2    8.71    1.37
  -5   2  -2   42.16    3.04
  -5   2  -2   41.00    3.80
  -5   2  -2   39.33    3.24
  -5   2  -2   42.80    4.03
  -5   2  -2   37.86    2.93
  -5   2  -2   42.88    3.27
   5  -2   2   38.79    3.44
   5  -2   2   38.78    4.27
   5  -2   2   39.42    3.43
   5  -2   2   37.71    3.24
  -6   2  -2   35.92    3.18
  -6   2  -2   35.26    3.16
   6  -2   2   38.12    3.43
   6  -2   2   34.85    3.20
  -7   2  -2   18.45    2.27
  -7   2  -2   16.97    2.34
   7  -2   2   14.04    2.25
   7  -2   2   15.25    2.53
  -8   2  -2    7.67    2.03
  -8   2  -2    7.54    1.74
   8  -2   2    3.92    1.98
   8  -2   2    6.18    2.00
   8   1  -2   11.51    2.50
  -8  -1   2   19.64    2.64
  -8  -1   2   19.45    2.92
   7   1  -2   24.03    2.87
  -7  -1   2   23.65    2.58
   6   1  -2   19.78    2.48
   6   1  -2   21.84    2.04
  -6  -1   2   22.95    2.03
  -6  -1   2   22.42    2.25
   5   1  -2   20.72    2.05
  -5  -1   2   14.26    1.83
  -5  -1   2   12.54    1.41
  -5  -1   2   14.18    2.23
  -5  -1   2   14.36    1.61
   4   1  -2   64.28    4.84
   4   1  -2   68.13    4.44
   4   1  -2   66.21    5.33
   4   1  -2   63.28    4.88
   4   1  -2   66.30    4.67
  -4  -1   2   68.65    4.53
  -4  -1   2   67.52    4.36
  -4  -1   2   71.73    5.44
  -4  -1   2   69.97    4.69
  -4  -1   2   73.08    4.92
  -3  -1   2    5.94    0.67
  -3  -1   2    6.22    0.47
  -3  -1   2    6.33    0.64
  -3  -1   2    7.23    0.48
  -3  -1   2    6.73    0.85
  -3  -1   2    6.20    0.88
  -3  -1   2    5.22    1.16
   2   1  -2  729.67   44.21
   2   1  -2  691.53   44.82
   2   1  -2  708.38   44.16
   2   1  -2  709.65   44.19
   2   1  -2  711.58   44.50
   2   1  -2  726.39   44.28
  -2  -1   2  719.58   44.09
  -2  -1   2  702.78   44.99
  -2  -1   2  715.53   44.51
  -2  -1   2  707.81   44.12
  -2  -1   2  732.48   44.17
  -2  -1   2  689.11   44.36
   1   1  -2  353.23   21.92
   1   1  -2  353.71   21.96
   1   1  -2  357.17   21.88
   1   1  -2  361.02   22.08
  -1  -1   2  337.41   22.02
  -1  -1   2  346.11   21.78
  -1  -1   2  359.46   21.79
  -1  -1   2  354.62   22.08
  -1  -1   2  344.70   21.94
   0   1  -2  279.32   16.08
   0   1  -2  275.93   15.99
   0   1  -2  281.19   16.12
   0   1  -2  286.50   16.02
   0  -1   2  241.60   16.07
   0  -1   2  232.70   16.42
   0  -1   2  238.19   16.11
   0  -1   2  247.10   16.04
   0  -1   2  237.77   16.11
  -1   1  -2  226.86   13.72
  -1   1  -2  228.31   13.95
  -1   1  -2  229.58   13.72
  -1   1  -2  232.27   13.64
   1  -1   2  203.34   13.92
   1  -1   2  216.62   13.72
   1  -1   2  208.43   13.69
   1  -1   2  211.78   13.76
   1  -1   2  214.35   13.77
  -2   1  -2  175.83   11.19
  -2   1  -2  176.48   11.39
  -2   1  -2  181.84   11.61
  -2   1  -2  175.39   11.23
  -2   1  -2  178.40   11.18
  -2   1  -2  180.75   11.19
   2  -1   2  174.26   11.57
   2  -1   2  177.61   11.31
   2  -1   2  168.91   11.23
   2  -1   2  182.91   11.34
  -3   1  -2   32.71    2.07
  -3   1  -2   31.81    2.36
  -3   1  -2   31.79    2.85
  -3   1  -2   31.89    2.36
  -3   1  -2   32.35    2.75
  -3   1  -2   31.14    2.43
  -3   1  -2   30.77    2.45
   3  -1   2   31.94    2.62
   3  -1   2   32.83    2.90
   3  -1   2   36.08    2.14
   3  -1   2   32.67    2.53
   3  -1   2   33.86    2.62
  -4   1  -2   95.03    7.01
  -4   1  -2   98.83    6.92
  -4   1  -2   97.56    6.45
  -4   1  -2   95.66    6.42
  -4   1  -2   94.76    6.26
  -4   1  -2   92.41    6.24
   4  -1   2   89.38    6.56
   4  -1   2  103.34    7.18
   4  -1   2   93.01    6.51
  -5   1  -2   22.57    2.66
  -5   1  -2   22.10    2.68
  -5   1  -2   23.17    2.14
  -5   1  -2   22.05    1.85
  -5   1  -2   21.43    1.88
  -5   1  -2   19.60    2.08
   5  -1   2   26.29    2.52
   5  -1   2   21.83    2.09
   5  -1   2   22.85    2.36
   5  -1   2   24.32    2.71
  -6   1  -2    9.49    1.55
  -6   1  -2    9.71    1.59
   6  -1   2    8.07    1.73
   6  -1   2    7.80    1.51
  -7   1  -2   25.21    2.84
  -7   1  -2   26.38    2.83
   7  -1   2   29.29    3.16
   7  -1   2   31.69    2.94
   7  -1   2   30.99    3.22
  -8   1  -2    1.45    1.40
  -8   1  -2    1.70    1.40
   8  -1   2    3.55    1.85
   8  -1   2    3.41    1.70
   8   0  -2   10.25    2.24
  -8   0   2   10.26    2.07
   7   0  -2   16.64    2.63
  -7   0   2   18.34    2.84
  -7   0   2   16.57    2.25
   6   0  -2   28.14    3.02
   6   0  -2   30.96    3.23
   6   0  -2   27.56    2.47
   6   0  -2   28.78    3.04
  -6   0   2   33.38    2.61
  -6   0   2   32.31    3.23
  -6   0   2   28.55    2.71
   5   0  -2   72.26    5.46
   5   0  -2   71.48    5.43
   5   0  -2   71.56    5.12
   5   0  -2   72.35    5.02
   5   0  -2   72.04    5.61
  -5   0   2   78.70    5.70
  -5   0   2   78.06    5.14
  -5   0   2   76.90    6.10
  -5   0   2   73.46    5.23
   4   0  -2   45.08    3.30
   4   0  -2   49.17    3.55
   4   0  -2   46.96    3.54
   4   0  -2   46.09    3.20
   4   0  -2   47.23    3.64
   4   0  -2   47.92    4.00
  -4   0   2   43.72    3.61
  -4   0   2   43.89    2.96
  -4   0   2   43.01    3.30
  -4   0   2   47.02    3.98
  -4   0   2   44.64    3.22
   3   0  -2   22.86    1.98
   3   0  -2   23.42    2.34
   3   0  -2   25.03    1.89
   3   0  -2   22.40    2.00
   3   0  -2   24.10    1.97
   3   0  -2   24.90    2.10
   3   0  -2   24.43    1.78
   2   0  -2  171.69   10.70
   2   0  -2  170.83   10.25
   2   0  -2  162.89   10.37
   2   0  -2  168.84   10.46
   2   0  -2  173.44   10.37
   2   0  -2  170.86   10.40
   2   0  -2  165.51   10.39
  -2   0   2  150.35   10.26
  -2   0   2  151.37   10.40
  -2   0   2  154.49   10.22
  -2   0   2  153.40   10.62
   1   0  -2   52.91    3.57
   1   0  -2   50.20    3.67
   1   0  -2   53.57    3.50
   1   0  -2   52.18    3.54
   1   0  -2   54.90    3.42
   1   0  -2   51.88    3.53
   1   0  -2   54.17    3.60
  -1   0   2   58.44    3.62
  -1   0   2   58.24    3.73
   0   0  -2  150.07    9.54
   0   0  -2  147.64    9.56
   0   0  -2  144.91    9.53
   0   0  -2  143.38    9.52
   0   0  -2  142.77    9.57
   0   0   2  153.17    9.52
   0   0   2  161.36    9.54
   0   0   2  159.56    9.64
   0   0   2  161.25    9.61
   0   0   2  165.50    9.49
  -1   0  -2  354.08   22.11
  -1   0  -2  354.60   22.16
  -1   0  -2  356.56   22.13
  -1   0  -2  356.64   22.17
  -1   0  -2  362.49   22.20
  -1   0  -2  359.18   22.44
  -1   0  -2  357.53   22.16
  -1   0  -2  347.16   22.15
   1   0   2  348.98   22.37
   1   0   2  365.36   22.20
   1   0   2  359.52   22.23
   1   0   2  355.36   22.29
  -2   0  -2   32.29    2.43
  -2   0  -2   31.65    2.24
  -2   0  -2   31.44    2.23
  -2   0  -2   32.64    2.31
  -2   0  -2   31.98    2.25
  -2   0  -2   31.72    2.26
  -2   0  -2   32.39    2.62
  -3   0  -2   88.73    6.39
  -3   0  -2   88.41    5.89
  -3   0  -2   90.40    6.24
  -3   0  -2   86.14    5.85
  -3   0  -2   89.41    5.93
  -3   0  -2   87.81    5.82
  -3   0  -2   87.11    5.94
   3   0   2   94.94    5.70
   3   0   2   92.34    6.43
   3   0   2   92.99    6.13
   3   0   2   91.26    6.00
  -4   0  -2   52.75    3.88
  -4   0  -2   52.84    4.05
  -4   0  -2   57.81    4.62
  -4   0  -2   54.15    4.03
  -4   0  -2   55.31    4.46
   4   0   2   64.66    4.25
   4   0   2   60.79    4.31
   4   0   2   60.49    4.62
  -5   0  -2    1.46    0.79
  -5   0  -2    2.20    0.66
  -5   0  -2    2.41    0.91
  -5   0  -2    1.48    1.00
  -5   0  -2    2.53    1.24
   5   0   2    2.86    1.10
   5   0   2    3.41    1.38
   5   0   2    4.43    1.15
  -6   0  -2    3.81    1.10
  -6   0  -2    4.56    0.93
  -6   0  -2    5.08    1.26
   6   0   2    3.88    1.07
   6   0   2    4.14    1.27
  -7   0  -2    2.12    1.13
  -7   0  -2    4.35    1.40
   7   0   2    2.38    1.37
   7   0   2    0.94    1.08
   7   0   2    2.82    1.47
  -8   0  -2    7.97    1.93
  -8   0  -2    8.31    1.76
   8   0   2   11.22    2.46
   8   0   2    9.13    2.30
   8  -1  -2    9.55    2.22
  -8   1   2    7.62    1.82
   7  -1  -2   12.47    2.39
   7  -1  -2   11.28    2.09
  -7   1   2    8.86    1.79
  -7   1   2    9.48    1.62
   6  -1  -2   10.86    1.91
   6  -1  -2   11.67    1.55
   6  -1  -2   10.57    1.47
   6  -1  -2    9.70    2.00
   6  -1  -2   12.72    1.97
  -6   1   2   10.52    1.54
  -6   1   2   10.84    2.10
  -6   1   2   11.75    1.73
   5  -1  -2   75.64    5.70
   5  -1  -2   78.41    6.12
   5  -1  -2   80.17    5.82
   5  -1  -2   76.63    5.47
   5  -1  -2   79.74    5.49
  -5   1   2   80.42    6.11
  -5   1   2   81.20    6.43
  -5   1   2   76.98    5.48
  -5   1   2   83.03    5.66
  -5   1   2   84.35    5.20
   4  -1  -2   84.45    6.19
   4  -1  -2   83.72    5.94
   4  -1  -2   83.11    5.67
   4  -1  -2   80.30    5.82
   4  -1  -2   80.85    5.68
  -4   1   2   86.66    6.41
  -4   1   2   87.68    5.69
  -4   1   2   87.06    5.49
  -4   1   2   88.41    6.16
  -4   1   2   84.15    5.73
   3  -1  -2   93.98    6.47
   3  -1  -2   92.71    6.18
   3  -1  -2   94.06    6.10
   3  -1  -2   93.83    6.15
   3  -1  -2   92.86    6.28
  -3   1   2   92.04    6.07
  -3   1   2   92.06    6.43
  -3   1   2   94.07    6.64
  -3   1   2   92.17    6.12
  -3   1   2   92.97    5.98
   2  -1  -2   16.60    1.29
   2  -1  -2   16.79    1.55
   2  -1  -2   16.07    1.35
   2  -1  -2   16.63    1.28
   2  -1  -2   15.20    1.35
   2  -1  -2   15.93    1.33
   2  -1  -2   15.87    1.40
  -2   1   2   12.85    1.23
  -2   1   2   13.92    1.48
  -2   1   2   12.81    1.53
   1  -1  -2   18.05    1.22
   1  -1  -2   17.92    1.39
   1  -1  -2   17.25    1.34
   1  -1  -2   18.71    1.42
   1  -1  -2   17.96    1.24
   1  -1  -2   18.02    1.43
   1  -1  -2   17.88    1.38
   1  -1  -2   18.56    1.29
   0  -1  -2   44.45    2.91
   0  -1  -2   45.20    2.79
   0  -1  -2   44.61    2.93
   0  -1  -2   45.82    2.95
   0  -1  -2   44.08    2.97
   0  -1  -2   43.74    2.94
   0  -1  -2   44.03    2.91
  -1  -1  -2  289.13   17.13
  -1  -1  -2  272.99   17.12
  -1  -1  -2  279.07   17.12
  -1  -1  -2  278.97   17.10
  -1  -1  -2  273.35   17.08
   1   1   2  270.50   17.08
   1   1   2  274.28   17.18
   1   1   2  260.01   17.09
   1   1   2  271.55   17.01
  -2  -1  -2  363.54   22.36
  -2  -1  -2  362.91   22.20
  -2  -1  -2  359.10   22.22
  -2  -1  -2  361.43   22.22
  -2  -1  -2  372.39   22.22
   2   1   2  329.20   22.48
   2   1   2  360.18   22.14
   2   1   2  361.81   22.00
   2   1   2  349.69   22.19
   2   1   2  357.39   22.34
   2   1   2  344.92   22.24
   2   1   2  347.54   22.34
  -3  -1  -2   49.69    3.56
  -3  -1  -2   48.91    3.25
  -3  -1  -2   48.88    3.24
  -3  -1  -2   48.07    3.17
  -3  -1  -2   48.61    3.21
   3   1   2   43.39    3.39
   3   1   2   40.97    3.45
   3   1   2   42.31    3.23
   3   1   2   42.95    3.62
   3   1   2   44.53    3.03
   3   1   2   44.01    2.86
  -4  -1  -2  118.93    7.47
  -4  -1  -2  126.17    8.12
  -4  -1  -2  121.37    7.63
  -4  -1  -2  117.34    7.48
  -4  -1  -2  119.20    7.59
   4   1   2  105.95    7.61
   4   1   2  108.95    7.99
   4   1   2  110.49    8.08
   4   1   2  103.04    7.76
   4   1   2  112.75    7.23
  -5  -1  -2  103.87    7.75
  -5  -1  -2  100.96    7.17
  -5  -1  -2  105.78    6.96
  -5  -1  -2  101.33    7.00
  -5  -1  -2  104.52    7.15
   5   1   2  107.93    7.53
   5   1   2  111.75    7.84
   5   1   2  105.06    7.31
   5   1   2  106.92    7.80
  -6  -1  -2   23.83    2.58
  -6  -1  -2   27.46    2.63
  -6  -1  -2   24.95    2.27
   6   1   2   29.24    2.91
   6   1   2   31.04    2.87
   6   1   2   30.76    2.45
  -7  -1  -2   15.81    2.13
  -7  -1  -2   13.57    2.08
   7   1   2   14.43    2.54
  -8  -1  -2    4.70    1.64
  -8  -1  -2    4.47    1.39
   8   1   2    6.82    2.08
   8  -2  -2    4.88    1.94
  -8   2   2    5.59    1.72
   7  -2  -2    7.63    1.81
   7  -2  -2    7.17    1.89
  -7   2   2    9.14    1.67
  -7   2   2    8.87    1.76
   6  -2  -2   21.62    2.26
   6  -2  -2   25.23    2.55
   6  -2  -2   24.63    2.61
  -6   2   2   20.90    3.15
  -6   2   2   21.24    2.29
  -6   2   2   17.14    2.09
   5  -2  -2   17.54    1.73
   5  -2  -2   16.57    1.95
   5  -2  -2   13.91    1.56
   5  -2  -2   15.33    2.21
   5  -2  -2   15.97    1.83
  -5   2   2   14.79    2.16
  -5   2   2   12.16    1.29
  -5   2   2   11.78    1.69
  -5   2   2   12.01    1.63
   4  -2  -2   22.35    2.09
   4  -2  -2   20.12    2.28
   4  -2  -2   21.32    1.91
   4  -2  -2   21.00    1.93
   4  -2  -2   22.88    1.89
  -4   2   2   22.98    1.94
  -4   2   2   21.60    2.40
  -4   2   2   19.43    2.36
  -4   2   2   19.14    1.89
  -4   2   2   20.22    1.51
  -4   2   2   20.26    1.68
   3  -2  -2  123.71    8.13
   3  -2  -2  123.60    8.17
   3  -2  -2  124.85    8.59
   3  -2  -2  124.71    8.15
   3  -2  -2  125.54    8.26
  -3   2   2  124.66    8.15
  -3   2   2  124.52    7.97
  -3   2   2  123.42    8.67
  -3   2   2  130.28    7.81
  -3   2   2  130.92    8.07
  -3   2   2  123.50    8.58
  -3   2   2  123.46    8.15
   2  -2  -2   57.82    4.02
   2  -2  -2   57.36    4.08
   2  -2  -2   59.61    4.05
   2  -2  -2   56.25    4.05
   2  -2  -2   56.54    4.32
   2  -2  -2   56.63    3.75
   2  -2  -2   58.99    3.91
  -2   2   2   62.53    3.98
  -2   2   2   64.46    4.37
  -2   2   2   61.74    4.02
  -2   2   2   64.11    4.42
   1  -2  -2  546.40   34.26
   1  -2  -2  560.46   34.20
   1  -2  -2  550.67   34.22
   1  -2  -2  572.18   34.27
   1  -2  -2  543.07   34.27
   1  -2  -2  558.01   34.27
  -1   2   2  529.25   34.49
   0  -2  -2  267.83   16.61
   0  -2  -2  270.93   16.58
   0  -2  -2  256.67   16.60
   0  -2  -2  256.25   16.64
   0  -2  -2  255.93   16.65
   0   2   2  275.89   16.52
   0   2   2  272.26   16.69
   0   2   2  272.76   16.60
   0   2   2  266.73   16.59
  -1  -2  -2   48.11    3.16
  -1  -2  -2   47.20    2.94
  -1  -2  -2   47.19    3.19
  -1  -2  -2   46.06    3.12
  -1  -2  -2   48.48    2.97
  -1  -2  -2   47.32    3.01
  -1  -2  -2   47.15    3.11
   1   2   2   45.09    3.18
   1   2   2   43.58    3.15
   1   2   2   44.06    3.15
   1   2   2   45.04    3.00
  -2  -2  -2  402.55   25.48
  -2  -2  -2  391.67   25.47
  -2  -2  -2  398.56   25.49
  -2  -2  -2  399.76   25.65
  -2  -2  -2  403.09   25.51
   2   2   2  433.07   25.69
   2   2   2  425.18   25.47
   2   2   2  414.50   25.60
  -3  -2  -2   82.60    5.44
  -3  -2  -2   81.27    5.42
  -3  -2  -2   84.30    5.45
  -3  -2  -2   84.61    5.47
  -3  -2  -2   87.45    5.81
   3   2   2   74.78    5.60
   3   2   2   81.41    5.35
   3   2   2   79.26    5.84
   3   2   2   80.70    5.75
  -4  -2  -2   23.62    2.19
  -4  -2  -2   23.68    2.54
  -4  -2  -2   24.59    2.13
  -4  -2  -2   22.16    2.19
  -4  -2  -2   24.60    2.17
   4   2   2   30.29    1.88
   4   2   2   29.67    2.56
   4   2   2   28.04    2.71
   4   2   2   31.83    2.47
   4   2   2   29.12    2.03
   4   2   2   30.88    2.76
  -5  -2  -2   42.79    3.20
  -5  -2  -2   47.31    3.44
  -5  -2  -2   48.26    4.07
  -5  -2  -2   46.09    3.36
  -5  -2  -2   45.99    3.27
   5   2   2   42.38    3.89
   5   2   2   41.94    2.93
   5   2   2   35.47    3.49
   5   2   2   40.91    3.65
   5   2   2   41.41    3.94
  -6  -2  -2   50.79    3.89
  -6  -2  -2   46.27    3.93
  -6  -2  -2   50.02    3.75
  -6  -2  -2   53.50    3.72
   6   2   2   46.98    4.28
  -7  -2  -2    6.78    1.49
  -7  -2  -2    6.54    1.57
   7   2   2    8.22    2.00
  -8  -2  -2    9.25    2.19
  -8  -2  -2   11.18    2.17
   8   2   2   12.15    2.57
   8  -3  -2    5.02    1.96
  -8   3   2    1.70    1.47
  -8   3   2    4.52    1.54
   7  -3  -2   12.76    2.13
   7  -3  -2   12.98    2.39
  -7   3   2   10.83    1.99
  -7   3   2   10.31    1.86
   6  -3  -2   22.11    2.71
   6  -3  -2   20.61    2.47
   6  -3  -2   23.62    2.50
  -6   3   2   29.68    2.64
  -6   3   2   27.55    2.61
   5  -3  -2    7.49    1.46
   5  -3  -2    6.23    1.29
   5  -3  -2    6.34    1.64
   5  -3  -2    6.88    1.25
  -5   3   2    3.93    0.83
  -5   3   2    3.88    1.37
  -5   3   2    3.91    1.03
  -5   3   2    3.32    1.06
   4  -3  -2  131.35    9.60
   4  -3  -2  141.23    9.45
   4  -3  -2  138.38    9.52
   4  -3  -2  140.74   10.14
  -4   3   2  147.16    9.16
  -4   3   2  146.06    9.52
  -4   3   2  151.10   10.28
  -4   3   2  151.52    9.55
  -4   3   2  149.17    9.37
  -4   3   2  147.78   10.16
   3  -3  -2   28.97    2.42
   3  -3  -2   31.45    2.01
   3  -3  -2   29.46    2.25
   3  -3  -2   31.46    2.50
   3  -3  -2   30.89    2.50
   3  -3  -2   29.22    2.82
   2  -3  -2  141.72    9.02
   2  -3  -2  136.20    9.62
   2  -3  -2  139.67    9.30
   2  -3  -2  143.67    9.26
   2  -3  -2  143.16    9.00
   2  -3  -2  131.04    9.24
  -2   3   2  147.66    9.66
  -2   3   2  149.60    9.22
  -2   3   2  156.53    9.18
   1  -3  -2  299.77   20.64
   1  -3  -2  308.86   20.57
   1  -3  -2  321.07   20.52
   1  -3  -2  306.35   20.65
  -1   3   2  349.20   20.65
  -1   3   2  366.15   21.09
  -1   3   2  356.80   20.66
   0  -3  -2   81.22    4.87
   0  -3  -2   81.13    4.94
   0  -3  -2   82.76    5.02
   0   3   2   59.44    4.81
  -1  -3  -2   38.06    2.73
  -1  -3  -2   37.75    2.89
  -1  -3  -2   39.57    2.69
  -1  -3  -2   40.17    2.92
  -1  -3  -2   41.10    2.69
  -1  -3  -2   37.87    2.92
  -1  -3  -2   39.75    2.92
   1   3   2   49.35    2.97
   1   3   2   45.97    2.90
   1   3   2   47.76    3.01
   1   3   2   47.40    3.12
  -2  -3  -2  137.77    8.46
  -2  -3  -2  140.90    8.47
  -2  -3  -2  139.75    8.49
  -2  -3  -2  142.25    8.72
  -2  -3  -2  140.88    8.33
   2   3   2  109.51    8.49
   2   3   2  108.34    8.41
  -3  -3  -2   44.06    3.59
  -3  -3  -2   43.21    3.22
  -3  -3  -2   44.31    3.30
  -3  -3  -2   47.09    3.34
  -3  -3  -2   42.27    3.17
  -3  -3  -2   44.10    3.22
   3   3   2   56.73    3.54
  -4  -3  -2   34.09    2.64
  -4  -3  -2   36.18    3.21
  -4  -3  -2   35.98    2.68
  -4  -3  -2   36.55    2.74
  -4  -3  -2   35.47    2.69
   4   3   2   31.71    3.09
   4   3   2   32.95    2.55
   4   3   2   32.68    2.91
   4   3   2   34.70    3.18
   4   3   2   34.21    2.97
  -5  -3  -2   32.10    2.65
  -5  -3  -2   29.30    2.55
  -5  -3  -2   27.99    2.67
  -5  -3  -2   30.78    3.27
  -5  -3  -2   28.78    2.61
   5   3   2   34.04    2.44
   5   3   2   35.09    3.23
   5   3   2   33.35    3.28
   5   3   2   34.98    3.11
   5   3   2   34.62    3.12
  -6  -3  -2   10.83    1.65
  -6  -3  -2   10.04    1.49
  -6  -3  -2   10.30    1.47
   6   3   2    6.37    1.72
   6   3   2    4.97    2.39
  -7  -3  -2    8.61    1.51
  -7  -3  -2   10.46    1.90
  -7  -3  -2    7.80    1.72
   7   3   2    9.08    2.25
  -8  -3  -2    0.06    1.38
  -8  -3  -2    0.43    1.27
   8   3   2    0.33    1.54
   7  -4  -2    8.55    2.21
   7  -4  -2    5.26    1.59
  -7   4   2    8.51    1.68
  -7   4   2    8.01    1.81
   6  -4  -2    2.21    1.22
   6  -4  -2    2.35    1.12
   6  -4  -2    1.77    1.27
  -6   4   2    0.19    1.07
  -6   4   2    1.06    1.14
   5  -4  -2   36.43    3.10
   5  -4  -2   38.95    3.32
   5  -4  -2   32.91    3.27
  -5   4   2   41.86    3.27
  -5   4   2   40.18    3.21
  -5   4   2   38.22    2.94
   4  -4  -2    1.90    1.11
   4  -4  -2    3.70    1.07
   4  -4  -2    2.95    0.98
   4  -4  -2    3.46    0.83
  -4   4   2    5.62    1.52
  -4   4   2    4.55    1.00
  -4   4   2    5.65    0.75
  -4   4   2    5.46    0.97
  -4   4   2    4.67    1.42
  -4   4   2    4.54    1.02
   3  -4  -2  128.36    8.26
   3  -4  -2  135.06    8.88
   3  -4  -2  124.24    8.24
   3  -4  -2  123.03    7.91
   3  -4  -2  128.43    8.28
  -3   4   2  119.85    8.11
  -3   4   2  114.59    8.12
  -3   4   2  118.98    8.67
  -3   4   2  119.43    7.98
   2  -4  -2   61.90    4.31
   2  -4  -2   59.59    4.21
   2  -4  -2   59.30    4.68
   2  -4  -2   59.21    4.26
  -2   4   2   60.37    4.66
  -2   4   2   60.33    4.21
  -2   4   2   62.04    4.14
   1  -4  -2   54.26    3.59
   1  -4  -2   53.79    3.64
   1  -4  -2   54.83    3.76
   1  -4  -2   52.60    3.73
  -1   4   2   54.03    4.12
  -1   4   2   52.48    3.43
  -1   4   2   50.03    3.68
  -1   4   2   52.50    3.71
   0  -4  -2  153.60   10.69
   0  -4  -2  158.26   10.65
   0  -4  -2  152.57   10.69
   0  -4  -2  155.84   10.56
   0   4   2  181.37   10.50
   0   4   2  182.27   10.49
   0   4   2  184.85   10.79
  -1  -4  -2   51.05    2.93
  -1  -4  -2   48.75    3.12
  -1  -4  -2   51.28    3.28
  -1  -4  -2   51.37    3.34
   1   4   2   42.81    3.32
   1   4   2   42.95    3.47
   1   4   2   42.42    3.18
   1   4   2   45.59    2.98
   1   4   2   42.02    3.18
  -2  -4  -2   15.01    1.51
  -2  -4  -2   16.84    1.84
  -2  -4  -2   15.22    1.37
  -2  -4  -2   14.62    1.55
   2   4   2   18.14    1.60
   2   4   2   21.54    1.88
   2   4   2   21.62    1.66
   2   4   2   19.76    1.67
  -3  -4  -2   87.93    5.18
  -3  -4  -2   86.81    5.72
  -3  -4  -2   81.93    5.29
  -3  -4  -2   81.78    5.29
  -3  -4  -2   82.15    5.23
   3   4   2   69.18    5.20
   3   4   2   66.66    5.55
   3   4   2   68.06    5.36
   3   4   2   67.88    5.34
  -4  -4  -2    4.84    0.99
  -4  -4  -2    3.47    1.14
  -4  -4  -2    5.10    1.03
  -4  -4  -2    4.25    0.90
   4   4   2    5.94    1.36
   4   4   2    6.56    1.02
   4   4   2    4.01    1.10
   4   4   2    5.65    1.25
   4   4   2    5.29    1.29
  -5  -4  -2   13.95    1.57
  -5  -4  -2   11.28    2.09
  -5  -4  -2   14.23    1.58
  -5  -4  -2   15.46    1.75
  -5  -4  -2   12.68    1.55
   5   4   2   11.42    1.91
   5   4   2    9.03    1.78
   5   4   2   11.10    1.88
   5   4   2   10.65    2.01
   5   4   2   11.83    1.39
  -6  -4  -2   22.61    2.30
  -6  -4  -2   21.66    2.44
  -6  -4  -2   24.36    2.60
  -6  -4  -2   23.22    2.30
   6   4   2   23.68    2.88
   6   4   2   24.53    2.84
  -7  -4  -2    2.87    1.40
  -7  -4  -2    2.52    1.35
  -7  -4  -2    2.27    1.04
   7   4   2    5.27    1.86
  -8  -4  -2    7.52    1.95
  -8  -4  -2    7.29    1.96
   8   4   2    6.83    2.29
   7  -5  -2    3.47    1.93
   7  -5  -2    5.12    1.65
  -7   5   2    2.48    1.43
  -7   5   2    1.80    1.28
   6  -5  -2   33.51    3.53
   6  -5  -2   36.32    3.52
  -6   5   2   37.86    3.51
  -6   5   2   36.88    3.34
   5  -5  -2   19.62    2.29
   5  -5  -2   21.86    2.29
   5  -5  -2   19.16    2.09
  -5   5   2   15.62    2.05
  -5   5   2   17.14    1.88
  -5   5   2   15.48    2.15
   4  -5  -2   79.97    5.05
   4  -5  -2   84.73    5.56
   4  -5  -2   79.82    5.45
  -4   5   2   66.88    5.26
  -4   5   2   71.03    5.20
  -4   5   2   71.98    4.98
  -4   5   2   67.08    5.88
  -4   5   2   70.96    6.00
  -4   5   2   68.44    5.24
   3  -5  -2   72.80    5.50
   3  -5  -2   74.31    5.55
   3  -5  -2   78.19    5.58
   3  -5  -2   74.47    6.10
  -3   5   2   83.65    5.47
  -3   5   2   81.25    5.50
  -3   5   2   82.17    6.14
  -3   5   2   80.37    5.32
   2  -5  -2   76.24    4.86
   2  -5  -2   75.48    4.88
   2  -5  -2   75.61    4.92
   2  -5  -2   78.42    5.47
  -2   5   2   54.17    4.65
  -2   5   2   57.60    4.75
   1  -5  -2  216.21   12.46
   1  -5  -2  204.46   12.90
   1  -5  -2  219.23   12.94
   1  -5  -2  210.71   12.81
  -1   5   2  184.51   13.27
  -1   5   2  184.26   12.83
  -1   5   2  193.30   12.45
  -1   5   2  190.60   12.86
   0  -5  -2   84.20    6.47
   0  -5  -2   86.59    6.35
   0  -5  -2   92.06    6.53
   0  -5  -2   85.92    6.42
   0   5   2  106.31    6.99
   0   5   2  107.78    6.62
   0   5   2  105.94    6.28
   0   5   2  104.72    6.54
   0   5   2  106.17    6.22
  -1  -5  -2   85.50    5.60
  -1  -5  -2   85.78    5.46
  -1  -5  -2   87.32    5.65
   1   5   2   82.91    5.58
   1   5   2   79.49    5.67
   1   5   2   82.94    5.96
   1   5   2   81.28    5.47
   1   5   2   82.89    5.54
  -2  -5  -2   78.33    5.78
  -2  -5  -2   87.31    5.89
  -2  -5  -2   84.08    5.68
  -2  -5  -2   85.29    6.22
   2   5   2   88.91    5.91
   2   5   2   90.10    5.86
   2   5   2   87.35    5.91
   2   5   2   91.02    6.25
  -3  -5  -2   88.81    6.25
  -3  -5  -2   86.75    6.08
  -3  -5  -2   90.66    6.67
  -3  -5  -2   83.48    6.17
   3   5   2   94.34    6.40
   3   5   2   97.57    6.73
   3   5   2   92.50    6.34
   3   5   2   99.07    6.34
  -4  -5  -2   47.70    3.94
  -4  -5  -2   47.06    3.35
  -4  -5  -2   49.41    3.38
  -4  -5  -2   48.35    3.28
   4   5   2   38.35    3.70
   4   5   2   39.46    2.93
   4   5   2   38.59    3.49
   4   5   2   37.43    3.21
   4   5   2   39.91    3.64
   4   5   2   36.78    3.43
  -5  -5  -2    5.90    1.26
  -5  -5  -2    8.27    1.40
  -5  -5  -2    7.77    1.28
  -5  -5  -2    5.61    1.63
   5   5   2    3.64    1.00
   5   5   2    3.34    1.25
   5   5   2    2.80    1.27
  -6  -5  -2   13.58    1.89
  -6  -5  -2   13.99    2.02
  -6  -5  -2   13.40    1.99
   6   5   2   15.72    2.51
  -7  -5  -2   20.30    2.54
  -7  -5  -2   17.50    2.45
  -7  -5  -2   19.17    2.58
   7   5   2   16.98    2.91
  -8  -5  -2    3.65    1.65
   8   5   2    5.29    2.10
   7  -6  -2   12.86    2.53
   7  -6  -2    9.12    2.14
  -7   6   2    8.73    2.04
  -7   6   2    7.05    1.88
   6  -6  -2    2.99    1.63
   6  -6  -2    1.96    1.42
  -6   6   2    2.87    1.39
  -6   6   2    3.81    1.48
   5  -6  -2   22.06    2.50
   5  -6  -2   21.93    2.60
  -5   6   2   18.19    2.28
  -5   6   2   19.73    2.27
  -5   6   2   16.42    2.05
   4  -6  -2   35.47    2.95
   4  -6  -2   36.29    2.99
   4  -6  -2   34.37    2.96
  -4   6   2   25.18    2.63
  -4   6   2   25.83    2.62
  -4   6   2   26.62    2.35
   3  -6  -2   45.88    4.18
   3  -6  -2   47.82    3.66
   3  -6  -2   46.50    3.58
   3  -6  -2   49.91    3.62
  -3   6   2   37.88    3.40
  -3   6   2   44.07    4.12
  -3   6   2   43.01    3.48
  -3   6   2   42.72    3.34
   2  -6  -2   32.49    2.95
   2  -6  -2   35.59    2.99
   2  -6  -2   28.91    2.92
  -2   6   2   39.08    2.42
  -2   6   2   38.52    2.99
  -2   6   2   39.55    3.62
  -2   6   2   40.11    2.42
  -2   6   2   42.10    2.98
  -2   6   2   35.13    2.95
   1  -6  -2   20.30    1.97
   1  -6  -2   19.85    2.01
   1  -6  -2   19.60    1.90
  -1   6   2   22.80    2.44
  -1   6   2   24.62    2.05
  -1   6   2   23.80    2.02
   0  -6  -2  112.95    7.27
   0  -6  -2  113.86    7.12
   0  -6  -2  109.51    7.23
   0  -6  -2  113.10    7.18
   0   6   2  103.22    6.92
   0   6   2  103.85    7.25
   0   6   2  102.32    7.18
   0   6   2  107.47    6.80
   0   6   2  104.06    7.64
  -1  -6  -2   20.18    1.77
  -1  -6  -2   18.96    1.66
  -1  -6  -2   18.53    1.51
   1   6   2   15.83    1.40
   1   6   2   16.29    1.49
   1   6   2   15.98    1.60
   1   6   2   13.86    1.86
   1   6   2   13.84    1.65
  -2  -6  -2   71.42    4.75
  -2  -6  -2   63.78    4.75
  -2  -6  -2   65.86    4.63
  -2  -6  -2   63.10    4.81
   2   6   2   69.49    5.27
   2   6   2   72.78    4.77
   2   6   2   71.55    4.79
   2   6   2   68.78    4.84
   2   6   2   70.05    4.93
  -3  -6  -2   23.72    1.87
  -3  -6  -2   22.92    2.02
  -3  -6  -2   24.30    2.49
  -3  -6  -2   23.39    2.08
   3   6   2   18.73    2.00
   3   6   2   19.57    1.78
   3   6   2   17.49    1.96
   3   6   2   18.45    2.37
   3   6   2   19.65    2.14
  -4  -6  -2   69.77    5.27
  -4  -6  -2   67.88    5.26
  -4  -6  -2   75.23    5.20
  -4  -6  -2   75.90    5.99
   4   6   2   73.71    5.71
   4   6   2   72.43    5.88
   4   6   2   78.04    5.61
   4   6   2   77.28    5.39
   4   6   2   74.03    4.98
  -5  -6  -2   34.61    2.99
  -5  -6  -2   32.65    3.02
  -5  -6  -2   31.97    2.87
   5   6   2   32.04    3.27
   5   6   2   34.51    3.32
   5   6   2   32.13    2.87
  -6  -6  -2   20.67    2.24
  -6  -6  -2   22.72    2.41
  -6  -6  -2   22.10    2.44
   6   6   2   16.45    2.69
  -7  -6  -2   11.78    1.99
  -7  -6  -2    9.83    2.03
  -7  -6  -2   11.52    1.95
   7   6   2   14.22    2.65
   7  -7  -2    2.12    1.94
   7  -7  -2    2.30    1.60
  -7   7   2    1.65    1.39
  -7   7   2    1.05    1.42
   6  -7  -2   11.57    2.35
   6  -7  -2    9.62    2.12
  -6   7   2   11.46    2.14
  -6   7   2   12.28    2.09
  -6   7   2    8.22    1.73
   5  -7  -2    6.61    1.76
   5  -7  -2    7.00    1.89
  -5   7   2   14.48    2.02
  -5   7   2   12.87    2.05
  -5   7   2   13.09    1.82
   4  -7  -2    3.13    1.23
   4  -7  -2    1.34    1.12
   4  -7  -2    2.67    1.13
  -4   7   2    3.21    0.90
  -4   7   2    2.53    1.15
  -4   7   2    2.35    1.06
   3  -7  -2   41.60    3.29
   3  -7  -2   41.01    3.28
   3  -7  -2   43.96    3.39
  -3   7   2   33.42    2.99
  -3   7   2   33.76    3.11
  -3   7   2   34.47    3.14
   2  -7  -2   34.11    2.99
   2  -7  -2   35.68    3.05
   2  -7  -2   33.22    3.08
  -2   7   2   38.78    3.08
  -2   7   2   40.70    3.10
  -2   7   2   37.53    3.67
  -2   7   2   39.15    3.12
   1  -7  -2   57.54    4.28
   1  -7  -2   59.58    4.33
   1  -7  -2   58.87    4.19
  -1   7   2   55.62    4.28
  -1   7   2   53.49    4.27
  -1   7   2   62.32    5.01
   0  -7  -2   66.49    4.74
   0  -7  -2   70.20    4.80
   0  -7  -2   70.03    4.65
   0  -7  -2   68.00    4.69
   0   7   2   59.78    4.75
   0   7   2   66.77    5.30
   0   7   2   64.31    5.23
   0   7   2   60.54    4.69
  -1  -7  -2  127.24    8.94
  -1  -7  -2  127.31    9.02
  -1  -7  -2  126.40    8.85
  -1  -7  -2  123.51    9.01
   1   7   2  142.47    9.18
   1   7   2  135.48    8.97
   1   7   2  149.86    9.67
   1   7   2  147.72    9.60
   1   7   2  144.54    8.92
  -2  -7  -2   49.45    3.42
  -2  -7  -2   49.87    3.57
  -2  -7  -2   52.34    3.39
  -2  -7  -2   54.07    3.00
   2   7   2   36.38    3.40
   2   7   2   35.68    3.28
   2   7   2   38.08    3.86
   2   7   2   42.35    3.61
  -3  -7  -2   61.54    5.30
  -3  -7  -2   56.67    4.62
  -3  -7  -2   60.32    4.56
  -3  -7  -2   58.90    4.72
   3   7   2   68.95    4.54
   3   7   2   70.93    4.91
   3   7   2   68.47    4.89
   3   7   2   68.70    5.32
  -4  -7  -2    1.83    1.05
  -4  -7  -2    1.16    0.79
  -4  -7  -2    1.65    1.31
  -4  -7  -2    2.34    1.02
   4   7   2    6.42    1.30
   4   7   2    5.48    1.33
  -5  -7  -2   20.63    2.33
  -5  -7  -2   18.92    2.14
  -5  -7  -2   19.85    2.22
   5   7   2   17.61    2.22
   5   7   2   19.21    2.51
  -6  -7  -2    6.23    1.49
  -6  -7  -2    5.49    1.52
  -6  -7  -2    4.83    1.47
   6   7   2    4.88    1.74
  -7  -7  -2   23.38    2.91
  -7  -7  -2   22.29    2.57
   7   7   2   15.88    2.94
   6  -8  -2    6.01    1.93
   6  -8  -2    8.65    2.18
  -6   8   2    5.64    1.68
  -6   8   2    5.39    1.75
  -6   8   2    5.35    1.57
   5  -8  -2   32.29    3.40
   5  -8  -2   27.14    3.34
  -5   8   2   31.57    3.12
  -5   8   2   28.58    2.91
  -5   8   2   33.11    3.43
   4  -8  -2   19.21    2.52
   4  -8  -2   18.09    2.38
   4  -8  -2   19.84    2.54
  -4   8   2   22.37    2.43
  -4   8   2   25.30    2.64
  -4   8   2   23.34    2.95
   3  -8  -2   15.23    2.24
   3  -8  -2   14.45    2.13
   3  -8  -2   16.36    2.07
  -3   8   2   18.16    1.97
  -3   8   2   18.32    2.09
  -3   8   2   17.61    2.07
   2  -8  -2   60.71    4.88
   2  -8  -2   61.16    4.97
   2  -8  -2   62.13    4.91
  -2   8   2   69.98    4.94
  -2   8   2   71.01    4.99
  -2   8   2   70.73    5.00
   1  -8  -2   49.85    3.78
   1  -8  -2   48.13    3.58
   1  -8  -2   52.15    3.77
  -1   8   2   40.50    3.62
  -1   8   2   44.24    4.23
  -1   8   2   41.80    3.69
   0  -8  -2   84.99    6.10
   0  -8  -2   83.27    6.16
   0  -8  -2   90.24    6.24
   0  -8  -2   85.49    6.06
   0   8   2   90.70    6.38
   0   8   2   90.37    6.79
   0   8   2   86.38    6.19
   0   8   2   90.46    6.85
  -1  -8  -2   21.85    2.00
  -1  -8  -2   20.70    2.05
  -1  -8  -2   19.57    2.05
  -1  -8  -2   19.22    1.84
   1   8   2   20.22    2.17
   1   8   2   18.27    2.31
   1   8   2   16.44    1.73
   1   8   2   16.60    2.35
   1   8   2   16.86    1.92
  -2  -8  -2   95.73    6.51
  -2  -8  -2   92.16    6.44
  -2  -8  -2   93.89    6.66
   2   8   2   96.44    6.57
   2   8   2  100.82    7.21
   2   8   2   96.20    6.80
   2   8   2   91.73    7.16
   2   8   2   92.49    6.59
  -3  -8  -2   54.40    3.97
  -3  -8  -2   55.73    4.29
   3   8   2   51.85    4.33
   3   8   2   53.45    3.99
   3   8   2   50.60    4.20
  -4  -8  -2   45.58    3.94
  -4  -8  -2   47.12    3.86
  -4  -8  -2   45.58    3.74
   4   8   2   49.18    4.19
   4   8   2   48.03    3.56
   4   8   2   50.16    4.10
  -5  -8  -2   20.91    2.31
  -5  -8  -2   22.76    2.51
  -5  -8  -2   19.96    2.58
   5   8   2   25.65    2.68
   5   8   2   22.43    2.96
  -6  -8  -2    7.16    1.84
  -6  -8  -2    5.16    1.62
   6   8   2    6.85    2.01
  -7  -8  -2    6.97    1.84
  -7  -8  -2    7.43    1.76
   7   8   2    8.53    2.47
   6  -9  -2   13.36    2.63
   6  -9  -2   12.49    2.63
  -6   9   2   16.94    2.54
  -6   9   2   13.55    2.42
  -6   9   2   18.08    2.76
   5  -9  -2   16.21    2.62
   5  -9  -2   16.90    2.74
  -5   9   2   15.34    2.46
  -5   9   2   13.62    2.42
  -5   9   2   13.98    2.25
   4  -9  -2   17.91    2.68
   4  -9  -2   19.56    2.47
   4  -9  -2   22.29    2.91
  -4   9   2   19.06    2.60
  -4   9   2   18.71    2.54
   3  -9  -2   34.16    3.42
   3  -9  -2   33.39    3.17
   3  -9  -2   34.19    3.24
  -3   9   2   29.53    3.20
  -3   9   2   30.88    3.09
  -3   9   2   32.10    3.02
   2  -9  -2   24.36    2.64
   2  -9  -2   26.47    2.52
   2  -9  -2   25.85    2.60
  -2   9   2   22.57    2.47
  -2   9   2   20.03    2.43
  -2   9   2   20.99    2.44
   1  -9  -2   38.98    3.51
   1  -9  -2   46.05    3.69
   1  -9  -2   40.90    3.62
   1  -9  -2   40.60    3.46
  -1   9   2   44.95    3.66
  -1   9   2   50.40    3.86
   0  -9  -2   57.05    4.09
   0  -9  -2   52.21    4.02
   0  -9  -2   54.00    3.94
   0  -9  -2   52.53    4.03
   0   9   2   44.20    4.45
   0   9   2   46.40    3.96
   0   9   2   43.23    4.00
  -1  -9  -2  138.30    9.20
  -1  -9  -2  134.91    9.30
  -1  -9  -2  137.52    9.41
  -1  -9  -2  145.49    9.47
   1   9   2  143.63   10.06
   1   9   2  136.28    9.31
   1   9   2  135.70    9.15
   1   9   2  132.25    9.48
  -2  -9  -2    9.60    1.77
  -2  -9  -2    9.35    1.56
   2   9   2   16.46    1.83
   2   9   2   15.33    2.25
   2   9   2   16.70    1.87
   2   9   2   15.74    2.03
  -3  -9  -2   49.14    4.04
  -3  -9  -2   51.49    3.84
   3   9   2   46.19    4.01
   3   9   2   46.23    4.12
   3   9   2   48.73    3.81
  -4  -9  -2   37.93    3.25
  -4  -9  -2   37.26    3.51
   4   9   2   39.85    3.18
   4   9   2   43.99    3.84
   4   9   2   37.29    3.70
  -5  -9  -2    4.90    1.49
  -5  -9  -2    6.25    1.71
   5   9   2    7.48    1.82
   5   9   2    9.90    2.13
  -6  -9  -2   22.67    2.94
  -6  -9  -2   20.99    2.90
   6   9   2   23.30    2.82
   6   9   2   23.30    3.46
   5 -10  -2   22.44    3.23
   5 -10  -2   18.99    3.10
  -5  10   2   20.22    2.94
  -5  10   2   20.90    2.94
  -5  10   2   24.53    3.31
   4 -10  -2    8.57    1.94
   4 -10  -2    8.83    2.23
   4 -10  -2    7.42    1.79
  -4  10   2   12.19    2.11
  -4  10   2   13.52    2.34
   3 -10  -2   11.62    1.85
   3 -10  -2   15.58    2.48
   3 -10  -2   14.91    2.36
   3 -10  -2   12.96    2.10
  -3  10   2   13.47    2.28
  -3  10   2   13.31    2.17
  -3  10   2   12.02    2.04
   2 -10  -2   29.63    2.67
   2 -10  -2   29.65    2.98
   2 -10  -2   28.55    2.81
   2 -10  -2   25.72    3.00
  -2  10   2   26.11    2.83
  -2  10   2   28.04    2.97
  -2  10   2   23.03    2.79
   1 -10  -2    1.77    1.23
   1 -10  -2    2.92    1.17
   1 -10  -2    2.90    1.21
   1 -10  -2    2.86    1.12
  -1  10   2    9.73    1.65
   0 -10  -2   18.38    2.16
   0 -10  -2   16.92    2.06
   0 -10  -2   18.03    2.13
   0 -10  -2   17.37    2.27
   0  10   2   13.22    2.05
   0  10   2   14.30    2.23
  -1 -10  -2   16.33    2.21
  -1 -10  -2   15.42    1.90
  -1 -10  -2   13.83    2.03
  -1 -10  -2   14.99    1.96
   1  10   2   13.30    2.15
   1  10   2   14.65    2.03
   1  10   2   13.45    1.73
  -2 -10  -2   29.73    2.96
  -2 -10  -2   30.78    3.04
  -2 -10  -2   31.51    2.87
  -2 -10  -2   31.61    2.84
   2  10   2   29.45    3.29
   2  10   2   34.25    2.94
   2  10   2   31.16    2.90
   2  10   2   33.08    3.61
  -3 -10  -2   15.83    2.39
  -3 -10  -2   15.27    1.96
   3  10   2   18.32    2.29
   3  10   2   15.73    2.02
   3  10   2   19.07    2.47
  -4 -10  -2    3.18    1.41
   4  10   2    5.84    1.76
   4  10   2    4.42    1.49
  -5 -10  -2   15.59    2.52
   5  10   2   16.46    2.51
   5  10   2   16.47    2.70
  -6 -10  -2    3.48    1.57
  -6 -10  -2    5.89    1.93
   6  10   2    3.11    1.75
   6  10   2    4.35    1.62
   4 -11  -2   19.91    2.96
   4 -11  -2   19.11    3.18
   4 -11  -2   18.25    2.94
  -4  11   2   24.82    3.08
  -4  11   2   23.15    3.07
   3 -11  -2    2.09    1.53
   3 -11  -2    4.06    1.48
   3 -11  -2    2.90    1.30
   3 -11  -2    1.79    1.66
  -3  11   2    4.19    1.48
  -3  11   2    4.19    1.75
  -3  11   2    4.73    1.74
   2 -11  -2   16.77    2.48
   2 -11  -2   15.47    2.60
   2 -11  -2   14.97    2.22
   2 -11  -2   17.34    2.44
  -2  11   2   16.29    2.50
  -2  11   2   16.52    2.50
  -2  11   2   16.22    2.40
   1 -11  -2   35.60    3.51
   1 -11  -2   34.66    3.45
   1 -11  -2   36.27    3.49
   1 -11  -2   36.05    3.48
  -1  11   2   35.36    3.46
  -1  11   2   35.98    3.60
  -1  11   2   39.25    3.74
   0 -11  -2    2.04    1.25
   0 -11  -2    2.06    1.33
   0 -11  -2    2.38    1.20
   0  11   2    6.47    1.77
   0  11   2    6.24    1.62
  -1 -11  -2    5.89    1.48
  -1 -11  -2    6.64    1.62
  -1 -11  -2    3.99    1.43
  -1 -11  -2    5.80    1.37
   1  11   2    3.35    1.30
   1  11   2    4.29    1.60
  -2 -11  -2   16.13    2.44
  -2 -11  -2   15.76    2.08
  -2 -11  -2   19.53    2.34
  -2 -11  -2   15.34    2.18
   2  11   2   20.35    2.85
   2  11   2   18.92    2.36
   2  11   2   16.02    2.15
  -3 -11  -2    5.72    1.69
   3  11   2    9.96    1.82
   3  11   2    9.49    1.66
   3  11   2    7.88    1.99
  -4 -11  -2   38.20    3.74
   4  11   2   37.18    3.76
   4  11   2   33.55    3.88
  -5 -11  -2    8.22    2.12
   5  11   2   11.99    2.32
   5  11   2   10.31    2.36
   4 -12  -2   13.69    2.55
   4 -12  -2   12.89    2.49
   4 -12  -2   12.08    2.63
  -4  12   2    6.63    2.13
  -4  12   2    7.07    1.99
   3 -12  -2    8.55    2.07
   3 -12  -2    9.45    2.16
   3 -12  -2    7.28    2.17
  -3  12   2   12.01    2.32
  -3  12   2   13.13    2.26
  -3  12   2   13.18    2.37
   2 -12  -2   14.89    2.35
   2 -12  -2   13.87    2.43
   2 -12  -2   12.28    2.53
   2 -12  -2   14.93    2.36
  -2  12   2   13.93    2.34
  -2  12   2   12.55    2.29
  -2  12   2   14.63    2.59
   1 -12  -2   24.31    2.83
   1 -12  -2   23.08    2.88
   1 -12  -2   19.23    2.92
   1 -12  -2   21.87    2.74
  -1  12   2   25.06    2.98
  -1  12   2   24.22    2.94
  -1  12   2   22.71    2.96
   0 -12  -2   32.03    3.27
   0 -12  -2   31.08    3.36
   0 -12  -2   35.65    3.41
   0  12   2   36.13    3.29
   0  12   2   28.69    3.31
   0  12   2   34.89    3.64
  -1 -12  -2   23.79    2.94
  -1 -12  -2   23.11    2.75
  -1 -12  -2   22.32    2.68
  -1 -12  -2   24.85    3.11
   1  12   2   25.75    2.85
   1  12   2   25.80    3.31
  -2 -12  -2   12.68    2.23
  -2 -12  -2   12.03    2.03
  -2 -12  -2   12.08    2.17
   2  12   2   14.43    2.24
   2  12   2   10.21    2.38
  -3 -12  -2    7.08    1.80
  -3 -12  -2    4.64    1.79
   3  12   2    9.18    1.84
   3  12   2    7.78    2.08
  -4 -12  -2   16.00    2.64
   4  12   2   17.73    2.85
   4  12   2   16.12    2.62
  -5 -12  -2   12.70    2.61
   5  12   2   11.17    2.46
   5  12   2   12.89    2.52
   2 -13  -2    1.34    1.48
   2 -13  -2    1.11    1.59
   2 -13  -2    1.32    1.43
   2 -13  -2    1.84    1.60
  -2  13   2    1.49    1.59
  -2  13   2    3.59    1.80
  -2  13   2    3.63    1.73
   1 -13  -2   19.39    2.79
   1 -13  -2   19.88    2.81
   1 -13  -2   18.90    2.74
   1 -13  -2   21.20    3.15
  -1  13   2   23.73    3.20
  -1  13   2   22.19    3.13
  -1  13   2   20.32    2.85
   0 -13  -2    1.65    1.39
   0 -13  -2    1.73    1.46
   0 -13  -2    1.15    1.41
   0 -13  -2    1.54    1.48
   0  13   2    4.91    1.63
   0  13   2    6.07    1.90
   0  13   2    5.42    1.98
  -1 -13  -2   20.31    2.57
  -1 -13  -2   23.63    2.92
  -1 -13  -2   22.14    3.00
   1  13   2   18.65    2.77
   1  13   2   19.07    3.07
  -2 -13  -2   16.54    2.66
  -2 -13  -2   14.01    2.58
   2  13   2   13.37    2.41
   2  13   2   13.54    2.77
  -3 -13  -2    7.98    2.10
  -3 -13  -2    9.52    2.07
   3  13   2    5.48    2.20
   3  13   2    4.08    1.59
  -4 -13  -2    2.07    1.62
  -4 -13  -2    0.55    1.58
   4  13   2    0.50    1.51
   1 -14  -2    0.85    1.48
   1 -14  -2    2.41    1.70
   1 -14  -2    2.58    1.62
   1 -14  -2    3.65    1.87
  -1  14   2    0.02    1.52
  -1  14   2    1.57    1.71
   0 -14  -2   18.69    2.97
   0 -14  -2   19.79    3.17
   0 -14  -2   23.82    3.07
   0 -14  -2   21.62    2.89
   0  14   2   23.49    3.30
   0  14   2   24.31    3.12
   0  14   2   27.10    3.47
  -1 -14  -2    1.25    1.40
  -1 -14  -2   -0.04    1.40
  -1 -14  -2    0.11    1.35
   1  14   2   -0.08    1.15
   1  14   2    1.28    1.68
   1  14   2    2.44    1.74
  -2 -14  -2    9.91    2.40
  -2 -14  -2   10.95    2.35
   2  14   2    9.39    2.17
   2  14   2   11.46    2.75
   3  13  -3   22.06    3.34
  -3 -13   3   17.83    3.07
  -3 -13   3   19.19    3.07
   2  13  -3    3.62    1.88
   2  13  -3    2.49    1.33
  -2 -13   3    4.01    1.84
   1  13  -3   38.82    3.71
   1  13  -3   35.82    4.10
  -1 -13   3   32.73    3.85
   0  13  -3   15.33    2.60
   0  13  -3   14.96    2.65
   0 -13   3   11.39    2.18
   0 -13   3   11.58    2.62
  -1  13  -3   14.89    2.21
  -1  13  -3   12.09    2.47
  -1  13  -3   11.94    2.41
   1 -13   3   15.27    2.88
   1 -13   3   10.89    2.29
   1 -13   3   12.10    2.66
  -2  13  -3   11.24    2.55
  -2  13  -3   13.09    2.38
  -2  13  -3   10.24    2.14
   2 -13   3   12.78    2.60
   2 -13   3   10.05    2.60
   4  12  -3    5.01    2.10
   4  12  -3    4.11    1.91
  -4 -12   3    4.02    1.86
  -4 -12   3    1.92    1.51
   3  12  -3   12.94    2.62
  -3 -12   3   12.51    2.46
   2  12  -3   25.31    2.92
   2  12  -3   25.20    3.25
  -2 -12   3   29.78    3.52
   1  12  -3    4.49    1.52
   1  12  -3    5.14    1.76
  -1 -12   3    5.75    1.86
   0  12  -3   23.83    2.43
   0  12  -3   21.53    2.92
   0  12  -3   23.95    3.00
   0 -12   3   21.86    2.66
  -1  12  -3    2.84    1.52
  -1  12  -3    1.62    1.12
  -1  12  -3    2.82    1.47
   1 -12   3    5.69    1.86
   1 -12   3    4.03    1.58
  -2  12  -3   11.14    2.28
  -2  12  -3   13.03    2.18
  -2  12  -3    9.80    2.12
   2 -12   3   10.15    2.20
   2 -12   3   11.30    2.40
  -3  12  -3    5.38    1.56
  -3  12  -3    6.27    1.97
  -3  12  -3    5.57    1.84
  -3  12  -3    7.42    1.77
   3 -12   3    4.52    1.98
   3 -12   3    3.42    1.81
   5  11  -3   13.19    2.84
   5  11  -3   16.80    2.79
  -5 -11   3   13.67    2.47
  -5 -11   3   17.00    2.78
   4  11  -3    6.86    1.93
   4  11  -3    7.31    2.17
  -4 -11   3    7.95    1.88
  -4 -11   3    9.20    2.12
   3  11  -3   12.82    2.46
   3  11  -3   11.28    2.30
  -3 -11   3    6.25    2.13
   2  11  -3    3.75    1.67
   2  11  -3    5.34    1.37
  -2 -11   3    5.21    1.74
   1  11  -3   27.22    3.09
   1  11  -3   32.23    3.06
  -1 -11   3   25.96    2.67
  -1 -11   3   25.90    3.11
   0  11  -3   17.13    2.60
   0  11  -3   16.31    2.09
   0  11  -3   16.37    2.38
   0 -11   3   15.91    2.09
   0 -11   3   18.01    2.59
   0 -11   3   18.80    2.29
  -1  11  -3   24.21    2.33
  -1  11  -3   22.66    2.82
  -1  11  -3   21.82    2.77
   1 -11   3   21.22    2.81
   1 -11   3   20.33    2.63
   1 -11   3   17.27    2.25
  -2  11  -3   29.80    3.10
  -2  11  -3   29.77    3.19
  -2  11  -3   28.38    3.20
   2 -11   3   28.28    2.93
   2 -11   3   30.91    3.35
   2 -11   3   29.57    3.19
  -3  11  -3    3.45    1.72
  -3  11  -3    4.36    1.50
  -3  11  -3    5.66    1.56
   3 -11   3    8.71    2.18
   3 -11   3    8.93    2.05
   3 -11   3    9.70    1.90
  -4  11  -3   13.09    2.47
  -4  11  -3   13.83    2.16
  -4  11  -3   15.16    2.47
   4 -11   3   11.38    2.44
   4 -11   3   12.73    2.62
   6  10  -3    3.08    1.92
   6  10  -3    5.81    1.81
  -6 -10   3    5.51    1.69
  -6 -10   3    4.30    1.94
   5  10  -3   30.32    3.52
   5  10  -3   35.31    3.92
  -5 -10   3   33.59    3.42
  -5 -10   3   30.25    3.54
   4  10  -3   13.90    2.37
   4  10  -3   14.72    2.59
  -4 -10   3   11.27    1.89
  -4 -10   3    8.68    2.06
  -4 -10   3    9.41    1.89
   3  10  -3   39.66    3.23
   3  10  -3   37.37    3.90
   3  10  -3   35.67    3.67
  -3 -10   3   40.43    3.77
  -3 -10   3   40.51    3.42
   2  10  -3   22.30    2.59
   2  10  -3   24.95    2.38
  -2 -10   3   16.78    2.48
  -2 -10   3   16.99    1.91
  -2 -10   3   17.98    2.10
  -1 -10   3   13.81    1.83
  -1 -10   3   13.23    2.22
  -1 -10   3   15.15    2.39
  -1 -10   3   15.53    1.92
   0  10  -3   28.50    2.52
   0  10  -3   28.89    3.15
   0  10  -3   26.21    2.87
   0  10  -3   27.35    2.75
   0 -10   3   26.24    2.93
   0 -10   3   26.10    2.62
   0 -10   3   28.34    2.72
  -1  10  -3   28.04    2.97
  -1  10  -3   33.16    2.85
  -1  10  -3   27.30    2.97
   1 -10   3   32.37    3.07
   1 -10   3   29.76    2.86
   1 -10   3   33.83    3.38
  -2  10  -3    2.81    1.26
  -2  10  -3    1.83    1.19
  -2  10  -3    1.37    1.17
   2 -10   3    1.12    1.04
   2 -10   3    1.28    1.30
   2 -10   3    1.67    1.32
   2 -10   3    1.71    1.26
  -3  10  -3   58.64    4.74
  -3  10  -3   55.19    4.51
  -3  10  -3   51.79    4.34
   3 -10   3   53.58    4.78
   3 -10   3   56.35    4.61
   3 -10   3   47.81    4.63
  -4  10  -3    3.14    1.39
  -4  10  -3    2.59    1.57
  -4  10  -3    1.58    1.32
   4 -10   3    6.04    1.90
   4 -10   3    5.11    1.80
  -5  10  -3   10.59    2.19
  -5  10  -3    8.18    1.97
  -5  10  -3    9.81    2.09
   5 -10   3    9.70    2.56
   5 -10   3   11.17    2.48
   6   9  -3    1.23    1.60
   6   9  -3    2.19    1.35
  -6  -9   3    2.14    1.47
  -6  -9   3    0.76    1.42
  -6  -9   3    0.44    1.25
   5   9  -3    3.00    1.61
   5   9  -3    3.57    1.51
  -5  -9   3    5.31    1.67
  -5  -9   3    5.63    1.30
  -5  -9   3    2.81    1.33
  -5  -9   3    4.56    1.43
   4   9  -3   16.01    2.48
   4   9  -3   18.23    2.79
  -4  -9   3   26.94    2.64
  -4  -9   3   22.19    2.66
   3   9  -3   10.31    1.92
   3   9  -3   12.35    2.23
   3   9  -3   12.09    1.56
   2   9  -3   33.78    2.89
   2   9  -3   32.65    3.40
   2   9  -3   35.47    3.07
   2   9  -3   33.01    3.34
  -2  -9   3   41.71    2.90
  -2  -9   3   41.48    3.19
  -2  -9   3   41.89    3.54
   1   9  -3   46.79    3.65
   1   9  -3   48.24    3.92
   1   9  -3   49.17    3.86
   1   9  -3   48.48    3.34
  -1  -9   3   41.98    3.31
  -1  -9   3   40.17    3.41
  -1  -9   3   42.05    3.80
  -1  -9   3   42.52    3.53
   0   9  -3    1.75    1.09
   0   9  -3    1.59    1.01
   0   9  -3    1.13    0.92
   0   9  -3    1.87    0.83
   0  -9   3    3.55    0.78
   0  -9   3    3.91    1.07
   0  -9   3    4.66    1.12
   0  -9   3    5.93    1.52
  -1   9  -3    5.21    1.31
  -1   9  -3    4.45    1.44
  -1   9  -3    5.41    1.35
  -1   9  -3    3.99    1.07
   1  -9   3    6.14    0.98
   1  -9   3    5.99    1.34
   1  -9   3    4.95    1.56
   1  -9   3    6.32    1.35
   1  -9   3    4.70    1.40
  -2   9  -3   25.29    2.50
  -2   9  -3   26.66    2.71
  -2   9  -3   27.10    2.60
   2  -9   3   27.13    2.73
   2  -9   3   24.03    2.20
   2  -9   3   24.82    2.82
   2  -9   3   25.67    2.73
   2  -9   3   25.82    2.56
  -3   9  -3    2.07    1.22
  -3   9  -3    1.02    1.11
  -3   9  -3    2.29    1.00
  -3   9  -3    2.40    1.05
   3  -9   3    4.57    1.51
   3  -9   3    3.96    1.40
   3  -9   3    4.04    1.59
  -4   9  -3   17.63    2.29
  -4   9  -3   13.99    2.18
  -4   9  -3   14.33    2.22
   4  -9   3   14.81    2.29
   4  -9   3   14.93    2.55
   4  -9   3   15.06    2.49
  -5   9  -3    4.75    1.83
  -5   9  -3    4.55    1.53
  -5   9  -3    3.85    1.58
   5  -9   3    4.43    1.90
   5  -9   3    3.51    1.72
  -6   9  -3    5.21    1.78
  -6   9  -3    3.74    1.83
  -6   9  -3    5.26    1.77
   6  -9   3    5.18    2.21
   6  -9   3    5.47    2.21
   7   8  -3    4.56    2.05
  -7  -8   3    3.12    1.82
   6   8  -3    5.21    2.07
   6   8  -3    6.65    1.63
   6   8  -3    5.21    1.48
  -6  -8   3    5.48    1.91
  -6  -8   3    7.37    1.57
   5   8  -3   12.39    2.00
   5   8  -3   11.99    2.34
  -5  -8   3   11.38    1.99
  -5  -8   3    9.02    2.04
  -5  -8   3    9.04    1.58
  -5  -8   3   11.04    1.80
   4   8  -3   28.78    3.13
   4   8  -3   29.13    2.86
  -4  -8   3   28.40    2.49
  -4  -8   3   26.97    3.02
  -4  -8   3   28.31    2.78
   3   8  -3   22.29    2.03
   3   8  -3   25.69    2.15
   3   8  -3   24.59    2.68
   3   8  -3   25.86    2.72
   2   8  -3   45.14    3.41
   2   8  -3   41.73    3.72
   2   8  -3   45.50    3.01
   2   8  -3   40.06    3.22
   2   8  -3   48.14    3.36
   2   8  -3   44.68    3.69
  -2  -8   3   41.74    3.13
  -2  -8   3   41.91    3.48
  -2  -8   3   39.58    3.60
   1   8  -3   28.52    2.61
   1   8  -3   25.72    2.45
   1   8  -3   26.59    2.67
   1   8  -3   23.56    4.07
   1   8  -3   25.41    2.16
  -1  -8   3   29.95    2.38
  -1  -8   3   28.77    2.72
  -1  -8   3   30.17    2.52
  -1  -8   3   32.28    2.32
   0   8  -3   55.28    4.19
   0   8  -3   62.05    4.01
   0   8  -3   63.62    4.63
   0   8  -3   57.01    4.85
   0   8  -3   57.56    4.34
   0  -8   3   51.35    4.38
   0  -8   3   51.72    4.10
   0  -8   3   50.90    3.80
   0  -8   3   51.91    3.82
   0  -8   3   52.80    4.14
   0  -8   3   53.13    4.33
  -1   8  -3    5.60    1.46
  -1   8  -3    4.87    1.19
  -1   8  -3    5.14    1.21
  -1   8  -3    6.58    1.15
  -1   8  -3    5.99    1.81
   1  -8   3    5.15    1.29
   1  -8   3    7.10    1.64
   1  -8   3    5.29    0.88
   1  -8   3    6.36    1.27
   1  -8   3    6.69    0.86
   1  -8   3    5.83    1.27
  -2   8  -3   10.28    1.62
  -2   8  -3    8.41    1.45
  -2   8  -3   10.05    2.06
  -2   8  -3   10.70    1.61
   2  -8   3    5.61    1.43
   2  -8   3    8.25    1.69
   2  -8   3    7.06    1.45
   2  -8   3    7.97    1.13
   2  -8   3    7.25    1.49
  -3   8  -3   31.03    2.94
  -3   8  -3   32.03    2.87
  -3   8  -3   31.60    2.63
  -3   8  -3   31.38    2.69
   3  -8   3   27.70    2.94
   3  -8   3   28.08    2.97
   3  -8   3   25.91    2.77
  -4   8  -3    7.04    1.62
  -4   8  -3    9.10    1.64
  -4   8  -3    7.68    1.67
   4  -8   3   10.57    1.97
   4  -8   3    9.43    1.85
   4  -8   3    9.17    1.94
  -5   8  -3   11.30    2.05
  -5   8  -3    8.39    1.78
  -5   8  -3   10.28    1.73
   5  -8   3   10.31    2.22
   5  -8   3    9.19    2.12
  -6   8  -3    3.61    1.69
  -6   8  -3    2.86    1.43
  -6   8  -3    4.83    1.57
   6  -8   3    1.47    1.66
   6  -8   3    0.67    1.63
   7   7  -3   19.32    3.32
  -7  -7   3   18.50    2.98
  -7  -7   3   18.45    2.55
   6   7  -3    9.97    2.29
   6   7  -3   10.15    1.88
  -6  -7   3   10.43    2.11
  -6  -7   3    8.64    1.65
   5   7  -3   22.24    2.75
   5   7  -3   20.05    2.23
  -5  -7   3   17.52    2.04
  -5  -7   3   17.98    2.13
  -5  -7   3   19.19    2.48
   4   7  -3   95.17    6.93
   4   7  -3   86.81    6.50
   4   7  -3   95.28    6.18
  -4  -7   3   89.65    6.23
  -4  -7   3   85.75    6.60
  -4  -7   3   93.05    6.58
   3   7  -3   76.45    5.73
   3   7  -3   74.62    5.10
   3   7  -3   77.99    5.10
   3   7  -3   76.87    5.54
  -3  -7   3   72.52    5.52
  -3  -7   3   71.80    6.11
  -3  -7   3   72.64    5.09
  -3  -7   3   73.62    5.37
   2   7  -3   27.68    2.00
   2   7  -3   27.45    2.62
   2   7  -3   26.56    2.33
   2   7  -3   26.26    3.00
   2   7  -3   27.50    2.68
   2   7  -3   27.69    2.28
   2   7  -3   28.77    2.24
  -2  -7   3   32.55    2.74
  -2  -7   3   27.28    2.47
  -2  -7   3   29.25    2.14
  -2  -7   3   31.41    3.24
   1   7  -3   54.56    4.76
   1   7  -3   60.41    4.31
   1   7  -3   58.82    4.22
   1   7  -3   58.75    3.92
   1   7  -3   59.24    4.43
  -1  -7   3   57.06    4.39
  -1  -7   3   56.26    4.20
  -1  -7   3   55.63    3.93
  -1  -7   3   58.12    4.05
   0   7  -3   23.37    2.45
   0   7  -3   24.45    2.84
   0   7  -3   23.46    2.38
   0   7  -3   27.70    2.69
   0   7  -3   25.75    2.23
   0  -7   3   32.70    2.67
   0  -7   3   32.78    2.49
   0  -7   3   31.28    2.72
   0  -7   3   31.03    2.47
   0  -7   3   30.72    2.15
   0  -7   3   30.94    2.25
  -1   7  -3   96.38    7.09
  -1   7  -3   94.21    6.67
  -1   7  -3   90.27    6.46
  -1   7  -3   92.55    6.65
  -1   7  -3   95.32    7.29
   1  -7   3   98.66    6.30
   1  -7   3  103.01    7.16
   1  -7   3   96.32    6.30
   1  -7   3   97.49    6.79
   1  -7   3   94.03    6.62
   1  -7   3   99.06    6.69
  -2   7  -3   48.22    3.51
  -2   7  -3   51.38    3.42
  -2   7  -3   48.18    3.37
  -2   7  -3   47.77    4.08
   2  -7   3   36.92    3.36
   2  -7   3   38.28    2.95
   2  -7   3   36.52    3.86
   2  -7   3   39.01    3.51
   2  -7   3   36.04    3.38
   2  -7   3   38.48    3.37
  -3   7  -3    9.91    1.56
  -3   7  -3   10.02    1.38
  -3   7  -3   10.07    1.58
  -3   7  -3    9.14    1.32
   3  -7   3    4.53    1.26
   3  -7   3    5.40    1.38
   3  -7   3    5.67    1.48
   3  -7   3    5.37    0.96
  -4   7  -3   34.58    3.13
  -4   7  -3   32.22    2.80
  -4   7  -3   34.60    3.01
   4  -7   3   29.06    3.16
   4  -7   3   30.90    3.16
   4  -7   3   27.02    3.17
  -5   7  -3    8.28    1.77
  -5   7  -3   10.02    1.67
  -5   7  -3   10.19    1.85
   5  -7   3    7.33    1.89
   5  -7   3    9.97    2.04
  -6   7  -3   11.79    2.13
  -6   7  -3   12.14    2.05
  -6   7  -3   10.89    2.19
   6  -7   3   12.16    2.48
   6  -7   3   10.39    2.32
  -7   7  -3    5.97    1.83
  -7   7  -3   11.62    2.36
   7  -7   3    5.57    2.20
   7  -7   3    9.80    2.57
   7   6  -3    6.76    2.11
  -7  -6   3    7.48    2.05
  -7  -6   3    5.92    1.62
   6   6  -3   38.55    3.45
   6   6  -3   37.14    3.97
  -6  -6   3   41.86    3.90
  -6  -6   3   39.78    3.41
   5   6  -3   32.77    3.44
   5   6  -3   31.74    2.99
  -5  -6   3   36.36    3.35
  -5  -6   3   35.50    2.89
  -5  -6   3   34.21    2.89
   4   6  -3    8.36    1.20
   4   6  -3    9.24    1.55
   4   6  -3    9.68    1.82
   3   6  -3  144.66   10.06
   3   6  -3  142.68    8.97
   3   6  -3  145.37    9.09
   3   6  -3  145.60    9.41
   3   6  -3  141.86    9.57
  -3  -6   3  137.57   10.02
  -3  -6   3  133.24    9.02
  -3  -6   3  134.54    9.33
  -3  -6   3  129.06    9.36
   2   6  -3   42.51    3.63
   2   6  -3   43.13    2.92
   2   6  -3   40.03    2.85
   2   6  -3   41.23    2.71
   2   6  -3   40.17    3.16
   2   6  -3   41.36    3.28
   2   6  -3   41.29    2.53
  -2  -6   3   32.53    3.45
  -2  -6   3   28.77    2.99
  -2  -6   3   30.13    2.97
   1   6  -3   20.88    2.21
   1   6  -3   22.52    2.01
   1   6  -3   25.24    2.10
   1   6  -3   24.03    1.78
   1   6  -3   23.94    2.57
   1   6  -3   21.68    2.17
  -1  -6   3   26.91    1.93
  -1  -6   3   23.67    2.07
  -1  -6   3   23.36    2.18
   0   6  -3   84.98    5.76
   0   6  -3   82.55    5.64
   0   6  -3   86.09    5.36
   0   6  -3   82.88    5.55
   0   6  -3   81.75    6.04
   0  -6   3   76.92    5.20
   0  -6   3   78.23    5.37
   0  -6   3   75.82    5.49
   0  -6   3   76.95    5.45
   0  -6   3   79.02    5.73
   0  -6   3   77.88    5.63
  -1   6  -3   56.24    3.84
  -1   6  -3   52.21    4.13
  -1   6  -3   54.03    3.63
  -1   6  -3   55.45    3.82
   1  -6   3   47.99    4.08
   1  -6   3   49.77    3.75
   1  -6   3   49.07    3.50
   1  -6   3   48.13    3.85
   1  -6   3   47.37    3.72
   1  -6   3   47.79    3.41
  -2   6  -3   61.49    4.81
  -2   6  -3   64.72    4.87
  -2   6  -3   63.97    5.41
  -2   6  -3   63.98    4.99
   2  -6   3   72.69    5.51
   2  -6   3   75.97    5.08
   2  -6   3   72.63    5.04
   2  -6   3   72.87    5.08
   2  -6   3   72.44    4.70
   2  -6   3   73.46    5.15
  -3   6  -3  100.97    6.40
  -3   6  -3   93.95    6.59
  -3   6  -3  100.78    6.58
  -3   6  -3   97.08    6.39
  -3   6  -3  104.54    7.43
   3  -6   3   89.25    7.23
   3  -6   3   90.01    6.28
   3  -6   3   83.45    6.58
   3  -6   3   89.80    6.66
   3  -6   3   88.76    6.59
  -4   6  -3    1.72    0.93
  -4   6  -3    1.51    0.97
  -4   6  -3    1.49    0.87
   4  -6   3    5.27    1.47
   4  -6   3    4.09    1.28
   4  -6   3    5.61    1.08
   4  -6   3    6.21    1.43
  -5   6  -3    7.64    1.51
  -5   6  -3    7.49    1.43
  -5   6  -3    8.74    1.67
   5  -6   3    4.25    1.52
   5  -6   3    3.27    1.12
   5  -6   3    3.75    1.49
  -6   6  -3    6.98    1.75
  -6   6  -3    6.53    1.48
  -6   6  -3    7.03    1.73
   6  -6   3    8.83    2.04
   6  -6   3    5.71    1.81
  -7   6  -3    2.04    1.55
  -7   6  -3    3.02    1.64
   7  -6   3    2.13    1.65
   7  -6   3    1.75    1.74
   7   5  -3    3.62    1.67
  -7  -5   3    0.88    1.25
  -7  -5   3    0.59    1.33
   6   5  -3   36.86    3.19
   6   5  -3   32.00    3.53
  -6  -5   3   33.00    3.08
  -6  -5   3   33.28    3.42
   5   5  -3   17.14    2.41
   5   5  -3   14.96    1.72
   5   5  -3   15.00    1.59
  -5  -5   3    9.95    1.82
  -5  -5   3    9.14    1.40
  -5  -5   3    9.55    1.47
   4   5  -3   61.89    4.81
   4   5  -3   61.04    4.31
   4   5  -3   59.69    4.46
  -4  -5   3   58.32    4.25
  -4  -5   3   61.06    5.18
  -4  -5   3   60.00    4.65
   3   5  -3   14.78    1.62
   3   5  -3   14.63    1.49
   3   5  -3   14.55    1.26
   3   5  -3   16.24    2.26
   3   5  -3   14.00    1.81
  -3  -5   3   16.09    1.76
  -3  -5   3   15.08    2.09
  -3  -5   3   15.98    1.42
   2   5  -3   74.75    5.18
   2   5  -3   75.33    5.11
   2   5  -3   74.61    4.80
   2   5  -3   70.89    5.34
   2   5  -3   70.60    5.71
   2   5  -3   70.79    5.46
  -2  -5   3   78.16    5.42
  -2  -5   3   84.41    4.95
  -2  -5   3   82.88    5.07
  -2  -5   3   78.32    5.32
  -2  -5   3   84.04    5.90
   1   5  -3  143.71    9.54
   1   5  -3  147.02    9.38
   1   5  -3  148.32    9.14
   1   5  -3  141.84    9.83
   1   5  -3  150.22    9.36
   1   5  -3  149.95    9.64
  -1  -5   3  152.53    9.61
  -1  -5   3  141.79    9.25
  -1  -5   3  149.87    9.98
  -1  -5   3  134.76    9.43
  -1  -5   3  137.06    9.33
   0   5  -3   49.17    3.50
   0   5  -3   48.60    4.02
   0   5  -3   49.75    3.81
   0   5  -3   49.68    3.76
   0   5  -3   48.17    3.68
   0  -5   3   51.56    3.70
   0  -5   3   55.34    3.40
   0  -5   3   55.19    3.65
   0  -5   3   53.68    3.82
   0  -5   3   56.00    3.91
  -1   5  -3   -0.14    0.50
  -1   5  -3    0.02    0.58
  -1   5  -3    0.37    0.45
  -1   5  -3    0.49    0.53
   1  -5   3    1.59    0.67
   1  -5   3    1.42    0.63
   1  -5   3    1.94    0.83
   1  -5   3    1.59    0.52
   1  -5   3    2.16    0.76
   1  -5   3    1.71    0.40
   2  -5   3   11.98    1.54
   2  -5   3   11.31    1.39
   2  -5   3   11.15    1.73
   2  -5   3   12.53    1.45
   2  -5   3   11.65    1.48
   2  -5   3   11.65    1.21
  -3   5  -3   22.16    2.10
  -3   5  -3   21.93    2.27
  -3   5  -3   23.59    2.16
  -3   5  -3   23.96    2.32
  -3   5  -3   23.70    2.84
   3  -5   3   30.82    2.29
   3  -5   3   34.24    2.61
   3  -5   3   33.72    2.60
   3  -5   3   32.30    2.60
  -4   5  -3   65.91    4.78
  -4   5  -3   75.42    4.95
  -4   5  -3   67.32    4.95
   4  -5   3   66.94    5.10
   4  -5   3   60.48    5.02
   4  -5   3   63.53    4.80
   4  -5   3   65.09    5.02
  -5   5  -3    4.12    1.17
  -5   5  -3    3.60    1.02
  -5   5  -3    2.53    0.99
  -5   5  -3    2.73    1.19
   5  -5   3    6.39    1.56
   5  -5   3    5.09    1.54
   5  -5   3    6.50    1.34
  -6   5  -3   19.97    2.19
  -6   5  -3   15.69    2.26
  -6   5  -3   21.92    2.48
   6  -5   3   15.59    2.54
   6  -5   3   14.60    2.37
  -7   5  -3    7.01    1.90
  -7   5  -3    9.29    2.13
   7  -5   3    8.93    2.13
   7  -5   3    9.91    2.32
   8   4  -3   11.39    2.74
  -8  -4   3   11.80    2.13
  -8  -4   3   12.24    2.56
   7   4  -3   22.09    3.29
  -7  -4   3   23.27    2.51
  -7  -4   3   26.26    3.29
   6   4  -3    0.57    0.89
   6   4  -3    1.01    1.32
  -6  -4   3    2.02    1.04
  -6  -4   3    1.31    1.20
   5   4  -3   35.36    2.97
   5   4  -3   33.81    3.38
   5   4  -3   35.12    3.02
  -5  -4   3   37.07    3.43
  -5  -4   3   38.24    2.97
  -5  -4   3   39.14    2.81
   4   4  -3   20.37    1.89
   4   4  -3   18.06    2.19
   4   4  -3   18.96    2.49
   4   4  -3   19.85    1.96
   4   4  -3   19.08    2.02
  -4  -4   3   22.51    1.87
  -4  -4   3   22.92    1.86
  -4  -4   3   23.40    2.32
  -4  -4   3   22.24    2.61
   3   4  -3   25.49    2.43
   3   4  -3   25.44    1.83
   3   4  -3   25.72    2.11
   3   4  -3   24.72    2.67
   3   4  -3   21.99    2.14
  -3  -4   3   28.12    2.75
  -3  -4   3   27.36    2.35
  -3  -4   3   28.58    2.02
   2   4  -3  189.89   11.89
   2   4  -3  184.26   12.13
   2   4  -3  193.64   12.48
   2   4  -3  183.31   12.00
   2   4  -3  183.69   11.75
  -2  -4   3  182.87   12.40
  -2  -4   3  185.57   12.03
  -2  -4   3  180.98   12.05
  -2  -4   3  189.78   11.59
  -2  -4   3  185.88   11.71
   1   4  -3   47.70    3.45
   1   4  -3   44.25    3.64
   1   4  -3   46.95    3.60
   1   4  -3   48.49    3.22
   1   4  -3   43.90    3.79
   1   4  -3   47.62    3.37
  -1  -4   3   53.59    3.40
  -1  -4   3   55.18    3.63
  -1  -4   3   57.58    3.98
  -1  -4   3   58.61    3.70
   0   4  -3  287.05   17.81
   0   4  -3  279.68   17.54
   0   4  -3  284.37   17.32
   0   4  -3  276.48   17.47
   0   4  -3  287.20   17.61
   0  -4   3  266.83   17.58
   0  -4   3  270.37   17.57
   0  -4   3  273.25   17.52
   0  -4   3  268.08   17.18
  -1   4  -3  285.63   18.42
  -1   4  -3  287.40   18.13
  -1   4  -3  282.98   18.02
  -1   4  -3  277.68   18.10
   1  -4   3  282.60   18.39
   1  -4   3  288.59   18.16
   1  -4   3  295.36   18.20
   1  -4   3  293.01   18.03
  -2   4  -3   36.44    3.16
  -2   4  -3   36.85    3.06
  -2   4  -3   36.90    3.22
  -2   4  -3   39.97    3.63
  -2   4  -3   40.31    3.14
   2  -4   3   52.53    3.45
   2  -4   3   55.38    3.50
   2  -4   3   52.70    3.24
   2  -4   3   52.79    3.84
  -3   4  -3   43.92    3.82
  -3   4  -3   45.84    3.27
  -3   4  -3   44.79    3.23
  -3   4  -3   45.18    3.11
   3  -4   3   41.55    3.31
   3  -4   3   39.45    3.73
   3  -4   3   38.30    3.15
   3  -4   3   37.45    3.27
  -4   4  -3   47.93    3.91
  -4   4  -3   49.48    4.39
  -4   4  -3   46.91    4.53
  -4   4  -3   48.88    3.87
  -4   4  -3   46.31    3.76
   4  -4   3   57.91    4.81
   4  -4   3   51.39    3.97
   4  -4   3   54.29    4.16
   4  -4   3   55.23    3.95
   4  -4   3   56.47    4.10
  -5   4  -3   59.16    5.51
  -5   4  -3   55.62    4.40
  -5   4  -3   54.43    4.27
  -5   4  -3   54.77    4.23
  -5   4  -3   54.81    4.11
   5  -4   3   56.36    4.49
   5  -4   3   59.48    4.47
   5  -4   3   56.24    4.55
  -6   4  -3   15.15    2.15
  -6   4  -3   14.29    1.79
  -6   4  -3   15.22    1.83
  -6   4  -3   14.27    2.03
   6  -4   3   13.37    2.21
   6  -4   3   11.37    2.07
   6  -4   3   11.79    2.14
  -7   4  -3   11.66    2.00
  -7   4  -3    9.55    1.98
   7  -4   3   10.70    2.26
   7  -4   3   11.98    2.34
   8   3  -3    9.96    2.47
  -8  -3   3    8.77    2.26
  -8  -3   3    9.43    1.93
   7   3  -3    5.77    1.84
  -7  -3   3    5.76    1.89
  -7  -3   3    5.72    1.55
   6   3  -3   34.09    2.91
   6   3  -3   31.43    3.30
  -6  -3   3   31.36    3.21
  -6  -3   3   29.55    2.85
   5   3  -3   25.70    2.55
   5   3  -3   27.38    2.60
   5   3  -3   26.78    2.97
  -5  -3   3   32.66    2.53
  -5  -3   3   35.74    2.99
  -5  -3   3   29.59    2.21
   4   3  -3   32.22    3.09
   4   3  -3   35.00    2.57
   4   3  -3   35.78    3.52
   4   3  -3   36.01    2.89
   4   3  -3   35.49    2.85
  -4  -3   3   37.47    2.42
  -4  -3   3   39.84    2.69
  -4  -3   3   39.87    2.78
  -4  -3   3   37.21    3.53
  -4  -3   3   37.35    3.16
   3   3  -3  155.13   10.50
   3   3  -3  153.57    9.87
   3   3  -3  149.34    9.88
   3   3  -3  148.82   10.09
  -3  -3   3  154.88   10.47
  -3  -3   3  152.44   10.04
  -3  -3   3  151.67    9.71
   2   3  -3  159.12   10.93
   2   3  -3  157.01   10.32
   2   3  -3  154.94   10.54
   2   3  -3  156.32   10.67
   2   3  -3  153.70   10.47
  -2  -3   3  173.40   10.33
  -2  -3   3  177.47   11.00
  -2  -3   3  167.16   10.64
  -2  -3   3  174.70   10.19
   1   3  -3  130.94    8.31
   1   3  -3  137.41    7.88
   1   3  -3  138.92    8.27
   1   3  -3  135.61    8.49
   1   3  -3  137.07    8.10
  -1  -3   3  109.88    8.17
  -1  -3   3  114.29    7.95
  -1  -3   3  116.24    8.20
  -1  -3   3  118.04    8.42
   0   3  -3   73.50    5.00
   0   3  -3   74.13    4.86
   0   3  -3   71.09    5.04
   0   3  -3   73.77    5.09
   0   3  -3   69.80    5.17
   0  -3   3   92.21    5.14
  -1   3  -3  440.89   27.19
  -1   3  -3  431.05   26.88
  -1   3  -3  437.95   26.92
  -1   3  -3  437.32   26.71
  -1   3  -3  436.86   26.84
   1  -3   3  432.38   26.95
   1  -3   3  408.91   26.95
   1  -3   3  428.48   27.18
   1  -3   3  419.07   26.86
  -2   3  -3  230.13   14.50
  -2   3  -3  223.54   14.33
  -2   3  -3  229.53   14.47
  -2   3  -3  236.43   14.95
   2  -3   3  230.50   14.54
   2  -3   3  226.67   14.46
   2  -3   3  225.06   14.51
   2  -3   3  221.89   14.56
   2  -3   3  225.54   14.92
  -3   3  -3   86.87    5.95
  -3   3  -3   87.68    6.08
  -3   3  -3   88.78    6.03
  -3   3  -3   88.34    6.65
   3  -3   3   87.38    6.59
   3  -3   3   86.19    6.18
   3  -3   3   95.50    6.14
   3  -3   3   95.38    6.19
  -4   3  -3   50.37    3.78
  -4   3  -3   51.12    3.59
  -4   3  -3   48.44    3.64
  -4   3  -3   55.89    4.54
  -4   3  -3   51.53    4.23
  -4   3  -3   50.08    3.66
   4  -3   3   46.59    3.82
   4  -3   3   47.53    3.94
   4  -3   3   46.47    3.79
   4  -3   3   46.56    4.35
  -5   3  -3    2.97    1.33
  -5   3  -3    4.35    1.18
  -5   3  -3    3.98    0.91
  -5   3  -3    4.37    0.99
  -5   3  -3    4.90    1.15
   5  -3   3    3.05    1.22
   5  -3   3    3.84    1.11
   5  -3   3    3.74    1.21
  -6   3  -3   17.82    2.27
  -6   3  -3   17.95    2.21
  -6   3  -3   18.04    1.89
  -6   3  -3   16.88    2.00
   6  -3   3   23.71    2.47
   6  -3   3   23.40    2.57
   6  -3   3   23.55    2.66
  -7   3  -3    6.65    1.71
  -7   3  -3    4.88    1.64
   7  -3   3    7.66    1.93
   7  -3   3    7.33    1.74
  -8   3  -3   -0.84    1.22
  -8   3  -3    0.51    1.47
   8  -3   3    0.87    1.41
   8  -3   3    0.66    1.49
   8   2  -3    5.82    2.18
  -8  -2   3   10.05    2.33
  -8  -2   3    8.82    1.98
   7   2  -3   12.33    2.49
  -7  -2   3   14.39    2.16
  -7  -2   3   15.84    2.48
   6   2  -3   26.00    2.58
   6   2  -3   26.39    3.02
  -6  -2   3   34.60    3.15
  -6  -2   3   32.04    2.73
   5   2  -3   24.18    2.41
   5   2  -3   25.65    2.39
   5   2  -3   25.29    2.69
  -5  -2   3   27.70    2.70
  -5  -2   3   29.46    2.45
  -5  -2   3   30.60    2.49
  -5  -2   3   29.88    2.12
   4   2  -3   54.11    3.52
   4   2  -3   50.86    3.60
   4   2  -3   52.96    3.63
   4   2  -3   53.24    4.27
   4   2  -3   50.56    3.81
  -4  -2   3   45.12    4.12
  -4  -2   3   43.27    3.64
  -4  -2   3   44.12    3.17
  -4  -2   3   42.00    3.37
  -4  -2   3   44.52    3.40
  -4  -2   3   47.20    3.22
   3   2  -3   15.02    1.74
   3   2  -3   16.43    2.07
   3   2  -3   17.13    1.69
   3   2  -3   17.22    1.69
  -3  -2   3   20.86    2.23
  -3  -2   3   19.93    1.29
  -3  -2   3   20.62    1.81
  -3  -2   3   18.33    1.52
  -3  -2   3   19.01    1.42
  -2  -2   3   34.38    2.89
  -2  -2   3   35.07    2.27
  -2  -2   3   33.70    2.63
  -2  -2   3   35.41    2.36
   1   2  -3  316.61   20.95
   1   2  -3  324.58   21.06
   1   2  -3  303.54   21.10
   1   2  -3  331.45   20.80
   1   2  -3  317.93   21.23
  -1  -2   3  352.49   21.13
  -1  -2   3  354.25   20.81
  -1  -2   3  363.51   20.80
  -1  -2   3  349.98   20.88
  -1  -2   3  346.80   21.10
  -1  -2   3  336.97   21.24
   0   2  -3   25.51    2.03
   0   2  -3   24.58    1.83
   0   2  -3   25.42    1.68
   0   2  -3   25.13    1.97
   0   2  -3   24.42    2.03
   0  -2   3   30.05    2.09
   0  -2   3   29.86    2.09
   0  -2   3   31.07    2.06
   1  -2   3   13.43    1.23
   1  -2   3   12.82    1.23
   1  -2   3   14.13    1.34
   1  -2   3   13.10    1.48
  -2   2  -3  134.62    9.13
  -2   2  -3  130.91    8.70
  -2   2  -3  132.32    8.60
  -2   2  -3  131.48    8.71
   2  -2   3  141.57    9.16
   2  -2   3  137.56    8.74
   2  -2   3  136.71    8.83
   2  -2   3  135.51    8.76
  -3   2  -3   33.70    2.46
  -3   2  -3   32.86    2.76
  -3   2  -3   33.06    2.43
  -3   2  -3   32.45    2.52
  -3   2  -3   35.53    3.04
  -3   2  -3   33.97    2.48
   3  -2   3   23.88    2.81
  -4   2  -3   22.80    1.86
  -4   2  -3   19.22    1.94
  -4   2  -3   21.35    1.85
  -4   2  -3   23.68    2.58
  -4   2  -3   20.20    2.23
  -4   2  -3   20.64    1.89
   4  -2   3   19.23    2.09
   4  -2   3   19.94    2.58
   4  -2   3   19.79    2.01
   4  -2   3   18.77    2.10
  -5   2  -3   18.35    1.75
  -5   2  -3   19.78    2.04
  -5   2  -3   18.51    1.95
  -5   2  -3   21.66    1.88
  -5   2  -3   19.63    2.60
  -5   2  -3   20.51    2.44
   5  -2   3   15.92    2.00
   5  -2   3   14.56    2.05
  -6   2  -3    2.80    0.88
  -6   2  -3    3.78    1.17
  -6   2  -3    2.56    1.13
  -6   2  -3    3.96    0.93
   6  -2   3    1.23    1.08
   6  -2   3    0.96    0.96
   6  -2   3    1.51    1.14
  -7   2  -3    5.63    1.57
  -7   2  -3    6.18    1.58
   7  -2   3    7.46    1.95
   7  -2   3    7.35    1.70
  -8   2  -3   11.25    2.21
  -8   2  -3   12.90    2.40
   8  -2   3   15.98    2.84
   8  -2   3   16.95    2.84
   8   1  -3    4.19    1.90
  -8  -1   3    0.93    1.32
  -8  -1   3    1.01    1.49
   7   1  -3    9.62    2.06
  -7  -1   3    9.35    1.73
   6   1  -3   27.03    2.89
   6   1  -3   26.51    2.53
  -6  -1   3   26.56    2.49
   5   1  -3   24.01    2.21
   5   1  -3   25.06    2.55
   5   1  -3   24.55    2.43
   5   1  -3   25.31    2.05
  -5  -1   3   24.81    2.02
  -5  -1   3   27.64    3.24
  -5  -1   3   26.51    2.45
  -5  -1   3   25.54    2.23
   4   1  -3   42.72    4.15
   4   1  -3   41.83    3.63
   4   1  -3   46.23    3.31
   4   1  -3   45.11    3.60
   4   1  -3   44.99    3.77
   4   1  -3   45.68    3.69
  -4  -1   3   51.59    3.56
  -4  -1   3   56.48    3.21
  -4  -1   3   54.91    3.74
  -4  -1   3   54.49    4.40
  -4  -1   3   56.85    3.41
   3   1  -3   68.20    3.99
   3   1  -3   66.69    4.89
   3   1  -3   66.05    4.36
   3   1  -3   65.85    4.40
   3   1  -3   65.31    4.42
   3   1  -3   68.66    4.12
   3   1  -3   66.50    4.52
  -3  -1   3   49.34    4.19
  -3  -1   3   50.19    4.69
  -2  -1   3    5.43    0.65
  -2  -1   3    5.98    1.07
  -2  -1   3    5.93    0.90
   1   1  -3   90.58    5.23
   1   1  -3   83.53    5.22
   1   1  -3   83.60    5.19
   1   1  -3   84.10    5.32
  -1  -1   3   72.51    4.93
  -1  -1   3   71.58    5.26
  -1  -1   3   75.57    4.96
  -1  -1   3   71.47    5.16
   0   1  -3  172.22   10.43
   0   1  -3  179.85   10.25
   0   1  -3  171.19   10.42
   0   1  -3  173.61   10.43
   0   1  -3  173.56   10.34
   0  -1   3  161.60   10.50
   0  -1   3  152.66   10.40
   0  -1   3  161.34   10.20
   0  -1   3  160.21   10.49
   0  -1   3  154.54   10.40
   0  -1   3  154.15   10.51
  -1   1  -3  121.40    7.72
  -1   1  -3  121.42    7.98
  -1   1  -3  125.96    7.59
  -1   1  -3  121.63    7.70
   1  -1   3  121.13    7.80
   1  -1   3  120.96    7.67
   1  -1   3  117.55    7.97
   1  -1   3  119.14    7.81
   1  -1   3  115.99    7.68
  -2   1  -3   76.40    4.80
  -2   1  -3   73.73    4.72
  -2   1  -3   77.47    4.82
  -2   1  -3   75.88    4.91
  -2   1  -3   73.46    5.20
  -2   1  -3   75.29    4.55
  -2   1  -3   74.89    4.80
   2  -1   3   66.04    4.87
   2  -1   3   66.43    4.76
   2  -1   3   65.31    4.87
   2  -1   3   66.39    5.16
  -3   1  -3   35.02    3.00
  -3   1  -3   35.50    2.74
  -3   1  -3   33.69    2.78
  -3   1  -3   36.33    3.25
  -3   1  -3   34.81    2.71
  -3   1  -3   34.86    2.73
   3  -1   3   44.68    3.03
   3  -1   3   46.17    3.07
   3  -1   3   41.16    2.87
   3  -1   3   41.43    3.37
  -4   1  -3   45.65    3.34
  -4   1  -3   44.23    3.47
  -4   1  -3   45.55    3.36
  -4   1  -3   47.03    4.07
  -4   1  -3   46.40    3.45
  -4   1  -3   47.96    3.88
   4  -1   3   48.37    3.73
   4  -1   3   47.00    3.57
   4  -1   3   48.40    3.04
   4  -1   3   46.76    4.14
  -5   1  -3   55.94    4.30
  -5   1  -3   53.58    4.07
  -5   1  -3   54.15    4.03
  -5   1  -3   57.39    5.04
  -5   1  -3   53.96    4.71
  -5   1  -3   53.89    4.23
   5  -1   3   67.97    4.50
   5  -1   3   67.02    4.66
  -6   1  -3    3.72    1.24
  -6   1  -3    5.81    1.40
  -6   1  -3    5.44    1.06
   6  -1   3    5.94    1.44
   6  -1   3    5.86    1.55
   6  -1   3    5.32    1.24
  -7   1  -3    5.05    1.50
  -7   1  -3    5.38    1.62
   7  -1   3    2.78    1.29
   7  -1   3    3.57    1.53
  -8   1  -3   -0.12    1.20
  -8   1  -3    0.05    1.48
   8  -1   3    1.04    1.42
   8  -1   3    0.27    1.50
   8   0  -3   18.24    2.94
  -8   0   3   17.51    2.55
   7   0  -3   22.05    2.74
  -7   0   3   18.51    2.33
   6   0  -3   22.43    2.10
   6   0  -3   25.58    2.53
  -6   0   3   17.07    2.06
  -6   0   3   15.67    1.88
   5   0  -3   41.27    3.53
   5   0  -3   41.81    3.41
   5   0  -3   42.38    3.22
   5   0  -3   42.27    3.58
   5   0  -3   40.62    2.96
  -5   0   3   42.66    3.21
  -5   0   3   38.76    3.45
  -5   0   3   36.92    2.98
  -5   0   3   38.85    4.00
   4   0  -3   34.08    3.28
   4   0  -3   31.04    2.81
   4   0  -3   31.45    2.63
   4   0  -3   31.02    2.46
   4   0  -3   30.82    2.78
   4   0  -3   32.77    2.87
   4   0  -3   30.56    2.81
  -4   0   3   35.84    3.32
  -4   0   3   40.09    2.70
  -4   0   3   34.71    2.30
  -4   0   3   37.65    2.53
  -4   0   3   37.02    2.93
   3   0  -3  140.71    9.38
   3   0  -3  143.79    9.14
   3   0  -3  140.16    9.43
   3   0  -3  139.72    9.37
   3   0  -3  139.99    9.29
   3   0  -3  139.22    9.34
   3   0  -3  140.41    9.78
  -3   0   3  147.04    9.42
  -3   0   3  152.32    9.82
  -3   0   3  149.40    9.12
  -3   0   3  144.62    9.19
   2   0  -3  316.14   20.10
   2   0  -3  315.36   20.07
   2   0  -3  317.89   20.39
   2   0  -3  313.64   20.12
   2   0  -3  325.26   19.80
   2   0  -3  310.78   19.95
  -2   0   3  327.89   20.14
  -2   0   3  324.98   20.37
  -2   0   3  326.62   19.95
   1   0  -3   23.65    1.73
   1   0  -3   24.96    1.82
   1   0  -3   25.15    1.65
   1   0  -3   26.48    1.81
   1   0  -3   24.85    1.91
   1   0  -3   23.53    1.81
  -1   0   3   18.42    1.83
   0   0  -3  202.51   13.01
   0   0  -3  204.53   13.14
   0   0  -3  201.00   13.08
   0   0  -3  205.99   13.04
   0   0  -3  203.39   13.10
   0   0   3  220.60   12.98
   0   0   3  213.29   13.05
   0   0   3  214.66   13.15
   0   0   3  211.29   13.02
   0   0   3  212.47   13.20
  -1   0  -3   20.66    1.40
  -1   0  -3   21.02    1.59
  -1   0  -3   20.16    1.56
  -1   0  -3   20.67    1.45
  -1   0  -3   20.11    1.46
  -2   0  -3   79.12    5.17
  -2   0  -3   81.23    5.20
  -2   0  -3   80.98    5.13
  -2   0  -3   81.36    5.21
  -2   0  -3   80.56    4.90
  -2   0  -3   79.73    5.21
   2   0   3   74.88    5.53
   2   0   3   76.03    5.12
   2   0   3   77.61    5.24
   2   0   3   71.35    5.27
  -3   0  -3   81.97    5.66
  -3   0  -3   81.31    5.60
  -3   0  -3   82.88    5.62
  -3   0  -3   86.25    6.18
  -3   0  -3   80.50    5.82
   3   0   3   81.24    5.82
   3   0   3   89.43    5.68
   3   0   3   87.71    6.20
   3   0   3   91.01    5.81
  -4   0  -3    5.64    0.92
  -4   0  -3    5.46    1.41
  -4   0  -3    3.57    0.89
  -4   0  -3    4.48    0.94
  -4   0  -3    5.00    1.20
   4   0   3    7.48    1.52
   4   0   3    5.59    1.19
   4   0   3    6.17    1.04
   4   0   3    6.18    0.63
  -5   0  -3  116.63    8.04
  -5   0  -3  121.67    8.61
  -5   0  -3  123.22    8.84
  -5   0  -3  121.83    8.09
  -5   0  -3  120.15    7.88
   5   0   3  113.36    8.32
   5   0   3  115.95    8.16
   5   0   3  121.07    8.85
  -6   0  -3   47.94    3.76
  -6   0  -3   47.37    4.09
  -6   0  -3   49.46    4.09
   6   0   3   59.74    4.57
   6   0   3   54.78    4.31
  -7   0  -3    6.43    1.63
  -7   0  -3    6.84    1.55
   7   0   3    7.10    1.75
   7   0   3    7.17    1.57
  -8   0  -3   10.71    2.08
  -8   0  -3    9.45    1.90
   8   0   3   12.01    2.50
   8   0   3    8.47    2.31
   8  -1  -3   26.04    3.27
  -8   1   3   22.64    2.80
   7  -1  -3    9.07    2.01
  -7   1   3   12.78    2.05
   6  -1  -3   15.92    1.84
   6  -1  -3   15.11    2.29
   6  -1  -3   14.19    1.97
  -6   1   3   15.94    2.07
  -6   1   3   17.58    1.85
   5  -1  -3   20.45    2.31
   5  -1  -3   16.14    1.95
   5  -1  -3   17.65    1.70
   5  -1  -3   18.53    1.84
   5  -1  -3   19.69    2.11
  -5   1   3   15.94    2.11
  -5   1   3   16.05    1.81
  -5   1   3   14.67    1.66
   4  -1  -3   17.21    1.75
   4  -1  -3   18.49    2.10
   4  -1  -3   18.33    1.67
   4  -1  -3   18.10    1.92
   4  -1  -3   18.29    1.79
  -4   1   3   20.41    2.14
  -4   1   3   19.66    1.53
  -4   1   3   21.97    1.75
  -4   1   3   20.12    2.36
  -4   1   3   20.19    1.77
   3  -1  -3   22.98    2.17
   3  -1  -3   23.41    2.06
   3  -1  -3   24.17    1.86
   3  -1  -3   23.23    1.99
   3  -1  -3   22.54    1.98
   3  -1  -3   23.71    1.96
   2  -1  -3   80.40    5.20
   2  -1  -3   82.37    5.13
   2  -1  -3   80.20    5.23
   2  -1  -3   80.81    5.10
   2  -1  -3   78.94    5.16
   2  -1  -3   79.17    5.19
  -2   1   3   72.52    5.40
  -2   1   3   71.21    5.31
  -2   1   3   73.95    4.84
   1  -1  -3  101.55    6.28
   1  -1  -3  103.04    6.27
   1  -1  -3   97.13    6.43
   1  -1  -3  102.73    6.32
   1  -1  -3   99.65    6.32
   1  -1  -3  101.71    6.41
   1  -1  -3  101.53    6.46
   1  -1  -3  100.35    6.41
  -1   1   3   84.84    6.48
   0  -1  -3   82.84    5.48
   0  -1  -3   82.78    5.48
   0  -1  -3   81.87    5.51
   0  -1  -3   84.69    5.52
   0  -1  -3   84.84    5.51
   0   1   3   86.86    5.58
   0   1   3   85.99    5.48
   0   1   3   88.50    5.30
   0   1   3   88.23    5.38
  -1  -1  -3  156.13    9.04
  -1  -1  -3  152.40    9.23
  -1  -1  -3  154.93    9.24
  -1  -1  -3  155.52    9.08
  -1  -1  -3  153.13    9.01
  -1  -1  -3  157.26    9.26
  -1  -1  -3  152.78    9.16
  -1  -1  -3  150.51    9.12
   1   1   3  124.63    9.06
   1   1   3  122.44    9.15
   1   1   3  131.39    9.03
   1   1   3  131.27    9.28
  -2  -1  -3   75.94    5.22
  -2  -1  -3   80.62    5.30
  -2  -1  -3   80.47    5.31
  -2  -1  -3   78.16    5.27
  -2  -1  -3   77.97    5.28
   2   1   3   83.39    5.43
   2   1   3   82.22    5.21
   2   1   3   79.89    5.31
   2   1   3   79.08    5.29
   2   1   3   81.83    5.70
  -3  -1  -3   86.73    6.02
  -3  -1  -3   85.00    6.03
  -3  -1  -3   83.61    5.98
  -3  -1  -3   88.11    6.22
  -3  -1  -3   86.02    6.00
   3   1   3   92.66    6.25
   3   1   3   97.43    6.60
   3   1   3   96.66    6.29
   3   1   3   93.80    5.90
   3   1   3   93.82    6.03
   3   1   3   95.92    6.16
  -4  -1  -3   81.49    5.55
  -4  -1  -3   74.59    5.03
  -4  -1  -3   79.87    5.11
  -4  -1  -3   78.62    5.15
  -4  -1  -3   81.85    5.18
   4   1   3   71.10    5.68
   4   1   3   66.49    5.10
   4   1   3   66.05    5.29
   4   1   3   70.47    4.82
   4   1   3   69.64    5.42
  -5  -1  -3    7.79    1.26
  -5  -1  -3    5.63    1.20
  -5  -1  -3    6.61    1.04
  -5  -1  -3    8.88    1.68
   5   1   3    4.46    1.18
   5   1   3    4.40    1.32
   5   1   3    3.94    1.44
  -6  -1  -3   32.92    2.90
  -6  -1  -3   33.54    2.95
  -6  -1  -3   33.50    2.63
   6   1   3   27.79    2.90
   6   1   3   28.51    3.27
  -7  -1  -3    7.86    1.67
  -7  -1  -3    7.85    1.53
   7   1   3    6.77    1.75
   7   1   3    6.11    1.81
  -8  -1  -3    5.24    1.59
  -8  -1  -3    4.29    1.63
   8   1   3    8.07    2.28
  -8   2   3    1.20    1.36
   7  -2  -3    7.87    1.94
   7  -2  -3    5.52    1.58
  -7   2   3    2.65    1.34
  -7   2   3    4.92    1.33
   6  -2  -3    4.26    1.46
   6  -2  -3    3.02    1.01
   6  -2  -3    2.69    1.02
   6  -2  -3    3.02    1.19
  -6   2   3    4.46    1.54
  -6   2   3    4.95    1.20
  -6   2   3    6.25    1.39
   5  -2  -3   67.54    5.37
   5  -2  -3   64.25    4.79
   5  -2  -3   62.15    4.66
   5  -2  -3   63.28    4.89
   5  -2  -3   61.99    4.67
  -5   2   3   66.12    4.41
  -5   2   3   67.14    5.30
  -5   2   3   65.94    4.67
  -5   2   3   61.51    4.70
   4  -2  -3   75.79    4.75
   4  -2  -3   72.82    5.26
   4  -2  -3   72.03    4.91
   4  -2  -3   72.47    4.75
   4  -2  -3   74.54    4.78
  -4   2   3   57.98    4.63
  -4   2   3   60.70    5.26
  -4   2   3   62.06    4.62
  -4   2   3   60.75    4.48
  -4   2   3   59.77    5.08
   3  -2  -3   81.16    5.53
   3  -2  -3   75.17    5.72
   3  -2  -3   76.47    5.26
   3  -2  -3   77.04    5.39
   3  -2  -3   78.14    5.35
   3  -2  -3   76.71    5.42
  -3   2   3   81.50    5.34
  -3   2   3   82.81    5.33
  -3   2   3   82.33    5.89
  -3   2   3   77.54    5.73
  -3   2   3   82.43    5.27
   2  -2  -3   67.12    4.47
   2  -2  -3   70.38    4.13
   2  -2  -3   67.24    4.45
   2  -2  -3   70.88    4.54
   2  -2  -3   68.16    4.26
   2  -2  -3   66.11    4.49
   2  -2  -3   68.48    4.43
  -2   2   3   53.04    4.66
  -2   2   3   54.61    4.64
   1  -2  -3  137.18    8.80
   1  -2  -3  142.73    8.96
   1  -2  -3  139.89    8.96
   1  -2  -3  138.56    8.82
   1  -2  -3  139.66    8.97
   1  -2  -3  140.62    8.78
   1  -2  -3  138.50    8.96
   0  -2  -3   48.60    3.30
   0  -2  -3   49.88    3.26
   0  -2  -3   48.57    3.25
   0  -2  -3   50.21    3.06
   0  -2  -3   50.77    3.26
   0  -2  -3   50.29    3.34
   0  -2  -3   49.37    3.34
   0   2   3   39.92    3.14
  -1  -2  -3  374.41   23.87
  -1  -2  -3  377.80   23.88
  -1  -2  -3  390.54   23.76
  -1  -2  -3  377.83   23.83
  -1  -2  -3  387.18   23.67
   1   2   3  386.49   23.76
   1   2   3  375.91   23.84
   1   2   3  388.92   23.93
  -2  -2  -3   70.27    4.79
  -2  -2  -3   71.38    4.78
  -2  -2  -3   72.43    4.75
  -3  -2  -3  219.04   13.28
  -3  -2  -3  215.35   13.24
  -3  -2  -3  229.45   13.51
  -3  -2  -3  215.91   13.24
  -3  -2  -3  220.90   13.24
   3   2   3  201.94   13.20
   3   2   3  197.54   13.42
   3   2   3  190.86   13.12
   3   2   3  194.98   13.43
   3   2   3  190.83   13.66
  -4  -2  -3   36.05    3.08
  -4  -2  -3   38.14    3.05
  -4  -2  -3   34.26    3.03
  -4  -2  -3   37.54    3.42
  -4  -2  -3   35.04    3.04
   4   2   3   46.16    2.96
   4   2   3   46.92    3.57
   4   2   3   45.90    3.22
   4   2   3   45.07    3.75
   4   2   3   46.92    3.47
  -5  -2  -3   39.33    2.79
  -5  -2  -3   36.95    2.80
  -5  -2  -3   36.41    2.63
  -5  -2  -3   40.43    3.43
  -5  -2  -3   36.17    2.72
   5   2   3   29.81    3.32
   5   2   3   27.31    2.31
   5   2   3   30.07    2.85
   5   2   3   24.61    3.04
   5   2   3   26.50    2.95
  -6  -2  -3   12.36    1.65
  -6  -2  -3   10.97    1.69
  -6  -2  -3   11.38    1.49
  -6  -2  -3    9.65    1.62
   6   2   3    9.64    1.93
   6   2   3   11.12    2.05
  -7  -2  -3    4.20    1.37
  -7  -2  -3    3.61    1.28
   7   2   3    2.88    1.56
  -8  -2  -3    4.48    1.59
  -8  -2  -3    5.31    1.53
   8   2   3    1.47    1.91
   8  -3  -3   -0.40    1.69
  -8   3   3    1.83    1.59
   7  -3  -3   22.11    3.10
  -7   3   3   23.70    2.65
  -7   3   3   20.01    2.51
   6  -3  -3   17.44    2.56
   6  -3  -3   18.91    2.30
   6  -3  -3   20.70    2.33
  -6   3   3   24.81    2.33
  -6   3   3   25.16    2.43
   5  -3  -3   32.86    3.26
   5  -3  -3   31.83    2.59
   5  -3  -3   33.03    2.98
   5  -3  -3   32.46    2.70
  -5   3   3   26.06    2.53
  -5   3   3   23.53    2.52
  -5   3   3   25.59    2.27
  -5   3   3   26.12    3.05
   4  -3  -3  121.24    8.14
   4  -3  -3  121.33    8.26
   4  -3  -3  120.58    8.85
   4  -3  -3  114.22    8.24
   4  -3  -3  112.60    8.34
  -4   3   3  130.97    9.07
  -4   3   3  124.84    8.21
  -4   3   3  125.11    8.85
  -4   3   3  128.99    8.28
  -4   3   3  130.62    8.01
  -4   3   3  129.17    8.12
   3  -3  -3   89.96    5.79
   3  -3  -3   93.57    5.55
   3  -3  -3   91.66    5.88
   3  -3  -3   91.17    6.25
   3  -3  -3   95.45    5.82
   3  -3  -3   92.65    5.81
  -3   3   3   75.26    5.66
  -3   3   3   75.41    6.12
  -3   3   3   70.85    5.57
  -3   3   3   75.31    5.55
  -3   3   3   77.50    6.19
   2  -3  -3  171.10   11.18
   2  -3  -3  171.61   10.86
   2  -3  -3  176.42   11.24
   2  -3  -3  173.91   11.19
   2  -3  -3  173.44   10.88
   2  -3  -3  174.11   11.13
   2  -3  -3  169.54   11.21
  -2   3   3  170.12   11.11
  -2   3   3  176.20   11.11
  -2   3   3  181.11   11.64
   1  -3  -3  233.88   14.49
   1  -3  -3  230.93   14.37
   1  -3  -3  229.48   14.34
   1  -3  -3  239.60   14.55
   1  -3  -3  235.55   14.55
   1  -3  -3  236.04   14.55
  -1   3   3  219.18   14.50
  -1   3   3  207.02   14.80
   0  -3  -3  196.07   12.74
   0  -3  -3  194.06   12.82
   0  -3  -3  202.95   12.70
   0  -3  -3  201.85   12.59
   0  -3  -3  195.18   12.82
   0  -3  -3  192.60   12.72
   0   3   3  213.09   12.73
   0   3   3  211.37   12.57
   0   3   3  207.59   12.85
  -1  -3  -3   60.01    4.56
  -1  -3  -3   68.17    4.44
  -1  -3  -3   61.03    4.60
  -1  -3  -3   61.23    4.42
  -1  -3  -3   63.75    4.32
  -1  -3  -3   60.18    4.59
   1   3   3   77.38    4.33
   1   3   3   77.17    4.67
   1   3   3   75.42    4.75
   1   3   3   77.77    4.41
   1   3   3   75.48    4.71
  -2  -3  -3  217.35   13.07
  -2  -3  -3  211.70   13.32
  -2  -3  -3  212.25   13.46
  -2  -3  -3  206.88   13.34
  -2  -3  -3  209.51   13.30
   2   3   3  212.42   13.41
   2   3   3  203.73   13.31
   2   3   3  200.12   13.42
  -3  -3  -3   14.99    1.51
  -3  -3  -3   16.04    1.55
  -3  -3  -3   14.90    1.29
  -3  -3  -3   17.84    1.54
  -3  -3  -3   17.29    1.58
  -3  -3  -3   15.80    1.71
   3   3   3   15.64    1.46
   3   3   3   13.09    1.79
   3   3   3   15.88    1.69
   3   3   3   13.71    1.66
  -4  -3  -3   49.95    3.40
  -4  -3  -3   45.76    3.37
  -4  -3  -3   50.05    3.80
  -4  -3  -3   50.15    3.37
  -4  -3  -3   46.78    3.36
   4   3   3   39.35    3.52
   4   3   3   40.02    3.75
   4   3   3   38.02    3.14
   4   3   3   38.66    3.58
  -5  -3  -3   22.64    2.67
  -5  -3  -3   24.76    2.33
  -5  -3  -3   23.96    2.34
  -5  -3  -3   25.29    2.28
  -5  -3  -3   24.55    2.23
   5   3   3   26.50    2.71
   5   3   3   25.98    2.94
   5   3   3   22.95    2.50
   5   3   3   25.64    2.75
   5   3   3   27.18    2.10
  -6  -3  -3   26.27    2.59
  -6  -3  -3   25.00    2.52
  -6  -3  -3   24.93    2.42
  -6  -3  -3   27.24    2.40
   6   3   3   23.44    2.85
   6   3   3   26.68    2.98
  -7  -3  -3   14.17    2.10
  -7  -3  -3   16.62    2.37
  -7  -3  -3   16.93    2.08
  -7  -3  -3   14.42    2.22
   7   3   3   20.59    3.10
  -8  -3  -3    5.61    1.69
  -8  -3  -3    7.37    1.91
   8   3   3    5.06    2.21
   7  -4  -3   11.64    2.47
  -7   4   3   11.45    2.08
  -7   4   3   12.94    2.07
   6  -4  -3   18.66    2.34
   6  -4  -3   21.95    2.62
  -6   4   3   18.50    2.22
  -6   4   3   16.67    2.24
   5  -4  -3   19.67    2.18
   5  -4  -3   19.47    2.44
   5  -4  -3   19.41    1.98
  -5   4   3   22.11    2.29
  -5   4   3   21.19    1.94
  -5   4   3   18.94    2.13
   4  -4  -3   66.27    4.84
   4  -4  -3   71.22    5.49
   4  -4  -3   70.72    4.51
   4  -4  -3   69.95    4.85
  -4   4   3   62.50    4.43
  -4   4   3   62.23    4.68
  -4   4   3   61.70    4.67
  -4   4   3   58.31    4.53
  -4   4   3   61.97    5.31
  -4   4   3   63.41    5.41
   3  -4  -3   72.35    5.59
   3  -4  -3   74.77    5.18
   3  -4  -3   76.25    5.09
   3  -4  -3   72.73    6.00
   3  -4  -3   72.25    5.53
   3  -4  -3   73.57    5.54
  -3   4   3   88.25    5.58
  -3   4   3   89.14    6.26
  -3   4   3   87.24    6.19
  -3   4   3   90.13    5.52
  -3   4   3   84.58    5.40
   2  -4  -3   82.21    6.03
   2  -4  -3   84.45    6.05
   2  -4  -3   91.81    5.78
   2  -4  -3   91.13    6.01
  -2   4   3   91.78    6.04
  -2   4   3   92.03    6.58
  -2   4   3   91.24    5.99
   1  -4  -3  229.81   14.31
   1  -4  -3  239.52   14.34
   1  -4  -3  229.49   14.12
   1  -4  -3  230.14   14.14
  -1   4   3  209.73   14.65
  -1   4   3  220.06   14.27
  -1   4   3  209.11   14.04
   0  -4  -3  166.90   10.16
   0  -4  -3  169.82   10.37
   0  -4  -3  165.67   10.33
   0  -4  -3  168.27   10.25
   0   4   3  148.57   10.32
   0   4   3  151.74   10.01
   0   4   3  156.24    9.93
   0   4   3  155.31   10.14
  -1  -4  -3  107.74    6.57
  -1  -4  -3  103.86    6.44
  -1  -4  -3  103.17    6.82
  -1  -4  -3  103.00    6.84
  -1  -4  -3  108.99    6.86
  -1  -4  -3  105.36    6.56
   1   4   3   98.78    6.71
   1   4   3  102.83    6.88
   1   4   3   99.00    6.98
   1   4   3  103.76    6.78
  -2  -4  -3   66.11    4.75
  -2  -4  -3   64.19    4.94
  -2  -4  -3   66.72    4.36
  -2  -4  -3   64.25    4.77
  -2  -4  -3   64.92    4.49
  -2  -4  -3   64.10    4.79
   2   4   3   75.77    4.87
   2   4   3   77.26    4.87
   2   4   3   80.43    5.07
   2   4   3   75.75    4.82
  -3  -4  -3   53.94    3.98
  -3  -4  -3   54.39    3.99
  -3  -4  -3   50.49    4.01
  -3  -4  -3   53.70    3.78
  -3  -4  -3   54.57    3.54
  -3  -4  -3   54.35    4.29
   3   4   3   59.27    4.18
   3   4   3   60.06    4.04
   3   4   3   56.06    4.10
   3   4   3   61.97    4.37
  -4  -4  -3   98.38    6.83
  -4  -4  -3  101.48    6.72
  -4  -4  -3   95.45    6.85
  -4  -4  -3   94.36    6.85
  -4  -4  -3   98.36    7.25
   4   4   3  102.50    7.15
   4   4   3  101.09    7.26
   4   4   3  107.21    6.81
   4   4   3  103.79    7.11
   4   4   3  105.29    7.43
  -5  -4  -3   14.16    1.82
  -5  -4  -3   13.89    1.72
  -5  -4  -3   15.36    1.85
  -5  -4  -3   13.98    1.69
  -5  -4  -3   16.30    2.24
  -5  -4  -3   15.37    1.80
   5   4   3   18.14    2.26
   5   4   3   17.86    2.19
   5   4   3   19.77    1.77
   5   4   3   17.56    2.22
   5   4   3   17.41    2.43
  -6  -4  -3   10.76    1.76
  -6  -4  -3   11.02    1.67
  -6  -4  -3   11.37    1.69
  -6  -4  -3   11.10    1.69
   6   4   3    7.17    1.88
   6   4   3    7.73    2.00
  -7  -4  -3   12.52    1.90
  -7  -4  -3   12.22    1.99
  -7  -4  -3    9.02    1.88
  -7  -4  -3    8.78    1.71
   7   4   3   14.42    2.56
  -8  -4  -3    2.01    1.48
   8   4   3    2.55    2.00
   7  -5  -3   11.55    2.10
   7  -5  -3   12.17    2.57
  -7   5   3    8.47    1.91
  -7   5   3    6.89    1.84
   6  -5  -3   10.34    2.14
   6  -5  -3   11.29    2.02
  -6   5   3   11.24    1.88
  -6   5   3   11.60    1.95
   5  -5  -3    0.17    1.06
   5  -5  -3    0.70    1.10
  -5   5   3    0.70    0.95
  -5   5   3    1.03    0.80
  -5   5   3    0.71    0.93
   4  -5  -3   51.67    3.95
   4  -5  -3   55.70    4.03
   4  -5  -3   53.71    3.97
  -4   5   3   44.66    3.50
  -4   5   3   48.44    4.59
  -4   5   3   46.86    3.68
  -4   5   3   43.98    3.83
   3  -5  -3   48.80    4.46
   3  -5  -3   52.84    3.94
   3  -5  -3   49.18    3.86
   3  -5  -3   52.14    3.41
   3  -5  -3   50.27    3.30
   3  -5  -3   51.15    3.85
  -3   5   3   49.22    3.79
  -3   5   3   51.61    4.45
  -3   5   3   46.39    3.77
  -3   5   3   49.94    3.67
   2  -5  -3   48.93    3.64
   2  -5  -3   48.58    3.76
   2  -5  -3   49.30    3.44
   2  -5  -3   49.06    3.75
  -2   5   3   53.77    4.36
  -2   5   3   48.68    3.63
  -2   5   3   51.99    3.71
   1  -5  -3   82.80    6.02
   1  -5  -3   87.29    6.23
   1  -5  -3   84.93    6.22
   1  -5  -3   85.64    6.04
  -1   5   3   98.92    6.24
  -1   5   3   98.92    5.90
  -1   5   3   94.54    6.22
  -1   5   3  100.28    6.80
   0  -5  -3   51.94    3.88
   0  -5  -3   53.03    3.77
   0  -5  -3   53.32    3.86
   0   5   3   54.12    3.60
   0   5   3   53.89    3.50
   0   5   3   55.67    3.91
  -1  -5  -3   65.52    4.59
  -1  -5  -3   66.81    4.60
  -1  -5  -3   66.37    4.31
   1   5   3   65.22    4.84
   1   5   3   65.13    4.47
   1   5   3   66.65    4.44
   1   5   3   64.05    4.64
  -2  -5  -3   25.68    2.19
  -2  -5  -3   26.96    2.30
  -2  -5  -3   24.35    1.95
   2   5   3   28.56    2.36
   2   5   3   28.35    2.53
   2   5   3   29.94    2.32
   2   5   3   28.19    2.29
  -3  -5  -3   21.45    1.98
  -3  -5  -3   22.14    1.74
  -3  -5  -3   24.30    2.08
  -3  -5  -3   22.03    2.35
   3   5   3   21.56    2.15
   3   5   3   20.99    1.99
   3   5   3   19.91    2.20
   3   5   3   20.30    2.13
  -4  -5  -3   13.72    1.43
  -4  -5  -3   14.92    1.67
  -4  -5  -3   13.91    1.93
  -4  -5  -3   14.27    1.65
   4   5   3   12.98    1.80
   4   5   3   11.98    1.61
   4   5   3   10.86    1.86
   4   5   3   13.00    1.79
   4   5   3   11.51    1.78
  -5  -5  -3   47.79    4.35
  -5  -5  -3   46.37    3.77
  -5  -5  -3   42.85    3.70
  -5  -5  -3   47.37    3.59
   5   5   3   50.03    3.67
   5   5   3   45.03    4.25
   5   5   3   46.30    4.04
   5   5   3   47.08    4.08
  -6  -5  -3   21.64    2.31
  -6  -5  -3   21.50    2.42
  -6  -5  -3   23.07    2.41
   6   5   3   18.01    2.64
  -7  -5  -3   17.30    2.30
  -7  -5  -3   18.99    2.55
   7   5   3   15.73    2.73
  -8  -5  -3    5.87    1.79
   8   5   3    3.71    2.02
   7  -6  -3    0.10    1.35
   7  -6  -3    0.31    1.50
  -7   6   3    1.94    1.57
  -7   6   3    2.14    1.39
   6  -6  -3   11.15    2.22
   6  -6  -3   11.73    2.14
  -6   6   3    9.88    1.89
  -6   6   3   13.76    2.14
   5  -6  -3   30.57    3.37
   5  -6  -3   29.38    3.26
  -5   6   3   36.82    3.26
  -5   6   3   41.69    3.38
  -5   6   3   38.97    3.19
   4  -6  -3    6.02    1.47
   4  -6  -3    4.92    1.37
   4  -6  -3    6.37    1.55
  -4   6   3   14.63    1.83
  -4   6   3   11.30    1.31
   3  -6  -3   45.18    3.07
   3  -6  -3   42.06    3.51
   3  -6  -3   45.39    3.58
   3  -6  -3   41.80    3.46
  -3   6   3   43.53    3.48
  -3   6   3   41.56    3.28
  -3   6   3   41.15    3.42
   2  -6  -3   31.35    2.40
   2  -6  -3   30.78    2.48
   2  -6  -3   31.31    2.18
   2  -6  -3   29.19    2.45
  -2   6   3   22.07    1.84
  -2   6   3   23.19    2.78
  -2   6   3   24.52    2.26
  -2   6   3   22.58    2.27
   1  -6  -3   28.07    2.32
   1  -6  -3   27.27    2.50
   1  -6  -3   28.94    2.35
   1  -6  -3   28.95    2.56
  -1   6   3   30.08    2.00
  -1   6   3   31.16    3.05
  -1   6   3   30.33    2.53
   0  -6  -3   63.71    4.56
   0  -6  -3   61.69    4.68
   0  -6  -3   60.91    4.64
   0   6   3   64.53    4.63
   0   6   3   67.23    4.27
   0   6   3   63.34    5.09
   0   6   3   68.38    4.31
   0   6   3   71.12    4.80
  -1  -6  -3  144.24    9.25
  -1  -6  -3  143.95    9.50
  -1  -6  -3  146.36    9.52
   1   6   3  148.00    9.65
   1   6   3  144.86    9.34
   1   6   3  138.61    9.45
   1   6   3  144.63    9.87
   1   6   3  146.71    9.33
  -2  -6  -3   85.02    5.93
  -2  -6  -3   88.49    5.72
  -2  -6  -3   84.19    6.23
   2   6   3   93.49    6.35
   2   6   3   97.12    6.67
   2   6   3   95.36    6.25
   2   6   3   94.88    6.21
  -3  -6  -3  108.78    7.60
  -3  -6  -3  104.63    6.83
  -3  -6  -3  107.28    7.11
  -3  -6  -3  101.84    7.12
   3   6   3  107.45    7.58
   3   6   3  100.69    7.18
   3   6   3   99.61    7.15
   3   6   3  101.79    7.17
  -4  -6  -3   26.11    2.76
  -4  -6  -3   26.62    2.66
  -4  -6  -3   31.86    3.22
  -4  -6  -3   26.28    2.44
   4   6   3   33.78    2.97
   4   6   3   32.46    2.84
   4   6   3   34.40    3.33
   4   6   3   35.04    2.48
   4   6   3   35.24    3.10
  -5  -6  -3    2.44    1.07
  -5  -6  -3    1.85    1.07
  -5  -6  -3    2.21    0.85
   5   6   3    2.26    1.19
   5   6   3    2.71    1.26
   5   6   3    1.38    1.14
   5   6   3    2.90    1.07
  -6  -6  -3   22.03    2.68
  -6  -6  -3   25.04    2.62
  -6  -6  -3   26.08    2.90
   6   6   3   31.32    3.25
  -7  -6  -3    7.92    1.73
  -7  -6  -3    6.47    1.78
   7   6   3    7.32    2.26
   6  -7  -3   16.62    2.68
   6  -7  -3   18.06    2.81
  -6   7   3   19.99    2.65
  -6   7   3   19.47    2.68
   5  -7  -3   11.74    2.11
   5  -7  -3   11.84    2.16
  -5   7   3   10.93    1.91
  -5   7   3   11.03    1.98
  -5   7   3   14.21    1.98
   4  -7  -3   54.58    4.46
   4  -7  -3   47.07    4.38
   4  -7  -3   46.79    4.36
  -4   7   3   55.81    4.24
  -4   7   3   59.28    4.12
  -4   7   3   53.54    4.33
   3  -7  -3   21.40    1.98
   3  -7  -3   19.88    2.37
   3  -7  -3   21.85    2.41
   3  -7  -3   22.73    2.45
  -3   7   3   29.91    2.56
  -3   7   3   26.06    2.50
  -3   7   3   26.27    2.29
   2  -7  -3   54.43    4.43
   2  -7  -3   58.10    4.21
   2  -7  -3   52.32    4.44
   2  -7  -3   54.87    4.38
  -2   7   3   65.25    5.25
  -2   7   3   65.58    4.50
  -2   7   3   64.49    4.56
   1  -7  -3   40.87    3.45
   1  -7  -3   40.48    3.41
   1  -7  -3   43.09    3.29
   1  -7  -3   41.97    3.28
  -1   7   3   45.17    3.44
  -1   7   3   46.13    4.06
  -1   7   3   43.72    3.45
   0  -7  -3  107.88    7.49
   0  -7  -3  114.69    7.66
   0  -7  -3  108.75    7.59
   0   7   3  112.60    7.60
   0   7   3  113.57    7.11
   0   7   3  112.31    8.19
   0   7   3  107.89    7.64
   0   7   3  113.66    7.17
  -1  -7  -3   19.90    2.33
  -1  -7  -3   19.98    2.32
   1   7   3   29.40    2.43
   1   7   3   32.42    2.20
   1   7   3   32.20    2.61
   1   7   3   30.12    2.24
   1   7   3   28.13    2.87
  -2  -7  -3   81.21    5.23
  -2  -7  -3   76.92    5.42
  -2  -7  -3   78.67    5.55
   2   7   3   76.78    5.95
   2   7   3   76.70    5.46
   2   7   3   74.58    5.58
   2   7   3   78.12    5.44
   2   7   3   76.71    5.39
  -3  -7  -3   32.92    3.09
  -3  -7  -3   30.14    2.90
  -3  -7  -3   29.59    2.63
   3   7   3   38.85    3.53
   3   7   3   38.66    2.89
   3   7   3   37.54    3.09
   3   7   3   38.36    3.03
   3   7   3   41.10    3.31
  -4  -7  -3   66.67    5.42
  -4  -7  -3   66.35    4.88
  -4  -7  -3   63.92    4.81
  -4  -7  -3   67.05    4.55
   4   7   3   61.42    4.95
   4   7   3   60.60    4.95
   4   7   3   63.71    4.54
   4   7   3   57.94    4.78
  -5  -7  -3   28.65    3.07
  -5  -7  -3   29.48    2.73
  -5  -7  -3   29.85    2.94
   5   7   3   36.58    3.38
   5   7   3   35.12    3.10
  -6  -7  -3    1.38    1.22
  -6  -7  -3    1.17    1.19
   6   7   3    0.59    1.42
  -7  -7  -3    7.08    1.89
  -7  -7  -3    7.42    1.78
   7   7   3   12.26    2.55
   6  -8  -3    2.04    1.68
   6  -8  -3    1.46    1.63
  -6   8   3    1.73    1.44
  -6   8   3    1.67    1.96
  -6   8   3    1.80    1.56
   5  -8  -3   22.00    2.79
   5  -8  -3   18.09    2.76
  -5   8   3   20.74    2.73
  -5   8   3   23.42    2.73
  -5   8   3   20.40    2.60
   4  -8  -3    9.91    1.90
   4  -8  -3    7.86    1.77
   4  -8  -3    7.27    1.87
  -4   8   3   11.99    2.03
  -4   8   3   11.32    1.62
  -4   8   3   11.04    1.84
   3  -8  -3   26.67    2.60
   3  -8  -3   24.87    2.22
   3  -8  -3   26.88    2.72
   3  -8  -3   25.92    2.79
  -3   8   3   23.43    2.48
  -3   8   3   22.31    2.50
  -3   8   3   24.57    2.63
   2  -8  -3   19.92    2.05
   2  -8  -3   15.93    2.09
   2  -8  -3   19.61    2.14
   2  -8  -3   18.97    1.92
  -2   8   3   16.72    2.09
  -2   8   3   18.40    2.08
   1  -8  -3   32.78    2.97
   1  -8  -3   34.68    2.77
   1  -8  -3   32.32    2.73
   1  -8  -3   31.55    2.90
  -1   8   3   31.24    2.92
  -1   8   3   31.74    2.90
  -1   8   3   34.47    3.57
   0  -8  -3   13.42    1.58
   0  -8  -3   14.89    1.81
   0  -8  -3   14.88    1.71
   0   8   3    9.54    1.95
   0   8   3    8.56    1.92
   0   8   3    9.43    1.52
   0   8   3    9.19    1.61
  -1  -8  -3  115.66    6.99
  -1  -8  -3  107.47    7.19
  -1  -8  -3  112.00    7.29
  -1  -8  -3  108.44    7.23
   1   8   3   98.54    6.89
   1   8   3   93.50    7.24
   1   8   3   99.42    7.13
   1   8   3   97.18    7.69
   1   8   3  102.13    6.80
   1   8   3  103.29    7.74
  -2  -8  -3   14.35    1.88
  -2  -8  -3   15.21    2.00
  -2  -8  -3   15.64    1.71
   2   8   3   20.58    2.06
   2   8   3   20.52    2.44
   2   8   3   20.34    1.86
   2   8   3   22.86    2.06
   2   8   3   22.78    2.30
  -3  -8  -3    3.66    0.91
  -3  -8  -3    3.70    1.20
   3   8   3    2.24    0.95
   3   8   3    2.28    1.10
   3   8   3    3.01    1.12
  -4  -8  -3   38.68    3.26
  -4  -8  -3   31.31    3.09
  -4  -8  -3   34.67    2.82
   4   8   3   34.92    2.78
   4   8   3   29.95    3.13
   4   8   3   34.24    3.27
  -5  -8  -3   13.51    2.18
  -5  -8  -3   12.07    2.01
   5   8   3   11.35    2.01
   5   8   3   10.50    2.11
  -6  -8  -3   17.53    2.51
  -6  -8  -3   18.68    2.62
   6   8   3   13.85    2.57
  -7  -8  -3    3.07    1.39
  -7  -8  -3    0.84    1.46
   7   8   3    2.63    1.87
   6  -9  -3    9.21    2.40
   6  -9  -3    8.78    2.42
  -6   9   3    6.93    2.12
  -6   9   3    6.89    2.11
  -6   9   3    8.57    2.08
   5  -9  -3    3.19    1.58
   5  -9  -3    4.63    1.82
  -5   9   3    6.57    1.67
  -5   9   3    7.82    1.92
  -5   9   3    5.51    1.64
   4  -9  -3   14.76    2.46
   4  -9  -3   15.44    2.44
   4  -9  -3   16.24    2.61
  -4   9   3   13.03    2.24
  -4   9   3   12.78    2.23
   3  -9  -3    4.37    1.51
   3  -9  -3    3.91    1.47
   3  -9  -3    5.64    1.20
   3  -9  -3    4.69    1.38
  -3   9   3    6.66    1.56
  -3   9   3    4.22    1.25
  -3   9   3    6.06    1.54
   2  -9  -3   40.46    3.24
   2  -9  -3   34.74    3.24
   2  -9  -3   36.09    3.32
   2  -9  -3   34.75    3.01
  -2   9   3   31.58    3.17
  -2   9   3   34.86    3.19
  -2   9   3   32.57    3.19
   1  -9  -3   18.96    2.23
   1  -9  -3   20.31    2.12
   1  -9  -3   20.14    2.31
   1  -9  -3   17.35    1.96
  -1   9   3   16.46    2.35
  -1   9   3   14.43    2.13
   0  -9  -3    8.06    1.41
   0  -9  -3    7.06    1.48
   0  -9  -3    7.86    1.50
   0   9   3    2.79    1.20
  -1  -9  -3   21.00    1.95
  -1  -9  -3   20.85    2.26
  -1  -9  -3   22.17    2.22
  -1  -9  -3   22.90    2.18
   1   9   3   17.64    2.55
   1   9   3   15.65    2.33
   1   9   3   17.33    2.10
   1   9   3   17.52    1.79
  -2  -9  -3   45.17    3.75
  -2  -9  -3   51.30    3.39
  -2  -9  -3   45.01    3.71
  -2  -9  -3   46.54    3.56
   2   9   3   38.12    3.70
   2   9   3   37.99    3.38
   2   9   3   37.82    3.48
   2   9   3   38.05    3.98
  -3  -9  -3   32.93    2.81
  -3  -9  -3   34.10    3.21
   3   9   3   34.35    2.96
   3   9   3   35.12    3.12
   3   9   3   34.88    3.30
  -4  -9  -3    3.24    1.36
   4   9   3    7.13    1.76
   4   9   3    7.08    1.38
   4   9   3    8.41    1.81
  -5  -9  -3   21.57    2.69
  -5  -9  -3   24.33    2.70
   5   9   3   23.91    2.93
   5   9   3   21.37    2.85
  -6  -9  -3    3.79    1.61
  -6  -9  -3    3.39    1.54
   6   9   3    6.94    2.14
   5 -10  -3   12.68    2.53
   5 -10  -3    8.74    2.27
  -5  10   3    9.18    2.08
  -5  10   3    9.20    2.07
  -5  10   3    9.38    2.21
   4 -10  -3   10.73    2.22
   4 -10  -3    8.45    2.02
   4 -10  -3    6.49    1.99
  -4  10   3    9.22    1.99
  -4  10   3    7.77    1.89
   3 -10  -3   19.07    2.78
   3 -10  -3   19.64    2.51
   3 -10  -3   21.86    2.70
  -3  10   3   21.08    2.65
  -3  10   3   22.83    2.80
  -3  10   3   21.37    2.56
   2 -10  -3    5.75    1.63
   2 -10  -3    8.27    1.72
   2 -10  -3    7.24    1.85
   2 -10  -3    7.81    1.56
  -2  10   3    8.24    1.71
  -2  10   3    6.72    1.62
  -2  10   3    8.74    1.78
   1 -10  -3   46.96    3.90
   1 -10  -3   46.53    4.01
   1 -10  -3   48.27    4.21
   1 -10  -3   47.16    3.92
  -1  10   3   45.63    4.00
  -1  10   3   46.63    4.17
   0 -10  -3   43.67    3.83
   0 -10  -3   43.20    3.89
   0 -10  -3   44.01    3.97
   0  10   3   49.40    4.13
   0  10   3   51.51    3.99
  -1 -10  -3    0.30    1.08
  -1 -10  -3    0.95    1.11
  -1 -10  -3    0.36    0.81
  -1 -10  -3    1.34    1.06
   1  10   3    3.35    1.19
   1  10   3    1.94    1.21
  -2 -10  -3   26.80    2.88
  -2 -10  -3   26.70    2.74
  -2 -10  -3   28.24    2.94
  -2 -10  -3   27.84    2.55
   2  10   3   28.67    3.03
   2  10   3   28.71    2.67
   2  10   3   29.60    2.80
  -3 -10  -3   12.88    2.12
   3  10   3   13.25    1.91
   3  10   3   16.46    2.42
   3  10   3   13.12    2.03
  -4 -10  -3   18.35    2.57
   4  10   3   16.58    2.89
   4  10   3   17.40    2.55
   4  10   3   15.07    2.51
  -5 -10  -3   10.55    2.15
   5  10   3   13.65    2.44
   5  10   3   13.91    2.39
  -6 -10  -3   15.31    2.46
  -6 -10  -3   11.42    2.40
   6  10   3   11.10    2.41
   6  10   3   10.50    2.45
   4 -11  -3    8.65    2.36
   4 -11  -3    8.08    2.04
   4 -11  -3    5.83    2.04
  -4  11   3    8.62    2.02
  -4  11   3    9.19    2.12
   3 -11  -3   12.67    2.46
   3 -11  -3   14.63    2.42
   3 -11  -3   14.31    2.40
  -3  11   3   14.15    2.54
  -3  11   3   12.79    2.33
  -3  11   3   14.38    2.35
   2 -11  -3    9.45    1.91
   2 -11  -3    9.63    1.78
   2 -11  -3    8.85    2.03
   2 -11  -3    7.69    1.79
  -2  11   3    8.54    1.95
  -2  11   3    7.44    1.91
  -2  11   3    8.46    1.89
   1 -11  -3    8.30    1.95
   1 -11  -3   10.84    2.06
   1 -11  -3   10.42    1.85
   1 -11  -3    9.65    1.77
  -1  11   3   13.62    2.23
  -1  11   3   14.78    2.29
   0 -11  -3   34.68    3.29
   0 -11  -3   34.86    3.34
   0 -11  -3   34.86    3.24
   0 -11  -3   34.89    3.31
   0  11   3   32.26    3.29
   0  11   3   33.37    3.45
  -1 -11  -3   39.54    3.70
  -1 -11  -3   38.15    3.65
  -1 -11  -3   42.05    3.46
  -1 -11  -3   39.08    3.67
   1  11   3   41.01    3.87
   1  11   3   39.71    3.75
  -2 -11  -3   21.24    2.53
  -2 -11  -3   24.78    2.77
  -2 -11  -3   22.68    2.77
   2  11   3   22.71    2.90
   2  11   3   23.70    2.61
  -3 -11  -3   19.00    2.71
  -3 -11  -3   19.21    2.76
   3  11   3   19.56    2.85
   3  11   3   19.26    2.40
   3  11   3   19.05    2.38
  -4 -11  -3   11.26    2.27
   4  11   3    8.68    2.00
   4  11   3   10.46    2.36
  -5 -11  -3   24.31    3.27
   5  11   3   25.79    3.31
   5  11   3   21.75    3.18
   3 -12  -3   36.05    3.97
   3 -12  -3   35.77    3.80
   3 -12  -3   34.46    3.57
  -3  12   3   31.16    3.56
  -3  12   3   29.92    3.63
  -3  12   3   29.75    3.63
   2 -12  -3   23.91    3.23
   2 -12  -3   24.85    2.92
   2 -12  -3   24.08    2.96
   2 -12  -3   26.93    3.18
  -2  12   3   24.24    3.24
  -2  12   3   28.38    3.34
  -2  12   3   29.65    3.33
   1 -12  -3   13.25    2.15
   1 -12  -3   16.22    2.55
   1 -12  -3   15.79    2.62
   1 -12  -3   15.05    2.28
  -1  12   3   11.54    2.24
  -1  12   3   12.03    2.34
  -1  12   3    9.80    2.12
   0 -12  -3   21.31    2.75
   0 -12  -3   24.41    2.72
   0 -12  -3   22.83    2.82
   0 -12  -3   25.38    2.98
   0  12   3   21.88    3.14
   0  12   3   26.05    2.93
  -1 -12  -3    5.16    1.80
  -1 -12  -3    5.48    1.78
  -1 -12  -3    3.79    1.51
   1  12   3    7.22    1.79
   1  12   3    6.51    1.92
  -2 -12  -3   18.92    2.89
  -2 -12  -3   23.07    3.09
  -2 -12  -3   17.54    2.54
   2  12   3   18.66    2.59
   2  12   3   17.79    2.94
  -3 -12  -3   19.08    2.80
  -3 -12  -3   21.05    2.95
   3  12   3   20.19    2.59
   3  12   3   19.01    3.00
  -4 -12  -3    4.17    1.81
   4  12   3    4.40    1.84
   2 -13  -3   32.98    3.39
   2 -13  -3   32.31    3.63
   2 -13  -3   30.88    3.87
   2 -13  -3   32.63    3.63
  -2  13   3   26.72    3.54
  -2  13   3   25.27    3.34
  -2  13   3   27.63    3.46
   1 -13  -3   20.43    2.84
   1 -13  -3   16.07    2.53
   1 -13  -3   17.59    2.81
   1 -13  -3   19.63    2.96
  -1  13   3   18.57    2.93
  -1  13   3   19.91    2.89
  -1  13   3   17.87    3.02
   0 -13  -3   11.71    2.35
   0 -13  -3   18.02    2.73
   0 -13  -3   16.34    2.41
   0 -13  -3   12.52    2.46
   0  13   3   11.03    2.34
   0  13   3   11.51    2.23
   0  13   3   11.35    2.51
  -1 -13  -3   18.01    2.82
  -1 -13  -3   18.70    2.74
  -1 -13  -3   17.88    2.75
   1  13   3   17.68    2.69
   1  13   3   17.15    3.04
  -2 -13  -3    1.78    1.57
  -2 -13  -3    1.50    1.44
  -2 -13  -3    1.95    1.42
   2  13   3    4.12    1.86
   2  13   3    2.05    1.54
  -3 -13  -3   13.73    2.73
  -3 -13  -3   14.84    2.72
   3  13   3   17.26    3.02
   3  13   3   15.96    2.45
   0 -14  -3    5.28    1.90
   0 -14  -3    5.21    1.80
   0 -14  -3    4.96    1.90
   0  14   3    4.69    1.82
   0  14   3    5.24    2.06
   0  14   3    7.70    2.15
  -1 -14  -3   23.60    3.34
  -1 -14  -3   23.36    3.34
  -1 -14  -3   26.20    3.31
   1  14   3   28.59    3.71
   1  14   3   23.80    3.35
   3  13  -4    3.33    2.00
  -3 -13   4    7.93    2.29
   2  13  -4    8.90    1.91
   2  13  -4    9.74    2.34
  -2 -13   4    8.29    2.46
   1  13  -4   10.03    2.35
   1  13  -4   12.26    2.25
  -1 -13   4   11.44    2.49
   0  13  -4    5.83    1.89
   0  13  -4    7.50    2.05
   0 -13   4    3.54    1.73
   0 -13   4    6.22    2.18
  -1  13  -4    8.78    2.12
  -1  13  -4    9.48    2.21
   1 -13   4    9.84    2.45
   1 -13   4    8.36    2.14
   1 -13   4    7.87    2.26
  -2  13  -4    1.54    1.59
  -2  13  -4    4.14    1.79
  -2  13  -4    2.72    1.52
   2 -13   4    3.07    2.03
   2 -13   4    3.02    1.78
   4  12  -4   30.15    3.85
   4  12  -4   35.51    4.11
  -4 -12   4   36.86    4.08
  -4 -12   4   32.73    3.78
   3  12  -4    1.02    1.46
  -3 -12   4    0.91    1.57
   2  12  -4   10.53    2.27
   2  12  -4    7.24    1.70
  -2 -12   4    9.07    2.19
   1  12  -4   16.34    2.37
   1  12  -4   14.87    2.59
  -1 -12   4   11.97    2.44
   0  12  -4   15.93    2.41
   0  12  -4   18.23    2.67
   0 -12   4   11.62    2.12
   0 -12   4   11.75    2.43
  -1  12  -4    2.58    1.20
  -1  12  -4    4.36    1.66
  -1  12  -4    3.88    1.61
   1 -12   4    2.67    1.48
   1 -12   4    3.77    1.73
  -2  12  -4   17.13    2.50
  -2  12  -4   17.99    2.69
  -2  12  -4   20.42    2.97
   2 -12   4   15.86    2.70
   2 -12   4   18.79    2.94
  -3  12  -4    2.66    1.57
  -3  12  -4    1.25    1.43
   3 -12   4    4.26    1.85
   3 -12   4    4.88    1.98
   5  11  -4    6.51    2.45
   5  11  -4   11.39    2.40
  -5 -11   4   10.03    2.22
  -5 -11   4    9.50    2.36
   4  11  -4    4.08    1.71
   4  11  -4    2.31    1.64
  -4 -11   4    3.06    1.85
   3  11  -4   17.01    2.76
  -3 -11   4   22.09    3.17
   2  11  -4   18.96    2.27
   2  11  -4   18.41    2.74
  -2 -11   4   14.35    2.47
  -2 -11   4   16.15    2.22
   1  11  -4    9.64    1.80
   1  11  -4   12.96    2.27
  -1 -11   4    9.03    1.81
  -1 -11   4   11.93    1.98
  -1 -11   4    8.58    2.08
   0  11  -4    2.73    1.09
   0  11  -4    1.91    1.29
   0  11  -4    1.41    1.25
   0 -11   4    0.28    1.07
   0 -11   4    1.03    1.36
   0 -11   4    1.30    1.19
  -1  11  -4   23.12    2.66
  -1  11  -4   21.25    2.78
  -1  11  -4   18.71    2.22
   1 -11   4   15.91    2.38
   1 -11   4   16.73    2.70
   1 -11   4   13.30    2.29
  -2  11  -4    2.69    1.43
  -2  11  -4    2.57    1.35
  -2  11  -4    4.39    1.71
   2 -11   4    6.13    1.66
   2 -11   4    3.61    1.57
   2 -11   4    5.17    1.60
   2 -11   4    6.46    1.86
  -3  11  -4   16.20    2.33
  -3  11  -4   12.77    2.26
  -3  11  -4   14.99    2.03
  -3  11  -4   15.09    2.36
   3 -11   4    8.98    2.26
   3 -11   4   10.90    2.27
   3 -11   4    9.32    2.10
  -4  11  -4    4.03    1.41
  -4  11  -4    6.17    1.85
  -4  11  -4    5.34    1.81
   4 -11   4   10.78    2.53
   4 -11   4    6.55    2.02
   4 -11   4    8.55    2.24
   5  10  -4    3.38    1.54
   5  10  -4    3.36    1.85
  -5 -10   4   -0.25    1.25
  -5 -10   4   -1.12    1.34
  -5 -10   4   -0.26    1.20
   4  10  -4   18.34    2.74
   4  10  -4   13.68    2.66
  -4 -10   4   16.85    2.41
  -4 -10   4   18.98    2.86
   3  10  -4    1.13    1.46
   3  10  -4    3.60    1.51
   3  10  -4    2.57    1.06
  -3 -10   4    2.72    1.45
  -3 -10   4    2.10    1.25
   2  10  -4   10.57    1.69
   2  10  -4   13.49    2.14
  -2 -10   4   10.29    1.85
  -2 -10   4    8.90    2.01
   1  10  -4   28.68    2.96
   1  10  -4   27.86    2.80
  -1 -10   4   27.09    2.72
  -1 -10   4   24.58    2.44
  -1 -10   4   24.61    2.92
   0  10  -4   14.76    2.28
   0  10  -4   14.59    2.21
   0  10  -4   17.62    1.83
   0 -10   4   15.26    2.36
   0 -10   4   15.30    2.01
   0 -10   4   15.12    1.95
  -1  10  -4    4.18    1.50
  -1  10  -4    3.58    1.34
  -1  10  -4    5.03    1.22
   1 -10   4    5.24    1.46
   1 -10   4    5.27    1.50
   1 -10   4    4.61    1.55
  -2  10  -4   34.41    3.27
  -2  10  -4   32.57    3.08
  -2  10  -4   36.26    3.03
   2 -10   4   29.92    3.52
   2 -10   4   28.15    3.18
   2 -10   4   28.45    3.07
   2 -10   4   26.81    3.09
  -3  10  -4   10.18    1.75
  -3  10  -4   10.56    1.90
  -3  10  -4   11.41    2.09
  -3  10  -4   13.44    2.03
   3 -10   4   10.16    2.34
   3 -10   4   12.31    2.21
   3 -10   4   12.82    2.17
  -4  10  -4   12.62    2.24
  -4  10  -4   10.83    1.91
  -4  10  -4   13.04    2.22
   4 -10   4    8.21    2.16
   4 -10   4    7.61    2.15
   4 -10   4    7.93    2.05
  -5  10  -4    5.05    1.78
  -5  10  -4    4.39    1.54
  -5  10  -4    4.87    1.79
   5 -10   4    2.18    1.70
   5 -10   4    3.21    2.03
   6   9  -4   11.47    2.28
   6   9  -4   13.37    2.82
  -6  -9   4   15.51    2.72
  -6  -9   4   13.71    2.38
   5   9  -4   27.73    3.43
   5   9  -4   23.41    2.90
  -5  -9   4   27.70    3.00
  -5  -9   4   24.32    2.86
  -5  -9   4   27.23    3.21
   4   9  -4   30.43    3.44
   4   9  -4   34.12    3.27
  -4  -9   4   26.69    3.31
  -4  -9   4   26.87    3.07
   3   9  -4   57.05    4.99
   3   9  -4   59.85    4.58
   3   9  -4   60.86    5.25
  -3  -9   4   66.16    5.20
  -3  -9   4   71.63    4.99
   2   9  -4    1.45    0.82
   2   9  -4    2.82    1.23
   2   9  -4    2.87    1.00
  -2  -9   4   -0.36    1.05
  -2  -9   4    0.31    0.92
   1   9  -4   42.98    3.70
   1   9  -4   44.90    4.01
   1   9  -4   43.72    3.34
  -1  -9   4   48.65    4.12
  -1  -9   4   49.18    3.59
  -1  -9   4   49.28    3.77
   0   9  -4   54.36    4.77
   0   9  -4   52.86    4.60
   0   9  -4   56.34    4.55
   0   9  -4   55.74    4.22
   0  -9   4   61.39    4.88
   0  -9   4   62.67    4.82
   0  -9   4   61.64    4.51
   0  -9   4   63.55    4.63
  -1   9  -4   48.66    3.91
  -1   9  -4   47.39    3.50
  -1   9  -4   50.62    4.28
  -1   9  -4   47.31    3.81
   1  -9   4   39.20    3.81
   1  -9   4   40.07    4.08
   1  -9   4   40.60    3.68
   1  -9   4   37.16    3.58
  -2   9  -4   20.42    2.39
  -2   9  -4   19.28    2.40
  -2   9  -4   17.90    2.24
   2  -9   4   21.81    2.58
   2  -9   4   24.75    2.73
   2  -9   4   21.11    2.35
   2  -9   4   20.31    2.59
  -3   9  -4   28.65    2.94
  -3   9  -4   30.51    2.80
  -3   9  -4   31.35    3.00
  -3   9  -4   28.10    2.61
   3  -9   4   24.31    2.96
   3  -9   4   26.95    3.03
   3  -9   4   26.34    3.08
  -4   9  -4   14.11    2.29
  -4   9  -4   20.03    2.55
  -4   9  -4   17.46    2.19
   4  -9   4   17.48    2.70
   4  -9   4   13.08    2.53
   4  -9   4   15.71    2.63
  -5   9  -4   10.47    1.89
  -5   9  -4   12.81    2.26
  -5   9  -4   13.30    2.45
   5  -9   4   15.04    2.61
   5  -9   4    9.87    2.35
   6   8  -4   10.09    2.48
   6   8  -4    9.31    1.94
  -6  -8   4   16.60    2.70
  -6  -8   4   11.76    2.35
   5   8  -4   10.12    2.32
   5   8  -4   10.68    2.03
  -5  -8   4   14.92    2.28
  -5  -8   4   15.23    2.09
  -5  -8   4   12.87    2.28
   4   8  -4   36.05    3.76
   4   8  -4   38.88    3.65
  -4  -8   4   39.24    3.67
  -4  -8   4   39.45    3.57
   3   8  -4   67.79    4.76
   3   8  -4   66.72    5.21
   3   8  -4   67.46    5.42
   3   8  -4   69.55    4.84
  -3  -8   4   65.44    5.27
  -3  -8   4   66.27    5.10
   2   8  -4   97.01    7.26
   2   8  -4   95.60    6.92
   2   8  -4   96.79    7.44
   2   8  -4   99.74    6.95
  -2  -8   4  111.28    6.76
  -2  -8   4  107.12    7.21
  -2  -8   4  103.54    7.32
   1   8  -4   23.22    2.16
   1   8  -4   23.77    2.39
   1   8  -4   22.72    1.77
   1   8  -4   24.50    2.16
  -1  -8   4   19.03    1.72
  -1  -8   4   19.98    2.12
  -1  -8   4   18.23    1.95
  -1  -8   4   18.29    2.33
   0   8  -4   58.62    4.59
   0   8  -4   59.80    4.51
   0   8  -4   58.43    4.65
   0   8  -4   55.87    5.42
   0   8  -4   59.49    4.14
   0  -8   4   57.74    4.16
   0  -8   4   58.54    4.61
   0  -8   4   56.03    3.89
   0  -8   4   58.66    4.35
   0  -8   4   56.56    4.62
   0  -8   4   60.80    4.47
  -1   8  -4   50.74    4.23
  -1   8  -4   50.23    4.44
  -1   8  -4   48.71    4.44
  -1   8  -4   55.26    4.86
   1  -8   4   63.02    4.16
   1  -8   4   65.60    5.05
   1  -8   4   61.79    4.72
   1  -8   4   65.34    4.66
   1  -8   4   65.16    4.58
   1  -8   4   63.48    4.02
  -2   8  -4   22.59    2.13
  -2   8  -4   22.82    2.27
  -2   8  -4   20.68    2.26
  -2   8  -4   21.16    2.70
   2  -8   4   16.18    2.28
   2  -8   4   19.21    2.34
   2  -8   4   17.74    2.32
   2  -8   4   16.23    2.36
  -3   8  -4   11.94    1.93
  -3   8  -4    8.89    1.73
  -3   8  -4   11.89    1.74
  -3   8  -4   12.37    1.62
   3  -8   4   13.21    2.14
   3  -8   4   13.73    2.04
   3  -8   4   17.30    2.18
  -4   8  -4    4.84    1.45
  -4   8  -4    4.34    1.41
  -4   8  -4    5.23    1.26
   4  -8   4    5.05    1.67
   4  -8   4    4.66    1.63
   4  -8   4    4.48    1.63
  -5   8  -4   10.02    2.12
  -5   8  -4   11.34    1.99
  -5   8  -4    8.56    1.68
   5  -8   4    8.08    2.08
   5  -8   4    6.16    1.90
  -6   8  -4    8.22    2.04
  -6   8  -4    5.14    1.67
  -6   8  -4    8.75    1.87
   6  -8   4    8.68    2.35
   6  -8   4    7.22    2.15
   7   7  -4    9.46    2.49
  -7  -7   4    5.90    2.06
   6   7  -4   17.19    2.38
   6   7  -4   15.92    2.80
  -6  -7   4   11.76    2.38
   5   7  -4   28.21    3.37
   5   7  -4   33.72    3.20
  -5  -7   4   32.03    3.33
  -5  -7   4   32.87    2.78
  -5  -7   4   35.26    3.37
  -5  -7   4   33.41    2.98
   4   7  -4    0.77    1.16
   4   7  -4    0.78    0.71
   4   7  -4    0.74    0.92
  -4  -7   4    2.70    1.11
  -4  -7   4    0.71    0.69
  -4  -7   4    0.16    0.99
   3   7  -4   48.30    3.59
   3   7  -4   51.96    4.32
   3   7  -4   51.18    4.15
   3   7  -4   49.36    3.73
  -3  -7   4   51.19    4.14
  -3  -7   4   51.36    4.03
   2   7  -4   62.01    4.85
   2   7  -4   63.45    5.01
   2   7  -4   63.24    4.27
   2   7  -4   64.71    4.59
   2   7  -4   65.61    4.63
   2   7  -4   62.12    5.34
  -2  -7   4   65.46    4.35
  -2  -7   4   65.33    4.94
  -2  -7   4   69.23    5.57
  -2  -7   4   63.92    4.80
   1   7  -4   48.92    3.72
   1   7  -4   53.43    3.17
   1   7  -4   51.65    4.16
   1   7  -4   52.77    3.55
  -1  -7   4   38.26    3.08
  -1  -7   4   39.93    3.27
  -1  -7   4   35.91    3.56
   0   7  -4   41.94    3.79
   0   7  -4   40.61    3.24
   0   7  -4   40.02    3.41
   0   7  -4   38.51    2.96
   0   7  -4   41.01    3.35
   0  -7   4   39.96    2.75
   0  -7   4   42.57    3.44
   0  -7   4   41.56    3.19
   0  -7   4   39.38    3.06
   0  -7   4   40.02    3.24
   0  -7   4   42.31    3.49
   1  -7   4    7.48    1.35
   1  -7   4    6.59    0.81
   1  -7   4    7.68    1.60
   1  -7   4    6.94    1.47
   1  -7   4    8.45    1.11
   1  -7   4    7.03    1.27
  -2   7  -4   42.10    3.58
  -2   7  -4   46.33    4.17
  -2   7  -4   44.82    3.58
  -2   7  -4   44.88    3.50
  -2   7  -4   43.53    3.26
   2  -7   4   44.21    3.70
   2  -7   4   45.22    4.17
   2  -7   4   42.63    3.63
   2  -7   4   43.85    3.28
   2  -7   4   48.28    3.79
   2  -7   4   46.93    3.80
  -3   7  -4   20.72    2.00
  -3   7  -4   20.92    2.26
  -3   7  -4   20.73    2.13
  -3   7  -4   20.68    2.21
   3  -7   4   20.70    2.42
   3  -7   4   18.91    2.31
   3  -7   4   23.79    2.44
   3  -7   4   21.61    1.99
  -4   7  -4   10.96    1.63
  -4   7  -4   12.67    2.00
  -4   7  -4   11.76    1.89
   4  -7   4   10.95    2.02
   4  -7   4   13.98    2.18
   4  -7   4   12.89    2.12
  -5   7  -4   10.85    1.82
  -5   7  -4   10.56    1.84
  -5   7  -4    8.88    1.85
   5  -7   4    7.78    1.91
   5  -7   4    6.97    1.89
  -6   7  -4    3.17    1.39
  -6   7  -4    7.51    1.85
  -6   7  -4    5.60    1.51
   6  -7   4    5.93    2.09
   6  -7   4    5.04    1.85
   7   6  -4   -0.09    1.61
  -7  -6   4    3.16    1.75
   6   6  -4   11.80    2.36
   6   6  -4   11.59    1.98
  -6  -6   4   10.35    1.69
  -6  -6   4    8.42    2.03
   5   6  -4    9.62    1.65
   5   6  -4    8.78    1.95
   5   6  -4    8.04    1.43
  -5  -6   4    8.04    1.32
  -5  -6   4    8.16    1.80
  -5  -6   4    8.52    1.42
   4   6  -4   45.72    3.37
   4   6  -4   46.18    3.92
   4   6  -4   46.63    3.61
  -4  -6   4   40.55    3.19
  -4  -6   4   38.72    3.67
  -4  -6   4   40.39    3.72
   3   6  -4   12.67    1.28
   3   6  -4   15.76    1.99
   3   6  -4   16.12    2.57
   3   6  -4   15.07    1.51
   3   6  -4   16.56    1.82
  -3  -6   4    8.95    1.64
  -3  -6   4   11.36    1.60
  -3  -6   4   11.33    2.17
  -3  -6   4   12.17    1.29
   2   6  -4   42.03    3.40
   2   6  -4   45.01    3.57
   2   6  -4   40.91    3.77
   2   6  -4   41.64    3.10
   2   6  -4   44.33    3.23
  -2  -6   4   37.79    3.37
  -2  -6   4   42.90    3.87
  -2  -6   4   39.55    3.33
  -2  -6   4   43.37    2.92
   1   6  -4   80.03    5.42
   1   6  -4   77.11    5.87
   1   6  -4   80.04    5.74
   1   6  -4   81.56    5.69
   1   6  -4   83.32    6.30
  -1  -6   4   89.03    5.91
  -1  -6   4   87.24    5.96
  -1  -6   4   88.11    5.72
  -1  -6   4   89.85    5.64
   0   6  -4   32.49    2.16
   0   6  -4   31.22    2.47
   0   6  -4   32.50    2.85
   0   6  -4   32.18    2.38
   0   6  -4   32.13    2.56
   0  -6   4   23.53    2.20
   0  -6   4   24.08    1.83
   0  -6   4   24.41    2.18
   0  -6   4   22.59    2.33
   0  -6   4   21.61    2.35
   0  -6   4   25.06    2.45
  -1   6  -4  190.76   12.94
  -1   6  -4  190.08   13.10
  -1   6  -4  201.03   13.52
  -1   6  -4  185.08   13.11
  -1   6  -4  190.59   13.53
   1  -6   4  204.84   13.16
   1  -6   4  219.36   13.58
   1  -6   4  205.98   13.10
   1  -6   4  214.49   12.99
   1  -6   4  221.98   13.33
   2  -6   4    7.12    1.29
   2  -6   4    7.45    1.12
   2  -6   4    7.67    1.39
   2  -6   4    6.04    1.56
   2  -6   4    8.75    1.52
   2  -6   4    6.14    1.31
  -3   6  -4   23.19    2.40
  -3   6  -4   23.44    2.35
  -3   6  -4   22.80    2.18
  -3   6  -4   25.70    3.09
   3  -6   4   27.18    2.30
   3  -6   4   24.36    2.52
   3  -6   4   24.65    2.49
   3  -6   4   29.74    2.66
  -4   6  -4   30.67    2.95
  -4   6  -4   28.14    2.65
  -4   6  -4   30.35    2.99
   4  -6   4   35.22    3.21
   4  -6   4   32.57    3.11
   4  -6   4   34.53    2.85
   4  -6   4   33.35    3.14
  -5   6  -4    4.54    1.36
  -5   6  -4    4.33    1.38
  -5   6  -4    4.73    1.32
   5  -6   4    4.97    1.35
   5  -6   4    6.14    1.67
   5  -6   4    5.27    1.54
  -6   6  -4   -0.01    1.22
  -6   6  -4    1.39    1.17
  -6   6  -4    1.38    1.15
  -6   6  -4    2.14    1.19
   6  -6   4    4.47    1.91
   6  -6   4    1.34    1.52
  -7   6  -4    7.87    1.86
  -7   6  -4    5.47    1.88
   7  -6   4    4.80    2.14
   7  -6   4    7.67    2.13
   7   5  -4   28.28    3.56
  -7  -5   4   27.16    3.36
  -7  -5   4   25.99    2.85
   6   5  -4    9.43    1.81
   6   5  -4    7.62    2.03
  -6  -5   4   11.87    1.70
  -6  -5   4   15.08    2.46
   5   5  -4   26.60    2.62
   5   5  -4   26.11    2.92
   5   5  -4   25.31    2.39
  -5  -5   4   24.98    2.22
  -5  -5   4   23.80    2.19
  -5  -5   4   22.04    2.65
   4   5  -4   24.90    2.78
   4   5  -4   24.17    2.36
  -4  -5   4   30.27    2.26
  -4  -5   4   31.15    2.89
   3   5  -4   45.87    3.76
   3   5  -4   49.03    4.15
   3   5  -4   49.82    3.63
   3   5  -4   46.78    3.15
   3   5  -4   46.99    3.39
  -3  -5   4   40.89    3.12
  -3  -5   4   40.71    3.58
  -3  -5   4   42.26    3.61
  -3  -5   4   43.11    4.00
   2   5  -4    9.97    1.16
   2   5  -4   10.76    1.68
   2   5  -4   10.38    1.64
   2   5  -4   10.37    1.52
   2   5  -4    9.46    1.23
  -2  -5   4   12.99    1.48
  -2  -5   4   13.28    1.02
  -2  -5   4   12.85    1.81
  -2  -5   4   11.11    1.47
   1   5  -4   28.81    2.16
   1   5  -4   29.11    2.69
   1   5  -4   28.96    2.27
   1   5  -4   26.39    2.41
   1   5  -4   27.63    1.94
   0   5  -4  111.31    8.04
   0   5  -4  113.23    7.81
   0   5  -4  116.57    7.80
   0   5  -4  109.79    7.67
   0   5  -4  113.27    7.47
   0  -5   4  124.53    7.86
   0  -5   4  121.90    7.24
   0  -5   4  117.84    7.67
   0  -5   4  117.42    7.83
   0  -5   4  113.38    7.74
  -1   5  -4  150.12   10.04
  -1   5  -4  143.24    9.63
  -1   5  -4  147.87    9.96
  -1   5  -4  145.83    9.65
  -1   5  -4  145.79    9.48
   1  -5   4  142.46    9.69
   1  -5   4  149.06    9.96
   1  -5   4  148.19    9.54
   1  -5   4  147.25    9.72
  -2   5  -4  155.86   10.27
  -2   5  -4  146.82   10.12
  -2   5  -4  146.63    9.96
  -2   5  -4  145.60   10.69
  -2   5  -4  146.98   10.13
   2  -5   4  165.21   10.14
   2  -5   4  167.28   10.39
   2  -5   4  159.68   10.74
   2  -5   4  162.60   10.37
   2  -5   4  159.84   10.29
  -3   5  -4   35.61    2.69
  -3   5  -4   34.87    3.39
  -3   5  -4   31.88    2.43
  -3   5  -4   36.79    2.75
   3  -5   4   26.29    2.63
   3  -5   4   27.02    3.07
   3  -5   4   22.65    2.62
   3  -5   4   27.14    2.51
  -4   5  -4    2.25    1.02
  -4   5  -4    2.46    0.88
  -4   5  -4    2.46    1.05
   4  -5   4    6.56    1.40
   4  -5   4    5.25    1.27
   4  -5   4    5.95    1.23
   4  -5   4    7.58    1.61
  -5   5  -4   11.36    1.66
  -5   5  -4   10.95    1.71
  -5   5  -4    9.67    1.76
  -5   5  -4   10.72    1.78
   5  -5   4   14.22    2.23
   5  -5   4   14.96    2.30
   5  -5   4   16.52    1.98
  -6   5  -4    7.42    1.75
  -6   5  -4    6.92    1.57
  -6   5  -4    8.18    1.42
  -6   5  -4    5.89    1.47
   6  -5   4    5.44    1.85
   6  -5   4    8.86    2.01
   6  -5   4    5.83    1.61
  -7   5  -4    0.73    1.49
  -7   5  -4    0.56    1.27
   7  -5   4    2.46    1.76
   7  -5   4    1.42    1.63
   7   4  -4    6.50    1.96
  -7  -4   4    8.80    1.63
  -7  -4   4    8.50    2.08
   6   4  -4   21.47    2.73
   6   4  -4   20.87    2.23
  -6  -4   4   15.87    2.52
  -6  -4   4   15.68    2.01
   5   4  -4   17.83    2.07
   5   4  -4   16.43    1.89
   5   4  -4   17.25    2.27
  -5  -4   4   13.70    2.15
  -5  -4   4   13.97    1.67
   4   4  -4   15.98    1.91
   4   4  -4   17.86    1.92
   4   4  -4   17.68    2.20
  -4  -4   4   23.54    2.78
  -4  -4   4   21.54    1.77
  -4  -4   4   21.43    2.22
  -3  -4   4   14.24    1.98
  -3  -4   4   14.40    1.27
  -3  -4   4   15.05    1.74
   2   4  -4  132.44    8.76
   2   4  -4  135.88    9.18
   2   4  -4  137.13    8.94
   2   4  -4  132.11    8.50
   2   4  -4  129.20    8.66
  -2  -4   4  135.90    9.17
  -2  -4   4  131.53    8.35
  -2  -4   4  125.75    8.74
  -2  -4   4  130.21    8.79
   1   4  -4   45.35    2.95
   1   4  -4   44.53    3.60
   1   4  -4   45.64    3.22
   1   4  -4   45.84    3.40
  -1  -4   4   43.30    3.38
  -1  -4   4   48.35    3.67
  -1  -4   4   42.68    3.36
  -1  -4   4   46.80    3.13
   0   4  -4   41.49    2.97
   0   4  -4   39.61    2.87
   0   4  -4   40.12    3.15
   0   4  -4   41.01    2.68
   0   4  -4   41.86    3.00
   0  -4   4   27.48    2.83
  -1   4  -4   62.03    4.46
  -1   4  -4   61.88    4.20
  -1   4  -4   62.48    4.22
  -1   4  -4   63.90    4.53
  -1   4  -4   61.44    4.06
  -1   4  -4   65.36    3.90
   1  -4   4   53.18    4.19
   1  -4   4   53.81    4.39
   1  -4   4   52.16    4.22
   1  -4   4   54.20    4.13
  -2   4  -4   80.95    5.44
  -2   4  -4   85.75    5.40
  -2   4  -4   82.74    5.94
  -2   4  -4   82.16    5.19
   2  -4   4   74.50    5.46
   2  -4   4   74.18    5.43
   2  -4   4   74.62    5.51
   2  -4   4   75.59    5.36
   2  -4   4   75.03    5.79
  -3   4  -4   45.82    4.16
  -3   4  -4   46.74    3.62
  -3   4  -4   43.35    3.53
  -3   4  -4   44.66    3.39
   3  -4   4   48.61    3.77
   3  -4   4   49.64    3.69
   3  -4   4   49.40    3.60
   3  -4   4   49.95    4.28
  -4   4  -4   50.51    3.89
  -4   4  -4   50.84    3.73
  -4   4  -4   56.45    4.39
  -4   4  -4   54.17    3.91
  -4   4  -4   48.77    4.58
   4  -4   4   46.66    3.91
   4  -4   4   47.84    4.06
   4  -4   4   44.46    3.90
  -5   4  -4    4.94    1.27
  -5   4  -4    3.75    1.09
  -5   4  -4    3.64    1.39
  -5   4  -4    4.85    1.13
  -5   4  -4    5.08    1.14
   5  -4   4    2.74    1.26
   5  -4   4    4.61    1.33
   5  -4   4    2.91    1.11
  -6   4  -4   11.05    1.70
  -6   4  -4   11.40    1.92
  -6   4  -4   11.93    1.97
  -6   4  -4    9.18    1.53
   6  -4   4   11.75    2.17
   6  -4   4   11.90    2.06
   6  -4   4   10.09    1.95
  -7   4  -4    1.16    1.22
  -7   4  -4    3.70    1.54
   7  -4   4    1.31    1.36
   7  -4   4   -0.02    1.43
   8   3  -4    1.80    1.78
  -8  -3   4    3.06    1.50
  -8  -3   4    2.09    1.84
   7   3  -4   10.82    2.26
  -7  -3   4   10.49    1.85
  -7  -3   4   11.47    2.44
   6   3  -4    7.09    1.55
   6   3  -4    5.26    1.61
  -6  -3   4    8.98    1.49
  -6  -3   4    8.32    1.85
   5   3  -4   20.98    2.13
   5   3  -4   19.03    2.10
   5   3  -4   17.28    2.31
  -5  -3   4   22.85    2.55
  -5  -3   4   23.00    2.04
   4   3  -4   47.17    3.51
   4   3  -4   44.27    3.91
   4   3  -4   43.03    3.25
   4   3  -4   43.37    3.21
  -4  -3   4   32.28    3.66
  -4  -3   4   34.25    3.26
  -4  -3   4   34.03    2.87
   3   3  -4   59.91    4.98
   3   3  -4   62.47    4.76
   3   3  -4   57.48    4.55
   3   3  -4   62.26    4.55
  -3  -3   4   69.12    4.31
  -3  -3   4   67.85    4.72
  -3  -3   4   70.98    5.19
   2   3  -4  132.42    8.15
   2   3  -4  137.12    7.96
   2   3  -4  138.61    8.61
   2   3  -4  132.09    8.31
  -2  -3   4  110.75    8.41
  -2  -3   4  110.77    8.16
  -2  -3   4  116.58    7.80
  -2  -3   4  112.18    8.19
   1   3  -4  222.27   14.25
   1   3  -4  227.28   14.04
   1   3  -4  223.31   13.92
   1   3  -4  223.83   14.16
   1   3  -4  232.06   13.69
   1   3  -4  235.31   13.62
  -1  -3   4  205.96   13.81
  -1  -3   4  203.69   14.03
  -1  -3   4  214.88   14.10
  -1  -3   4  210.88   14.24
   0   3  -4  213.93   13.32
   0   3  -4  211.20   12.85
   0   3  -4  205.84   13.36
   0   3  -4  204.91   13.20
   0   3  -4  211.06   13.04
   0  -3   4  203.83   13.29
   0  -3   4  202.01   13.24
   0  -3   4  206.51   13.28
   0  -3   4  209.12   13.30
  -1   3  -4   84.06    5.34
  -1   3  -4   83.66    5.51
  -1   3  -4   85.10    5.26
  -1   3  -4   80.85    5.61
  -1   3  -4   84.17    5.90
  -2   3  -4   48.68    3.56
  -2   3  -4   49.21    3.70
  -2   3  -4   49.03    4.14
  -2   3  -4   49.65    3.75
   2  -3   4   54.60    3.85
   2  -3   4   57.89    3.97
   2  -3   4   54.50    3.80
   2  -3   4   57.17    3.87
   2  -3   4   55.27    4.25
  -3   3  -4   10.85    1.33
  -3   3  -4   11.36    1.31
  -3   3  -4    9.82    1.25
  -3   3  -4   10.57    1.73
   3  -3   4   11.88    1.96
   3  -3   4    9.53    1.47
   3  -3   4   10.91    1.36
   3  -3   4   10.41    1.38
  -4   3  -4   30.45    3.22
  -4   3  -4   27.51    2.39
  -4   3  -4   29.11    2.57
  -4   3  -4   26.70    2.46
  -4   3  -4   28.63    2.87
  -4   3  -4   31.54    2.46
   4  -3   4   30.35    3.29
   4  -3   4   29.31    2.63
   4  -3   4   26.06    2.69
   4  -3   4   28.85    2.62
  -5   3  -4   28.98    2.73
  -5   3  -4   28.92    2.52
  -5   3  -4   27.62    3.10
  -5   3  -4   28.26    2.51
  -5   3  -4   29.83    2.63
   5  -3   4   29.52    2.84
   5  -3   4   30.90    2.96
  -6   3  -4   29.21    2.42
  -6   3  -4   27.88    2.82
  -6   3  -4   24.63    2.50
  -6   3  -4   25.97    2.31
   6  -3   4   20.58    2.64
   6  -3   4   17.19    2.66
   6  -3   4   17.73    2.62
  -7   3  -4    5.76    1.65
  -7   3  -4    7.17    1.69
   7  -3   4    3.93    1.77
   7  -3   4    4.47    1.73
   7  -3   4    4.88    1.73
  -8   3  -4    3.66    1.65
  -8   3  -4    2.33    1.67
   8  -3   4    3.95    1.79
   8  -3   4    2.84    1.74
   8   2  -4   30.30    3.67
  -8  -2   4   22.52    3.49
  -8  -2   4   22.90    2.98
   7   2  -4    9.15    2.14
  -7  -2   4    9.21    2.10
  -7  -2   4   10.43    1.81
   6   2  -4   27.63    3.07
   6   2  -4   25.68    2.60
  -6  -2   4   26.69    3.03
  -6  -2   4   25.84    2.57
   5   2  -4   45.05    3.50
   5   2  -4   40.90    3.46
   5   2  -4   41.74    3.70
  -5  -2   4   40.79    3.24
  -5  -2   4   41.31    3.61
   4   2  -4  103.63    7.70
   4   2  -4  100.43    7.80
   4   2  -4  105.22    7.67
   4   2  -4  106.52    8.29
  -4  -2   4  124.18    8.50
  -4  -2   4  117.57    7.50
  -4  -2   4  120.57    7.45
  -4  -2   4  120.94    7.32
  -4  -2   4  119.18    7.23
  -4  -2   4  119.12    7.89
   3   2  -4   43.05    3.48
   3   2  -4   42.72    3.60
   3   2  -4   43.06    3.52
   3   2  -4   42.23    3.88
  -3  -2   4   49.86    3.17
  -3  -2   4   50.37    3.28
  -3  -2   4   52.46    3.06
  -3  -2   4   49.33    3.64
  -3  -2   4   50.71    4.01
   2   2  -4   71.90    4.87
   2   2  -4   68.71    4.53
   2   2  -4   74.29    4.66
   2   2  -4   68.44    4.50
  -2  -2   4   63.95    4.07
  -2  -2   4   57.92    4.71
  -2  -2   4   59.98    4.18
  -2  -2   4   63.00    4.14
  -2  -2   4   64.69    4.07
  -2  -2   4   61.09    4.52
   1   2  -4   39.02    3.01
   1   2  -4   37.19    2.85
   1   2  -4   39.65    3.13
   1   2  -4   39.73    3.05
   1   2  -4   39.58    2.97
  -1  -2   4   43.91    2.59
  -1  -2   4   42.29    2.84
  -1  -2   4   42.26    3.13
  -1  -2   4   45.99    3.04
  -1  -2   4   40.82    3.04
   0  -2   4   18.35    1.65
   0  -2   4   17.47    1.56
   0  -2   4   17.95    1.65
   0  -2   4   18.65    1.63
  -1   2  -4  382.55   23.55
  -1   2  -4  382.75   23.72
  -1   2  -4  391.59   24.10
  -1   2  -4  363.62   23.77
   1  -2   4  374.10   23.84
   1  -2   4  383.03   24.09
   1  -2   4  373.42   23.77
   1  -2   4  385.59   23.89
   2  -2   4   17.12    1.58
   2  -2   4   17.91    1.76
   2  -2   4   18.26    1.77
   2  -2   4   18.13    1.98
   2  -2   4   18.52    1.61
  -3   2  -4   62.55    4.46
  -3   2  -4   64.48    4.48
  -3   2  -4   64.35    4.51
  -3   2  -4   63.48    4.38
  -3   2  -4   63.98    4.70
  -3   2  -4   63.71    5.04
   3  -2   4   63.07    4.63
   3  -2   4   64.49    4.67
   3  -2   4   64.66    5.09
   3  -2   4   66.50    4.55
  -4   2  -4   40.75    3.19
  -4   2  -4   42.98    3.96
  -4   2  -4   41.20    3.20
  -4   2  -4   42.66    3.24
  -4   2  -4   42.84    3.63
  -4   2  -4   40.51    3.29
   4  -2   4   41.86    3.45
   4  -2   4   45.59    3.44
   4  -2   4   43.11    3.53
   4  -2   4   44.68    4.06
  -5   2  -4   18.30    2.10
  -5   2  -4   19.53    2.16
  -5   2  -4   20.72    1.96
  -5   2  -4   20.32    2.53
  -5   2  -4   20.54    1.96
   5  -2   4   20.17    2.26
   5  -2   4   20.25    2.31
  -6   2  -4   52.78    4.32
  -6   2  -4   54.14    4.61
  -6   2  -4   56.44    4.32
  -6   2  -4   52.06    4.49
   6  -2   4   70.40    4.94
   6  -2   4   67.66    5.02
   6  -2   4   60.47    4.69
  -7   2  -4    6.81    1.77
  -7   2  -4    7.58    1.80
   7  -2   4    6.21    1.85
   7  -2   4    5.41    1.84
   7  -2   4    4.86    1.70
  -8   2  -4    0.70    1.38
  -8   2  -4    1.88    1.49
   8  -2   4    1.41    1.56
   8  -2   4    1.23    1.61
   8   1  -4   17.75    3.00
  -8  -1   4   25.88    3.29
  -8  -1   4   25.00    2.97
   7   1  -4   13.68    2.49
  -7  -1   4   13.86    2.48
  -7  -1   4   16.74    2.25
   6   1  -4   22.10    2.52
   6   1  -4   21.10    2.24
  -6  -1   4   16.18    2.09
  -6  -1   4   18.42    2.68
   5   1  -4   44.84    3.71
   5   1  -4   43.85    3.90
   5   1  -4   44.51    3.58
   5   1  -4   45.28    3.78
  -5  -1   4   46.74    3.21
  -5  -1   4   42.70    3.44
  -5  -1   4   46.99    4.01
   4   1  -4   55.92    3.26
   4   1  -4   53.65    3.74
   4   1  -4   56.98    3.71
   4   1  -4   53.49    3.77
   4   1  -4   56.15    4.38
  -4  -1   4   40.78    3.46
  -4  -1   4   43.92    3.69
  -4  -1   4   43.56    3.39
  -4  -1   4   44.15    3.20
  -4  -1   4   44.20    4.12
  -4  -1   4   41.97    3.09
  -4  -1   4   44.48    3.04
   3   1  -4   68.61    4.24
   3   1  -4   68.49    4.77
   3   1  -4   65.45    5.09
   3   1  -4   64.46    4.67
   3   1  -4   67.58    4.72
  -3  -1   4   67.10    4.33
  -3  -1   4   65.94    4.54
  -3  -1   4   65.88    4.45
  -3  -1   4   67.82    5.12
  -3  -1   4   65.04    4.76
   2   1  -4   95.63    6.53
   2   1  -4   95.39    6.76
   2   1  -4   91.09    6.48
   2   1  -4   91.83    6.50
  -2  -1   4  101.10    6.37
  -2  -1   4  100.15    6.53
  -2  -1   4  101.86    6.78
  -2  -1   4  102.91    6.24
   1   1  -4   86.69    5.42
   1   1  -4   81.88    5.45
   1   1  -4   84.35    5.38
   1   1  -4   81.87    5.18
  -1  -1   4   77.78    5.39
  -1  -1   4   79.29    5.05
  -1  -1   4   76.96    5.32
  -1  -1   4   76.10    5.41
   0   1  -4  218.15   14.62
   0   1  -4  221.89   14.58
   0   1  -4  224.02   14.55
   0   1  -4  228.47   14.45
   0  -1   4  244.54   14.38
   0  -1   4  240.13   14.61
   0  -1   4  236.30   14.62
   0  -1   4  234.85   14.75
   0  -1   4  241.84   14.75
   0  -1   4  233.52   14.81
  -1   1  -4   11.81    0.95
  -1   1  -4   11.75    1.17
  -1   1  -4   11.52    1.04
  -1   1  -4   12.13    1.16
  -1   1  -4   13.19    1.14
  -2   1  -4  206.06   14.00
  -2   1  -4  217.80   14.48
  -2   1  -4  225.84   13.81
  -2   1  -4  220.89   14.04
  -2   1  -4  223.85   13.92
  -2   1  -4  219.79   14.03
  -2   1  -4  224.20   14.03
   2  -1   4  223.06   13.98
   2  -1   4  226.46   14.18
   2  -1   4  221.49   14.50
   2  -1   4  221.87   14.15
  -3   1  -4   53.86    3.77
  -3   1  -4   54.70    3.71
  -3   1  -4   55.18    4.41
  -3   1  -4   54.82    3.84
  -3   1  -4   53.23    3.92
  -3   1  -4   56.09    3.77
   3  -1   4   50.94    3.93
   3  -1   4   51.18    3.75
   3  -1   4   51.70    3.97
   3  -1   4   49.83    4.32
  -4   1  -4   11.08    1.57
  -4   1  -4   11.24    1.31
  -4   1  -4   13.34    1.50
  -4   1  -4   11.25    1.86
  -4   1  -4   13.30    1.35
  -4   1  -4   11.66    1.29
   4  -1   4   10.01    1.55
   4  -1   4    8.93    1.56
   4  -1   4    8.65    1.81
   4  -1   4    9.08    1.36
  -5   1  -4   32.98    3.15
  -5   1  -4   30.04    2.74
  -5   1  -4   37.91    5.16
  -5   1  -4   31.17    2.78
  -5   1  -4   32.54    2.62
   5  -1   4   28.11    2.93
   5  -1   4   29.69    2.82
  -6   1  -4   17.37    2.09
  -6   1  -4   17.56    2.08
  -6   1  -4   15.91    1.80
   6  -1   4   16.19    2.43
   6  -1   4   15.93    2.34
  -7   1  -4   26.57    3.01
  -7   1  -4   26.73    3.00
   7  -1   4   34.90    3.55
   7  -1   4   27.64    3.01
   7  -1   4   32.36    3.32
  -8   1  -4   10.74    2.13
  -8   1  -4   11.24    2.18
   8  -1   4    8.49    2.13
   8   0  -4   17.12    2.68
  -8   0   4   12.40    2.57
  -8   0   4   10.24    2.03
   7   0  -4   29.79    3.23
  -7   0   4   29.99    2.93
   6   0  -4   33.66    3.03
   6   0  -4   35.88    3.42
  -6   0   4   35.96    3.06
   5   0  -4   28.31    2.44
   5   0  -4   26.58    2.03
   5   0  -4   25.88    2.51
   5   0  -4   26.20    2.56
  -5   0   4   21.35    1.99
  -5   0   4   22.04    2.17
  -5   0   4   20.98    2.39
   4   0  -4   84.94    5.87
   4   0  -4   88.67    6.52
   4   0  -4   83.00    5.91
   4   0  -4   82.96    5.82
   4   0  -4   83.86    5.54
  -4   0   4   82.55    5.67
  -4   0   4   84.01    5.43
  -4   0   4   79.72    5.52
  -4   0   4   82.53    5.93
  -4   0   4   84.34    6.46
   3   0  -4   43.60    3.64
   3   0  -4   42.05    3.26
   3   0  -4   45.26    3.25
   3   0  -4   43.01    3.22
   3   0  -4   43.59    3.01
  -3   0   4   41.68    3.00
  -3   0   4   43.11    2.73
  -3   0   4   43.22    2.95
  -3   0   4   40.51    3.21
  -3   0   4   43.54    3.61
   2   0  -4   12.30    0.96
   2   0  -4   12.64    1.47
   2   0  -4   12.04    1.32
   2   0  -4   12.80    1.31
   2   0  -4   12.70    1.26
   2   0  -4   12.20    1.14
   1   0  -4  245.21   15.18
   1   0  -4  240.89   15.13
   1   0  -4  234.53   15.30
   1   0  -4  246.28   15.37
   1   0  -4  243.65   15.31
  -1   0   4  238.18   15.23
  -1   0   4  246.56   15.33
  -1   0   4  240.62   15.36
   0   0  -4   67.79    4.37
   0   0  -4   68.57    4.41
   0   0  -4   66.84    4.47
   0   0  -4   67.48    4.52
   0   0  -4   67.97    4.55
   0   0   4   67.85    4.36
   0   0   4   66.91    4.40
   0   0   4   70.13    4.64
   0   0   4   66.77    4.55
  -1   0  -4  158.10    9.76
  -1   0  -4  156.80    9.78
  -1   0  -4  160.27    9.64
  -1   0  -4  157.99    9.67
   1   0   4  144.43    9.59
   1   0   4  152.71    9.82
   1   0   4  152.29    9.91
   1   0   4  148.61    9.63
   1   0   4  146.73   10.10
  -2   0  -4  132.17    8.10
  -2   0  -4  136.80    7.94
  -2   0  -4  131.01    8.19
  -2   0  -4  131.49    8.21
  -2   0  -4  130.81    8.09
   2   0   4  119.26    8.61
   2   0   4  115.97    8.05
   2   0   4  122.92    8.33
   2   0   4  113.82    8.21
  -3   0  -4   73.68    5.23
  -3   0  -4   74.06    5.32
  -3   0  -4   75.92    5.20
  -3   0  -4   74.49    5.29
   3   0   4   80.97    5.23
   3   0   4   80.96    5.51
   3   0   4   77.33    5.36
   3   0   4   82.76    5.91
  -4   0  -4   72.92    5.04
  -4   0  -4   74.79    4.95
  -4   0  -4   71.51    4.96
  -4   0  -4   76.83    5.30
   4   0   4   65.12    5.21
   4   0   4   70.05    5.68
   4   0   4   67.39    5.13
   4   0   4   67.00    4.96
   4   0   4   71.76    4.69
  -5   0  -4   17.53    1.80
  -5   0  -4   17.96    2.29
  -5   0  -4   18.34    1.99
  -5   0  -4   20.20    1.98
   5   0   4   14.66    2.10
   5   0   4   18.02    1.96
  -6   0  -4   46.51    3.75
  -6   0  -4   46.22    3.52
  -6   0  -4   52.99    4.92
  -6   0  -4   46.60    3.76
   6   0   4   38.39    3.94
   6   0   4   36.87    3.68
  -7   0  -4    8.98    1.86
  -7   0  -4   10.86    1.93
   7   0   4    8.35    1.69
   7   0   4    9.88    1.99
   7   0   4   12.06    2.35
  -8   0  -4    5.80    1.79
  -8   0  -4    4.23    1.74
   8   0   4    6.77    2.25
   8   0   4    7.63    2.00
  -8   1   4    3.92    1.67
   7  -1  -4   19.66    2.59
  -7   1   4   13.49    2.15
   6  -1  -4    0.90    1.07
   6  -1  -4    0.75    0.94
  -6   1   4    2.48    1.17
  -6   1   4    2.81    0.89
   5  -1  -4   30.66    2.90
   5  -1  -4   33.18    3.10
   5  -1  -4   32.17    3.19
   5  -1  -4   33.19    2.74
   5  -1  -4   31.06    2.97
  -5   1   4   38.36    2.78
  -5   1   4   38.00    3.31
  -5   1   4   39.77    2.98
   4  -1  -4   40.63    3.52
   4  -1  -4   45.24    3.47
   4  -1  -4   45.51    3.73
   4  -1  -4   44.62    3.53
   4  -1  -4   43.94    3.43
   4  -1  -4   44.25    3.29
  -4   1   4   45.93    4.02
  -4   1   4   47.41    3.70
  -4   1   4   45.81    3.14
  -4   1   4   44.25    3.23
  -4   1   4   44.53    3.31
   3  -1  -4  117.48    7.52
   3  -1  -4  113.12    7.65
   3  -1  -4  112.83    7.64
   3  -1  -4  112.31    7.55
   3  -1  -4  105.54    7.68
  -3   1   4  114.86    7.49
  -3   1   4  121.75    7.48
  -3   1   4  114.45    8.06
  -3   1   4  119.83    7.89
   2  -1  -4  160.73   10.63
   2  -1  -4  168.75   10.82
   2  -1  -4  163.86   10.77
   2  -1  -4  170.41   10.70
   2  -1  -4  168.88   10.45
   2  -1  -4  170.24   10.70
   2  -1  -4  163.16   10.73
  -2   1   4  166.21   10.95
  -2   1   4  172.30   11.06
   1  -1  -4  135.81    8.83
   1  -1  -4  131.04    8.79
   1  -1  -4  135.00    8.63
   1  -1  -4  128.54    8.72
   1  -1  -4  139.53    8.78
  -1   1   4  147.90    8.90
   0  -1  -4  131.16    8.87
   0  -1  -4  132.49    8.90
   0  -1  -4  130.90    8.87
   0  -1  -4  129.15    8.90
   0  -1  -4  126.32    8.85
   0   1   4  149.56    8.77
   0   1   4  150.53    8.66
   0   1   4  145.69    9.02
   0   1   4  148.10    8.91
   0   1   4  146.14    8.79
  -1  -1  -4   69.24    4.38
  -1  -1  -4   68.12    4.37
  -1  -1  -4   67.53    4.48
  -1  -1  -4   70.34    4.48
  -1  -1  -4   72.22    4.22
  -1  -1  -4   70.46    4.49
   1   1   4   63.83    4.21
   1   1   4   60.32    4.44
   1   1   4   62.95    4.19
   1   1   4   61.80    4.54
  -2  -1  -4   94.82    6.86
  -2  -1  -4   97.03    6.87
  -2  -1  -4   97.92    6.77
  -2  -1  -4   99.91    6.81
  -2  -1  -4   97.84    6.87
   2   1   4  115.54    6.74
   2   1   4  109.76    6.91
   2   1   4  114.58    7.42
   2   1   4  108.20    7.04
   2   1   4  114.12    6.81
  -3  -1  -4   71.43    4.69
  -3  -1  -4   72.49    4.61
  -3  -1  -4   74.71    4.68
  -3  -1  -4   76.65    4.80
  -3  -1  -4   80.15    4.75
   3   1   4   60.22    4.68
   3   1   4   59.01    4.80
   3   1   4   58.50    5.09
   3   1   4   61.44    4.69
   3   1   4   61.03    4.54
  -4  -1  -4   56.67    4.39
  -4  -1  -4   57.05    4.32
  -4  -1  -4   59.76    4.65
  -4  -1  -4   57.28    4.35
  -4  -1  -4   57.15    4.40
   4   1   4   66.80    4.20
   4   1   4   65.26    4.75
   4   1   4   66.25    4.42
   4   1   4   68.45    5.18
  -5  -1  -4   55.93    4.10
  -5  -1  -4   51.72    4.11
  -5  -1  -4   54.03    4.49
  -5  -1  -4   54.37    3.98
   5   1   4   54.10    4.43
   5   1   4   52.44    4.11
  -6  -1  -4    8.28    1.54
  -6  -1  -4    9.69    1.61
  -6  -1  -4    8.29    1.88
  -6  -1  -4    9.13    1.44
   6   1   4    6.20    1.44
   6   1   4    8.10    1.88
  -7  -1  -4    9.40    1.78
  -7  -1  -4    9.78    1.87
   7   1   4   13.45    2.26
   7   1   4   11.42    2.32
  -8  -1  -4   -0.40    1.19
  -8  -1  -4    0.25    1.31
   8   1   4    0.02    1.50
   7  -2  -4   -0.21    1.35
  -7   2   4    3.15    1.32
   6  -2  -4   48.50    4.38
   6  -2  -4   54.20    4.24
   6  -2  -4   52.82    4.04
   6  -2  -4   51.62    4.14
  -6   2   4   51.63    3.99
  -6   2   4   48.21    4.09
   5  -2  -4    1.54    0.91
   5  -2  -4    1.18    0.86
   5  -2  -4    1.17    0.96
   5  -2  -4    1.88    1.11
   5  -2  -4    1.82    0.95
  -5   2   4    4.64    1.06
  -5   2   4    3.25    1.25
  -5   2   4    4.42    0.97
  -5   2   4    4.41    0.79
   4  -2  -4   62.18    4.63
   4  -2  -4   61.83    4.66
   4  -2  -4   64.17    4.76
   4  -2  -4   60.67    4.77
   4  -2  -4   64.30    5.18
  -4   2   4   69.16    5.46
  -4   2   4   69.63    5.21
  -4   2   4   68.20    4.70
  -4   2   4   68.09    4.52
  -4   2   4   71.79    4.66
   3  -2  -4  103.87    7.23
   3  -2  -4  107.04    7.30
   3  -2  -4  103.52    7.35
   3  -2  -4  105.29    7.27
   3  -2  -4  104.61    7.08
   3  -2  -4  108.82    7.22
  -3   2   4  115.54    7.77
  -3   2   4  114.39    7.16
  -3   2   4  113.48    7.64
   2  -2  -4  125.72    7.87
   2  -2  -4  122.22    8.14
   2  -2  -4  120.97    8.10
   2  -2  -4  119.07    8.09
   2  -2  -4  121.21    7.99
   2  -2  -4  121.76    8.05
  -2   2   4  128.09    8.40
  -2   2   4  126.47    8.41
   1  -2  -4  197.51   12.61
   1  -2  -4  203.46   12.42
   1  -2  -4  201.68   12.40
   1  -2  -4  194.52   12.58
   1  -2  -4  199.43   12.60
   1  -2  -4  193.82   12.57
   1  -2  -4  192.61   12.42
  -1   2   4  196.60   12.69
   0  -2  -4  220.74   14.33
   0  -2  -4  228.52   14.30
   0  -2  -4  230.65   14.31
   0  -2  -4  235.61   14.38
   0  -2  -4  223.28   14.31
   0   2   4  223.19   14.24
   0   2   4  226.86   14.40
  -1  -2  -4  157.42   10.41
  -1  -2  -4  156.63   10.44
  -1  -2  -4  153.12   10.49
  -1  -2  -4  149.48   10.41
  -1  -2  -4  156.17   10.50
   1   2   4  185.91   10.43
   1   2   4  189.65   10.40
  -2  -2  -4    5.25    0.87
  -2  -2  -4    5.14    0.87
  -2  -2  -4    6.06    0.80
  -2  -2  -4    5.78    0.52
  -2  -2  -4    4.78    0.82
  -2  -2  -4    5.59    0.83
   2   2   4    3.53    0.70
   2   2   4    3.21    0.87
  -3  -2  -4   97.54    7.31
  -3  -2  -4   99.99    7.33
  -3  -2  -4  101.43    7.33
  -3  -2  -4   99.28    7.29
  -3  -2  -4  103.79    7.41
   3   2   4  118.24    7.48
   3   2   4  117.64    7.97
   3   2   4  118.67    7.30
   3   2   4  119.89    7.25
   3   2   4  120.62    7.61
   3   2   4  122.04    7.40
  -4  -2  -4    2.82    0.77
  -4  -2  -4    1.80    0.73
  -4  -2  -4    2.12    0.84
  -4  -2  -4    0.72    0.64
  -4  -2  -4    2.63    0.79
   4   2   4   -0.06    0.47
   4   2   4    0.55    0.68
   4   2   4    0.33    0.81
   4   2   4   -0.12    0.78
   4   2   4   -0.04    0.55
  -5  -2  -4    3.97    1.22
  -5  -2  -4    3.37    0.96
  -5  -2  -4    3.08    0.98
  -5  -2  -4    3.83    0.98
  -5  -2  -4    3.21    0.99
   5   2   4    1.95    1.05
   5   2   4    1.78    0.62
   5   2   4    2.58    1.14
   5   2   4    1.20    0.81
  -6  -2  -4   19.33    2.18
  -6  -2  -4   19.66    2.97
  -6  -2  -4   16.59    1.98
  -6  -2  -4   18.39    2.12
   6   2   4   20.62    2.60
  -7  -2  -4    4.54    1.48
  -7  -2  -4    4.92    1.45
   7   2   4    2.97    1.61
   7   2   4    3.59    1.72
  -8  -2  -4    5.84    1.90
  -8  -2  -4    5.31    1.64
   8   2   4    4.96    2.21
   7  -3  -4   11.71    2.29
  -7   3   4    8.51    1.66
  -7   3   4    7.22    1.72
   6  -3  -4   10.60    2.04
   6  -3  -4   12.59    1.86
  -6   3   4   12.76    1.92
  -6   3   4   13.88    1.89
   5  -3  -4   57.58    4.33
   5  -3  -4   52.39    4.41
   5  -3  -4   53.57    4.90
   5  -3  -4   52.37    4.20
   5  -3  -4   58.12    4.16
  -5   3   4   53.94    3.95
  -5   3   4   60.03    4.22
  -5   3   4   50.41    4.18
  -5   3   4   56.13    4.93
  -4   3   4   32.69    3.44
  -4   3   4   34.50    2.77
  -4   3   4   33.64    2.77
  -4   3   4   33.01    2.58
  -4   3   4   33.97    2.66
  -4   3   4   34.17    3.31
   3  -3  -4   98.86    7.17
   3  -3  -4  104.84    7.21
   3  -3  -4  101.16    7.24
   3  -3  -4   98.54    7.27
   3  -3  -4  104.34    6.90
   3  -3  -4  104.77    7.17
  -3   3   4  116.74    7.78
  -3   3   4  111.25    7.12
  -3   3   4  111.83    7.10
  -3   3   4  114.44    7.71
   2  -3  -4    6.11    1.05
   2  -3  -4    6.56    1.11
   2  -3  -4    6.15    0.90
   2  -3  -4    7.17    1.15
   2  -3  -4    5.12    0.97
   2  -3  -4    5.87    0.68
  -2   3   4    9.87    1.37
   1  -3  -4   29.70    2.29
   1  -3  -4   29.83    2.08
   1  -3  -4   30.51    2.05
   1  -3  -4   30.54    2.24
   1  -3  -4   30.10    2.10
   1  -3  -4   31.80    2.30
  -1   3   4   24.66    2.13
  -1   3   4   25.94    2.59
  -1   3   4   25.08    1.83
   0  -3  -4  144.22    9.30
   0  -3  -4  148.18    9.33
   0  -3  -4  145.34    9.08
   0  -3  -4  141.99    9.32
   0  -3  -4  143.83    9.42
   0  -3  -4  145.26    9.43
   0   3   4  148.62    9.18
   0   3   4  145.37    9.35
  -1  -3  -4  119.37    7.25
  -1  -3  -4  123.13    7.31
  -1  -3  -4  126.02    7.34
  -1  -3  -4  125.77    6.96
  -1  -3  -4  122.71    7.13
   1   3   4   99.94    7.05
   1   3   4   96.23    7.30
   1   3   4   95.00    7.21
   1   3   4   95.02    7.26
  -2  -3  -4   96.02    6.02
  -2  -3  -4   92.31    6.26
  -2  -3  -4   95.63    6.29
  -2  -3  -4   97.36    6.29
  -2  -3  -4   97.19    5.86
  -2  -3  -4   94.86    6.22
   2   3   4   91.96    6.09
   2   3   4   91.44    6.26
   2   3   4   91.83    6.27
   2   3   4   87.21    6.33
  -3  -3  -4   17.44    1.70
  -3  -3  -4   17.99    1.69
  -3  -3  -4   17.88    1.80
  -3  -3  -4   18.01    1.40
  -3  -3  -4   17.58    1.70
  -3  -3  -4   15.48    1.65
   3   3   4   18.14    1.89
   3   3   4   18.90    2.27
   3   3   4   18.75    1.81
   3   3   4   18.51    1.68
  -4  -3  -4   62.36    4.41
  -4  -3  -4   65.56    4.73
  -4  -3  -4   62.24    4.37
  -4  -3  -4   60.23    4.39
  -4  -3  -4   60.25    4.42
   4   3   4   59.61    4.28
   4   3   4   58.88    4.67
   4   3   4   57.39    4.60
   4   3   4   58.24    5.01
  -5  -3  -4   43.62    3.45
  -5  -3  -4   38.27    3.36
  -5  -3  -4   41.68    3.76
  -5  -3  -4   37.23    3.27
  -5  -3  -4   39.36    3.30
   5   3   4   44.09    3.83
   5   3   4   42.83    3.74
   5   3   4   42.67    3.11
  -6  -3  -4    2.14    1.01
  -6  -3  -4    1.38    1.05
  -6  -3  -4    1.48    0.99
  -6  -3  -4    1.89    0.95
   6   3   4    1.79    1.24
   6   3   4    2.48    1.37
  -7  -3  -4   22.28    2.61
  -7  -3  -4   21.54    2.47
  -7  -3  -4   20.61    2.71
   7   3   4   20.59    3.10
   7   3   4   19.27    3.04
  -8  -3  -4    3.92    1.75
  -8  -3  -4    5.89    1.69
   8   3   4    8.64    2.53
   7  -4  -4    3.91    1.70
  -7   4   4    1.94    1.38
  -7   4   4    3.63    1.44
   6  -4  -4   14.34    2.13
   6  -4  -4   15.53    2.31
  -6   4   4   12.25    1.88
  -6   4   4   11.05    1.89
   5  -4  -4    5.91    1.40
   5  -4  -4    6.47    1.60
  -5   4   4    8.03    1.48
  -5   4   4    7.46    1.38
  -5   4   4    6.97    1.20
   4  -4  -4    8.96    1.04
   4  -4  -4    9.74    1.47
   4  -4  -4    7.44    1.40
  -4   4   4    7.43    1.12
  -4   4   4    6.23    1.66
  -4   4   4    6.76    1.15
  -4   4   4    6.88    1.22
  -4   4   4    6.01    1.57
  -4   4   4    6.21    1.23
   3  -4  -4  161.66    9.62
   3  -4  -4  158.65    9.69
   3  -4  -4  159.95    9.10
   3  -4  -4  163.86    9.17
   3  -4  -4  158.87    9.75
  -3   4   4  126.52    9.99
  -3   4   4  130.81    9.46
  -3   4   4  125.42    9.46
  -3   4   4  126.98   10.01
  -3   4   4  131.02    9.41
   2  -4  -4   75.33    5.13
   2  -4  -4   75.13    5.29
   2  -4  -4   76.63    5.31
   2  -4  -4   71.72    5.26
   2  -4  -4   74.46    4.94
  -2   4   4   79.67    5.23
  -2   4   4   74.71    5.73
   1  -4  -4   25.57    1.97
   1  -4  -4   26.50    2.11
   1  -4  -4   25.79    2.19
   1  -4  -4   26.42    1.95
   1  -4  -4   26.07    2.19
  -1   4   4   26.20    2.00
  -1   4   4   22.96    2.46
  -1   4   4   26.20    2.17
   0  -4  -4   54.21    3.85
   0  -4  -4   56.04    3.78
   0  -4  -4   55.08    3.82
   0  -4  -4   55.20    3.98
   0  -4  -4   52.93    3.93
   0  -4  -4   55.50    3.61
   0   4   4   54.49    3.77
   0   4   4   55.21    3.97
   0   4   4   56.20    3.57
  -1  -4  -4  258.30   17.11
  -1  -4  -4  265.09   16.91
  -1  -4  -4  262.33   16.84
  -1  -4  -4  260.54   17.13
   1   4   4  274.15   16.79
   1   4   4  275.34   17.23
   1   4   4  268.89   17.12
   1   4   4  290.28   16.74
   1   4   4  276.19   17.26
  -2  -4  -4   28.62    2.27
  -2  -4  -4   28.77    2.22
  -2  -4  -4   28.22    2.24
  -2  -4  -4   27.25    1.85
  -2  -4  -4   26.28    1.76
   2   4   4   25.12    2.22
   2   4   4   24.36    2.24
   2   4   4   25.86    2.27
  -3  -4  -4   45.86    2.96
  -3  -4  -4   44.73    2.86
  -3  -4  -4   44.55    3.31
  -3  -4  -4   44.66    3.49
  -3  -4  -4   44.96    3.40
  -3  -4  -4   43.26    3.27
   3   4   4   37.45    3.38
   3   4   4   42.92    3.46
   3   4   4   39.27    3.25
  -4  -4  -4   19.20    1.78
  -4  -4  -4   18.52    2.03
  -4  -4  -4   20.72    2.10
  -4  -4  -4   19.09    1.99
  -4  -4  -4   19.70    2.30
   4   4   4   24.60    2.39
   4   4   4   25.38    2.08
   4   4   4   23.39    2.35
   4   4   4   27.21    2.85
  -5  -4  -4    5.50    1.22
  -5  -4  -4    4.98    1.23
  -5  -4  -4    5.46    1.15
  -5  -4  -4    4.72    1.36
  -5  -4  -4    4.89    1.17
  -5  -4  -4    5.10    1.02
   5   4   4    1.98    1.20
   5   4   4    1.63    1.10
   5   4   4    2.52    1.13
   5   4   4    2.98    0.94
  -6  -4  -4   23.39    2.59
  -6  -4  -4   25.39    2.49
  -6  -4  -4   24.85    2.51
  -6  -4  -4   27.89    2.68
  -6  -4  -4   27.53    2.57
   6   4   4   24.44    2.97
   6   4   4   23.40    3.10
  -7  -4  -4    6.31    1.50
  -7  -4  -4    4.32    1.47
  -7  -4  -4    6.02    1.48
   7   4   4    3.96    1.82
  -8  -4  -4    3.83    1.67
   8   4   4    3.75    2.02
   7  -5  -4    9.15    2.21
  -7   5   4    5.43    1.69
  -7   5   4    9.76    2.08
   6  -5  -4    3.49    1.52
   6  -5  -4    5.21    1.57
  -6   5   4    2.11    1.22
  -6   5   4    2.03    1.27
   5  -5  -4   42.64    3.97
   5  -5  -4   43.27    3.79
  -5   5   4   46.72    3.78
  -5   5   4   44.64    3.72
  -5   5   4   46.47    3.58
  -4   5   4   23.23    2.32
  -4   5   4   24.71    2.12
  -4   5   4   24.16    2.25
  -4   5   4   23.23    2.88
   3  -5  -4   12.89    1.71
   3  -5  -4   14.01    1.93
   3  -5  -4   12.03    1.25
   3  -5  -4   10.93    1.81
  -3   5   4   18.00    1.69
  -3   5   4   16.80    1.77
  -3   5   4   19.76    2.33
  -3   5   4   20.75    1.93
  -3   5   4   20.08    2.48
   2  -5  -4   83.31    5.56
   2  -5  -4   82.99    5.94
   2  -5  -4   82.85    5.94
   2  -5  -4   83.61    5.74
  -2   5   4   84.51    6.46
  -2   5   4   88.92    5.63
  -2   5   4   81.23    5.83
  -2   5   4   86.93    5.85
   1  -5  -4   23.34    1.93
   1  -5  -4   23.23    1.87
   1  -5  -4   22.58    2.13
   1  -5  -4   24.78    2.18
   0  -5  -4   87.59    5.82
   0  -5  -4   94.62    5.95
   0  -5  -4   88.25    6.14
   0  -5  -4   91.05    6.02
   0  -5  -4   82.39    6.11
   0   5   4   91.82    5.59
   0   5   4   84.04    6.12
   0   5   4   92.44    5.58
   0   5   4   89.84    5.91
   0   5   4   90.46    5.70
  -1  -5  -4    6.26    0.81
  -1  -5  -4    5.79    1.10
  -1  -5  -4    5.63    1.04
   1   5   4    9.99    1.01
   1   5   4   10.08    1.27
   1   5   4    9.63    1.32
   1   5   4    9.84    1.14
  -2  -5  -4   90.45    6.29
  -2  -5  -4   90.76    5.86
  -2  -5  -4   93.81    6.27
  -2  -5  -4   85.85    6.27
  -2  -5  -4   96.54    5.81
   2   5   4   91.08    6.34
   2   5   4   95.63    6.27
   2   5   4   90.73    6.46
   2   5   4   93.09    6.30
  -3  -5  -4   59.10    4.50
  -3  -5  -4   60.60    4.06
  -3  -5  -4   61.00    4.44
  -3  -5  -4   59.42    4.70
  -3  -5  -4   58.89    4.45
   3   5   4   62.26    4.54
   3   5   4   63.65    4.59
   3   5   4   62.91    4.74
   3   5   4   64.07    4.52
  -4  -5  -4   39.93    3.22
  -4  -5  -4   37.17    3.22
  -4  -5  -4   38.81    3.56
  -4  -5  -4   38.24    2.87
  -4  -5  -4   37.93    3.20
   4   5   4   38.57    3.42
   4   5   4   38.96    3.76
   4   5   4   41.07    3.18
   4   5   4   38.24    3.38
   4   5   4   43.98    3.66
  -5  -5  -4   12.02    2.10
  -5  -5  -4   11.08    1.77
  -5  -5  -4   11.31    1.76
  -5  -5  -4   13.77    1.68
  -5  -5  -4   12.93    1.53
   5   5   4   10.75    2.08
   5   5   4   10.52    1.60
   5   5   4   11.16    2.00
   5   5   4   12.11    2.05
  -6  -5  -4   -0.05    1.09
  -6  -5  -4    3.57    1.28
   6   5   4    2.30    1.42
   6   5   4    2.81    1.52
  -7  -5  -4    0.52    1.31
  -7  -5  -4    0.34    1.08
   7   5   4    0.21    1.34
   7  -6  -4    4.28    1.79
   7  -6  -4    3.99    1.94
  -7   6   4    8.73    2.01
  -7   6   4    5.98    1.72
   6  -6  -4    5.38    1.67
   6  -6  -4    6.87    1.96
  -6   6   4    6.60    1.70
  -6   6   4    6.72    1.76
   5  -6  -4    3.47    1.50
   5  -6  -4    2.12    1.26
  -5   6   4    5.43    1.43
  -5   6   4    8.29    1.44
  -5   6   4    5.20    1.45
   4  -6  -4   53.60    4.34
   4  -6  -4   51.48    4.19
   4  -6  -4   52.57    4.35
  -4   6   4   52.45    3.95
  -4   6   4   51.58    4.16
  -4   6   4   54.51    4.13
   3  -6  -4   10.23    1.75
   3  -6  -4    9.38    1.73
   3  -6  -4   10.78    1.17
   3  -6  -4    9.55    1.57
  -3   6   4   14.93    1.61
  -3   6   4   16.35    2.32
  -3   6   4   14.29    1.84
  -3   6   4   13.16    1.65
   2  -6  -4   50.73    3.95
   2  -6  -4   45.56    3.84
   2  -6  -4   51.47    3.73
   2  -6  -4   52.12    3.56
  -2   6   4   49.68    4.48
  -2   6   4   49.77    3.84
  -2   6   4   47.85    3.80
  -2   6   4   50.70    3.44
   1  -6  -4  120.23    7.85
   1  -6  -4  113.04    8.08
   1  -6  -4  112.27    7.85
   1  -6  -4  120.18    8.12
  -1   6   4  122.99    8.06
  -1   6   4  121.32    7.66
  -1   6   4  119.86    8.08
  -1   6   4  125.07    8.75
   0  -6  -4   94.23    5.49
   0  -6  -4   95.99    5.88
   0  -6  -4  100.26    5.87
   0   6   4   73.24    5.23
   0   6   4   73.40    6.24
   0   6   4   73.34    5.39
   0   6   4   72.51    5.72
  -1  -6  -4  150.88   10.11
  -1  -6  -4  151.34   10.18
  -1  -6  -4  155.67   10.16
   1   6   4  156.54   10.44
   1   6   4  150.62   10.21
   1   6   4  154.53    9.96
   1   6   4  156.16    9.89
  -2  -6  -4    8.99    1.34
  -2  -6  -4    9.38    0.87
   2   6   4    8.13    1.32
   2   6   4    7.37    1.32
   2   6   4    6.97    1.18
   2   6   4    7.20    1.39
  -3  -6  -4   49.34    3.74
  -3  -6  -4   49.98    3.32
  -3  -6  -4   50.40    3.82
   3   6   4   45.15    3.75
   3   6   4   48.81    3.85
   3   6   4   46.62    3.82
   3   6   4   48.29    4.08
  -4  -6  -4   41.54    3.01
  -4  -6  -4   42.83    3.83
  -4  -6  -4   43.43    3.49
  -4  -6  -4   36.91    3.30
   4   6   4   38.60    3.73
   4   6   4   40.26    3.55
   4   6   4   44.42    3.67
   4   6   4   38.47    3.33
  -5  -6  -4   60.04    5.18
  -5  -6  -4   59.22    4.62
  -5  -6  -4   60.78    4.64
   5   6   4   54.23    4.83
   5   6   4   56.18    4.92
   5   6   4   62.07    4.58
  -6  -6  -4    2.23    1.16
  -6  -6  -4    2.22    1.27
   6   6   4    2.28    1.48
   6   6   4    3.52    1.59
  -7  -6  -4    7.36    1.86
  -7  -6  -4    8.66    1.87
   7   6   4    7.39    2.29
   6  -7  -4   10.68    2.42
   6  -7  -4   11.51    2.40
  -6   7   4   16.86    2.50
  -6   7   4   18.45    2.58
   5  -7  -4   31.86    3.23
   5  -7  -4   35.30    3.40
  -5   7   4   26.90    2.97
  -5   7   4   27.17    2.91
  -5   7   4   28.84    3.01
   4  -7  -4   18.48    2.63
   4  -7  -4   17.40    2.50
   4  -7  -4   18.00    2.25
  -4   7   4   19.54    2.29
  -4   7   4   18.73    2.24
  -4   7   4   20.30    2.06
   3  -7  -4   46.53    3.98
   3  -7  -4   49.71    4.03
   3  -7  -4   50.81    3.48
   3  -7  -4   52.01    3.91
  -3   7   4   43.18    3.70
  -3   7   4   47.79    3.95
  -3   7   4   43.65    3.82
   2  -7  -4   58.32    4.21
   2  -7  -4   57.16    3.77
   2  -7  -4   54.96    3.91
  -2   7   4   43.95    3.94
  -2   7   4   44.92    3.90
  -2   7   4   46.32    4.63
   1  -7  -4   29.12    2.42
   1  -7  -4   27.56    2.66
   1  -7  -4   29.13    2.62
   1  -7  -4   29.28    2.36
  -1   7   4   26.64    1.99
  -1   7   4   26.60    3.17
  -1   7   4   26.46    2.55
  -1   7   4   28.65    2.61
   0  -7  -4   75.00    5.44
   0  -7  -4   75.34    5.13
   0  -7  -4   76.10    5.48
   0  -7  -4   74.98    5.34
   0   7   4   75.54    5.41
   0   7   4   77.05    4.86
   0   7   4   74.43    5.51
   0   7   4   74.93    5.00
   0   7   4   74.33    6.01
  -1  -7  -4  122.17    7.67
  -1  -7  -4  124.21    7.64
  -1  -7  -4  122.03    7.68
   1   7   4  109.34    7.33
   1   7   4  101.09    7.90
   1   7   4   97.75    7.48
   1   7   4  108.12    7.73
   1   7   4  107.74    7.29
  -2  -7  -4  111.84    7.78
  -2  -7  -4  111.93    7.33
   2   7   4  112.31    8.14
   2   7   4  112.04    7.63
   2   7   4  119.19    7.90
   2   7   4  113.91    7.63
  -3  -7  -4   15.85    1.36
  -3  -7  -4   16.99    1.81
  -3  -7  -4   16.29    1.97
   3   7   4   11.72    1.75
   3   7   4   12.09    1.84
   3   7   4   12.35    1.89
   3   7   4   10.51    1.81
  -4  -7  -4   18.40    2.07
  -4  -7  -4   19.21    2.20
  -4  -7  -4   19.04    2.60
   4   7   4   17.36    2.43
   4   7   4   17.64    2.24
   4   7   4   13.74    2.15
   4   7   4   16.06    2.09
   4   7   4   14.20    1.72
  -5  -7  -4    9.48    1.81
  -5  -7  -4    9.79    1.91
   5   7   4   11.10    2.11
   5   7   4    9.93    1.76
   5   7   4   11.27    2.06
  -6  -7  -4   27.53    2.97
  -6  -7  -4   27.59    3.02
   6   7   4   25.03    3.20
  -7  -7  -4    5.96    1.70
  -7  -7  -4    6.66    1.87
   7   7   4    7.07    2.14
   6  -8  -4   24.19    3.08
   6  -8  -4   24.54    3.42
  -6   8   4   18.06    2.81
  -6   8   4   21.09    2.97
   5  -8  -4   17.37    2.59
   5  -8  -4   16.42    2.57
  -5   8   4   16.37    2.38
  -5   8   4   15.71    2.31
  -5   8   4   13.86    2.35
   4  -8  -4   33.33    3.32
   4  -8  -4   30.80    3.26
   4  -8  -4   26.38    3.19
  -4   8   4   34.79    3.05
  -4   8   4   35.59    3.18
  -4   8   4   30.28    3.14
   3  -8  -4   15.14    2.26
   3  -8  -4   14.03    2.05
   3  -8  -4   15.35    2.31
   3  -8  -4   16.03    2.33
  -3   8   4   16.78    2.23
  -3   8   4   18.04    2.03
  -3   8   4   14.56    2.12
   2  -8  -4   21.91    2.43
   2  -8  -4   23.83    2.21
   2  -8  -4   22.97    2.34
   2  -8  -4   24.10    2.57
  -2   8   4   22.54    2.48
  -2   8   4   25.64    2.56
   1  -8  -4   48.91    4.08
   1  -8  -4   53.40    3.86
   1  -8  -4   48.40    3.83
   1  -8  -4   48.86    4.07
  -1   8   4   53.29    4.09
  -1   8   4   51.35    4.15
   0  -8  -4    2.80    1.07
   0  -8  -4    3.95    1.15
   0  -8  -4    3.13    0.87
   0  -8  -4    3.86    1.24
   0   8   4    8.16    1.84
   0   8   4    8.01    1.40
   0   8   4    9.01    1.58
  -1  -8  -4   25.03    2.43
  -1  -8  -4   26.70    2.40
  -1  -8  -4   25.02    2.36
   1   8   4   23.61    1.98
   1   8   4   22.69    2.54
   1   8   4   22.59    2.38
   1   8   4   22.68    2.93
   1   8   4   19.67    2.58
   1   8   4   22.84    1.98
  -2  -8  -4   40.82    2.91
  -2  -8  -4   41.20    3.42
   2   8   4   39.57    3.45
   2   8   4   39.57    3.32
   2   8   4   39.16    3.17
   2   8   4   38.12    3.71
   2   8   4   39.14    3.16
  -3  -8  -4   43.47    3.52
   3   8   4   37.99    3.23
   3   8   4   42.05    3.58
   3   8   4   39.07    3.37
   3   8   4   39.64    3.88
   3   8   4   39.23    3.37
  -4  -8  -4   31.47    2.98
  -4  -8  -4   31.60    3.07
   4   8   4   31.64    3.13
   4   8   4   30.36    3.18
   4   8   4   31.78    2.77
   4   8   4   31.24    3.08
  -5  -8  -4    6.87    1.66
  -5  -8  -4    5.90    1.71
   5   8   4    7.58    1.78
   5   8   4    5.35    1.66
  -6  -8  -4   16.13    2.43
  -6  -8  -4   14.87    2.48
   6   8   4   17.80    2.84
  -7  -8  -4    2.71    1.65
  -7  -8  -4    5.11    1.76
   7   8   4    5.92    2.06
   5  -9  -4    7.83    2.13
   5  -9  -4    6.87    1.96
  -5   9   4   11.11    2.10
  -5   9   4    9.79    2.06
  -5   9   4    9.55    2.04
   4  -9  -4   16.81    2.74
   4  -9  -4   19.88    2.72
   4  -9  -4   18.52    2.71
  -4   9   4   13.91    2.35
  -4   9   4   17.45    2.58
   3  -9  -4   23.57    2.72
   3  -9  -4   23.53    2.81
   3  -9  -4   22.12    3.01
  -3   9   4   25.21    2.75
  -3   9   4   28.77    2.83
  -3   9   4   26.67    2.85
   2  -9  -4   13.06    1.93
   2  -9  -4   14.20    2.24
   2  -9  -4   13.16    2.07
   2  -9  -4   14.63    1.80
  -2   9   4   13.76    2.07
  -2   9   4   13.87    2.10
   1  -9  -4   28.05    3.00
   1  -9  -4   30.11    3.01
   1  -9  -4   28.70    2.65
   1  -9  -4   28.03    2.71
  -1   9   4   29.64    3.00
  -1   9   4   29.42    2.89
   0  -9  -4   72.58    5.46
   0  -9  -4   76.94    5.70
   0  -9  -4   81.56    5.96
   0  -9  -4   72.41    5.79
   0   9   4   84.86    5.97
   0   9   4   82.18    5.80
  -1  -9  -4    6.11    1.41
  -1  -9  -4    4.08    1.35
  -1  -9  -4    5.29    1.34
   1   9   4   10.78    1.66
   1   9   4   10.65    1.76
  -2  -9  -4   19.60    2.40
  -2  -9  -4   20.82    2.62
   2   9   4   24.74    2.21
   2   9   4   21.88    2.60
   2   9   4   26.90    2.54
   2   9   4   23.09    2.21
  -3  -9  -4   26.93    3.10
   3   9   4   36.00    3.08
   3   9   4   38.39    3.17
   3   9   4   36.69    3.22
   3   9   4   37.65    3.52
  -4  -9  -4   22.72    2.67
   4   9   4   18.63    2.61
   4   9   4   18.10    2.12
   4   9   4   15.81    2.31
  -5  -9  -4   24.78    2.87
  -5  -9  -4   24.21    2.98
   5   9   4   26.74    3.21
   5   9   4   26.56    2.98
  -6  -9  -4    5.72    1.69
  -6  -9  -4    2.92    1.52
   6   9   4    3.48    1.91
   5 -10  -4   10.09    2.57
   5 -10  -4    8.35    2.23
  -5  10   4   11.12    2.25
  -5  10   4   11.31    2.24
  -5  10   4    9.11    2.24
   4 -10  -4   33.18    3.47
   4 -10  -4   27.37    3.46
   4 -10  -4   29.52    3.26
  -4  10   4   27.45    3.30
  -4  10   4   26.60    3.20
   3 -10  -4   17.65    2.75
   3 -10  -4   13.39    2.30
   3 -10  -4   18.00    2.77
  -3  10   4   18.59    2.71
  -3  10   4   23.28    2.96
  -3  10   4   21.10    2.56
   2 -10  -4   19.57    2.49
   2 -10  -4   20.66    2.81
   2 -10  -4   21.84    2.91
   2 -10  -4   22.63    2.40
  -2  10   4   23.41    2.69
  -2  10   4   22.57    2.68
  -2  10   4   24.66    2.74
   1 -10  -4   32.39    3.25
   1 -10  -4   30.36    3.16
   1 -10  -4   30.80    2.98
   1 -10  -4   32.34    2.91
  -1  10   4   32.15    3.22
  -1  10   4   25.93    2.99
   0 -10  -4    2.75    1.26
   0 -10  -4    3.54    1.08
   0 -10  -4    3.44    1.33
   0 -10  -4    2.88    1.30
   0  10   4    4.99    1.63
   0  10   4    7.07    1.63
  -1 -10  -4   60.57    4.92
  -1 -10  -4   63.71    5.07
  -1 -10  -4   58.40    4.83
   1  10   4   65.35    5.16
   1  10   4   59.03    4.84
  -2 -10  -4   21.26    2.68
  -2 -10  -4   21.89    2.58
   2  10   4   22.20    2.56
   2  10   4   23.45    3.00
  -3 -10  -4   23.42    2.79
   3  10   4   26.72    3.01
   3  10   4   25.13    2.68
   3  10   4   24.42    2.65
  -4 -10  -4   14.48    2.54
   4  10   4   21.12    2.75
   4  10   4   20.00    2.63
   4  10   4   21.05    2.36
  -5 -10  -4   38.73    3.75
   5  10   4   31.97    3.67
   5  10   4   29.70    3.66
  -6 -10  -4   17.19    2.83
  -6 -10  -4   16.32    2.67
   6  10   4   23.06    3.36
   4 -11  -4    4.45    1.82
   4 -11  -4    5.90    2.02
   4 -11  -4    4.57    2.01
  -4  11   4    3.94    1.80
  -4  11   4    5.78    2.09
   3 -11  -4   17.01    2.95
   3 -11  -4   17.67    2.62
   3 -11  -4   18.11    2.93
  -3  11   4   17.69    2.67
  -3  11   4   20.02    2.65
  -3  11   4   17.09    2.75
   2 -11  -4   32.53    3.27
   2 -11  -4   35.49    3.60
   2 -11  -4   35.11    3.44
   2 -11  -4   36.81    3.89
  -2  11   4   35.00    3.66
  -2  11   4   36.31    3.57
  -2  11   4   35.11    3.58
   1 -11  -4   13.94    2.29
   1 -11  -4   13.64    2.07
   1 -11  -4   12.96    2.03
   1 -11  -4   15.22    2.49
  -1  11   4   13.31    2.27
  -1  11   4   13.96    2.37
   0 -11  -4   48.76    4.00
   0 -11  -4   48.15    4.21
   0 -11  -4   45.27    4.10
   0 -11  -4   46.10    4.25
   0  11   4   51.43    4.47
   0  11   4   46.57    4.25
  -1 -11  -4    4.70    1.61
  -1 -11  -4    6.29    1.71
  -1 -11  -4    5.93    1.64
   1  11   4    8.69    1.94
   1  11   4    9.54    1.83
  -2 -11  -4   29.85    3.12
  -2 -11  -4   26.34    3.22
   2  11   4   24.22    3.28
   2  11   4   29.40    3.10
  -3 -11  -4   15.23    2.52
  -3 -11  -4   14.02    2.46
   3  11   4   14.82    2.63
   3  11   4   15.68    2.23
  -4 -11  -4    5.00    1.90
   4  11   4    3.95    1.77
   4  11   4    4.63    1.56
  -5 -11  -4    4.00    1.79
   5  11   4    0.60    1.65
   5  11   4    2.68    1.57
   3 -12  -4   13.26    2.40
   3 -12  -4   16.53    2.73
   3 -12  -4   12.23    2.68
  -3  12   4   12.43    2.45
  -3  12   4   13.71    2.73
  -3  12   4   15.54    2.61
   2 -12  -4    2.69    1.46
   2 -12  -4    0.60    1.27
   2 -12  -4   -0.55    1.15
   2 -12  -4    1.59    1.58
  -2  12   4    3.23    1.60
  -2  12   4    4.31    1.74
  -2  12   4    2.77    1.78
   1 -12  -4   27.59    2.98
   1 -12  -4   26.52    3.37
   1 -12  -4   30.90    3.28
   1 -12  -4   26.98    3.15
  -1  12   4   26.15    3.41
  -1  12   4   27.61    3.25
   0 -12  -4   14.04    2.19
   0 -12  -4   13.46    2.41
   0 -12  -4   15.91    2.54
   0 -12  -4   13.08    2.36
   0  12   4   17.85    2.81
   0  12   4   17.02    2.55
  -1 -12  -4   15.58    2.54
  -1 -12  -4   17.64    2.70
  -1 -12  -4   16.58    2.55
   1  12   4   10.44    2.31
   1  12   4   13.79    2.35
  -2 -12  -4    3.71    1.67
  -2 -12  -4    5.78    1.89
   2  12   4    7.90    1.85
   2  12   4    7.28    2.17
  -3 -12  -4    3.99    1.70
  -3 -12  -4    3.75    1.77
   3  12   4    5.34    1.98
   3  12   4    4.05    1.54
  -4 -12  -4    7.54    2.24
  -4 -12  -4    5.47    2.11
   4  12   4   12.29    2.55
   2 -13  -4    8.78    2.36
   2 -13  -4   10.14    2.40
  -2  13   4    3.68    1.96
  -2  13   4    6.02    2.01
  -2  13   4    6.36    1.94
   1 -13  -4    6.05    1.88
   1 -13  -4    4.71    1.78
   1 -13  -4    4.25    1.80
  -1  13   4    6.64    2.02
  -1  13   4    8.38    2.00
  -1  13   4    5.62    1.99
   0 -13  -4   10.86    2.30
   0 -13  -4   10.27    2.34
   0 -13  -4   10.43    2.23
   0  13   4    8.42    2.12
   0  13   4    9.34    2.37
  -1 -13  -4   11.83    2.31
  -1 -13  -4    7.93    2.12
  -1 -13  -4    8.56    2.19
   1  13   4   12.16    2.42
   1  13   4    8.42    2.43
  -2 -13  -4   12.26    2.45
  -2 -13  -4   10.56    2.46
   2  13   4   10.91    2.32
   2  13   4   11.09    2.54
  -3 -13  -4   10.06    2.30
  -3 -13  -4   12.14    2.56
   3  13   4    6.51    1.90
   3  13   4    9.55    2.57
   2  13  -5    7.96    2.31
   2  13  -5    7.26    1.76
  -2 -13   5    5.02    2.27
   1  13  -5    3.40    1.89
   1  13  -5    3.73    1.59
  -1 -13   5    6.26    2.17
   0  13  -5   16.16    2.66
   0  13  -5   13.96    2.78
   0 -13   5   11.50    2.57
  -1  13  -5   12.41    2.55
  -1  13  -5    9.91    2.40
   1 -13   5   11.25    2.79
   1 -13   5   15.77    2.61
   1 -13   5   10.85    2.74
   3  12  -5   11.75    2.49
  -3 -12   5    4.47    1.97
   2  12  -5   16.16    2.91
   2  12  -5   17.26    2.41
  -2 -12   5   16.24    2.86
   1  12  -5    4.30    1.56
   1  12  -5    4.07    1.80
  -1 -12   5    2.85    1.73
   0  12  -5    7.36    2.12
   0  12  -5    7.07    1.87
   0 -12   5   10.33    2.35
   0 -12   5    8.20    1.78
  -1  12  -5   16.38    2.69
  -1  12  -5   14.00    2.38
   1 -12   5   17.29    2.90
   1 -12   5   12.38    3.17
   1 -12   5   10.99    2.17
  -2  12  -5    8.16    2.03
  -2  12  -5    6.51    1.90
  -2  12  -5   12.22    2.00
   2 -12   5    8.75    2.26
   2 -12   5    8.77    2.41
   2 -12   5    6.47    1.90
   2 -12   5    8.88    2.07
  -3  12  -5   11.48    2.24
  -3  12  -5   10.17    2.49
   3 -12   5   11.18    2.18
   3 -12   5    9.70    2.34
   3 -12   5    8.16    2.38
   4  11  -5    8.70    2.27
   4  11  -5   10.70    2.59
  -4 -11   5    7.31    2.25
   3  11  -5    6.76    2.03
  -3 -11   5   11.92    2.47
  -3 -11   5   12.65    2.16
   2  11  -5    3.31    1.29
   2  11  -5    4.09    1.80
  -2 -11   5    3.74    1.81
  -2 -11   5    4.26    1.49
   1  11  -5   19.32    2.61
   1  11  -5   19.59    2.99
  -1 -11   5   18.25    2.86
  -1 -11   5   19.67    2.69
   0  11  -5   13.16    2.34
   0  11  -5   12.84    2.10
   0 -11   5   15.13    2.64
   0 -11   5   11.99    2.01
   0 -11   5   12.91    2.10
  -1  11  -5    2.48    1.42
  -1  11  -5    3.48    1.46
   1 -11   5    7.27    1.78
   1 -11   5    7.34    2.15
   1 -11   5    8.04    1.77
  -2  11  -5    8.84    1.99
  -2  11  -5    8.21    1.75
  -2  11  -5   12.13    2.19
   2 -11   5    9.22    2.18
   2 -11   5    8.64    2.09
   2 -11   5    9.78    2.30
   2 -11   5    9.16    1.93
  -3  11  -5   10.93    2.05
  -3  11  -5    9.83    1.99
  -3  11  -5    9.18    2.19
   3 -11   5   13.16    2.38
   3 -11   5    8.81    2.26
   3 -11   5   11.33    2.45
  -4  11  -5    8.62    2.05
  -4  11  -5    9.25    2.25
   4 -11   5    9.40    2.31
   4 -11   5    9.26    2.38
   4 -11   5    8.44    2.32
   5  10  -5    4.45    1.93
   5  10  -5    4.97    1.85
  -5 -10   5    4.35    2.08
  -5 -10   5    5.64    1.71
  -5 -10   5    2.71    1.50
   4  10  -5   29.20    3.67
   4  10  -5   28.36    3.36
  -4 -10   5   31.73    3.57
  -4 -10   5   30.50    3.31
   3  10  -5   29.52    3.52
  -3 -10   5   37.76    3.76
  -3 -10   5   38.35    3.60
   2  10  -5   13.90    1.98
   2  10  -5   14.14    2.47
   2  10  -5   13.14    1.96
  -2 -10   5   19.31    2.39
  -2 -10   5   22.53    2.74
   1  10  -5    8.32    1.64
   1  10  -5    9.13    1.96
  -1 -10   5    8.78    1.48
  -1 -10   5    6.95    1.66
  -1 -10   5    8.72    1.89
   0  10  -5    5.56    1.20
   0  10  -5    6.69    1.57
   0  10  -5    5.48    1.58
   0 -10   5    9.82    1.74
   0 -10   5    9.61    1.64
   0 -10   5    9.21    1.91
  -1  10  -5   11.97    2.12
  -1  10  -5    9.69    1.92
  -1  10  -5   10.79    1.68
   1 -10   5   11.18    1.98
   1 -10   5   12.34    2.04
   1 -10   5   14.47    2.29
  -2  10  -5    2.22    1.39
  -2  10  -5    1.91    1.08
  -2  10  -5    3.62    1.41
   2 -10   5    2.05    1.57
   2 -10   5    2.14    1.43
   2 -10   5    0.89    1.28
   2 -10   5    2.76    1.35
  -3  10  -5    1.72    1.06
  -3  10  -5    0.53    1.25
  -3  10  -5    1.37    1.15
   3 -10   5   -0.04    1.28
   3 -10   5    1.05    1.26
   3 -10   5    0.87    1.42
  -4  10  -5   10.97    2.29
  -4  10  -5   12.06    2.22
  -4  10  -5   11.26    1.85
   4 -10   5   13.40    2.56
   4 -10   5   11.18    2.45
   4 -10   5   13.60    2.65
  -5  10  -5    4.69    1.47
  -5  10  -5    4.80    1.82
  -5  10  -5    5.32    1.85
   5 -10   5    5.66    2.24
   5 -10   5    5.11    2.29
   6   9  -5   13.39    2.40
   6   9  -5   14.07    3.15
  -6  -9   5   13.62    2.60
  -6  -9   5   10.05    2.50
   5   9  -5    1.03    1.56
  -5  -9   5    4.04    1.44
  -5  -9   5    6.37    1.98
  -5  -9   5    5.05    2.00
   4   9  -5   13.20    2.35
   4   9  -5   14.88    2.67
  -4  -9   5   15.76    2.44
  -4  -9   5   12.17    2.35
   3   9  -5   25.20    2.84
   3   9  -5   25.49    2.36
   3   9  -5   26.58    2.45
   3   9  -5   23.55    3.00
  -3  -9   5   21.26    2.62
  -3  -9   5   19.23    2.84
   2   9  -5   49.07    4.33
   2   9  -5   53.64    3.99
   2   9  -5   51.92    3.97
  -2  -9   5   45.43    4.02
  -2  -9   5   48.29    4.33
   1   9  -5   18.69    2.23
   1   9  -5   19.16    2.47
  -1  -9   5   21.55    2.09
  -1  -9   5   21.43    2.33
  -1  -9   5   22.51    2.58
  -1  -9   5   21.29    2.17
   0   9  -5   21.56    2.50
   0   9  -5   21.23    2.23
   0   9  -5   21.66    1.88
   0  -9   5   14.40    2.00
   0  -9   5   14.77    1.82
   0  -9   5   13.01    2.25
   0  -9   5   15.22    2.22
  -1   9  -5   40.55    3.74
  -1   9  -5   47.61    4.26
  -1   9  -5   42.32    3.81
  -1   9  -5   44.43    3.52
   1  -9   5   43.15    3.89
   1  -9   5   44.02    3.84
   1  -9   5   44.32    4.00
  -2   9  -5    9.70    1.86
  -2   9  -5   10.52    1.89
  -2   9  -5   12.47    1.49
  -2   9  -5   11.33    1.72
   2  -9   5   11.58    2.13
   2  -9   5   12.21    2.05
   2  -9   5   13.03    2.18
   2  -9   5   12.42    2.11
  -3   9  -5   16.00    2.24
  -3   9  -5   15.37    1.84
  -3   9  -5   14.40    2.32
   3  -9   5   13.47    2.27
   3  -9   5   12.32    2.30
   3  -9   5   10.63    2.14
  -4   9  -5    0.74    0.85
  -4   9  -5   -0.31    1.06
  -4   9  -5   -0.61    1.08
   4  -9   5    0.14    1.34
   4  -9   5    0.33    1.31
   4  -9   5    1.69    1.54
  -5   9  -5    5.86    1.69
  -5   9  -5    6.36    1.59
  -5   9  -5    7.44    1.92
   5  -9   5    3.97    1.91
   5  -9   5    5.00    1.94
   5  -9   5    3.37    1.75
   6   8  -5   29.30    3.77
   6   8  -5   31.10    3.36
  -6  -8   5   23.49    3.21
  -6  -8   5   25.58    3.37
   5   8  -5   37.39    3.89
   5   8  -5   38.42    3.51
  -5  -8   5   29.53    3.07
  -5  -8   5   33.20    3.76
  -5  -8   5   29.96    3.49
   4   8  -5   11.52    2.26
   4   8  -5   10.47    1.99
  -4  -8   5    6.44    1.75
  -4  -8   5    6.33    1.78
   3   8  -5   31.05    3.20
   3   8  -5   29.12    2.45
   3   8  -5   29.95    2.97
   3   8  -5   28.27    2.56
  -3  -8   5   24.58    2.74
  -3  -8   5   23.94    3.02
   2   8  -5   21.78    2.22
   2   8  -5   23.67    2.31
   2   8  -5   23.19    2.58
  -2  -8   5   23.80    2.48
  -2  -8   5   25.01    2.65
   1   8  -5   18.19    2.11
   1   8  -5   18.41    2.26
   1   8  -5   16.36    1.87
  -1  -8   5   21.46    2.32
  -1  -8   5   20.35    1.91
  -1  -8   5   21.48    2.45
   0   8  -5   68.51    5.41
   0   8  -5   72.27    4.94
   0   8  -5   75.21    5.51
   0   8  -5   68.28    5.27
   0  -8   5   72.10    5.19
   0  -8   5   64.94    5.40
   0  -8   5   73.77    5.43
   0  -8   5   71.29    5.11
   0  -8   5   73.44    5.49
  -1   8  -5    4.87    1.26
  -1   8  -5    6.70    1.11
  -1   8  -5    8.30    1.55
   1  -8   5    3.36    1.29
   1  -8   5    1.90    1.07
   1  -8   5    1.93    1.10
   1  -8   5    1.86    0.84
   1  -8   5    2.64    1.26
  -2   8  -5   13.27    2.02
  -2   8  -5   14.31    1.75
  -2   8  -5   14.60    1.93
  -2   8  -5   15.52    1.53
   2  -8   5   12.64    2.04
   2  -8   5   13.30    2.14
   2  -8   5   11.57    1.99
   2  -8   5    9.84    1.85
  -3   8  -5   17.00    1.87
  -3   8  -5   17.14    2.34
  -3   8  -5   18.86    2.17
   3  -8   5   15.81    2.49
   3  -8   5   14.49    2.29
   3  -8   5   16.36    2.40
  -4   8  -5    9.24    1.90
  -4   8  -5    6.58    1.35
  -4   8  -5    7.39    1.75
   4  -8   5    4.48    1.65
   4  -8   5    3.85    1.61
   4  -8   5    5.36    1.63
  -5   8  -5    1.38    1.38
  -5   8  -5    0.48    1.25
  -5   8  -5    1.56    1.21
   5  -8   5    2.02    1.55
   5  -8   5    2.09    1.53
   5  -8   5    3.98    1.92
  -6   8  -5    7.43    2.01
  -6   8  -5    9.29    1.99
  -6   8  -5    8.58    1.84
   6  -8   5    7.92    2.21
   6  -8   5    7.82    2.34
   7   7  -5    7.72    2.00
   7   7  -5    7.88    2.45
  -7  -7   5   11.86    2.58
  -7  -7   5   10.43    2.55
   6   7  -5    2.18    1.69
   6   7  -5    1.13    1.35
  -6  -7   5    2.50    1.62
  -6  -7   5    3.36    1.63
   5   7  -5   15.97    2.77
   5   7  -5   17.75    2.28
  -5  -7   5   15.90    1.99
  -5  -7   5   17.99    2.73
  -5  -7   5   16.50    2.51
   4   7  -5   22.26    2.11
   4   7  -5   23.25    2.73
  -4  -7   5   14.22    2.29
  -4  -7   5   13.91    2.34
   3   7  -5   21.88    2.47
   3   7  -5   25.12    2.10
   3   7  -5   22.14    2.22
   3   7  -5   22.74    2.69
  -3  -7   5   24.03    2.60
  -3  -7   5   25.54    2.59
   2   7  -5    5.59    1.41
   2   7  -5    6.54    1.11
   2   7  -5    5.11    1.30
   2   7  -5    5.96    1.16
  -2  -7   5    1.66    0.62
  -2  -7   5    1.80    0.97
  -2  -7   5    0.49    1.13
  -2  -7   5    2.22    1.09
   1   7  -5   70.07    4.98
   1   7  -5   66.84    4.65
   1   7  -5   70.00    5.06
   1   7  -5   73.25    5.33
   1   7  -5   71.76    5.76
  -1  -7   5   71.83    4.92
  -1  -7   5   72.22    5.26
  -1  -7   5   74.19    5.39
  -1  -7   5   69.49    4.98
   0   7  -5   11.12    1.71
   0   7  -5   11.61    1.30
   0   7  -5   11.74    1.66
   0   7  -5   11.46    1.70
   0   7  -5   11.42    2.03
   0  -7   5   17.59    1.72
   0  -7   5   16.88    1.91
  -1   7  -5   58.86    4.31
  -1   7  -5   55.41    4.58
  -1   7  -5   55.45    3.99
  -1   7  -5   58.53    4.76
  -1   7  -5   59.76    4.36
   1  -7   5   52.45    4.54
   1  -7   5   50.94    4.12
   1  -7   5   55.42    4.06
   1  -7   5   49.47    4.20
   1  -7   5   53.15    4.36
  -2   7  -5   17.92    2.01
  -2   7  -5   16.36    1.69
  -2   7  -5   17.97    2.13
  -2   7  -5   18.14    2.59
  -2   7  -5   16.61    2.05
  -2   7  -5   17.28    2.44
   2  -7   5   26.88    2.50
   2  -7   5   23.72    2.34
  -3   7  -5    5.29    1.27
  -3   7  -5    6.32    1.39
  -3   7  -5    5.02    1.00
   3  -7   5    3.08    1.26
   3  -7   5    1.35    0.89
   3  -7   5    2.09    1.22
   3  -7   5    1.16    1.12
  -4   7  -5   18.91    2.04
  -4   7  -5   15.39    2.23
  -4   7  -5   19.66    2.44
   4  -7   5   18.68    2.48
   4  -7   5   19.89    2.72
   4  -7   5   17.07    2.50
  -5   7  -5    8.15    1.77
  -5   7  -5    6.89    1.85
  -5   7  -5    8.43    1.55
   5  -7   5    9.17    2.06
   5  -7   5    9.66    2.02
   5  -7   5   10.08    2.18
  -6   7  -5    0.02    1.06
  -6   7  -5    0.10    1.26
  -6   7  -5    0.09    1.29
  -6   7  -5    0.24    1.23
   6  -7   5    1.86    1.55
   6  -7   5    0.57    1.54
   7   6  -5    8.70    1.92
   7   6  -5    8.65    2.34
  -7  -6   5    4.64    1.94
   6   6  -5   10.85    2.43
   6   6  -5    7.70    1.75
  -6  -6   5   10.53    2.22
   5   6  -5    7.65    1.60
   5   6  -5    7.70    1.39
   5   6  -5    7.87    1.92
  -5  -6   5    5.34    1.60
  -5  -6   5    5.86    1.26
   4   6  -5   28.51    2.83
   4   6  -5   30.43    3.29
  -4  -6   5   36.52    3.29
  -4  -6   5   37.40    3.29
  -4  -6   5   35.51    2.61
   3   6  -5   22.75    1.86
   3   6  -5   23.42    2.50
   3   6  -5   24.95    2.37
   3   6  -5   21.99    2.08
  -3  -6   5   19.12    2.67
  -3  -6   5   19.16    1.66
  -3  -6   5   19.35    2.28
  -3  -6   5   17.46    2.18
   2   6  -5  143.92    9.59
   2   6  -5  136.98    9.36
   2   6  -5  140.72    9.21
   2   6  -5  135.81    9.82
   2   6  -5  138.48    9.04
  -2  -6   5  133.33    9.82
  -2  -6   5  142.24    9.43
  -2  -6   5  138.12    8.83
  -2  -6   5  131.28    9.33
   1   6  -5    5.07    1.26
   1   6  -5    5.13    1.01
   1   6  -5    5.30    1.18
  -1  -6   5    2.57    0.94
  -1  -6   5    2.48    0.69
  -1  -6   5    2.17    0.67
  -1  -6   5    3.24    0.44
  -1  -6   5    3.13    1.03
   0   6  -5   51.11    4.04
   0   6  -5   52.14    3.34
   0   6  -5   49.34    3.74
   0   6  -5   52.31    3.69
   0   6  -5   57.52    3.87
   0  -6   5   41.62    3.65
   0  -6   5   39.16    3.50
   0  -6   5   41.59    3.65
   0  -6   5   40.43    3.66
  -1   6  -5   44.85    3.57
  -1   6  -5   45.83    3.39
  -1   6  -5   43.30    3.83
  -1   6  -5   44.78    3.60
  -1   6  -5   41.72    3.86
  -1   6  -5   46.72    3.15
   1  -6   5   47.93    3.96
   1  -6   5   48.85    3.73
   1  -6   5   45.74    3.47
   1  -6   5   47.69    3.71
  -2   6  -5   76.97    6.33
  -2   6  -5   78.40    5.71
  -2   6  -5   76.76    5.46
   2  -6   5   86.62    5.78
   2  -6   5   84.32    6.45
   2  -6   5   89.94    6.07
   2  -6   5   82.31    5.92
   2  -6   5   81.78    5.99
  -3   6  -5   29.13    2.74
  -3   6  -5   29.35    2.85
  -3   6  -5   31.31    4.90
  -3   6  -5   26.22    2.42
   3  -6   5   34.85    2.98
   3  -6   5   31.15    2.93
   3  -6   5   33.42    2.78
   3  -6   5   30.82    2.95
  -4   6  -5   23.21    2.22
  -4   6  -5   25.04    2.56
  -4   6  -5   23.41    2.44
   4  -6   5   21.96    2.37
   4  -6   5   20.67    2.56
   4  -6   5   18.76    2.42
   4  -6   5   21.65    2.55
  -5   6  -5    7.98    1.75
  -5   6  -5    8.88    1.69
  -5   6  -5    9.61    1.74
  -5   6  -5    8.77    1.57
   5  -6   5   10.34    2.03
   5  -6   5   11.52    1.85
   5  -6   5    8.45    1.92
   5  -6   5    9.79    2.08
  -6   6  -5    8.45    1.63
  -6   6  -5    6.91    1.84
  -6   6  -5    8.70    1.78
  -6   6  -5    9.22    1.82
   6  -6   5    8.30    2.14
   6  -6   5    5.46    1.89
  -7   6  -5    3.11    1.48
  -7   6  -5    3.37    1.77
   7  -6   5    0.48    1.66
   7  -6   5    2.16    1.67
   7   5  -5    2.76    1.48
   7   5  -5    3.54    1.88
  -7  -5   5    2.74    1.87
   6   5  -5   17.34    2.39
   6   5  -5   17.03    2.25
   6   5  -5   17.30    2.91
  -6  -5   5   13.51    2.48
  -6  -5   5   16.05    2.22
   5   5  -5   22.00    2.80
   5   5  -5   24.44    2.67
   5   5  -5   22.18    2.42
  -5  -5   5   24.44    2.21
  -5  -5   5   28.91    2.92
   4   5  -5   49.72    3.98
   4   5  -5   42.68    3.55
   4   5  -5   46.32    3.50
  -4  -5   5   36.47    3.60
  -4  -5   5   39.89    3.09
   3   5  -5   66.82    5.36
   3   5  -5   66.65    4.96
   3   5  -5   68.63    5.66
  -3  -5   5   71.05    4.60
  -3  -5   5   67.76    5.17
  -3  -5   5   70.88    5.18
  -3  -5   5   73.08    5.69
   2   5  -5   56.06    4.04
   2   5  -5   59.73    4.23
   2   5  -5   58.25    4.71
   2   5  -5   55.50    4.47
  -2  -5   5   60.21    4.42
  -2  -5   5   56.21    4.69
  -2  -5   5   57.79    4.38
   1   5  -5  191.95   12.49
   1   5  -5  197.67   12.17
   1   5  -5  200.99   13.03
   1   5  -5  192.27   12.70
  -1  -5   5  192.01   12.71
  -1  -5   5  189.45   12.70
  -1  -5   5  190.47   12.39
  -1  -5   5  196.97   13.08
   0   5  -5   23.56    2.29
   0   5  -5   23.88    2.21
   0   5  -5   25.09    1.77
   0   5  -5   25.28    2.34
   0   5  -5   22.71    1.96
   0   5  -5   24.80    2.46
   0  -5   5   28.81    2.41
   0  -5   5   31.76    2.52
   0  -5   5   29.40    2.31
   0  -5   5   31.72    2.44
  -1   5  -5   43.65    3.30
  -1   5  -5   47.60    2.91
  -1   5  -5   44.55    3.59
  -1   5  -5   46.00    3.60
  -1   5  -5   44.19    3.11
   1  -5   5   37.66    3.52
   1  -5   5   40.87    3.27
   1  -5   5   38.09    3.37
   1  -5   5   37.51    3.32
  -2   5  -5  107.30    6.79
  -2   5  -5  109.88    7.50
  -2   5  -5  104.72    6.53
  -2   5  -5  106.03    6.93
   2  -5   5   86.80    6.80
   2  -5   5   95.38    7.34
   2  -5   5   97.62    6.84
   2  -5   5   93.86    6.98
   2  -5   5   96.82    6.98
  -3   5  -5   62.42    4.66
  -3   5  -5   66.08    4.95
  -3   5  -5   66.58    5.63
  -3   5  -5   60.29    4.84
   3  -5   5   71.37    4.95
   3  -5   5   70.80    5.75
   3  -5   5   72.43    5.08
   3  -5   5   69.98    5.15
  -4   5  -5   47.63    3.66
  -4   5  -5   45.25    3.66
  -4   5  -5   45.98    3.40
   4  -5   5   40.19    3.57
   4  -5   5   39.50    3.73
   4  -5   5   42.23    3.70
  -5   5  -5   34.61    3.12
  -5   5  -5   36.43    3.27
  -5   5  -5   34.74    3.02
  -5   5  -5   39.74    3.09
   5  -5   5   33.43    3.46
   5  -5   5   33.64    3.22
   5  -5   5   31.76    3.47
   5  -5   5   28.85    3.20
  -6   5  -5    5.49    1.70
  -6   5  -5    6.36    1.41
  -6   5  -5    6.95    1.60
  -6   5  -5    7.35    1.63
   6  -5   5    8.97    2.11
   6  -5   5    8.28    1.92
   6  -5   5    8.33    1.80
  -7   5  -5    9.86    2.01
  -7   5  -5   11.15    2.40
   7  -5   5   11.10    2.48
   7  -5   5   10.77    2.49
   7   4  -5   16.77    2.46
   7   4  -5   17.05    3.02
  -7  -4   5   19.14    2.94
   6   4  -5   16.31    2.72
   6   4  -5   16.50    2.35
   6   4  -5   18.48    2.39
  -6  -4   5   19.49    2.06
  -6  -4   5   21.54    2.71
   5   4  -5   31.94    3.04
   5   4  -5   29.23    2.85
   5   4  -5   27.32    3.13
  -5  -4   5   31.79    2.54
  -5  -4   5   32.15    3.13
   4   4  -5   35.36    3.30
   4   4  -5   33.63    3.07
   4   4  -5   33.21    3.02
  -4  -4   5   36.44    3.78
  -4  -4   5   39.38    3.31
  -4  -4   5   38.12    2.72
   3   4  -5   16.43    1.90
   3   4  -5   15.50    1.69
   3   4  -5   16.18    2.08
   3   4  -5   16.20    1.69
  -3  -4   5   12.46    1.20
  -3  -4   5   10.52    1.70
  -3  -4   5   12.33    1.82
  -3  -4   5   10.91    1.84
   2   4  -5   14.73    1.91
   2   4  -5   12.61    1.67
   2   4  -5   15.11    1.60
   2   4  -5   13.86    1.33
  -2  -4   5   13.15    1.78
  -2  -4   5   14.39    1.60
  -2  -4   5   12.42    1.01
  -2  -4   5   10.95    1.54
   1   4  -5   54.46    4.25
   1   4  -5   53.07    3.89
   1   4  -5   54.09    3.59
  -1  -4   5   55.96    3.79
  -1  -4   5   53.24    4.07
  -1  -4   5   56.67    4.08
  -1  -4   5   59.98    4.37
   0   4  -5  158.19   10.23
   0   4  -5  158.16   10.66
   0   4  -5  162.66   10.58
   0   4  -5  165.92    9.98
   0   4  -5  165.67    9.98
   0   4  -5  158.66   10.44
   0  -4   5  161.91   10.57
   0  -4   5  160.35   10.58
   0  -4   5  161.70   10.54
   0  -4   5  153.96   10.49
  -1   4  -5  103.61    6.84
  -1   4  -5  104.95    7.18
  -1   4  -5  109.83    6.64
  -1   4  -5  108.49    7.03
  -1   4  -5  105.75    7.30
   1  -4   5  101.70    7.07
   1  -4   5  100.75    7.33
   1  -4   5  101.70    7.03
   1  -4   5  100.00    7.12
  -2   4  -5   73.83    5.09
  -2   4  -5   75.31    5.20
  -2   4  -5   74.82    5.69
  -2   4  -5   76.16    4.88
   2  -4   5   70.52    5.30
   2  -4   5   71.80    5.20
   2  -4   5   73.61    5.71
   2  -4   5   69.11    5.14
   2  -4   5   75.56    5.26
  -3   4  -5   23.44    2.17
  -3   4  -5   24.54    1.95
  -3   4  -5   21.30    2.10
  -3   4  -5   26.77    2.89
   3  -4   5   21.12    2.20
   3  -4   5   20.82    2.13
   3  -4   5   19.57    2.24
   3  -4   5   20.19    2.68
  -4   4  -5    2.83    0.96
  -4   4  -5    2.34    1.00
  -4   4  -5    2.71    0.97
  -4   4  -5    3.28    0.93
  -4   4  -5    2.53    1.14
   4  -4   5    6.01    1.38
   4  -4   5    5.81    1.34
   4  -4   5    5.64    1.36
  -5   4  -5   32.19    3.11
  -5   4  -5   29.67    3.47
  -5   4  -5   32.90    2.95
  -5   4  -5   32.75    3.01
  -5   4  -5   32.21    3.06
   5  -4   5   46.82    3.73
   5  -4   5   40.83    3.38
   5  -4   5   35.92    3.34
  -6   4  -5    0.59    0.99
  -6   4  -5   -0.19    0.91
  -6   4  -5    0.50    0.89
  -6   4  -5    0.79    1.22
   6  -4   5    0.58    1.22
   6  -4   5   -0.22    1.22
   6  -4   5   -0.17    1.31
  -7   4  -5    1.96    1.28
  -7   4  -5    2.14    1.49
   7  -4   5    3.07    1.64
   7  -4   5    1.92    1.52
   7  -4   5    3.29    1.69
   7   3  -5   15.28    2.85
   7   3  -5   19.00    2.59
  -7  -3   5   20.63    2.40
  -7  -3   5   22.72    3.21
   6   3  -5   28.94    3.26
   6   3  -5   25.70    2.68
  -6  -3   5   27.26    3.05
  -6  -3   5   22.89    2.42
   5   3  -5   48.33    3.83
   5   3  -5   44.08    3.82
   5   3  -5   49.34    4.11
  -5  -3   5   45.64    3.49
  -5  -3   5   44.21    3.98
   4   3  -5   27.53    2.69
   4   3  -5   28.23    2.82
   4   3  -5   26.06    2.65
  -4  -3   5   33.14    2.90
  -4  -3   5   32.19    3.30
  -4  -3   5   33.96    2.41
   3   3  -5   83.02    5.74
   3   3  -5   82.48    6.21
   3   3  -5   79.34    5.88
   3   3  -5   82.11    5.75
  -3  -3   5   80.76    6.18
  -3  -3   5   82.38    5.34
  -3  -3   5   82.17    5.84
   2   3  -5   33.76    3.26
   2   3  -5   34.26    3.43
   2   3  -5   35.04    3.16
   2   3  -5   36.44    3.18
  -2  -3   5   50.72    2.81
  -2  -3   5   51.51    3.42
  -2  -3   5   49.94    3.65
  -2  -3   5   49.24    3.36
   1   3  -5   32.05    2.43
   1   3  -5   33.52    2.62
   1   3  -5   30.00    2.30
  -1  -3   5   28.29    2.55
  -1  -3   5   27.12    2.38
  -1  -3   5   28.84    2.19
  -1  -3   5   25.93    2.41
   0   3  -5   51.33    4.12
   0   3  -5   53.12    4.24
   0   3  -5   54.32    3.97
   0  -3   5   68.10    4.36
   0  -3   5   64.62    4.26
   0  -3   5   65.62    4.33
   0  -3   5   66.23    4.35
  -1   3  -5   16.45    1.64
  -1   3  -5   17.45    1.26
  -1   3  -5   15.83    1.59
  -1   3  -5   18.26    1.94
  -1   3  -5   17.68    1.54
   1  -3   5   15.21    1.67
   1  -3   5   18.07    1.78
   1  -3   5   18.62    1.67
   1  -3   5   17.29    1.91
  -2   3  -5   55.93    3.62
  -2   3  -5   54.22    4.33
  -2   3  -5   52.49    3.81
  -2   3  -5   51.95    3.87
   2  -3   5   54.23    3.92
   2  -3   5   52.88    4.02
   2  -3   5   52.23    4.34
   2  -3   5   51.10    3.82
   2  -3   5   54.43    3.99
  -3   3  -5   27.67    2.09
  -3   3  -5   26.54    2.80
  -3   3  -5   26.31    2.25
  -3   3  -5   26.37    2.25
  -3   3  -5   26.86    2.23
   3  -3   5   22.08    2.25
   3  -3   5   21.79    2.77
   3  -3   5   24.06    2.40
   3  -3   5   24.89    2.41
  -4   3  -5   14.56    1.82
  -4   3  -5   15.51    1.67
  -4   3  -5   17.83    1.82
  -4   3  -5   15.76    2.12
  -4   3  -5   15.79    1.88
  -4   3  -5   16.27    2.45
   4  -3   5   17.44    2.08
   4  -3   5   21.03    2.24
   4  -3   5   19.81    2.06
  -5   3  -5    8.08    1.49
  -5   3  -5    6.33    1.30
  -5   3  -5    5.27    1.17
  -5   3  -5    6.44    1.54
  -5   3  -5    7.18    1.30
   5  -3   5    3.79    1.35
   5  -3   5    4.37    1.41
   5  -3   5    3.20    1.27
  -6   3  -5   54.54    4.63
  -6   3  -5   57.22    4.37
  -6   3  -5   49.15    4.38
  -6   3  -5   54.47    4.36
   6  -3   5   58.74    4.81
   6  -3   5   56.95    4.66
   6  -3   5   63.86    4.98
  -7   3  -5    1.30    1.47
  -7   3  -5    1.44    1.30
   7  -3   5    5.47    1.83
   7  -3   5    3.74    1.79
   7  -3   5    3.32    1.72
   7   2  -5   21.15    2.68
   7   2  -5   22.44    3.19
  -7  -2   5   23.12    2.62
  -7  -2   5   27.15    3.24
   6   2  -5    8.51    1.95
   6   2  -5    8.51    1.59
  -6  -2   5    8.65    1.51
  -6  -2   5    7.73    1.95
   5   2  -5   27.61    2.59
   5   2  -5   26.46    2.68
   5   2  -5   25.14    2.49
  -5  -2   5   21.68    2.57
  -5  -2   5   19.84    2.09
   4   2  -5   34.17    2.95
   4   2  -5   35.47    3.51
   4   2  -5   34.80    3.08
   4   2  -5   32.19    2.90
  -4  -2   5   35.19    2.62
  -4  -2   5   34.58    3.48
  -4  -2   5   34.94    3.08
  -4  -2   5   35.50    2.50
   3   2  -5   17.53    1.99
   3   2  -5   18.52    1.97
   3   2  -5   19.45    2.36
   3   2  -5   19.84    2.07
  -3  -2   5   21.65    1.56
  -3  -2   5   21.07    1.63
  -3  -2   5   22.17    2.10
  -3  -2   5   22.95    2.37
  -3  -2   5   22.58    1.43
   2   2  -5  148.68    9.84
   2   2  -5  150.54    9.66
   2   2  -5  144.87    9.56
   2   2  -5  146.94    9.57
  -2  -2   5  144.79    9.26
  -2  -2   5  143.75    9.83
  -2  -2   5  142.79    9.15
  -2  -2   5  143.49    9.57
  -2  -2   5  147.12    9.66
   1   2  -5   47.76    3.79
   1   2  -5   50.46    3.86
   1   2  -5   47.11    3.89
  -1  -2   5   57.28    3.75
  -1  -2   5   57.95    3.98
  -1  -2   5   59.25    3.99
  -1  -2   5   57.98    3.87
   0   2  -5  220.81   13.49
   0   2  -5  227.65   13.14
   0   2  -5  222.10   13.52
   0   2  -5  224.45   13.36
   0   2  -5  219.33   13.52
   0  -2   5  200.13   13.60
   0  -2   5  193.68   13.58
   0  -2   5  201.29   13.49
   0  -2   5  195.90   13.61
  -1   2  -5   29.25    2.19
  -1   2  -5   29.10    1.96
  -1   2  -5   28.39    2.18
  -1   2  -5   28.07    2.15
  -1   2  -5   28.49    2.28
  -2   2  -5   34.36    2.48
  -2   2  -5   32.99    2.71
  -2   2  -5   35.20    2.51
  -2   2  -5   38.25    2.79
  -2   2  -5   33.88    2.68
  -2   2  -5   35.68    3.19
   2  -2   5   35.15    2.67
   2  -2   5   36.07    2.73
   2  -2   5   36.74    2.96
   2  -2   5   37.19    2.92
   2  -2   5   37.02    3.23
  -3   2  -5  135.38    8.39
  -3   2  -5  127.47    8.76
  -3   2  -5  133.03    9.44
  -3   2  -5  130.24    8.79
  -3   2  -5  132.67    8.90
  -3   2  -5  126.86    8.60
  -3   2  -5  131.06    8.76
   3  -2   5  135.93    8.76
   3  -2   5  133.96    9.45
   3  -2   5  138.66    8.98
   3  -2   5  135.22    8.95
  -4   2  -5   15.24    2.26
  -4   2  -5   13.09    1.53
  -4   2  -5   13.59    1.77
  -4   2  -5   10.84    1.60
  -4   2  -5   12.56    1.47
  -4   2  -5   13.08    1.53
   4  -2   5   14.76    1.72
   4  -2   5   15.64    1.87
   4  -2   5   13.34    1.85
  -5   2  -5   67.31    5.20
  -5   2  -5   66.91    4.72
  -5   2  -5   63.18    4.64
  -5   2  -5   61.70    4.83
  -5   2  -5   62.77    4.67
   5  -2   5   63.73    4.88
   5  -2   5   59.56    4.99
   5  -2   5   62.59    5.06
  -6   2  -5   14.31    2.10
  -6   2  -5   18.07    1.94
  -6   2  -5   16.06    2.14
   6  -2   5   13.17    2.16
   6  -2   5   13.12    2.40
  -7   2  -5   18.71    2.65
  -7   2  -5   20.17    2.81
   7  -2   5   23.13    2.85
   7  -2   5   25.79    2.90
   7  -2   5   19.22    3.08
  -8   2  -5    2.02    1.59
   8  -2   5    6.43    1.95
   8  -2   5    5.96    2.01
   7   1  -5   18.09    2.67
   7   1  -5   18.72    2.34
  -7  -1   5   12.22    2.05
  -7  -1   5   12.60    2.44
   6   1  -5   20.72    2.49
   6   1  -5   21.36    2.75
  -6  -1   5   23.30    2.75
  -6  -1   5   24.97    2.29
   5   1  -5   15.57    1.97
   5   1  -5   13.86    1.82
   5   1  -5   18.51    2.24
  -5  -1   5   14.07    1.66
  -5  -1   5   14.91    2.13
   4   1  -5   46.40    3.74
   4   1  -5   46.61    3.81
   4   1  -5   46.62    4.36
   4   1  -5   47.57    3.82
  -4  -1   5   48.83    3.30
  -4  -1   5   49.90    3.61
  -4  -1   5   48.07    3.84
  -4  -1   5   49.70    3.50
  -4  -1   5   52.58    4.47
   3   1  -5  104.05    7.11
   3   1  -5   99.12    7.05
   3   1  -5  102.56    7.10
   3   1  -5  105.55    7.52
   3   1  -5  104.92    6.61
  -3  -1   5  105.48    6.76
  -3  -1   5  104.09    6.65
  -3  -1   5  103.94    6.89
  -3  -1   5  106.12    7.13
  -3  -1   5  106.24    7.53
   2   1  -5   26.65    2.00
   2   1  -5   25.15    2.29
   2   1  -5   24.55    2.26
   2   1  -5   27.89    2.30
   2   1  -5   25.34    2.44
  -2  -1   5   29.60    2.19
  -2  -1   5   30.65    2.53
  -2  -1   5   30.38    1.96
  -2  -1   5   29.58    2.33
   1   1  -5   76.54    4.89
   1   1  -5   75.01    5.09
   1   1  -5   74.51    5.06
   1   1  -5   73.93    4.81
   1   1  -5   74.68    5.09
  -1  -1   5   70.40    5.08
  -1  -1   5   74.06    5.02
  -1  -1   5   74.63    4.67
  -1  -1   5   71.70    5.08
   0   1  -5   34.19    2.81
   0   1  -5   32.36    2.70
   0   1  -5   32.03    2.77
   0   1  -5   33.77    2.70
   0   1  -5   32.70    2.59
   0  -1   5   44.04    2.99
   0  -1   5   46.91    3.10
   0  -1   5   46.25    2.80
   0  -1   5   43.12    3.10
   0  -1   5   46.15    2.53
   0  -1   5   43.49    2.82
  -1   1  -5  126.10    8.21
  -1   1  -5  132.46    8.13
  -1   1  -5  130.82    7.97
  -1   1  -5  128.82    7.98
  -1   1  -5  128.39    8.16
   1  -1   5  119.35    8.51
   1  -1   5  121.38    8.33
   1  -1   5  122.35    8.29
   1  -1   5  124.78    8.12
  -2   1  -5   18.81    1.49
  -2   1  -5   19.05    1.53
  -2   1  -5   19.72    1.43
  -2   1  -5   17.45    1.64
  -2   1  -5   17.71    1.67
  -2   1  -5   19.24    1.69
   2  -1   5   18.26    1.56
   2  -1   5   17.02    2.05
   2  -1   5   18.04    1.54
   2  -1   5   16.91    1.81
   2  -1   5   17.76    1.79
  -3   1  -5   43.57    3.38
  -3   1  -5   42.67    3.24
  -3   1  -5   42.08    3.39
  -3   1  -5   44.46    2.94
  -3   1  -5   41.58    3.33
  -3   1  -5   40.56    3.34
   3  -1   5   52.26    4.14
   3  -1   5   48.73    3.64
   3  -1   5   52.61    3.67
   3  -1   5   50.73    3.37
  -4   1  -5   80.77    5.73
  -4   1  -5   75.79    5.47
  -4   1  -5   78.00    5.59
  -4   1  -5   79.38    5.44
   4  -1   5   76.83    5.48
   4  -1   5   79.72    5.85
   4  -1   5   78.08    5.72
   4  -1   5   78.40    6.28
  -5   1  -5    3.82    0.98
  -5   1  -5    3.50    1.21
  -5   1  -5    3.55    1.12
  -5   1  -5    2.69    1.01
   5  -1   5    5.48    1.27
   5  -1   5    6.43    1.55
  -6   1  -5   20.26    2.10
  -6   1  -5   19.41    2.35
  -6   1  -5   21.47    2.31
   6  -1   5   17.60    2.29
   6  -1   5   16.38    2.57
  -7   1  -5   13.69    2.08
  -7   1  -5   11.44    2.06
   7  -1   5    8.13    2.10
   7  -1   5    9.46    1.93
  -8   1  -5    1.03    1.39
  -8   1  -5    0.37    1.44
   8  -1   5    1.65    1.42
   7   0  -5    9.66    1.82
   7   0  -5   12.00    2.19
  -7   0   5    5.60    1.87
  -7   0   5    7.78    1.69
   6   0  -5    3.53    1.36
   6   0  -5    2.49    1.15
  -6   0   5    4.25    1.25
   5   0  -5   17.70    2.17
   5   0  -5   17.13    2.16
   5   0  -5   18.68    2.07
  -5   0   5   18.88    1.91
  -5   0   5   17.09    1.64
   4   0  -5   42.09    3.28
   4   0  -5   38.80    2.94
   4   0  -5   39.60    3.77
   4   0  -5   39.91    3.33
   4   0  -5   38.47    3.22
  -4   0   5   41.57    2.90
  -4   0   5   42.77    3.84
  -4   0   5   39.31    3.26
  -4   0   5   39.78    3.01
   3   0  -5   16.25    1.76
   3   0  -5   15.96    1.70
   3   0  -5   18.16    1.69
   3   0  -5   14.94    2.00
   3   0  -5   17.48    1.19
   2   0  -5  154.21    9.91
   2   0  -5  153.04   10.00
   2   0  -5  151.58    9.82
   2   0  -5  154.22    9.97
   2   0  -5  158.73    9.65
   2   0  -5  160.57   10.23
  -2   0   5  146.65    9.97
  -2   0   5  151.58   10.18
  -2   0   5  143.97    9.89
  -2   0   5  151.95    9.67
   1   0  -5   39.94    3.16
   1   0  -5   40.25    2.97
   1   0  -5   41.35    3.16
   1   0  -5   39.62    2.98
   1   0  -5   41.26    3.16
  -1   0   5   51.71    3.23
  -1   0   5   51.46    3.14
   0   0  -5   63.24    4.49
   0   0  -5   61.91    4.60
   0   0  -5   59.40    4.42
   0   0  -5   60.73    4.57
   0   0  -5   60.96    4.65
   0   0   5   81.75    4.56
   0   0   5   78.93    4.47
   0   0   5   83.43    4.88
  -1   0  -5   62.39    4.44
  -1   0  -5   64.58    4.45
  -1   0  -5   60.76    4.25
  -1   0  -5   63.94    4.35
   1   0   5   66.81    4.23
   1   0   5   67.79    4.64
   1   0   5   69.91    4.31
   1   0   5   66.14    4.85
   1   0   5   65.66    4.53
  -2   0  -5   12.94    1.11
  -2   0  -5   13.29    1.36
  -2   0  -5   12.96    1.20
  -2   0  -5   12.83    1.11
  -2   0  -5   11.97    1.35
   2   0   5   15.32    1.50
   2   0   5   14.81    1.60
   2   0   5   15.09    1.80
   2   0   5   14.73    1.21
  -3   0  -5   76.92    4.54
  -3   0  -5   73.42    4.39
  -3   0  -5   75.64    4.55
   3   0   5   54.15    4.27
   3   0   5   56.96    4.99
   3   0   5   54.88    4.49
   3   0   5   53.11    4.56
  -4   0  -5   10.26    1.35
  -4   0  -5   11.02    1.52
  -4   0  -5   11.33    1.36
  -4   0  -5   11.74    1.53
   4   0   5    7.54    1.54
   4   0   5    8.11    1.29
   4   0   5    9.57    1.52
   4   0   5    8.79    1.90
  -5   0  -5   11.27    1.80
  -5   0  -5    9.47    1.44
  -5   0  -5    9.69    1.61
  -5   0  -5   11.41    1.56
   5   0   5    5.52    1.54
   5   0   5    6.84    1.40
  -6   0  -5   11.69    1.80
  -6   0  -5   12.66    1.90
  -6   0  -5   10.58    1.63
   6   0   5   10.61    1.75
   6   0   5   10.22    2.05
  -7   0  -5    6.67    1.83
  -7   0  -5    9.53    1.86
   7   0   5    9.95    1.90
   7   0   5    9.85    2.40
  -8   0  -5    7.04    1.85
  -8   0  -5    6.76    1.78
   8   0   5    2.41    1.55
   7  -1  -5   11.32    2.29
  -7   1   5   18.43    2.31
   6  -1  -5   37.08    3.28
   6  -1  -5   38.63    3.42
  -6   1   5   32.80    3.10
   5  -1  -5   21.68    2.00
   5  -1  -5   23.05    2.29
   5  -1  -5   19.71    2.24
  -5   1   5   22.27    2.17
  -5   1   5   20.51    2.43
  -5   1   5   22.11    1.94
   4  -1  -5   29.45    2.46
   4  -1  -5   29.14    2.23
   4  -1  -5   30.98    2.39
   4  -1  -5   30.01    2.58
  -4   1   5   23.00    2.15
  -4   1   5   22.05    2.04
  -4   1   5   23.58    2.49
  -4   1   5   22.22    1.98
  -4   1   5   22.11    2.81
   3  -1  -5   63.98    4.73
   3  -1  -5   70.23    4.57
   3  -1  -5   65.17    4.70
   3  -1  -5   70.46    4.60
  -3   1   5   65.82    4.11
  -3   1   5   60.46    4.44
  -3   1   5   61.95    4.81
  -3   1   5   63.59    5.04
   2  -1  -5   16.73    1.53
   2  -1  -5   16.06    1.68
   2  -1  -5   17.57    1.52
   2  -1  -5   15.79    1.64
   2  -1  -5   16.22    1.58
   2  -1  -5   17.85    1.32
   1  -1  -5  208.74   12.54
   1  -1  -5  207.01   12.66
   1  -1  -5  207.04   12.64
   1  -1  -5  202.19   12.44
  -1   1   5  181.87   12.55
  -1   1   5  181.18   12.45
  -1   1   5  192.21   12.63
   0  -1  -5  253.93   15.71
   0  -1  -5  253.77   15.64
   0  -1  -5  252.40   15.68
   0  -1  -5  252.54   15.62
   0  -1  -5  253.43   15.64
   0   1   5  236.23   15.47
   0   1   5  238.99   15.48
   0   1   5  245.42   15.79
   0   1   5  246.86   15.36
   0   1   5  245.39   15.68
  -1  -1  -5  139.59    8.67
  -1  -1  -5  135.51    8.72
  -1  -1  -5  135.10    8.82
  -1  -1  -5  134.35    8.80
   1   1   5  135.51    8.95
   1   1   5  139.30    8.53
   1   1   5  134.84    8.46
   1   1   5  133.05    8.79
  -2  -1  -5   83.05    5.67
  -2  -1  -5   83.40    5.69
  -2  -1  -5   85.45    5.39
  -2  -1  -5   81.78    5.67
  -2  -1  -5   83.32    5.55
  -2  -1  -5   83.81    5.44
   2   1   5   86.35    5.86
   2   1   5   86.65    5.71
   2   1   5   82.55    5.40
   2   1   5   82.98    6.16
  -3  -1  -5   28.00    2.44
  -3  -1  -5   28.12    2.34
  -3  -1  -5   26.15    2.39
  -3  -1  -5   25.91    2.31
  -3  -1  -5   29.65    2.47
   3   1   5   32.05    2.50
   3   1   5   33.37    2.75
   3   1   5   32.76    2.31
   3   1   5   36.40    3.18
  -4  -1  -5   38.84    3.20
  -4  -1  -5   39.46    3.14
  -4  -1  -5   42.02    3.12
  -4  -1  -5   43.04    3.32
   4   1   5   36.59    3.23
   4   1   5   42.43    3.94
   4   1   5   38.90    3.45
   4   1   5   39.67    3.08
   4   1   5   40.50    2.99
  -5  -1  -5    0.07    0.82
  -5  -1  -5    0.74    0.74
  -5  -1  -5    0.55    0.83
  -5  -1  -5    0.25    0.73
   5   1   5    2.15    0.92
   5   1   5    2.16    1.22
  -6  -1  -5    5.26    1.34
  -6  -1  -5    3.21    1.08
  -6  -1  -5    4.40    1.23
   6   1   5    2.73    1.41
   6   1   5    3.31    1.15
  -7  -1  -5    5.14    1.59
  -7  -1  -5    3.58    1.37
  -7  -1  -5    4.60    1.90
   7   1   5    3.72    1.52
   7   1   5    4.78    1.82
  -8  -1  -5    4.35    1.67
  -8  -1  -5    4.60    1.63
   8   1   5    5.17    2.04
  -7   2   5   25.18    2.90
   6  -2  -5   12.46    2.24
   6  -2  -5   12.78    2.01
  -6   2   5   14.55    1.79
  -6   2   5   15.77    2.07
   5  -2  -5   35.52    3.15
   5  -2  -5   35.43    3.35
   5  -2  -5   36.62    3.03
   5  -2  -5   38.21    3.11
  -5   2   5   34.24    2.92
  -5   2   5   34.76    2.97
  -5   2   5   37.14    3.58
   4  -2  -5  124.55    7.86
   4  -2  -5  122.93    7.84
   4  -2  -5  122.64    7.67
   4  -2  -5  124.23    7.64
   4  -2  -5  111.66    7.90
  -4   2   5  105.59    7.53
  -4   2   5  103.68    8.27
  -4   2   5  102.65    8.03
  -4   2   5  109.59    7.60
  -4   2   5  108.24    7.48
   3  -2  -5  106.65    7.31
   3  -2  -5  111.48    7.17
   3  -2  -5  102.07    7.10
   3  -2  -5  110.01    7.26
   3  -2  -5  106.16    6.98
   3  -2  -5  105.26    7.21
  -3   2   5  102.16    7.50
  -3   2   5  106.38    7.65
   2  -2  -5   99.16    7.05
   2  -2  -5  104.22    7.09
   2  -2  -5  105.62    6.89
   2  -2  -5  107.61    7.06
   2  -2  -5  106.10    6.73
   2  -2  -5  104.84    7.01
  -2   2   5  105.09    7.28
  -2   2   5  107.23    7.39
   1  -2  -5   61.72    4.26
   1  -2  -5   62.86    4.45
   1  -2  -5   63.40    4.45
   1  -2  -5   58.49    4.43
   1  -2  -5   60.74    4.41
   1  -2  -5   61.83    4.25
  -1   2   5   66.84    4.49
  -1   2   5   70.03    4.55
  -1   2   5   68.35    4.40
   0  -2  -5  129.68    8.23
   0  -2  -5  130.03    8.21
   0  -2  -5  132.27    8.28
   0  -2  -5  132.28    8.27
   0  -2  -5  132.71    8.22
   0   2   5  123.02    8.18
   0   2   5  118.15    8.12
   0   2   5  120.65    8.33
   0   2   5  125.22    8.00
  -1  -2  -5   48.87    3.16
  -1  -2  -5   44.34    3.16
  -1  -2  -5   41.79    3.22
  -1  -2  -5   48.04    3.20
  -1  -2  -5   45.85    3.26
   1   2   5   46.06    3.19
   1   2   5   44.30    3.35
   1   2   5   42.69    2.93
  -2  -2  -5   73.88    5.13
  -2  -2  -5   75.22    5.05
  -2  -2  -5   75.84    4.92
  -2  -2  -5   77.04    5.16
  -2  -2  -5   76.03    4.69
  -2  -2  -5   73.52    5.14
   2   2   5   73.16    5.28
   2   2   5   72.26    4.89
   2   2   5   75.87    5.06
  -3  -2  -5   34.35    2.61
  -3  -2  -5   33.29    2.61
  -3  -2  -5   31.09    2.52
  -3  -2  -5   32.67    2.49
  -3  -2  -5   30.99    2.47
   3   2   5   30.95    2.52
   3   2   5   32.24    2.79
   3   2   5   29.82    2.31
   3   2   5   28.57    2.46
   3   2   5   29.67    2.47
  -4  -2  -5   23.64    2.23
  -4  -2  -5   21.61    2.18
  -4  -2  -5   22.97    2.31
  -4  -2  -5   22.49    2.23
  -4  -2  -5   24.18    2.23
   4   2   5   26.17    2.54
   4   2   5   24.91    2.85
   4   2   5   26.53    2.37
   4   2   5   24.51    2.13
   4   2   5   26.33    2.14
  -5  -2  -5   80.79    5.88
  -5  -2  -5   82.26    5.85
  -5  -2  -5   82.78    5.89
  -5  -2  -5   82.78    5.81
  -5  -2  -5   79.57    6.13
   5   2   5   82.63    5.56
   5   2   5   81.46    5.82
   5   2   5   80.28    6.21
  -6  -2  -5    2.45    1.13
  -6  -2  -5    3.45    1.21
  -6  -2  -5    2.84    1.09
   6   2   5    1.36    1.30
  -7  -2  -5   16.64    2.23
  -7  -2  -5   17.35    2.49
  -7  -2  -5   18.46    2.55
   7   2   5   19.58    3.04
  -8  -2  -5    4.14    1.69
  -8  -2  -5    3.29    1.65
   8   2   5    4.18    2.03
   7  -3  -5    4.24    1.83
  -7   3   5    4.10    1.45
   6  -3  -5   20.33    2.67
   6  -3  -5   24.74    2.73
   6  -3  -5   22.71    2.42
  -6   3   5   20.27    2.26
  -6   3   5   19.87    2.32
   5  -3  -5    0.96    0.96
   5  -3  -5    2.71    1.14
   5  -3  -5    0.67    1.02
  -5   3   5    3.68    0.93
  -5   3   5    3.55    1.33
  -5   3   5    3.80    1.01
  -5   3   5    4.11    1.13
   4  -3  -5   39.12    3.49
   4  -3  -5   38.14    3.44
   4  -3  -5   37.07    3.17
   4  -3  -5   35.29    3.44
  -4   3   5   51.63    3.42
  -4   3   5   50.99    3.44
  -4   3   5   52.41    4.27
  -4   3   5   47.38    3.47
  -4   3   5   48.29    4.03
   3  -3  -5   54.92    4.24
   3  -3  -5   57.97    4.25
   3  -3  -5   56.03    3.83
   3  -3  -5   55.32    4.28
   3  -3  -5   57.90    4.20
   3  -3  -5   57.70    4.14
   2  -3  -5  109.46    7.28
   2  -3  -5  107.89    6.89
   2  -3  -5  111.02    7.28
   2  -3  -5  112.61    7.08
   2  -3  -5  110.66    7.26
   2  -3  -5  111.36    7.31
  -2   3   5  102.09    7.49
  -2   3   5   95.93    7.57
   1  -3  -5   98.04    6.29
   1  -3  -5   98.49    6.56
   1  -3  -5  101.32    6.40
   1  -3  -5   99.48    6.61
   1  -3  -5   98.87    6.60
   1  -3  -5   96.58    6.40
   1  -3  -5   98.39    6.63
  -1   3   5   93.74    6.53
  -1   3   5   96.79    6.43
   0  -3  -5   21.46    1.76
   0  -3  -5   19.06    1.70
   0  -3  -5   20.67    1.81
   0  -3  -5   20.71    1.79
   0  -3  -5   19.71    1.69
  -1  -3  -5   84.71    5.93
  -1  -3  -5   85.58    5.93
  -1  -3  -5   82.34    5.79
   1   3   5   97.44    6.10
   1   3   5   91.42    5.83
   1   3   5   89.83    5.75
  -2  -3  -5  123.66    8.13
  -2  -3  -5  123.43    7.99
  -2  -3  -5  117.67    8.18
  -2  -3  -5  119.52    8.20
   2   3   5  125.82    8.33
   2   3   5  125.20    8.25
   2   3   5  127.35    8.09
   2   3   5  129.43    8.05
  -3  -3  -5   28.78    2.61
  -3  -3  -5   29.06    2.59
  -3  -3  -5   29.24    2.19
  -3  -3  -5   28.55    2.55
  -3  -3  -5   27.32    2.62
   3   3   5   37.85    2.60
   3   3   5   37.31    3.33
   3   3   5   39.53    2.97
   3   3   5   35.12    2.62
   3   3   5   35.09    2.66
  -4  -3  -5   38.51    3.18
  -4  -3  -5   38.68    3.06
  -4  -3  -5   37.47    3.08
  -4  -3  -5   38.79    3.04
  -4  -3  -5   37.46    3.08
   4   3   5   36.50    3.63
   4   3   5   38.96    3.46
   4   3   5   35.52    3.13
   4   3   5   34.72    2.92
  -5  -3  -5    6.05    1.34
  -5  -3  -5    7.98    1.46
  -5  -3  -5    6.89    1.40
  -5  -3  -5    8.43    1.63
  -5  -3  -5    5.98    1.30
   5   3   5   10.64    1.87
   5   3   5   11.56    1.76
   5   3   5   11.47    1.35
  -6  -3  -5   21.38    2.39
  -6  -3  -5   20.34    2.32
  -6  -3  -5   17.49    2.20
  -6  -3  -5   19.37    2.50
   6   3   5   19.80    2.95
  -7  -3  -5   10.25    1.85
  -7  -3  -5    7.77    1.84
  -7  -3  -5   11.71    1.83
   7   3   5    5.42    2.11
   7   3   5    4.57    1.82
  -8  -3  -5    3.49    1.63
  -8  -3  -5    3.47    1.64
   8   3   5    5.90    2.25
   7  -4  -5    1.65    1.72
  -7   4   5    4.33    2.14
  -7   4   5    4.12    1.50
   6  -4  -5    5.53    1.64
   6  -4  -5    6.24    1.62
  -6   4   5    6.15    1.56
  -6   4   5    4.68    1.34
   5  -4  -5   45.28    3.95
   5  -4  -5   48.86    3.97
  -5   4   5   45.25    3.83
  -5   4   5   50.43    3.85
  -5   4   5   46.28    3.65
   4  -4  -5    3.51    1.15
   4  -4  -5    3.25    1.15
   4  -4  -5    2.41    1.01
   4  -4  -5    3.74    1.13
  -4   4   5    5.49    1.01
  -4   4   5    5.03    1.03
  -4   4   5    4.20    1.34
  -4   4   5    4.01    1.07
   3  -4  -5   51.12    4.38
   3  -4  -5   52.20    4.41
   3  -4  -5   52.79    4.35
   3  -4  -5   53.36    3.81
   3  -4  -5   53.31    4.23
  -3   4   5   70.93    5.12
  -3   4   5   66.71    4.34
  -3   4   5   69.29    5.11
  -3   4   5   65.81    4.33
   2  -4  -5   57.31    4.19
   2  -4  -5   56.09    3.75
   2  -4  -5   53.98    4.10
   2  -4  -5   54.68    4.16
   2  -4  -5   51.78    4.13
   2  -4  -5   54.28    3.88
  -2   4   5   55.53    4.38
  -2   4   5   57.80    4.11
  -2   4   5   58.41    4.69
   1  -4  -5   26.81    1.96
   1  -4  -5   26.47    2.31
   1  -4  -5   25.16    2.04
   1  -4  -5   27.02    2.36
   1  -4  -5   23.66    2.17
  -1   4   5   27.52    2.16
  -1   4   5   28.21    2.35
  -1   4   5   27.26    2.71
   0  -4  -5  142.29    9.50
   0  -4  -5  143.00    9.38
   0  -4  -5  144.53    9.39
   0  -4  -5  147.59    9.35
   0  -4  -5  142.47    9.52
   0  -4  -5  145.30    9.05
   0   4   5  144.30    9.41
   0   4   5  142.38    9.55
   0   4   5  147.10    9.16
  -1  -4  -5   61.12    4.01
  -1  -4  -5   58.95    4.20
  -1  -4  -5   58.42    3.74
  -1  -4  -5   61.72    4.23
   1   4   5   58.65    4.29
   1   4   5   58.74    4.21
   1   4   5   56.51    4.21
   1   4   5   58.64    3.88
  -2  -4  -5   17.26    1.69
  -2  -4  -5   17.22    1.75
  -2  -4  -5   16.69    1.77
  -2  -4  -5   17.53    1.44
   2   4   5   18.95    1.48
   2   4   5   19.57    1.82
   2   4   5   19.11    1.74
   2   4   5   18.14    1.84
  -3  -4  -5  126.08    7.58
  -3  -4  -5  125.15    8.20
  -3  -4  -5  119.71    8.05
  -3  -4  -5  120.22    8.11
  -3  -4  -5  114.82    8.09
  -3  -4  -5  123.25    7.70
   3   4   5  115.57    8.12
   3   4   5  119.49    8.27
   3   4   5  117.50    8.08
  -4  -4  -5   36.76    3.03
  -4  -4  -5   36.65    3.05
  -4  -4  -5   30.91    3.05
  -4  -4  -5   35.76    2.61
  -4  -4  -5   34.14    3.18
   4   4   5   37.19    3.71
   4   4   5   39.16    3.03
   4   4   5   38.10    3.22
   4   4   5   38.39    3.34
  -5  -4  -5   17.65    2.14
  -5  -4  -5   14.84    1.88
  -5  -4  -5   14.06    2.17
  -5  -4  -5   14.88    2.02
   5   4   5   16.79    2.24
   5   4   5   17.59    1.81
   5   4   5   16.83    2.30
  -6  -4  -5    6.17    1.51
  -6  -4  -5    6.45    1.49
  -6  -4  -5    6.20    1.50
   6   4   5    7.52    1.92
   6   4   5    7.54    1.93
  -7  -4  -5    3.69    1.42
  -7  -4  -5    2.79    1.44
  -7  -4  -5    2.50    1.21
   7   4   5    4.99    1.82
   7   4   5    3.42    1.93
   7  -5  -5   16.96    2.97
  -7   5   5   21.80    2.93
  -7   5   5   24.42    2.83
   6  -5  -5   22.98    2.75
   6  -5  -5   22.08    2.93
  -6   5   5   21.00    2.73
  -6   5   5   21.41    2.52
   5  -5  -5   15.57    2.31
   5  -5  -5   14.63    2.27
  -5   5   5   14.78    1.82
  -5   5   5   15.04    2.08
  -5   5   5   17.61    2.21
   4  -5  -5   46.33    3.96
   4  -5  -5   47.58    3.86
   4  -5  -5   47.23    3.82
  -4   5   5   43.56    3.68
  -4   5   5   45.70    3.53
  -4   5   5   45.11    3.66
   3  -5  -5   71.47    5.02
   3  -5  -5   68.03    5.15
   3  -5  -5   71.27    4.59
   3  -5  -5   70.07    5.23
  -3   5   5   72.36    5.02
  -3   5   5   67.78    5.62
  -3   5   5   67.24    5.06
  -3   5   5   66.71    5.73
   2  -5  -5    7.38    1.00
   2  -5  -5    7.44    1.36
   2  -5  -5    8.83    1.13
   2  -5  -5    6.61    1.28
   1  -5  -5  179.97   11.79
   1  -5  -5  185.76   11.70
   1  -5  -5  178.72   11.92
   1  -5  -5  178.33   11.93
   1  -5  -5  186.68   11.59
  -1   5   5  182.76   12.49
  -1   5   5  183.92   11.68
  -1   5   5  178.32   11.90
   0  -5  -5   70.43    5.41
   0  -5  -5   73.08    5.30
   0  -5  -5   71.81    5.22
   0  -5  -5   73.05    5.02
   0  -5  -5   66.15    5.38
   0   5   5   87.15    5.34
   0   5   5   83.15    5.52
   0   5   5   82.93    4.95
   0   5   5   85.05    4.99
  -1  -5  -5  199.80   12.21
  -1  -5  -5  200.59   12.20
  -1  -5  -5  197.92   11.91
  -1  -5  -5  192.08   12.25
   1   5   5  175.04   12.25
   1   5   5  175.82   12.24
   1   5   5  187.00   11.66
   1   5   5  186.46   11.62
   1   5   5  174.40   12.07
  -2  -5  -5   98.90    6.16
  -2  -5  -5   92.03    6.56
  -2  -5  -5   96.91    6.64
  -2  -5  -5   90.29    6.49
   2   5   5   96.29    6.66
   2   5   5   98.73    6.64
   2   5   5   96.75    6.67
  -3  -5  -5    7.94    1.38
  -3  -5  -5    9.25    0.97
  -3  -5  -5   10.18    1.49
  -3  -5  -5    9.54    1.47
   3   5   5   10.95    1.46
   3   5   5    9.09    1.53
   3   5   5   11.65    1.57
  -4  -5  -5   50.06    3.69
  -4  -5  -5   54.68    3.79
  -4  -5  -5   49.60    3.94
  -4  -5  -5   50.96    3.76
   4   5   5   37.92    3.68
   4   5   5   41.49    3.80
   4   5   5   39.45    3.71
   4   5   5   43.46    3.64
  -5  -5  -5   51.33    4.12
  -5  -5  -5   51.30    4.49
  -5  -5  -5   47.13    4.09
  -5  -5  -5   56.10    4.24
   5   5   5   49.65    3.99
   5   5   5   51.38    4.42
   5   5   5   52.51    4.46
   5   5   5   50.40    4.38
  -6  -5  -5   24.63    2.64
  -6  -5  -5   23.08    2.64
  -6  -5  -5   23.42    2.82
   6   5   5   25.18    3.08
   6   5   5   28.01    3.18
  -7  -5  -5    7.49    1.68
  -7  -5  -5    7.70    1.85
   7   5   5    6.69    2.15
   7   5   5    6.19    2.16
   6  -6  -5   11.35    2.37
   6  -6  -5    9.98    2.24
  -6   6   5   18.62    2.42
  -6   6   5   16.00    2.36
   5  -6  -5   30.63    3.17
   5  -6  -5   25.62    2.96
  -5   6   5   30.33    2.88
  -5   6   5   24.78    2.76
  -5   6   5   28.06    2.71
   4  -6  -5   29.78    3.19
   4  -6  -5   30.52    3.14
   4  -6  -5   32.43    3.05
  -4   6   5   31.34    2.99
  -4   6   5   32.83    2.81
  -4   6   5   36.50    3.07
   3  -6  -5    8.23    1.62
   3  -6  -5    8.46    1.45
   3  -6  -5    7.46    1.60
  -3   6   5   11.23    1.60
  -3   6   5   11.43    1.63
  -3   6   5   11.37    2.09
   2  -6  -5  140.73    8.67
   2  -6  -5  128.26    8.91
   2  -6  -5  139.70    8.54
   2  -6  -5  133.71    8.94
  -2   6   5  127.40    9.55
  -2   6   5  125.19    8.47
  -2   6   5  124.01    8.78
  -2   6   5  121.90    8.77
  -1   6   5   11.45    2.10
  -1   6   5    8.74    1.08
  -1   6   5    9.24    1.48
  -1   6   5   10.10    0.96
   0  -6  -5   68.96    4.71
   0  -6  -5   66.90    4.86
   0  -6  -5   68.74    4.42
   0  -6  -5   72.06    4.91
   0   6   5   63.71    4.54
   0   6   5   61.63    4.22
   0   6   5   62.44    4.83
  -1  -6  -5   32.28    2.78
  -1  -6  -5   32.26    2.84
   1   6   5   33.99    3.02
   1   6   5   34.46    2.55
   1   6   5   36.09    2.73
   1   6   5   34.73    2.93
  -2  -6  -5  100.20    6.74
   2   6   5   93.78    6.73
   2   6   5   97.04    6.63
   2   6   5   94.64    6.55
   2   6   5   94.58    6.83
  -3  -6  -5   52.49    4.14
  -3  -6  -5   50.04    4.19
  -3  -6  -5   51.85    4.16
   3   6   5   56.14    4.41
   3   6   5   57.65    4.31
   3   6   5   56.50    4.27
   3   6   5   56.91    4.35
  -4  -6  -5   10.13    1.69
  -4  -6  -5    9.85    1.84
  -4  -6  -5   10.00    1.65
  -4  -6  -5   10.07    1.72
   4   6   5   13.05    1.98
   4   6   5   13.37    1.87
   4   6   5   12.13    1.93
   4   6   5   12.05    1.94
  -5  -6  -5    5.84    1.46
  -5  -6  -5    5.48    1.42
   5   6   5    7.23    1.51
   5   6   5    8.52    1.82
   5   6   5    5.96    1.66
  -6  -6  -5    4.25    1.52
  -6  -6  -5    1.43    1.19
   6   6   5    1.88    1.43
   6   6   5    3.71    1.63
  -7  -6  -5    9.44    2.22
  -7  -6  -5    7.57    1.91
   7   6   5   13.67    2.67
   6  -7  -5   10.70    2.34
   6  -7  -5    8.23    2.14
  -6   7   5    3.41    1.73
  -6   7   5    5.97    1.79
   5  -7  -5    8.55    2.04
   5  -7  -5   11.56    2.16
  -5   7   5   10.81    1.93
  -5   7   5   12.64    2.05
  -5   7   5   11.98    1.94
   4  -7  -5   24.69    2.76
   4  -7  -5   23.61    2.88
   4  -7  -5   24.30    2.60
  -4   7   5   22.02    2.52
  -4   7   5   21.56    2.32
  -4   7   5   21.06    2.62
   3  -7  -5   30.08    3.05
   3  -7  -5   30.51    2.86
   3  -7  -5   29.68    3.13
  -3   7   5   33.38    2.97
  -3   7   5   31.82    2.90
  -3   7   5   32.48    2.97
   2  -7  -5   26.06    2.64
   2  -7  -5   25.84    2.61
   2  -7  -5   26.34    2.26
   2  -7  -5   25.15    2.35
   1  -7  -5   76.15    5.44
   1  -7  -5   77.41    5.44
   1  -7  -5   79.32    5.08
   1  -7  -5   74.34    5.13
  -1   7   5   69.19    4.86
  -1   7   5   68.31    5.33
  -1   7   5   67.82    5.28
  -1   7   5   68.89    6.00
   0  -7  -5    5.90    1.34
   0  -7  -5    7.41    1.25
   0  -7  -5    6.25    1.00
   0  -7  -5    7.58    1.49
   0   7   5   11.77    2.12
   0   7   5   12.71    1.74
   1   7   5   28.74    2.20
   1   7   5   27.73    2.82
   1   7   5   25.60    2.63
   1   7   5   27.91    2.36
   2   7   5   31.33    3.03
   2   7   5   29.67    2.84
   2   7   5   30.29    2.55
   2   7   5   28.31    2.61
  -3  -7  -5   20.92    2.45
   3   7   5   25.28    2.53
   3   7   5   24.51    2.62
   3   7   5   27.66    2.55
   3   7   5   26.01    2.74
  -4  -7  -5   20.66    2.23
  -4  -7  -5   18.56    2.37
   4   7   5   16.34    2.28
   4   7   5   17.20    2.32
   4   7   5   17.77    2.40
   4   7   5   16.33    2.27
  -5  -7  -5   21.54    2.57
  -5  -7  -5   23.58    2.51
   5   7   5   15.84    2.36
   5   7   5   17.67    2.49
   5   7   5   18.49    2.52
  -6  -7  -5    5.55    1.77
  -6  -7  -5    6.00    1.70
   6   7   5   10.37    2.28
   6   7   5    7.30    1.97
  -7  -7  -5    2.03    1.49
  -7  -7  -5    1.42    1.45
   7   7   5    2.79    1.77
   6  -8  -5    2.62    1.79
   6  -8  -5    4.16    1.79
  -6   8   5    2.47    1.74
  -6   8   5    3.71    1.65
   5  -8  -5   18.42    2.86
   5  -8  -5   16.81    2.64
  -5   8   5   18.93    2.55
  -5   8   5   17.10    2.53
  -5   8   5   16.06    2.50
   4  -8  -5    4.14    1.59
   4  -8  -5    4.15    1.55
   4  -8  -5    4.37    1.45
  -4   8   5    4.81    1.47
  -4   8   5    2.61    1.16
  -4   8   5    3.21    1.36
   3  -8  -5   23.13    2.51
   3  -8  -5   23.33    2.75
   3  -8  -5   21.21    2.68
  -3   8   5   26.86    2.73
  -3   8   5   25.19    2.65
  -3   8   5   24.16    2.47
   2  -8  -5   17.68    1.88
   2  -8  -5   16.12    1.72
   2  -8  -5   18.72    2.23
   2  -8  -5   15.49    2.17
  -2   8   5   11.34    1.88
  -2   8   5   11.32    1.95
   1  -8  -5   16.14    1.96
   1  -8  -5   16.83    2.16
   1  -8  -5   14.91    2.07
   1  -8  -5   18.70    1.85
  -1   8   5   20.33    2.32
  -1   8   5   20.60    2.27
   0  -8  -5   63.39    4.73
   0  -8  -5   61.99    4.92
   0  -8  -5   65.09    4.48
   0  -8  -5   64.50    4.91
   0   8   5   62.15    4.83
   0   8   5   62.24    4.96
   0   8   5   64.06    5.38
  -1  -8  -5   46.13    3.75
  -1  -8  -5   51.57    4.05
  -1  -8  -5   48.88    3.93
   1   8   5   48.00    3.81
   1   8   5   44.96    4.19
   1   8   5   44.79    3.91
   1   8   5   46.04    3.96
   1   8   5   46.50    3.50
  -2  -8  -5   12.23    2.02
  -2  -8  -5   12.14    1.94
   2   8   5   16.65    1.78
   2   8   5   15.92    1.89
   2   8   5   17.35    2.15
   2   8   5   16.40    2.26
   2   8   5   17.78    1.82
  -3  -8  -5   26.27    2.78
   3   8   5   26.77    2.54
   3   8   5   27.39    3.02
   3   8   5   27.90    2.94
   3   8   5   27.67    2.67
   3   8   5   28.15    2.69
  -4  -8  -5   10.60    1.98
  -4  -8  -5    8.84    1.79
   4   8   5   12.85    2.09
   4   8   5   12.15    1.75
   4   8   5   14.97    2.20
   4   8   5   15.02    2.21
  -5  -8  -5   33.65    3.45
  -5  -8  -5   38.52    3.51
   5   8   5   38.83    3.62
   5   8   5   34.80    3.58
   5   8   5   34.28    3.60
  -6  -8  -5    9.59    2.05
  -6  -8  -5   10.57    2.10
   6   8   5   13.04    2.55
   5  -9  -5    7.59    1.94
   5  -9  -5    7.72    2.14
  -5   9   5    4.12    1.60
  -5   9   5    4.24    1.67
   4  -9  -5   23.36    3.11
   4  -9  -5   24.44    3.09
   4  -9  -5   27.64    3.00
  -4   9   5   23.76    3.03
  -4   9   5   27.65    2.99
   3  -9  -5   33.91    3.37
   3  -9  -5   31.89    3.36
   3  -9  -5   33.58    3.10
  -3   9   5   29.99    3.07
  -3   9   5   27.55    3.06
  -3   9   5   28.60    3.10
   2  -9  -5   27.07    3.08
   2  -9  -5   27.64    2.75
   2  -9  -5   27.92    2.68
   2  -9  -5   25.31    2.98
  -2   9   5   35.54    3.22
  -2   9   5   39.23    3.28
   1  -9  -5   33.99    2.82
   1  -9  -5   31.96    2.95
   1  -9  -5   30.04    3.09
   1  -9  -5   30.71    3.12
  -1   9   5   32.09    3.15
  -1   9   5   30.46    3.03
   0  -9  -5   29.10    2.86
   0  -9  -5   26.87    2.43
   0  -9  -5   29.29    2.94
   0  -9  -5   26.19    2.93
   0   9   5   31.82    2.92
   0   9   5   29.62    3.00
  -1  -9  -5   39.05    3.61
  -1  -9  -5   39.60    3.58
  -1  -9  -5   39.72    3.63
   1   9   5   42.05    3.58
   1   9   5   42.10    3.73
  -2  -9  -5   34.49    3.19
  -2  -9  -5   30.76    3.06
   2   9   5   32.95    3.04
   2   9   5   32.12    2.81
   2   9   5   31.03    3.20
   2   9   5   33.87    2.80
  -3  -9  -5   25.33    2.62
   3   9   5   17.64    2.19
   3   9   5   20.92    2.36
   3   9   5   20.28    2.55
   3   9   5   18.21    2.24
  -4  -9  -5   20.05    2.86
   4   9   5   23.85    2.72
   4   9   5   23.19    2.70
   4   9   5   23.17    2.49
   4   9   5   24.46    3.06
  -5  -9  -5    3.05    1.49
  -5  -9  -5    0.61    1.48
   5   9   5    1.26    1.37
   5   9   5    0.95    1.23
  -6  -9  -5   38.56    3.90
  -6  -9  -5   40.70    3.95
   6   9   5   37.02    4.14
   4 -10  -5    9.83    2.06
   4 -10  -5    8.04    2.16
   4 -10  -5   11.19    2.50
  -4  10   5    7.08    1.86
  -4  10   5    7.58    2.04
   3 -10  -5    6.21    1.96
   3 -10  -5    5.76    1.61
   3 -10  -5    4.68    1.85
  -3  10   5    8.68    1.96
  -3  10   5    9.52    1.97
  -3  10   5    7.35    1.93
   2 -10  -5   52.85    4.05
   2 -10  -5   48.27    3.93
   2 -10  -5   48.82    4.32
   2 -10  -5   49.51    4.50
  -2  10   5   46.02    4.22
  -2  10   5   40.13    4.18
   1 -10  -5   16.75    2.56
   1 -10  -5   16.28    2.59
   1 -10  -5   14.89    2.24
   1 -10  -5   16.90    2.09
  -1  10   5   25.08    2.66
  -1  10   5   22.72    2.58
   0 -10  -5   55.21    4.42
   0 -10  -5   56.75    4.03
   0 -10  -5   54.45    4.34
   0 -10  -5   50.35    4.35
   0  10   5   45.08    4.34
   0  10   5   41.60    4.19
  -1 -10  -5   13.54    2.25
  -1 -10  -5   13.04    2.22
  -1 -10  -5   14.39    2.22
   1  10   5   19.36    2.40
   1  10   5   17.76    2.50
  -2 -10  -5    4.75    1.48
  -2 -10  -5    4.69    1.53
   2  10   5    4.50    1.55
   2  10   5    4.73    1.51
  -3 -10  -5   40.35    3.86
  -3 -10  -5   44.91    4.05
   3  10   5   40.51    3.69
   3  10   5   39.73    4.13
  -4 -10  -5    4.49    1.69
   4  10   5    2.90    1.36
   4  10   5    1.70    1.14
   4  10   5    1.60    1.40
  -5 -10  -5    4.80    1.82
   5  10   5    6.05    1.98
   5  10   5    5.27    1.69
   4 -11  -5    6.06    2.15
   4 -11  -5    9.96    2.26
   4 -11  -5    8.42    2.33
  -4  11   5    5.99    1.94
  -4  11   5    8.24    2.16
   3 -11  -5   14.29    2.72
   3 -11  -5   18.70    2.86
   3 -11  -5   17.51    2.49
  -3  11   5   13.71    2.54
  -3  11   5   11.75    2.34
  -3  11   5   11.49    2.35
   2 -11  -5   18.11    2.79
   2 -11  -5   16.12    2.30
   2 -11  -5   15.35    2.67
  -2  11   5   17.90    2.70
  -2  11   5   18.98    2.74
  -2  11   5   18.78    2.87
   1 -11  -5   36.14    3.35
   1 -11  -5   33.76    3.49
   1 -11  -5   35.21    3.52
  -1  11   5   29.31    3.64
  -1  11   5   27.49    3.29
   0 -11  -5   13.34    2.26
   0 -11  -5   12.01    2.19
   0 -11  -5   12.01    2.33
   0  11   5   14.33    2.48
   0  11   5   17.16    2.59
  -1 -11  -5   34.86    3.56
  -1 -11  -5   37.76    3.65
  -1 -11  -5   34.90    3.55
   1  11   5   33.88    3.72
   1  11   5   31.74    3.41
  -2 -11  -5   20.16    2.97
  -2 -11  -5   21.32    2.72
   2  11   5   22.98    2.67
   2  11   5   20.15    3.13
  -3 -11  -5    2.32    1.43
  -3 -11  -5    2.30    1.52
   3  11   5    2.81    1.33
   3  11   5    4.78    1.87
  -4 -11  -5   40.73    4.16
   4  11   5   34.36    3.89
  -5 -11  -5    0.75    1.76
   5  11   5    4.49    2.01
   5  11   5    3.95    1.95
   3 -12  -5   21.19    3.46
   3 -12  -5   19.59    3.19
  -3  12   5   28.44    3.52
  -3  12   5   25.73    3.41
  -3  12   5   25.86    3.11
   2 -12  -5   23.60    3.31
   2 -12  -5   26.67    3.44
  -2  12   5   16.31    2.83
  -2  12   5   19.61    2.89
  -2  12   5   17.75    2.93
   1 -12  -5   28.20    3.25
   1 -12  -5   30.37    3.45
   1 -12  -5   30.14    3.61
  -1  12   5   31.38    3.75
  -1  12   5   27.16    3.54
   0 -12  -5   10.09    2.10
   0 -12  -5   11.83    2.37
   0 -12  -5   10.40    2.23
   0  12   5   11.58    2.20
   0  12   5   12.79    2.53
  -1 -12  -5   27.72    3.10
  -1 -12  -5   26.15    3.01
  -1 -12  -5   23.95    3.34
   1  12   5   21.74    3.38
   1  12   5   25.60    3.04
  -2 -12  -5   15.23    2.59
  -2 -12  -5   11.91    2.42
   2  12   5   16.60    2.87
   2  12   5   22.24    2.93
  -3 -12  -5   10.85    2.40
  -3 -12  -5   11.56    2.36
   3  12   5    9.60    2.33
   3  12   5   10.21    2.08
  -4 -12  -5    7.07    2.14
  -4 -12  -5    8.23    2.18
   4  12   5   10.86    2.48
   1 -13  -5    9.73    2.26
   1 -13  -5   11.09    2.23
   1 -13  -5   13.21    2.69
  -1  13   5    7.86    2.23
  -1  13   5    7.81    2.07
  -1  13   5    9.63    2.41
   0 -13  -5   13.72    2.52
   0 -13  -5   17.44    2.84
   0 -13  -5   14.99    2.81
   0  13   5   12.93    2.62
   0  13   5   12.28    2.56
  -1 -13  -5   15.66    2.80
  -1 -13  -5   18.63    3.03
  -1 -13  -5   16.73    2.72
   1  13   5   15.63    2.91
   1  13   5   18.25    2.84
  -2 -13  -5   16.10    2.83
  -2 -13  -5   16.08    2.89
   2  13   5   19.11    2.87
   2  13   5   17.09    3.08
   3  12  -6   11.24    2.55
  -3 -12   6   13.27    2.75
   2  12  -6    1.14    1.74
   2  12  -6    1.47    1.27
  -2 -12   6    0.16    1.58
   1  12  -6    3.40    1.43
   1  12  -6    2.55    1.66
  -1 -12   6    3.12    1.79
  -1 -12   6    3.61    1.81
   0  12  -6   10.85    2.20
   0  12  -6   14.27    2.67
   0 -12   6   11.34    2.52
   0 -12   6   10.88    2.30
  -1  12  -6    3.37    1.62
  -1  12  -6    3.03    1.64
   1 -12   6    0.83    1.60
   1 -12   6    0.09    1.44
   1 -12   6    0.18    1.19
  -2  12  -6    1.86    1.52
   2 -12   6    0.61    1.58
   2 -12   6    0.94    1.52
   2 -12   6    0.09    1.31
   2 -12   6    0.25    1.55
  -4 -11   6    3.30    1.92
  -4 -11   6    4.70    1.85
   3  11  -6   35.41    3.83
  -3 -11   6   33.16    3.95
  -3 -11   6   32.03    3.61
   2  11  -6   11.75    1.99
   2  11  -6   11.29    2.51
  -2 -11   6   12.41    2.44
  -2 -11   6   15.44    2.42
   1  11  -6    4.90    1.52
   1  11  -6    5.86    1.86
  -1 -11   6    6.96    1.91
  -1 -11   6    6.00    2.11
   0  11  -6   22.50    2.77
   0  11  -6   22.99    3.11
   0 -11   6   21.59    3.28
   0 -11   6   22.42    2.61
   0 -11   6   27.82    3.09
  -1  11  -6   20.57    2.67
  -1  11  -6   17.26    2.63
   1 -11   6   17.90    2.87
   1 -11   6   18.33    2.78
   1 -11   6   18.45    2.64
  -2  11  -6    6.89    1.64
  -2  11  -6    6.68    1.85
   2 -11   6    5.13    1.86
   2 -11   6    5.12    1.82
   2 -11   6    4.77    1.79
   2 -11   6    5.93    2.15
  -3  11  -6    3.00    1.42
  -3  11  -6    3.49    1.76
   3 -11   6    3.26    1.75
   3 -11   6    1.94    1.83
   3 -11   6    3.27    1.67
   5  10  -6   30.58    4.30
   5  10  -6   27.75    3.46
  -5 -10   6   29.21    4.01
  -5 -10   6   30.15    3.27
  -5 -10   6   30.26    3.49
   4  10  -6    3.55    1.91
  -4 -10   6    2.02    1.66
  -4 -10   6    1.30    1.82
   3  10  -6   21.05    2.97
  -3 -10   6   15.87    2.66
  -3 -10   6   15.14    2.52
   2  10  -6   43.76    3.81
   2  10  -6   45.45    4.25
   2  10  -6   42.97    3.77
  -2 -10   6   45.36    4.35
  -2 -10   6   45.06    4.04
   1  10  -6   22.44    2.61
   1  10  -6   22.20    2.84
  -1 -10   6   21.80    2.65
  -1 -10   6   24.81    3.11
   0  10  -6   25.23    2.76
   0  10  -6   24.99    2.81
   0 -10   6   16.71    2.67
   0 -10   6   21.13    2.45
   0 -10   6   18.84    2.59
  -1  10  -6   10.24    2.02
  -1  10  -6   13.42    1.82
  -1  10  -6   12.97    2.19
   1 -10   6   13.22    2.19
   1 -10   6   11.58    2.18
   1 -10   6   10.71    2.21
  -2  10  -6   23.32    2.49
  -2  10  -6   16.93    2.61
   2 -10   6   20.82    2.89
   2 -10   6   16.92    2.62
   2 -10   6   18.19    2.70
   2 -10   6   19.38    2.96
  -3  10  -6   20.24    2.58
  -3  10  -6   19.52    2.82
   3 -10   6   20.00    3.05
   3 -10   6   16.79    2.73
   3 -10   6   14.80    2.69
  -4  10  -6    0.58    1.35
  -4  10  -6    3.88    1.64
   4 -10   6    5.67    1.95
   4 -10   6    4.20    1.75
   4 -10   6    4.11    1.95
   5   9  -6   14.36    2.92
   5   9  -6   16.29    2.60
  -5  -9   6   14.84    2.72
  -5  -9   6   14.71    2.61
   4   9  -6   21.90    3.44
  -4  -9   6   24.15    3.11
  -4  -9   6   23.15    3.02
   3   9  -6   16.95    2.10
   3   9  -6   18.05    2.60
  -3  -9   6   14.12    2.42
  -3  -9   6   10.65    2.24
   2   9  -6   37.69    3.22
   2   9  -6   36.25    3.25
   2   9  -6   36.22    3.57
  -2  -9   6   34.31    3.49
  -2  -9   6   34.47    3.61
   1   9  -6   13.91    1.94
   1   9  -6   15.44    2.22
  -1  -9   6   11.30    2.05
  -1  -9   6   12.56    1.74
  -1  -9   6   11.69    1.80
  -1  -9   6   12.34    2.00
   0   9  -6   15.23    1.83
   0   9  -6   17.74    2.31
   0   9  -6   18.04    2.27
   0  -9   6   15.27    2.06
   0  -9   6   14.32    2.37
   0  -9   6   16.09    1.99
   0  -9   6   18.86    2.39
  -1   9  -6   16.68    2.59
  -1   9  -6   20.67    2.48
  -1   9  -6   19.32    2.17
   1  -9   6   26.74    2.69
   1  -9   6   23.47    2.77
   1  -9   6   27.07    2.79
  -2   9  -6   10.26    1.86
  -2   9  -6    9.01    1.58
   2  -9   6    3.85    1.67
   2  -9   6    5.97    1.72
   2  -9   6    4.86    1.65
   2  -9   6    3.86    1.55
  -3   9  -6   15.94    2.29
  -3   9  -6   15.23    2.43
   3  -9   6   17.12    2.60
   3  -9   6   21.27    2.72
   3  -9   6   19.08    2.75
  -4   9  -6   16.94    2.50
  -4   9  -6   17.06    2.55
   4  -9   6   15.00    2.66
   4  -9   6   18.19    2.88
   4  -9   6   13.39    2.49
  -5   9  -6    4.30    1.68
  -5   9  -6    1.82    1.58
   5  -9   6    4.71    1.96
   5  -9   6    4.26    2.20
   5  -9   6    5.42    1.99
   6   8  -6    1.85    1.79
   6   8  -6    0.40    1.48
  -6  -8   6    3.53    1.88
  -6  -8   6    2.95    1.82
   5   8  -6    8.04    2.19
   5   8  -6    7.56    1.86
  -5  -8   6    9.68    2.20
  -5  -8   6    9.03    2.08
   4   8  -6   22.51    2.42
   4   8  -6   22.90    3.34
  -4  -8   6   21.14    3.02
  -4  -8   6   25.50    2.93
   3   8  -6   14.31    1.94
   3   8  -6   14.31    2.44
   3   8  -6   14.58    1.66
  -3  -8   6   12.57    2.21
  -3  -8   6   11.40    2.04
   2   8  -6   26.93    2.66
   2   8  -6   28.30    2.93
   2   8  -6   27.90    2.54
  -2  -8   6   24.73    2.83
  -2  -8   6   27.31    2.87
   1   8  -6   15.29    1.98
   1   8  -6   15.68    2.08
  -1  -8   6   13.15    2.17
  -1  -8   6   13.78    1.70
  -1  -8   6   15.48    1.93
  -1  -8   6   10.74    1.90
   0   8  -6   11.44    1.91
   0   8  -6   11.53    1.90
   0   8  -6   11.41    1.39
   0  -8   6   15.98    2.18
   0  -8   6   15.64    1.83
   0  -8   6   14.97    2.19
   0  -8   6   14.89    1.82
  -1   8  -6   36.36    3.36
  -1   8  -6   39.31    3.71
  -1   8  -6   40.00    3.06
  -1   8  -6   38.15    3.44
   1  -8   6   40.29    3.62
   1  -8   6   36.39    3.52
   1  -8   6   35.85    3.19
   1  -8   6   36.65    3.37
   1  -8   6   39.59    3.82
  -2   8  -6   32.78    3.10
  -2   8  -6   30.35    3.28
   2  -8   6   42.16    3.24
   2  -8   6   37.71    3.54
   2  -8   6   39.60    3.66
   2  -8   6   37.19    3.45
   2  -8   6   43.84    3.70
  -3   8  -6    5.35    1.07
  -3   8  -6    4.06    1.25
  -3   8  -6    3.78    1.34
   3  -8   6    1.97    1.31
   3  -8   6    1.27    1.24
   3  -8   6    2.93    1.54
  -4   8  -6    8.81    1.55
  -4   8  -6    8.70    1.83
  -4   8  -6    9.10    2.01
   4  -8   6    9.80    2.11
   4  -8   6   11.58    2.25
   4  -8   6   11.89    2.35
  -5   8  -6    5.68    1.72
  -5   8  -6    6.59    1.77
  -5   8  -6    5.96    1.55
   5  -8   6    6.78    2.12
   5  -8   6    4.48    1.85
   5  -8   6    7.91    2.13
   6   7  -6   29.98    3.28
   6   7  -6   30.23    3.76
  -6  -7   6   25.97    3.63
  -6  -7   6   26.81    3.63
   5   7  -6    4.46    1.81
   5   7  -6    4.74    1.54
  -5  -7   6    4.81    1.78
  -5  -7   6    3.55    1.64
   4   7  -6   18.06    2.49
   4   7  -6   16.19    2.69
   4   7  -6   17.26    2.15
  -4  -7   6   21.80    2.61
  -4  -7   6   20.31    2.53
   3   7  -6   11.60    2.20
   3   7  -6   11.62    1.74
   3   7  -6   12.66    1.59
  -3  -7   6   18.57    2.40
  -3  -7   6   18.29    2.22
   2   7  -6   32.91    2.88
   2   7  -6   35.78    2.80
  -2  -7   6   32.27    3.58
  -2  -7   6   32.51    3.18
  -2  -7   6   28.53    3.02
   1   7  -6   65.77    5.09
   1   7  -6   66.60    5.35
   1   7  -6   67.04    5.72
  -1  -7   6   73.16    5.44
  -1  -7   6   76.29    5.00
  -1  -7   6   74.90    5.38
   0   7  -6   24.74    2.35
   0   7  -6   22.49    2.27
   0   7  -6   22.63    1.85
   0   7  -6   22.93    2.65
   0   7  -6   25.95    2.44
   0  -7   6   19.35    2.14
   0  -7   6   19.99    2.27
   0  -7   6   17.79    2.26
   0  -7   6   16.51    2.23
   0  -7   6   18.32    1.96
  -1   7  -6   58.66    4.74
  -1   7  -6   58.78    4.44
  -1   7  -6   58.52    3.82
  -1   7  -6   55.11    4.80
  -1   7  -6   54.25    4.08
   1  -7   6   56.88    4.49
   1  -7   6   55.81    4.52
   1  -7   6   50.17    4.24
   1  -7   6   55.24    4.66
   1  -7   6   55.12    4.26
  -2   7  -6   52.49    4.33
  -2   7  -6   53.90    4.87
  -2   7  -6   54.21    4.76
  -2   7  -6   53.86    4.14
  -2   7  -6   51.79    3.81
   2  -7   6   50.38    4.28
   2  -7   6   58.82    4.30
   2  -7   6   60.79    4.62
   2  -7   6   57.71    4.48
   2  -7   6   55.76    4.54
  -3   7  -6   41.99    3.77
  -3   7  -6   42.96    3.62
  -3   7  -6   42.34    3.22
   3  -7   6   42.74    3.84
   3  -7   6   43.82    3.82
   3  -7   6   38.43    3.65
   3  -7   6   40.93    3.47
  -4   7  -6    4.31    1.15
  -4   7  -6    5.56    1.49
  -4   7  -6    4.67    1.43
   4  -7   6    5.00    1.61
   4  -7   6    6.31    1.71
   4  -7   6    6.64    1.87
   4  -7   6    5.58    1.67
  -5   7  -6   10.71    1.90
  -5   7  -6   12.72    2.19
  -5   7  -6    9.72    1.77
  -5   7  -6    9.50    2.03
   5  -7   6   16.49    2.64
   5  -7   6   11.35    2.33
   5  -7   6   14.31    2.51
  -6   7  -6    8.43    1.79
  -6   7  -6    9.53    2.04
  -6   7  -6    9.82    1.93
  -6   7  -6   10.07    2.18
   6  -7   6   13.77    2.66
   6  -7   6   11.37    2.55
   7   6  -6   11.07    2.70
   7   6  -6   12.32    2.30
  -7  -6   6   16.57    2.95
   6   6  -6    4.52    1.90
   6   6  -6    2.28    1.39
  -6  -6   6    5.21    1.88
  -6  -6   6    4.27    1.77
   5   6  -6   28.69    3.34
   5   6  -6   28.42    2.82
   5   6  -6   28.69    3.10
  -5  -6   6   26.44    3.17
  -5  -6   6   27.00    3.19
   4   6  -6    3.52    1.15
   4   6  -6    3.87    1.25
   4   6  -6    5.57    1.71
  -4  -6   6    1.67    1.17
  -4  -6   6    1.67    1.15
   3   6  -6   30.09    2.79
   3   6  -6   31.84    3.30
  -3  -6   6   29.60    2.99
  -3  -6   6   32.45    3.17
   2   6  -6   10.98    1.61
   2   6  -6   12.37    2.06
   2   6  -6   13.19    1.83
  -2  -6   6   18.93    2.47
  -2  -6   6   18.36    1.47
  -2  -6   6   15.87    1.98
  -2  -6   6   19.78    2.10
   1   6  -6   87.48    6.74
   1   6  -6   88.07    5.79
   1   6  -6   88.52    6.19
  -1  -6   6   92.10    6.11
  -1  -6   6   91.40    6.47
  -1  -6   6   90.25    6.44
   0   6  -6   96.36    6.78
   0   6  -6   93.77    6.31
   0   6  -6   93.81    7.01
   0   6  -6   89.70    6.63
   0  -6   6   97.64    6.70
   0  -6   6   98.57    6.79
   0  -6   6   96.78    6.80
   0  -6   6   98.33    6.78
  -1   6  -6   12.89    1.06
  -1   6  -6   12.75    1.35
  -1   6  -6   13.74    1.88
  -1   6  -6   11.49    1.64
  -1   6  -6   13.03    1.89
   1  -6   6   10.30    1.54
   1  -6   6   10.63    1.79
   1  -6   6   10.89    1.72
   1  -6   6   10.27    1.76
  -2   6  -6   27.80    2.67
  -2   6  -6   26.83    2.53
  -2   6  -6   28.78    3.15
  -2   6  -6   28.22    2.20
  -2   6  -6   29.30    2.99
   2  -6   6   28.69    2.79
   2  -6   6   30.20    2.83
   2  -6   6   28.15    2.67
   2  -6   6   28.05    2.96
   2  -6   6   29.58    3.09
  -3   6  -6   11.34    1.35
  -3   6  -6   11.90    1.84
  -3   6  -6   11.17    1.64
   3  -6   6   10.65    1.84
   3  -6   6    9.79    1.94
   3  -6   6   10.11    1.68
  -4   6  -6   12.61    2.03
  -4   6  -6   13.48    1.77
  -4   6  -6   13.57    2.09
   4  -6   6   18.11    2.46
   4  -6   6   14.76    2.24
   4  -6   6   16.48    2.46
   4  -6   6   16.04    2.12
  -5   6  -6    3.22    1.17
  -5   6  -6    2.34    1.33
  -5   6  -6    4.81    1.55
  -5   6  -6    3.18    1.14
   5  -6   6    3.28    1.34
   5  -6   6    2.30    1.51
   5  -6   6    2.60    1.59
   5  -6   6    3.95    1.60
  -6   6  -6    2.50    1.35
  -6   6  -6    3.60    1.34
  -6   6  -6    4.78    1.58
  -6   6  -6    3.60    1.58
   6  -6   6    3.01    1.71
   6  -6   6    2.18    1.57
   7   5  -6    4.40    1.72
   7   5  -6    2.35    1.79
  -7  -5   6    3.45    2.02
   6   5  -6   24.56    2.78
   6   5  -6   21.37    2.66
   6   5  -6   19.36    3.23
  -6  -5   6   26.02    3.16
   5   5  -6    1.95    1.11
   5   5  -6    2.52    1.28
   5   5  -6    2.11    1.38
  -5  -5   6    4.56    1.57
   4   5  -6   50.77    4.56
   4   5  -6   49.19    4.21
   4   5  -6   51.75    4.32
  -4  -5   6   61.36    4.59
  -4  -5   6   56.78    4.56
   3   5  -6   10.31    2.35
   3   5  -6   12.44    2.02
   3   5  -6   11.46    1.74
   3   5  -6   11.56    1.68
  -3  -5   6   16.50    1.95
  -3  -5   6   14.69    2.20
  -3  -5   6   15.30    1.90
  -2  -5   6    7.61    1.44
  -2  -5   6    8.83    1.75
  -2  -5   6    8.91    1.53
   1   5  -6   23.65    2.33
   1   5  -6   23.54    1.93
   1   5  -6   22.11    1.49
  -1  -5   6   17.01    2.04
  -1  -5   6   16.56    1.68
  -1  -5   6   16.29    2.01
  -1  -5   6   17.18    2.20
   0   5  -6   11.10    1.34
   0   5  -6   10.91    1.06
   0   5  -6    9.77    1.49
   0  -5   6    6.28    1.31
   0  -5   6    7.31    1.32
   0  -5   6    7.13    1.39
   0  -5   6    8.14    1.36
  -1   5  -6   28.56    2.77
  -1   5  -6   28.74    2.50
  -1   5  -6   30.54    1.96
  -1   5  -6   26.68    2.23
  -1   5  -6   28.63    2.67
   1  -5   6   28.25    2.67
   1  -5   6   24.97    2.50
   1  -5   6   26.14    2.47
   1  -5   6   25.28    2.69
  -2   5  -6   32.43    2.12
  -2   5  -6   25.69    2.30
  -2   5  -6   29.85    2.96
  -2   5  -6   27.44    2.50
  -2   5  -6   30.98    2.81
   2  -5   6   21.99    2.36
   2  -5   6   23.02    2.84
   2  -5   6   26.21    2.63
   2  -5   6   26.26    2.55
   2  -5   6   23.21    2.69
  -3   5  -6   16.66    2.53
  -3   5  -6   14.43    1.80
  -3   5  -6   15.20    1.58
  -3   5  -6   17.05    1.96
   3  -5   6   18.63    2.22
   3  -5   6   15.99    2.05
   3  -5   6   16.51    2.05
  -4   5  -6   14.69    1.98
  -4   5  -6   15.10    1.83
  -4   5  -6   15.15    1.58
  -4   5  -6   13.64    1.93
   4  -5   6    9.62    2.00
   4  -5   6   11.99    2.00
   4  -5   6    9.64    1.82
  -5   5  -6   13.58    2.00
  -5   5  -6   15.28    2.22
  -5   5  -6   13.55    2.13
  -5   5  -6   13.29    1.90
   5  -5   6   13.16    2.20
   5  -5   6   17.34    2.68
   5  -5   6   15.41    2.37
   5  -5   6   15.29    2.30
  -6   5  -6    1.31    1.36
  -6   5  -6    0.43    1.02
  -6   5  -6    0.55    1.05
  -6   5  -6    1.04    1.16
   6  -5   6    1.99    1.66
   6  -5   6    1.42    1.39
   6  -5   6    2.09    1.43
  -7   5  -6    6.28    2.10
  -7   5  -6    7.07    1.86
   7  -5   6    3.90    2.02
   7  -5   6    4.14    1.92
   7   4  -6    8.35    1.89
   7   4  -6    7.05    2.27
  -7  -4   6    7.50    2.27
   6   4  -6   -0.01    1.45
   6   4  -6    0.68    1.25
   6   4  -6    0.91    1.15
  -6  -4   6    2.01    1.46
   5   4  -6   47.38    4.08
   5   4  -6   51.29    4.16
   5   4  -6   50.09    4.43
  -5  -4   6   46.49    4.26
   4   4  -6   33.44    3.31
   4   4  -6   35.17    3.13
   4   4  -6   34.83    3.23
  -4  -4   6   37.28    2.63
  -4  -4   6   32.70    3.22
  -4  -4   6   34.27    3.30
   3   4  -6   28.00    2.58
   3   4  -6   28.69    2.66
   3   4  -6   28.97    3.09
   3   4  -6   28.49    2.90
  -3  -4   6   29.55    3.14
  -3  -4   6   30.22    2.09
  -3  -4   6   28.55    2.74
  -3  -4   6   28.24    2.71
   2   4  -6  160.96   10.58
   2   4  -6  165.11   10.99
   2   4  -6  158.33   10.57
  -2  -4   6  158.33   10.70
  -2  -4   6  153.46   10.60
  -2  -4   6  160.51   10.98
  -1  -4   6    4.84    1.08
  -1  -4   6    5.48    0.88
  -1  -4   6    6.53    1.25
  -1  -4   6    5.66    1.25
   0   4  -6   19.36    1.94
   0   4  -6   20.41    1.83
   0   4  -6   19.71    1.59
   0  -4   6   17.75    1.88
   0  -4   6   17.36    1.93
   0  -4   6   18.80    1.92
   0  -4   6   17.40    1.91
  -1   4  -6   18.21    1.81
  -1   4  -6   16.96    2.05
  -1   4  -6   17.38    1.29
  -1   4  -6   14.51    1.76
  -1   4  -6   16.99    1.63
   1  -4   6   18.63    1.98
   1  -4   6   19.76    2.15
   1  -4   6   19.64    1.96
   1  -4   6   19.52    1.92
  -2   4  -6   18.54    1.96
  -2   4  -6   16.71    1.82
  -2   4  -6   19.17    1.58
  -2   4  -6   19.44    2.36
   2  -4   6   17.35    1.95
   2  -4   6   22.00    2.24
   2  -4   6   22.65    2.51
   2  -4   6   21.19    2.15
   2  -4   6   20.92    1.98
  -3   4  -6   27.38    2.60
  -3   4  -6   31.31    3.36
  -3   4  -6   27.21    2.56
  -3   4  -6   26.71    2.29
   3  -4   6   31.75    2.71
   3  -4   6   29.48    2.77
   3  -4   6   30.82    2.88
   3  -4   6   30.49    3.65
  -4   4  -6   48.99    3.57
  -4   4  -6   48.54    3.79
  -4   4  -6   48.91    4.09
  -4   4  -6   46.79    3.80
  -4   4  -6   46.88    3.85
   4  -4   6   47.85    3.87
   4  -4   6   43.39    3.97
   4  -4   6   44.89    4.05
  -5   4  -6    1.47    1.01
  -5   4  -6    1.00    1.08
  -5   4  -6    2.32    1.09
  -5   4  -6    0.05    0.93
   5  -4   6    0.08    1.14
   5  -4   6    0.87    1.14
   5  -4   6    0.90    1.26
  -6   4  -6   16.26    2.25
  -6   4  -6   20.27    2.71
  -6   4  -6   21.33    2.47
  -6   4  -6   20.25    2.40
   6  -4   6   17.16    2.60
   6  -4   6   18.14    2.76
   6  -4   6   19.80    2.57
  -7   4  -6   13.59    2.37
  -7   4  -6   11.64    2.41
   7  -4   6   21.87    3.03
   7  -4   6   19.77    2.96
   7  -4   6   19.10    2.92
   7   3  -6   21.57    3.19
   7   3  -6   19.78    2.78
  -7  -3   6   21.53    3.32
   6   3  -6   35.84    3.41
   6   3  -6   35.51    3.43
   6   3  -6   40.15    3.89
  -6  -3   6   36.59    3.19
  -6  -3   6   32.37    3.65
   5   3  -6   21.48    2.48
   5   3  -6   20.23    2.65
   5   3  -6   20.18    2.53
  -5  -3   6   28.86    2.99
  -5  -3   6   26.46    2.15
   4   3  -6   62.89    4.64
   4   3  -6   66.27    4.53
   4   3  -6   64.06    4.48
  -4  -3   6   51.40    3.88
  -4  -3   6   48.09    4.86
  -4  -3   6   49.32    4.41
   3   3  -6   84.50    6.54
   3   3  -6   82.49    6.12
   3   3  -6   82.63    6.20
   3   3  -6   83.32    6.11
  -3  -3   6   92.24    6.25
  -3  -3   6   91.01    5.59
  -3  -3   6   85.72    6.53
  -3  -3   6   86.99    6.26
  -2  -3   6    6.76    0.73
  -2  -3   6    7.10    0.57
  -2  -3   6    8.65    1.41
  -2  -3   6    6.62    0.69
  -2  -3   6    7.13    1.25
  -2  -3   6    7.26    1.43
  -2  -3   6    6.66    0.70
   1   3  -6  134.46    8.97
   1   3  -6  130.25    8.89
   1   3  -6  136.98    9.10
  -1  -3   6  137.97    9.05
  -1  -3   6  134.62    8.80
  -1  -3   6  133.85    9.09
  -1  -3   6  134.88    8.94
   0   3  -6   49.71    3.74
   0   3  -6   50.23    3.96
   0   3  -6   53.30    4.02
   0   3  -6   51.64    3.95
   0  -3   6   62.16    4.06
   0  -3   6   60.00    4.19
   0  -3   6   56.38    4.14
   0  -3   6   62.94    4.23
  -1   3  -6   65.86    4.63
  -1   3  -6   65.38    4.16
  -1   3  -6   66.41    4.50
  -1   3  -6   64.04    4.57
   1  -3   6   64.56    4.74
   1  -3   6   64.40    4.76
   1  -3   6   64.78    4.95
   1  -3   6   64.31    4.62
  -2   3  -6    8.38    1.02
  -2   3  -6    9.32    1.58
  -2   3  -6    9.75    1.41
  -2   3  -6    8.09    1.16
  -2   3  -6    7.81    0.91
   2  -3   6    6.50    1.08
   2  -3   6    6.87    1.49
   2  -3   6    7.87    1.22
   2  -3   6    6.71    1.41
   2  -3   6    7.93    1.36
  -3   3  -6   54.77    4.07
  -3   3  -6   52.85    4.08
  -3   3  -6   53.03    3.80
  -3   3  -6   56.25    4.81
  -3   3  -6   53.31    4.04
  -3   3  -6   54.26    3.68
   3  -3   6   52.87    4.03
   3  -3   6   53.79    4.72
   3  -3   6   53.76    4.19
   3  -3   6   55.49    4.30
  -4   3  -6    6.73    1.40
  -4   3  -6    9.00    1.29
  -4   3  -6   10.38    1.55
  -4   3  -6    8.46    1.57
  -4   3  -6    6.87    1.38
   4  -3   6   14.44    2.01
   4  -3   6   15.21    2.08
  -5   3  -6   31.48    2.90
  -5   3  -6   33.05    2.76
  -5   3  -6   31.76    2.99
  -5   3  -6   35.88    2.98
   5  -3   6   27.51    3.09
   5  -3   6   26.79    2.88
   5  -3   6   28.43    3.16
  -6   3  -6    7.43    1.70
  -6   3  -6    9.03    1.69
  -6   3  -6    7.42    1.51
   6  -3   6    8.82    1.92
   6  -3   6    8.37    1.95
  -7   3  -6   11.94    2.13
  -7   3  -6   12.30    2.42
   7  -3   6    8.71    2.30
   7  -3   6    9.93    2.22
   7  -3   6   11.06    2.28
   7   2  -6   30.53    3.19
   7   2  -6   27.84    3.43
  -7  -2   6   22.27    3.40
   6   2  -6   18.50    2.51
   6   2  -6   20.03    2.61
   6   2  -6   20.25    2.73
  -6  -2   6   14.80    2.55
  -6  -2   6   19.94    2.13
   5   2  -6   18.04    2.12
   5   2  -6   18.23    2.36
   5   2  -6   19.06    2.31
  -5  -2   6   13.08    1.62
  -5  -2   6   13.59    2.31
   4   2  -6   35.50    2.98
   4   2  -6   31.91    3.01
   4   2  -6   29.64    2.97
  -4  -2   6   34.39    3.44
  -4  -2   6   34.31    3.06
  -4  -2   6   31.85    2.48
   3   2  -6   33.11    2.65
   3   2  -6   28.84    2.54
   3   2  -6   31.78    2.95
   3   2  -6   29.87    2.63
   3   2  -6   30.94    2.07
  -3  -2   6   25.93    2.75
  -3  -2   6   26.27    2.50
  -3  -2   6   24.60    1.84
  -3  -2   6   26.39    1.99
  -3  -2   6   24.87    1.99
   2   2  -6   27.32    2.64
   2   2  -6   28.14    2.50
   2   2  -6   26.22    2.49
  -2  -2   6   30.06    2.67
  -2  -2   6   30.15    1.95
  -2  -2   6   28.89    2.19
  -2  -2   6   29.69    2.49
  -2  -2   6   29.76    2.53
   1   2  -6   32.93    2.96
   1   2  -6   32.30    2.90
   1   2  -6   35.18    3.00
  -1  -2   6   42.65    3.12
  -1  -2   6   42.89    3.07
  -1  -2   6   40.99    2.94
  -1  -2   6   40.98    2.96
   0   2  -6   58.84    4.19
   0   2  -6   59.11    4.05
   0   2  -6   56.21    4.13
   0   2  -6   57.81    3.79
   0  -2   6   63.33    4.23
   0  -2   6   62.03    4.40
   0  -2   6   60.77    4.34
   0  -2   6   61.10    4.41
  -1   2  -6   54.32    3.25
  -1   2  -6   53.37    3.26
  -1   2  -6   55.30    3.56
  -1   2  -6   53.94    3.70
  -1   2  -6   54.64    3.56
  -1   2  -6   53.76    3.47
  -1   2  -6   55.63    3.67
   1  -2   6   40.28    3.51
   1  -2   6   42.21    3.72
   1  -2   6   41.56    3.67
   1  -2   6   40.37    3.88
  -2   2  -6  119.86    7.43
  -2   2  -6  116.81    7.36
  -2   2  -6  114.14    7.60
  -2   2  -6  114.20    7.64
  -2   2  -6  117.50    7.68
   2  -2   6  110.79    7.81
   2  -2   6  113.36    8.19
   2  -2   6  107.96    7.50
   2  -2   6  114.49    7.81
   2  -2   6  112.75    7.57
  -3   2  -6   24.08    2.24
  -3   2  -6   24.13    1.76
  -3   2  -6   21.98    2.15
  -3   2  -6   23.94    1.99
  -3   2  -6   24.75    2.15
  -3   2  -6   23.27    2.26
  -4   2  -6   57.51    4.25
  -4   2  -6   58.82    4.29
  -4   2  -6   60.01    4.40
  -4   2  -6   57.31    4.13
  -4   2  -6   57.69    4.33
   4  -2   6   51.47    4.41
   4  -2   6   53.34    4.51
   4  -2   6   51.82    4.19
  -5   2  -6   14.24    1.85
  -5   2  -6   15.67    1.89
  -5   2  -6   13.22    2.03
   5  -2   6   19.30    2.08
   5  -2   6   21.38    2.48
   5  -2   6   20.13    2.61
  -6   2  -6    7.30    1.56
  -6   2  -6    9.42    1.59
  -6   2  -6    8.98    1.93
   6  -2   6    6.69    1.80
   6  -2   6    6.80    1.68
  -7   2  -6   13.83    2.37
  -7   2  -6   10.58    2.16
   7  -2   6   14.33    2.34
   7  -2   6   13.85    2.70
   7   1  -6    3.31    1.65
   7   1  -6    1.81    1.38
  -7  -1   6    4.42    1.28
  -7  -1   6    3.29    1.68
   6   1  -6   25.75    2.80
   6   1  -6   25.52    2.89
  -6  -1   6   20.99    2.77
  -6  -1   6   19.84    2.25
   5   1  -6   12.54    1.98
   5   1  -6   11.07    1.98
   5   1  -6   12.79    2.02
  -5  -1   6   15.07    2.25
  -5  -1   6   17.39    1.66
   4   1  -6   30.54    2.90
   4   1  -6   32.22    2.84
   4   1  -6   35.33    3.43
   4   1  -6   29.61    2.84
  -4  -1   6   30.09    2.28
  -4  -1   6   31.23    3.29
  -4  -1   6   29.43    2.95
  -4  -1   6   31.50    2.45
  -4  -1   6   33.79    3.48
   3   1  -6   72.40    5.38
   3   1  -6   70.81    5.03
   3   1  -6   69.52    4.46
   3   1  -6   69.77    4.98
   3   1  -6   68.22    4.99
  -3  -1   6   66.32    4.74
  -3  -1   6   65.41    4.53
  -3  -1   6   66.62    5.28
  -3  -1   6   67.70    4.98
  -3  -1   6   66.68    4.47
   2   1  -6   94.94    6.94
   2   1  -6   95.73    6.76
   2   1  -6   94.64    6.77
   2   1  -6  101.78    6.48
  -2  -1   6  100.28    6.68
  -2  -1   6  102.25    6.34
  -2  -1   6  103.00    6.76
  -2  -1   6   98.20    6.85
  -2  -1   6  102.96    6.99
   1   1  -6  164.14   10.14
   1   1  -6  158.77   10.30
   1   1  -6  162.63   10.03
   1   1  -6  156.97   10.30
   1   1  -6  162.21   10.36
  -1  -1   6  156.43   10.38
  -1  -1   6  155.87    9.84
  -1  -1   6  152.99   10.22
  -1  -1   6  151.47   10.27
   0   1  -6  103.69    6.95
   0   1  -6  103.09    6.69
   0   1  -6  104.36    6.86
   0   1  -6  105.00    6.60
   0   1  -6  103.94    6.82
   0  -1   6  101.51    7.11
   0  -1   6  106.17    7.00
   0  -1   6  103.59    6.79
   0  -1   6   99.81    7.02
   0  -1   6  101.43    6.70
  -1   1  -6   76.96    5.27
  -1   1  -6   76.49    5.60
  -1   1  -6   74.24    5.53
  -1   1  -6   73.92    5.50
  -1   1  -6   76.53    5.32
   1  -1   6  101.48    5.86
   1  -1   6   96.00    6.14
   1  -1   6   98.78    5.93
  -2   1  -6   49.89    3.47
  -2   1  -6   50.91    3.41
  -2   1  -6   49.22    3.72
  -2   1  -6   49.33    3.48
  -2   1  -6   50.06    3.68
   2  -1   6   53.20    3.60
   2  -1   6   53.16    3.88
   2  -1   6   50.86    4.24
   2  -1   6   50.53    3.94
   2  -1   6   51.31    3.54
  -3   1  -6   45.53    3.39
  -3   1  -6   43.50    3.16
  -3   1  -6   43.99    3.20
  -3   1  -6   46.09    3.41
  -3   1  -6   44.93    2.90
   3  -1   6   39.84    3.44
   3  -1   6   42.22    3.21
   3  -1   6   41.80    3.57
   3  -1   6   40.63    3.93
  -4   1  -6   15.08    1.69
  -4   1  -6   17.18    1.61
  -4   1  -6   15.73    1.69
  -4   1  -6   14.78    1.77
   4  -1   6   11.15    1.57
   4  -1   6   12.70    2.02
   4  -1   6   10.95    1.80
  -5   1  -6   23.98    2.34
  -5   1  -6   22.27    2.21
  -5   1  -6   22.38    2.14
   5  -1   6   15.15    2.43
   5  -1   6   17.32    2.10
   5  -1   6   16.67    2.34
  -6   1  -6    9.59    1.72
  -6   1  -6    9.85    1.66
  -6   1  -6   10.89    1.89
   6  -1   6    7.54    1.90
   6  -1   6    7.97    1.68
  -7   1  -6    3.73    1.60
  -7   1  -6    6.39    1.50
  -7   1  -6    5.67    1.59
   7  -1   6    5.82    1.65
   7  -1   6    6.65    2.04
   7   0  -6    6.22    2.79
   7   0  -6    6.90    1.69
  -7   0   6    8.26    1.67
  -7   0   6   11.55    2.34
   6   0  -6   29.62    3.13
   6   0  -6   25.98    3.02
  -6   0   6   32.33    3.31
  -6   0   6   33.63    2.86
   5   0  -6   56.37    4.48
   5   0  -6   57.04    4.49
   5   0  -6   48.51    4.54
  -5   0   6   59.10    4.19
  -5   0   6   59.54    4.66
   4   0  -6   48.45    4.04
   4   0  -6   47.18    4.06
   4   0  -6   47.13    4.19
  -4   0   6   55.04    4.72
  -4   0   6   56.25    3.78
  -4   0   6   55.56    3.68
  -4   0   6   53.40    4.10
  -4   0   6   55.66    4.20
   3   0  -6  111.06    7.61
   3   0  -6  113.98    8.04
   3   0  -6  106.18    7.65
   3   0  -6  112.06    7.08
   3   0  -6  108.13    7.53
  -3   0   6  113.10    7.28
  -3   0   6  115.05    8.01
  -3   0   6  111.27    7.61
  -3   0   6  112.89    7.62
   2   0  -6   92.43    6.11
   2   0  -6   88.50    6.24
   2   0  -6   85.56    6.40
   2   0  -6   92.62    6.60
   2   0  -6   90.54    6.48
  -2   0   6   96.48    6.63
  -2   0   6  100.21    6.43
  -2   0   6   99.68    6.09
  -2   0   6   93.51    6.48
  -2   0   6  101.25    6.54
   1   0  -6   32.96    2.50
   1   0  -6   32.60    2.54
   1   0  -6   31.21    2.30
   1   0  -6   33.76    2.32
   1   0  -6   32.41    2.46
  -1   0   6   27.35    2.39
  -1   0   6   28.92    2.49
  -1   0   6   28.06    2.32
   0   0  -6  187.11   11.65
   0   0  -6  186.90   11.51
   0   0  -6  192.24   11.79
   0   0  -6  185.54   11.68
   0   0   6  177.93   11.85
   0   0   6  176.84   11.75
   0   0   6  172.56   11.42
   0   0   6  176.73   11.53
  -1   0  -6   82.11    5.66
  -1   0  -6   85.07    5.54
  -1   0  -6   80.59    5.73
  -1   0  -6   80.46    5.74
   1   0   6   89.10    5.59
   1   0   6   87.59    5.97
   1   0   6   87.15    5.83
   1   0   6   88.48    5.48
   1   0   6   87.88    6.27
  -2   0  -6   35.67    2.75
  -2   0  -6   32.17    2.70
  -2   0  -6   34.84    2.52
  -2   0  -6   35.71    2.50
   2   0   6   34.83    2.82
   2   0   6   33.36    3.18
   2   0   6   38.50    3.04
   2   0   6   35.10    2.48
  -3   0  -6  117.91    8.28
  -3   0  -6  111.09    8.25
  -3   0  -6  115.43    8.12
  -3   0  -6  118.91    7.85
  -3   0  -6  122.22    8.10
   3   0   6  135.92    9.13
   3   0   6  132.36    8.12
   3   0   6  139.20    8.65
   3   0   6  129.55    8.44
  -4   0  -6   33.23    2.70
  -4   0  -6   32.25    2.76
  -4   0  -6   31.57    2.60
  -4   0  -6   32.31    2.71
   4   0   6   31.30    2.85
   4   0   6   29.02    2.99
   4   0   6   28.62    2.53
  -5   0  -6   30.35    2.89
  -5   0  -6   32.68    2.88
  -5   0  -6   29.07    2.93
   5   0   6   37.30    3.54
   5   0   6   36.20    2.97
   5   0   6   32.65    3.16
  -6   0  -6    4.28    1.19
  -6   0  -6    4.08    1.35
  -6   0  -6    4.16    1.28
   6   0   6    4.83    1.68
   6   0   6    5.84    1.39
  -7   0  -6    1.24    1.17
  -7   0  -6    2.37    1.20
  -7   0  -6    2.85    1.40
   7   0   6    2.33    1.39
   7   0   6    2.88    1.69
   7  -1  -6    1.03    1.24
  -7   1   6    2.77    1.38
  -7   1   6    0.70    1.44
   6  -1  -6   13.08    2.08
   6  -1  -6   13.37    2.08
  -6   1   6   12.70    1.83
   5  -1  -6   28.52    2.63
   5  -1  -6   29.41    2.88
   5  -1  -6   30.49    3.15
   5  -1  -6   29.26    3.04
  -5   1   6   37.85    2.80
  -5   1   6   37.07    2.69
   4  -1  -6   23.06    2.22
   4  -1  -6   22.44    2.06
   4  -1  -6   21.27    2.25
   4  -1  -6   24.02    1.97
  -4   1   6   17.15    1.69
  -4   1   6   15.12    2.04
  -4   1   6   15.32    1.68
  -4   1   6   16.71    2.36
   3  -1  -6  119.59    8.24
   3  -1  -6  128.95    8.05
   3  -1  -6  125.43    7.62
   3  -1  -6  124.45    8.01
   3  -1  -6  123.49    8.22
  -3   1   6  111.71    8.48
  -3   1   6  113.36    8.30
  -3   1   6  115.74    7.85
   2  -1  -6  117.34    7.93
   2  -1  -6  118.42    7.76
   2  -1  -6  123.19    7.55
   2  -1  -6  116.30    7.88
  -2   1   6  110.59    7.73
  -2   1   6  120.92    8.08
  -2   1   6  113.55    8.05
   1  -1  -6   44.77    3.29
   1  -1  -6   43.88    3.42
   1  -1  -6   41.44    3.38
   1  -1  -6   46.85    3.24
  -1   1   6   47.84    3.28
  -1   1   6   47.62    3.54
  -1   1   6   49.50    3.44
  -1   1   6   46.71    3.39
   0  -1  -6   57.91    4.38
   0  -1  -6   59.60    4.50
   0  -1  -6   55.42    4.44
   0  -1  -6   54.45    4.38
   0   1   6   73.28    4.72
   0   1   6   71.56    4.30
   0   1   6   71.44    4.56
   0   1   6   72.59    4.25
  -1  -1  -6  154.40    9.63
  -1  -1  -6  154.01    9.72
  -1  -1  -6  153.07    9.72
  -1  -1  -6  152.37    9.52
   1   1   6  146.32    9.39
   1   1   6  141.78    9.69
   1   1   6  145.09    9.87
   1   1   6  147.62    9.27
  -2  -1  -6   27.73    2.38
  -2  -1  -6   25.60    2.11
  -2  -1  -6   25.39    2.20
  -2  -1  -6   24.93    2.34
  -2  -1  -6   27.40    2.40
   2   1   6   37.75    3.09
   2   1   6   37.97    2.52
  -3  -1  -6   18.04    1.65
  -3  -1  -6   19.18    1.83
  -3  -1  -6   20.03    1.57
  -3  -1  -6   19.48    1.86
   3   1   6   18.02    1.55
   3   1   6   16.15    2.26
   3   1   6   14.60    1.76
   3   1   6   15.98    2.00
  -4  -1  -6   16.51    1.73
  -4  -1  -6   13.49    1.77
  -4  -1  -6   15.55    1.79
  -4  -1  -6   16.59    1.75
   4   1   6   23.37    2.36
  -5  -1  -6   11.90    1.76
  -5  -1  -6    9.33    1.63
  -5  -1  -6   14.06    1.83
   5   1   6   11.70    2.08
   5   1   6   13.06    1.63
  -6  -1  -6   19.39    2.53
  -6  -1  -6   17.50    2.30
  -6  -1  -6   18.59    2.15
   6   1   6   17.62    2.74
   6   1   6   19.83    2.28
  -7  -1  -6    5.24    1.57
  -7  -1  -6    6.35    1.62
  -7  -1  -6    4.96    1.42
   7   1   6    3.27    1.48
   7   1   6    5.31    2.08
  -7   2   6   16.40    2.39
   6  -2  -6   15.11    2.29
  -6   2   6   14.93    2.08
   5  -2  -6   21.18    2.14
   5  -2  -6   23.15    2.54
   5  -2  -6   21.08    2.12
  -5   2   6   16.31    1.87
  -5   2   6   16.48    2.00
   4  -2  -6   24.98    2.38
   4  -2  -6   22.73    2.57
   4  -2  -6   21.97    2.64
   4  -2  -6   21.95    2.40
  -4   2   6   33.34    2.47
  -4   2   6   32.32    3.00
  -4   2   6   33.59    2.46
  -4   2   6   29.58    3.11
  -4   2   6   32.62    2.39
   3  -2  -6    2.28    0.68
   3  -2  -6    1.66    0.88
   3  -2  -6    2.37    0.86
   3  -2  -6    1.62    0.74
   3  -2  -6    2.83    0.92
  -3   2   6    0.41    0.78
  -3   2   6    0.26    0.66
   2  -2  -6   74.10    5.18
   2  -2  -6   74.91    5.10
   2  -2  -6   75.48    5.10
   2  -2  -6   77.07    4.81
   2  -2  -6   76.28    5.19
  -2   2   6   64.08    5.24
  -2   2   6   65.27    5.37
   1  -2  -6   50.72    4.04
   1  -2  -6   49.21    4.03
   1  -2  -6   50.57    3.85
   1  -2  -6   51.71    3.99
  -1   2   6   60.97    3.87
  -1   2   6   61.81    4.17
  -1   2   6   63.76    4.11
  -1   2   6   60.65    4.01
   0  -2  -6   97.00    6.06
   0  -2  -6   97.89    6.04
   0  -2  -6  100.86    6.02
   0  -2  -6   95.54    6.04
   0  -2  -6   99.58    6.01
   0   2   6   78.42    5.70
   0   2   6   75.83    5.77
   0   2   6   83.30    5.92
   0   2   6   82.97    6.12
  -1  -2  -6   52.81    3.94
  -1  -2  -6   56.83    4.06
  -1  -2  -6   55.33    3.99
  -1  -2  -6   51.56    4.02
   1   2   6   65.97    4.07
   1   2   6   60.59    4.22
  -2  -2  -6   42.97    3.06
  -2  -2  -6   39.94    3.19
  -2  -2  -6   46.17    3.24
   2   2   6   41.49    3.14
   2   2   6   39.04    3.33
  -3  -2  -6   53.95    3.94
  -3  -2  -6   48.17    3.71
  -3  -2  -6   50.90    3.88
  -3  -2  -6   51.01    3.86
  -3  -2  -6   53.27    3.64
   3   2   6   50.97    3.80
   3   2   6   52.51    4.54
   3   2   6   50.67    4.09
  -4  -2  -6   19.87    2.04
  -4  -2  -6   18.96    2.05
  -4  -2  -6   18.37    2.04
  -4  -2  -6   16.60    1.89
  -4  -2  -6   19.72    1.97
   4   2   6   21.44    1.86
   4   2   6   20.87    1.93
   4   2   6   20.32    2.05
   4   2   6   20.18    2.38
  -5  -2  -6    0.88    0.90
  -5  -2  -6    0.60    0.86
  -5  -2  -6    1.39    0.99
   5   2   6    2.09    0.81
   5   2   6    2.29    1.31
  -6  -2  -6   14.59    1.99
  -6  -2  -6   12.70    2.13
  -6  -2  -6   14.70    2.15
   6   2   6   12.15    2.37
  -7  -2  -6    7.50    1.61
  -7  -2  -6    9.79    1.96
  -7  -2  -6    6.14    1.70
   7   2   6    6.08    2.19
  -7   3   6   15.04    2.30
   6  -3  -6    0.74    1.12
  -6   3   6    2.86    1.03
  -6   3   6    2.96    1.21
   5  -3  -6   49.18    4.02
   5  -3  -6   48.43    4.05
   5  -3  -6   46.63    3.75
  -5   3   6   41.39    3.53
  -5   3   6   41.37    3.61
  -5   3   6   47.38    4.79
   4  -3  -6   21.49    2.14
   4  -3  -6   21.84    2.27
   4  -3  -6   18.14    2.43
   4  -3  -6   21.52    2.41
  -4   3   6   18.38    2.01
  -4   3   6   21.38    2.03
  -4   3   6   23.14    2.77
  -4   3   6   21.06    2.61
  -4   3   6   21.35    2.02
   3  -3  -6    7.07    1.36
   3  -3  -6    7.64    1.41
   3  -3  -6    6.77    1.32
   3  -3  -6    6.26    1.14
   3  -3  -6    6.77    1.40
  -3   3   6   11.32    1.77
  -3   3   6    9.69    1.55
   2  -3  -6   50.90    4.15
   2  -3  -6   50.39    4.11
   2  -3  -6   53.13    4.16
   2  -3  -6   55.48    4.21
   2  -3  -6   57.58    3.94
   2  -3  -6   57.30    3.87
  -2   3   6   70.28    4.79
   1  -3  -6   56.04    4.17
   1  -3  -6   56.84    4.12
   1  -3  -6   57.15    3.96
   1  -3  -6   56.19    3.92
   1  -3  -6   56.22    4.16
   1  -3  -6   57.42    4.15
  -1   3   6   55.44    3.95
  -1   3   6   57.02    4.18
  -1   3   6   57.77    4.14
   0  -3  -6   57.05    4.16
   0  -3  -6   56.43    4.08
   0  -3  -6   56.87    4.11
   0  -3  -6   57.00    4.08
   0  -3  -6   59.09    4.18
   0   3   6   59.01    4.24
   0   3   6   59.52    3.80
   0   3   6   59.40    4.00
  -1  -3  -6   65.13    4.75
  -1  -3  -6   72.44    4.83
  -1  -3  -6   66.78    4.82
  -1  -3  -6   69.16    4.69
   1   3   6   71.13    4.96
   1   3   6   66.30    4.51
   1   3   6   69.38    4.63
  -2  -3  -6   75.87    5.12
  -2  -3  -6   75.37    5.20
  -2  -3  -6   71.49    5.31
  -2  -3  -6   69.79    5.26
   2   3   6   78.09    5.01
   2   3   6   77.76    5.15
   2   3   6   82.28    5.52
  -3  -3  -6   21.97    1.92
  -3  -3  -6   20.80    2.00
  -3  -3  -6   22.34    2.11
  -3  -3  -6   20.75    2.10
   3   3   6   24.14    2.03
   3   3   6   21.52    2.68
   3   3   6   22.14    2.13
   3   3   6   22.20    2.46
   3   3   6   23.09    1.93
  -4  -3  -6   71.57    5.20
  -4  -3  -6   71.61    5.19
  -4  -3  -6   68.23    5.13
  -4  -3  -6   70.40    5.20
  -4  -3  -6   69.83    5.10
   4   3   6   71.70    5.47
   4   3   6   71.83    5.10
   4   3   6   71.85    5.17
  -5  -3  -6   42.67    3.68
  -5  -3  -6   42.56    3.54
  -5  -3  -6   42.04    3.54
  -5  -3  -6   43.85    3.66
   5   3   6   43.61    3.40
   5   3   6   41.15    3.90
  -6  -3  -6    1.91    1.18
  -6  -3  -6    2.62    1.13
  -6  -3  -6    1.73    1.18
  -6  -3  -6    2.59    1.34
   6   3   6    6.43    1.84
  -7  -3  -6    5.69    1.67
  -7  -3  -6    7.33    1.80
  -7  -3  -6    5.18    1.45
   7   3   6    7.34    2.17
   7   3   6    7.43    2.08
  -7   4   6    6.13    1.83
   6  -4  -6   17.67    2.44
   6  -4  -6   18.62    2.74
  -6   4   6   21.50    2.43
  -6   4   6   25.21    2.54
   5  -4  -6    1.86    1.18
   5  -4  -6    2.64    1.20
   5  -4  -6    1.30    1.17
  -5   4   6    4.53    1.22
  -5   4   6    6.79    1.41
  -5   4   6    6.17    1.27
   4  -4  -6   71.35    5.46
   4  -4  -6   73.24    5.33
   4  -4  -6   69.04    5.35
   4  -4  -6   67.58    5.42
  -4   4   6   75.27    5.24
  -4   4   6   70.13    5.18
  -4   4   6   76.47    6.04
  -4   4   6   71.50    5.23
   3  -4  -6   42.89    3.71
   3  -4  -6   45.94    3.71
   3  -4  -6   46.67    3.73
   3  -4  -6   46.06    3.51
   3  -4  -6   46.84    3.77
  -3   4   6   46.42    4.10
  -3   4   6   48.87    4.24
  -3   4   6   42.43    3.54
   2  -4  -6   37.70    2.65
   2  -4  -6   36.16    3.07
   2  -4  -6   36.33    3.04
   2  -4  -6   35.97    3.04
   2  -4  -6   39.16    2.78
   2  -4  -6   35.36    3.03
  -2   4   6   34.36    2.92
  -2   4   6   36.03    3.26
  -2   4   6   36.66    3.53
   1  -4  -6   76.27    5.70
   1  -4  -6   84.48    5.76
   1  -4  -6   80.53    5.70
   1  -4  -6   83.51    5.29
   1  -4  -6   83.38    5.52
   1  -4  -6   80.40    5.46
   1  -4  -6   80.58    5.63
  -1   4   6   80.62    5.60
  -1   4   6   79.46    5.42
   0  -4  -6   18.21    1.91
   0  -4  -6   17.60    1.85
   0  -4  -6   16.65    1.77
   0  -4  -6   18.02    1.77
   0   4   6   24.72    1.96
   0   4   6   24.11    1.65
  -1  -4  -6   85.91    5.79
  -1  -4  -6   83.83    5.97
  -1  -4  -6   81.98    5.91
  -1  -4  -6   83.71    5.94
   1   4   6   92.18    5.68
   1   4   6   89.92    6.12
   1   4   6   87.34    6.05
   1   4   6   86.21    5.85
  -2  -4  -6   92.19    6.28
  -2  -4  -6   84.77    6.23
  -2  -4  -6   89.64    5.95
  -2  -4  -6   88.17    6.15
   2   4   6   87.67    6.33
   2   4   6   93.54    6.37
   2   4   6   94.38    5.97
   2   4   6   91.73    6.09
  -3  -4  -6    8.10    0.95
  -3  -4  -6    6.59    1.23
  -3  -4  -6    5.29    1.20
  -3  -4  -6    5.44    1.20
   3   4   6    8.85    1.18
   3   4   6    8.02    1.50
   3   4   6    8.74    1.36
  -4  -4  -6   18.42    2.11
  -4  -4  -6   17.85    1.97
  -4  -4  -6   18.95    1.94
  -4  -4  -6   17.82    1.93
   4   4   6   15.16    2.13
   4   4   6   14.66    1.83
   4   4   6   12.06    1.76
  -5  -4  -6   13.06    1.92
  -5  -4  -6   13.59    2.02
  -5  -4  -6   14.16    1.99
   5   4   6   10.82    2.07
   5   4   6   10.79    1.69
  -6  -4  -6   20.69    2.66
  -6  -4  -6   20.12    2.42
  -6  -4  -6   21.31    2.48
   6   4   6   14.95    2.70
  -7  -4  -6    1.24    1.17
  -7  -4  -6    1.22    1.37
   7   4   6    1.71    1.57
   7   4   6    0.02    1.52
   6  -5  -6   14.43    2.33
   6  -5  -6   16.04    2.59
  -6   5   6   14.10    2.19
  -6   5   6   16.75    2.42
   5  -5  -6   12.96    2.15
   5  -5  -6   14.33    2.16
  -5   5   6   14.51    2.12
  -5   5   6   12.74    1.80
  -5   5   6   12.68    1.96
   4  -5  -6   25.47    2.67
   4  -5  -6   25.23    2.54
   4  -5  -6   23.38    2.62
  -4   5   6   23.75    2.45
  -4   5   6   22.48    2.29
  -4   5   6   23.80    2.34
   3  -5  -6   47.02    3.98
   3  -5  -6   46.94    4.21
   3  -5  -6   43.12    4.17
  -3   5   6   59.58    4.18
  -3   5   6   61.43    4.86
  -3   5   6   59.88    5.01
  -3   5   6   57.43    4.18
   2  -5  -6   71.21    4.91
   2  -5  -6   71.05    4.40
   2  -5  -6   68.92    4.77
   2  -5  -6   69.17    4.46
   2  -5  -6   73.16    4.88
  -2   5   6   59.05    5.34
  -2   5   6   53.92    4.89
  -2   5   6   55.25    4.67
  -2   5   6   52.98    4.46
   1  -5  -6   34.05    2.35
   1  -5  -6   32.98    2.81
   1  -5  -6   30.89    2.50
   1  -5  -6   31.82    2.81
   1  -5  -6   32.82    2.67
  -1   5   6   30.85    2.84
  -1   5   6   30.60    2.58
  -1   5   6   31.61    3.26
  -1   5   6   31.22    2.37
   0  -5  -6   11.16    1.63
   0  -5  -6   12.41    0.89
   0  -5  -6   13.94    1.43
   0  -5  -6   11.70    1.58
   0  -5  -6   11.74    1.38
   0  -5  -6    9.76    1.29
   0   5   6    8.33    0.93
   0   5   6    9.22    1.51
   0   5   6    8.77    1.27
  -1  -5  -6   75.92    4.58
  -1  -5  -6   73.70    4.63
   1   5   6   58.57    4.00
   1   5   6   56.70    4.47
   1   5   6   53.43    4.52
   1   5   6   57.27    4.48
  -2  -5  -6   48.76    3.64
  -2  -5  -6   50.41    3.24
  -2  -5  -6   45.29    3.59
   2   5   6   42.89    3.51
   2   5   6   45.67    3.69
   2   5   6   44.05    3.67
  -3  -5  -6   90.58    6.34
  -3  -5  -6   88.47    6.33
  -3  -5  -6   90.24    6.26
   3   5   6   88.55    6.31
   3   5   6   87.68    6.46
   3   5   6   90.80    6.39
  -4  -5  -6   17.84    2.11
  -4  -5  -6   16.58    2.00
  -4  -5  -6   15.50    2.22
  -4  -5  -6   17.11    1.94
   4   5   6   13.71    1.97
   4   5   6   13.03    2.76
   4   5   6   14.08    2.19
  -5  -5  -6   18.80    2.31
  -5  -5  -6   18.43    2.46
  -5  -5  -6   18.22    2.34
   5   5   6   16.96    2.30
   5   5   6   17.53    2.13
   5   5   6   15.39    2.50
  -6  -5  -6    8.26    1.84
  -6  -5  -6    9.48    1.88
  -6  -5  -6    9.38    1.85
   6   5   6   10.23    2.16
   6   5   6    8.34    2.07
  -7  -5  -6    4.59    1.68
  -7  -5  -6    4.46    1.70
   7   5   6    5.70    2.00
   7   5   6    3.35    2.07
   6  -6  -6   12.50    2.47
   6  -6  -6   17.69    2.65
  -6   6   6   14.11    2.30
  -6   6   6   13.77    2.36
   5  -6  -6   18.44    2.52
   5  -6  -6   19.21    2.66
  -5   6   6   14.72    2.26
  -5   6   6   13.22    2.00
  -5   6   6   13.53    2.12
   4  -6  -6   19.14    2.57
   4  -6  -6   18.28    2.50
   4  -6  -6   19.70    2.29
  -4   6   6   17.55    2.13
  -4   6   6   16.21    2.21
  -4   6   6   14.10    1.95
   3  -6  -6   57.23    4.34
   3  -6  -6   55.35    4.23
   3  -6  -6   52.65    3.91
  -3   6   6   49.92    4.11
  -3   6   6   43.86    3.93
  -3   6   6   47.29    3.76
   2  -6  -6   21.97    2.35
   2  -6  -6   20.24    1.92
   2  -6  -6   20.22    2.33
   2  -6  -6   20.64    1.98
  -2   6   6   27.54    2.43
  -2   6   6   26.10    2.34
   1  -6  -6   73.58    5.45
   1  -6  -6   78.51    5.00
   1  -6  -6   72.51    5.46
   1  -6  -6   75.61    5.32
   1  -6  -6   72.03    5.16
  -1   6   6   75.26    6.11
  -1   6   6   70.74    5.46
  -1   6   6   74.45    4.91
  -1   6   6   70.38    5.10
   0  -6  -6  106.44    7.50
   0  -6  -6  108.17    6.89
   0  -6  -6  108.59    7.50
   0  -6  -6  102.96    7.28
   0  -6  -6  112.69    7.22
   0   6   6  106.16    7.23
   0   6   6  106.43    7.52
  -1  -6  -6   12.43    1.71
  -1  -6  -6   13.43    1.26
  -1  -6  -6   14.34    1.47
  -1  -6  -6   14.19    1.85
  -1  -6  -6   15.17    1.76
   1   6   6   18.69    1.99
   1   6   6   19.91    1.58
   1   6   6   19.19    1.81
   1   6   6   19.67    2.02
  -2  -6  -6    8.75    1.40
  -2  -6  -6   10.09    1.46
   2   6   6    3.80    0.95
   2   6   6    4.48    1.09
   2   6   6    3.79    1.15
   2   6   6    3.91    1.08
  -3  -6  -6   26.03    2.46
  -3  -6  -6   21.05    2.32
  -3  -6  -6   24.14    2.33
   3   6   6   23.13    2.40
   3   6   6   20.24    2.42
   3   6   6   22.82    2.32
   3   6   6   23.73    2.41
  -4  -6  -6   15.96    2.04
  -4  -6  -6   15.84    2.15
  -4  -6  -6   14.14    2.04
   4   6   6   18.13    2.23
   4   6   6   13.61    2.19
   4   6   6   16.31    2.09
  -5  -6  -6   13.98    2.17
  -5  -6  -6   17.07    2.45
  -5  -6  -6   15.42    2.23
   5   6   6   19.13    2.54
   5   6   6   16.42    2.51
   5   6   6   16.83    2.18
  -6  -6  -6    9.83    2.00
  -6  -6  -6   15.83    2.38
   6   6   6   13.35    2.59
   6   6   6    8.07    2.24
  -7  -6  -6    4.18    1.67
  -7  -6  -6    2.82    1.56
   7   6   6    3.84    2.01
   7   6   6    3.20    1.81
   6  -7  -6   12.88    2.56
   6  -7  -6   14.13    2.52
  -6   7   6   12.47    2.42
  -6   7   6   16.93    2.54
   5  -7  -6   32.10    3.32
   5  -7  -6   25.02    3.31
  -5   7   6   28.56    3.04
  -5   7   6   30.84    3.14
  -5   7   6   26.76    2.91
   4  -7  -6   24.81    2.63
   4  -7  -6   26.61    3.07
   4  -7  -6   21.06    2.89
  -4   7   6   23.46    2.70
  -4   7   6   22.50    2.65
  -4   7   6   22.90    2.52
   3  -7  -6   36.11    3.62
   3  -7  -6   36.32    3.18
   3  -7  -6   33.63    3.43
  -3   7   6   40.82    3.39
  -3   7   6   41.64    3.45
   2  -7  -6   17.68    2.26
   2  -7  -6   19.02    1.92
   2  -7  -6   18.21    2.27
   2  -7  -6   20.37    1.95
  -2   7   6   21.09    2.25
  -2   7   6   19.79    2.22
   1  -7  -6   14.43    2.03
   1  -7  -6   15.57    1.76
   1  -7  -6   15.08    1.96
   1  -7  -6   16.28    1.52
  -1   7   6   13.25    1.48
  -1   7   6   12.69    1.99
  -1   7   6   14.37    1.98
   0  -7  -6   88.54    6.86
   0  -7  -6   91.94    6.32
   0  -7  -6   91.73    6.73
   0  -7  -6   93.85    6.93
   0   7   6  100.08    6.55
   0   7   6  103.85    7.01
   0   7   6  107.33    7.33
  -1  -7  -6   24.25    2.40
  -1  -7  -6   22.75    2.33
   1   7   6   20.78    2.43
   1   7   6   20.51    1.79
   1   7   6   19.90    2.03
   1   7   6   19.44    2.31
  -2  -7  -6   73.59    5.71
   2   7   6   78.19    5.46
   2   7   6   75.36    5.83
   2   7   6   80.23    5.63
   2   7   6   78.65    5.81
  -3  -7  -6   11.08    2.00
   3   7   6   17.44    2.14
   3   7   6   15.28    1.97
   3   7   6   18.80    2.21
   3   7   6   17.09    2.16
  -4  -7  -6   12.93    1.97
  -4  -7  -6    9.45    1.78
   4   7   6    9.27    1.76
   4   7   6   11.86    2.00
   4   7   6   10.49    2.01
  -5  -7  -6   16.57    2.47
  -5  -7  -6   16.11    2.43
   5   7   6   19.26    2.82
   5   7   6   19.61    2.85
   5   7   6   22.77    2.59
  -6  -7  -6   14.36    2.51
  -6  -7  -6   12.14    2.31
   6   7   6   14.20    2.60
   6   7   6   15.65    2.76
  -7  -7  -6    6.61    1.91
  -7  -7  -6    4.27    1.80
   7   7   6    5.99    2.14
   5  -8  -6    5.88    1.82
   5  -8  -6    6.18    2.01
  -5   8   6    4.16    1.57
  -5   8   6    3.81    1.55
  -5   8   6    4.25    1.51
   4  -8  -6   32.52    3.61
   4  -8  -6   28.75    3.47
   4  -8  -6   30.88    3.12
  -4   8   6   29.60    3.20
  -4   8   6   30.98    3.37
  -4   8   6   32.41    3.06
   3  -8  -6   19.10    2.22
   3  -8  -6   18.60    2.66
   3  -8  -6   17.42    2.57
  -3   8   6   16.66    2.45
  -3   8   6   18.32    2.34
   2  -8  -6   63.11    4.63
   2  -8  -6   57.09    5.03
   2  -8  -6   65.93    4.66
   2  -8  -6   61.72    5.12
  -2   8   6   62.29    5.04
  -2   8   6   65.36    5.06
   1  -8  -6   34.84    3.29
   1  -8  -6   34.54    3.01
   1  -8  -6   35.69    2.81
   1  -8  -6   34.01    3.28
  -1   8   6   34.74    3.21
  -1   8   6   34.75    3.28
   0  -8  -6    6.03    1.45
   0  -8  -6    5.44    1.44
   0  -8  -6    6.12    1.27
   0   8   6    4.12    1.21
   0   8   6    3.36    1.39
   0   8   6    3.96    1.35
  -1  -8  -6   83.69    6.44
  -1  -8  -6   78.49    6.28
   1   8   6   90.40    6.76
   1   8   6   89.84    6.07
   1   8   6   91.36    6.55
  -2  -8  -6   32.37    3.02
  -2  -8  -6   30.90    2.94
   2   8   6   30.03    3.04
   2   8   6   28.18    2.71
   2   8   6   28.69    3.11
   2   8   6   29.26    2.57
  -3  -8  -6   28.96    3.08
   3   8   6   29.95    3.04
   3   8   6   27.68    2.82
   3   8   6   30.12    2.82
  -4  -8  -6   53.01    4.46
   4   8   6   53.19    4.49
   4   8   6   51.48    4.43
   4   8   6   49.67    4.39
  -5  -8  -6    2.62    1.43
  -5  -8  -6    3.32    1.50
   5   8   6    0.64    1.32
   5   8   6    1.84    1.30
   5   8   6   -0.14    1.30
  -6  -8  -6   26.58    3.00
  -6  -8  -6   23.52    2.97
   6   8   6   15.58    2.83
   6   8   6   20.30    3.22
   5  -9  -6   10.27    2.38
   5  -9  -6    8.44    2.06
  -5   9   6   12.02    2.37
  -5   9   6   11.88    2.26
   4  -9  -6   12.33    2.33
   4  -9  -6    9.61    1.88
   4  -9  -6    7.36    2.02
  -4   9   6    5.47    1.70
  -4   9   6    5.16    1.70
   3  -9  -6   50.51    4.68
   3  -9  -6   48.32    4.61
   3  -9  -6   51.65    4.34
  -3   9   6   54.76    4.57
  -3   9   6   54.03    4.53
  -3   9   6   55.25    4.72
   2  -9  -6   15.49    1.91
   2  -9  -6   14.68    2.44
   2  -9  -6   16.47    2.48
  -2   9   6   13.95    2.26
  -2   9   6   16.76    2.29
   1  -9  -6   42.62    3.51
   1  -9  -6   40.33    3.79
   1  -9  -6   40.22    3.77
  -1   9   6   42.76    3.86
  -1   9   6   38.41    3.68
   0  -9  -6   53.63    4.40
   0  -9  -6   56.23    4.64
   0  -9  -6   60.38    4.79
   0   9   6   53.33    4.70
   0   9   6   56.70    4.60
  -1  -9  -6   30.53    2.96
  -1  -9  -6   28.92    3.08
   1   9   6   29.58    2.96
   1   9   6   31.62    3.20
  -2  -9  -6    4.26    1.55
   2   9   6   10.97    1.60
   2   9   6   10.77    1.79
   2   9   6    9.61    1.92
  -3  -9  -6   39.79    3.85
   3   9   6   41.99    3.65
   3   9   6   39.19    3.88
   3   9   6   42.75    3.61
   3   9   6   46.37    3.78
  -4  -9  -6    2.31    1.49
   4   9   6    8.26    1.60
   4   9   6    6.15    1.83
   4   9   6    7.99    1.76
   4   9   6    8.34    1.68
  -5  -9  -6   17.59    2.61
   5   9   6   13.85    2.53
   5   9   6   16.17    2.66
   5   9   6   15.96    2.62
  -6  -9  -6    3.91    1.74
  -6  -9  -6    4.08    1.68
   6   9   6    2.07    1.70
   4 -10  -6   31.74    3.71
   4 -10  -6   30.72    3.71
  -4  10   6   30.58    3.68
  -4  10   6   33.41    3.55
   3 -10  -6    8.28    2.15
   3 -10  -6   11.39    2.28
  -3  10   6    6.41    1.76
  -3  10   6    6.66    1.68
  -3  10   6    4.16    1.67
   2 -10  -6   19.53    3.00
   2 -10  -6   22.38    2.98
  -2  10   6   32.15    3.14
  -2  10   6   29.39    3.15
   1 -10  -6   23.99    2.81
   1 -10  -6   20.80    2.50
   1 -10  -6   21.46    2.78
  -1  10   6   21.27    2.62
  -1  10   6   21.84    2.79
   0 -10  -6   24.21    2.73
   0 -10  -6   20.60    2.68
   0 -10  -6   21.14    2.68
   0  10   6   22.26    2.84
   0  10   6   23.61    2.70
  -1 -10  -6   16.46    2.52
  -1 -10  -6   16.57    2.55
  -1 -10  -6   16.86    2.39
   1  10   6   18.36    2.52
   1  10   6   18.67    2.66
  -2 -10  -6   42.55    3.88
  -2 -10  -6   34.49    3.59
   2  10   6   32.97    3.46
   2  10   6   31.36    3.52
  -3 -10  -6    1.21    1.48
  -3 -10  -6    0.80    1.35
   3  10   6    5.95    1.62
   3  10   6    3.94    1.74
  -4 -10  -6   18.07    2.87
   4  10   6   16.16    2.85
   4  10   6   16.95    2.40
  -5 -10  -6   19.88    3.07
   5  10   6   25.22    3.07
   5  10   6   25.47    3.30
   3 -11  -6   17.20    3.03
   3 -11  -6   15.89    2.85
  -3  11   6   17.68    2.79
  -3  11   6   16.84    2.78
  -3  11   6   15.64    2.67
   2 -11  -6   12.77    2.56
   2 -11  -6    9.81    2.25
  -2  11   6   12.62    2.28
  -2  11   6   10.35    2.19
   1 -11  -6    8.89    1.84
   1 -11  -6    8.81    2.13
   1 -11  -6    8.93    2.10
  -1  11   6    7.75    2.02
  -1  11   6   12.06    2.29
   0 -11  -6   38.42    3.95
   0 -11  -6   39.21    3.66
   0 -11  -6   37.18    3.83
   0  11   6   39.87    3.97
   0  11   6   37.74    3.79
  -1 -11  -6    7.31    1.89
  -1 -11  -6    6.86    1.81
  -1 -11  -6    7.61    1.95
   1  11   6    8.12    1.93
   1  11   6    8.95    2.19
  -2 -11  -6   25.83    3.15
  -2 -11  -6   24.53    3.24
   2  11   6   31.22    3.31
   2  11   6   32.50    3.56
  -3 -11  -6    9.85    2.17
  -3 -11  -6    8.68    2.25
   3  11   6    7.92    2.22
   3  11   6    7.39    1.86
  -4 -11  -6    0.58    1.70
  -4 -11  -6    1.84    1.63
   4  11   6    2.68    1.75
   4  11   6    2.52    1.35
   2 -12  -6    8.82    2.34
   2 -12  -6    6.65    2.20
  -2  12   6   10.80    2.43
  -2  12   6   12.04    2.44
  -2  12   6    9.92    2.29
   1 -12  -6    2.79    1.72
   1 -12  -6    3.30    1.89
   1 -12  -6    2.56    1.52
  -1  12   6    1.84    1.65
  -1  12   6    1.83    1.61
   0 -12  -6    9.56    1.98
   0 -12  -6    8.61    2.20
   0 -12  -6    8.59    2.21
   0  12   6    4.96    1.89
   0  12   6    2.86    1.97
  -1 -12  -6   32.87    3.63
  -1 -12  -6   34.11    3.83
   1  12   6   38.70    4.17
   1  12   6   35.63    3.78
  -2 -12  -6    9.93    2.26
  -2 -12  -6   10.49    2.24
   2  12   6    6.13    2.30
   2  12   6    5.99    1.86
  -3 -12  -6   23.87    3.49
  -3 -12  -6   27.96    3.81
   3  12   6   27.33    3.63
   3  12   6   31.69    3.48
   0 -13  -6    8.60    2.38
   0 -13  -6    5.98    1.98
   0 -13  -6    5.25    1.99
   0  13   6   10.87    2.48
   0  13   6    9.66    2.42
  -1 -13  -6   11.02    2.37
  -1 -13  -6    9.02    2.32
   1  13   6    6.32    2.25
   1  13   6    8.25    2.22
  -2 -12   7   34.98    4.17
  -2 -12   7   35.13    3.90
   1  12  -7    6.49    1.89
  -1 -12   7    4.10    1.93
  -1 -12   7    5.99    2.12
   0  12  -7    2.71    1.64
   0 -12   7    3.03    1.79
   0 -12   7    4.19    1.74
   1 -12   7   20.63    3.37
   1 -12   7   22.51    2.96
   1 -12   7   21.22    3.13
  -3 -11   7   11.69    2.69
  -3 -11   7   12.19    2.40
   2  11  -7   16.69    2.39
  -2 -11   7   19.51    2.87
  -2 -11   7   15.58    2.95
   1  11  -7   10.94    2.10
  -1 -11   7   13.27    2.67
  -1 -11   7   14.55    2.47
   0  11  -7   11.37    2.12
   0 -11   7   10.00    2.35
   0 -11   7   12.43    2.33
   0 -11   7    9.34    2.12
  -1  11  -7   -0.43    1.29
   1 -11   7    1.39    1.41
   1 -11   7    1.82    1.61
   1 -11   7    0.81    1.42
  -2  11  -7    2.69    1.75
  -2  11  -7    4.45    2.15
   2 -11   7    6.75    2.14
   2 -11   7    4.90    1.98
   2 -11   7    4.16    1.91
   2 -11   7    4.68    1.75
  -3  11  -7   12.87    2.50
  -3  11  -7   11.62    2.18
   3 -11   7   14.09    2.75
   3 -11   7   12.34    2.51
   3 -11   7    8.84    2.30
  -4 -10   7   12.36    2.50
  -4 -10   7   10.39    2.48
  -3 -10   7   11.26    2.33
  -3 -10   7   11.88    2.44
   2  10  -7    3.41    1.26
   2  10  -7    4.29    1.37
  -2 -10   7    1.50    1.23
  -2 -10   7   -0.27    1.18
  -2 -10   7    0.81    1.47
   1  10  -7   32.20    3.10
  -1 -10   7   30.01    3.26
  -1 -10   7   28.03    3.40
   0  10  -7    7.02    1.76
   0 -10   7    6.09    1.55
   0 -10   7    7.68    1.97
   0 -10   7    4.88    1.72
  -1  10  -7   20.88    2.61
   1 -10   7   17.97    2.58
   1 -10   7   18.18    2.83
   1 -10   7   14.26    2.71
  -2  10  -7    0.06    1.03
  -2  10  -7    0.45    1.23
   2 -10   7   -0.04    1.27
   2 -10   7    0.48    1.37
   2 -10   7   -1.59    1.22
   2 -10   7    0.45    1.25
  -3  10  -7    1.53    1.20
  -3  10  -7    0.71    1.26
   3 -10   7    0.63    1.66
   3 -10   7   -0.13    1.39
   3 -10   7   -0.07    1.56
  -4  10  -7    0.59    1.60
  -4  10  -7    0.67    1.32
   4 -10   7    3.60    1.85
   4 -10   7    5.52    1.94
   4 -10   7    2.73    1.92
   5   9  -7    1.92    1.52
   5   9  -7    1.80    1.87
  -5  -9   7    3.07    1.75
  -5  -9   7    0.95    1.58
  -4  -9   7    2.28    1.46
  -4  -9   7    3.33    1.79
   3   9  -7    7.35    1.64
  -3  -9   7    7.34    1.98
  -3  -9   7    9.97    2.09
   2   9  -7   12.28    1.92
   2   9  -7   13.11    2.04
  -2  -9   7   17.19    2.60
  -2  -9   7   15.97    2.39
   1   9  -7    8.22    1.58
  -1  -9   7    6.85    1.80
  -1  -9   7    6.22    1.80
  -1  -9   7    6.10    1.54
   0   9  -7   22.63    2.73
   0  -9   7   29.64    2.81
   0  -9   7   26.07    3.09
   0  -9   7   28.00    3.11
   0  -9   7   27.15    2.72
  -1   9  -7    4.74    1.14
  -1   9  -7    6.08    1.56
   1  -9   7    3.52    1.55
   1  -9   7    4.83    1.50
   1  -9   7    4.06    1.55
  -2   9  -7   41.13    3.77
   2  -9   7   46.30    4.29
   2  -9   7   50.10    4.45
   2  -9   7   50.91    4.49
   2  -9   7   49.86    4.44
  -3   9  -7    0.51    1.27
  -3   9  -7    1.21    1.13
   3  -9   7    2.92    1.72
   3  -9   7    5.58    1.97
   3  -9   7    2.90    1.61
  -4   9  -7   -1.20    1.06
  -4   9  -7   -0.10    1.41
   4  -9   7    1.15    1.52
   4  -9   7   -0.71    1.47
   4  -9   7    0.66    1.41
  -5   9  -7    3.55    1.81
  -5   9  -7    3.77    1.84
   5  -9   7    7.30    2.32
   5  -9   7    8.86    2.28
   5  -9   7    5.91    2.11
   5   8  -7   12.18    2.68
   5   8  -7   14.31    2.49
  -5  -8   7   13.35    2.70
  -5  -8   7   14.38    2.69
   4   8  -7    6.41    1.61
   4   8  -7    7.24    2.04
   4   8  -7    7.08    1.75
  -4  -8   7    7.15    2.07
  -4  -8   7    7.07    1.89
   3   8  -7   10.71    1.81
  -3  -8   7   13.46    2.28
  -3  -8   7   10.11    2.10
   2   8  -7   11.49    1.82
   2   8  -7   14.87    2.13
  -2  -8   7   20.35    2.58
  -2  -8   7   13.19    2.19
   1   8  -7   24.54    2.57
  -1  -8   7   23.39    2.60
  -1  -8   7   26.10    2.80
  -1  -8   7   25.30    2.34
  -1  -8   7   24.80    2.89
   0   8  -7    2.81    1.21
   0  -8   7    7.83    1.52
   0  -8   7    7.66    1.83
   0  -8   7    6.65    1.37
   0  -8   7    7.84    1.74
  -1   8  -7   11.11    1.51
  -1   8  -7    8.90    1.72
   1  -8   7    7.89    1.77
   1  -8   7   10.38    1.96
   1  -8   7    8.96    1.65
   1  -8   7   11.92    1.77
  -2   8  -7   13.99    1.79
  -2   8  -7   14.69    2.18
   2  -8   7   11.02    2.10
   2  -8   7    9.44    1.74
   2  -8   7   10.12    2.10
   2  -8   7   10.57    2.01
   2  -8   7    9.58    1.87
  -3   8  -7   43.10    4.11
  -3   8  -7   37.59    3.69
   3  -8   7   45.94    4.24
   3  -8   7   50.19    4.32
   3  -8   7   47.88    4.20
  -4   8  -7   11.64    2.10
  -4   8  -7   12.55    2.03
   4  -8   7   11.23    2.42
   4  -8   7   11.81    2.35
   4  -8   7    6.60    2.05
  -5   8  -7    3.26    1.58
  -5   8  -7    3.72    1.66
  -5   8  -7    4.05    1.61
   5  -8   7    0.90    1.80
   5  -8   7    2.51    1.74
   5  -8   7    4.02    1.73
   6   7  -7    2.70    1.61
   6   7  -7    1.60    1.73
  -6  -7   7    4.44    1.95
  -6  -7   7    3.10    1.83
   5   7  -7   24.10    3.25
   5   7  -7   22.64    2.73
   5   7  -7   25.46    3.40
  -5  -7   7   25.12    3.18
  -5  -7   7   28.41    3.33
   4   7  -7   11.50    2.02
   4   7  -7   15.32    2.10
   4   7  -7   12.61    2.47
  -4  -7   7    9.99    2.14
  -4  -7   7    7.62    2.02
   3   7  -7   15.98    2.04
  -3  -7   7   12.54    2.20
  -3  -7   7   10.43    2.05
   2   7  -7   38.26    3.00
   2   7  -7   35.99    3.21
  -2  -7   7   28.65    3.20
  -2  -7   7   32.81    3.30
  -1  -7   7   14.41    2.21
  -1  -7   7   15.97    2.24
  -1  -7   7   14.12    2.09
  -1  -7   7   14.17    1.66
   0   7  -7   72.61    5.76
   0   7  -7   71.59    4.86
   0   7  -7   70.24    5.31
   0  -7   7   71.32    5.35
   0  -7   7   65.91    5.41
   0  -7   7   72.07    5.47
  -1   7  -7   14.82    2.23
  -1   7  -7   14.09    2.12
  -1   7  -7   13.05    1.62
  -1   7  -7   14.11    2.01
   1  -7   7   12.72    2.13
   1  -7   7   12.62    2.10
   1  -7   7   13.56    2.18
   1  -7   7   11.93    1.81
  -2   7  -7   27.34    2.60
  -2   7  -7   30.11    2.89
  -2   7  -7   29.35    3.14
   2  -7   7   24.68    2.88
   2  -7   7   27.68    3.07
   2  -7   7   28.31    2.83
   2  -7   7   29.07    3.10
  -3   7  -7   23.89    2.49
  -3   7  -7   25.85    2.73
   3  -7   7   25.38    2.64
   3  -7   7   19.51    2.73
   3  -7   7   23.80    2.86
   3  -7   7   26.05    3.11
  -4   7  -7    6.43    1.97
  -4   7  -7    6.03    1.62
  -4   7  -7    7.24    1.60
   4  -7   7    4.22    1.61
   4  -7   7    6.07    1.80
   4  -7   7    6.22    1.61
   4  -7   7    7.59    1.89
  -5   7  -7   24.96    2.59
  -5   7  -7   25.10    2.93
  -5   7  -7   23.60    2.78
  -5   7  -7   27.01    3.06
   5  -7   7   22.62    3.38
   5  -7   7   22.10    3.40
   5  -7   7   27.78    3.20
  -6   7  -7    0.27    1.45
  -6   7  -7    2.11    1.34
  -6   7  -7   -0.21    1.06
  -6   7  -7    1.20    1.45
   6  -7   7    1.16    1.67
   6  -7   7   -1.18    1.51
   6   6  -7   29.54    3.43
   6   6  -7   29.71    3.67
  -6  -6   7   26.00    3.64
  -6  -6   7   24.57    3.65
   5   6  -7    5.97    1.73
   5   6  -7    8.24    1.69
   5   6  -7    7.77    2.07
  -5  -6   7    7.25    1.86
  -5  -6   7    7.68    2.03
   4   6  -7   38.62    3.60
   4   6  -7   37.99    3.67
   4   6  -7   40.12    4.13
  -4  -6   7   42.02    3.84
  -4  -6   7   43.74    3.94
   3   6  -7   40.94    3.64
   3   6  -7   39.38    3.58
  -3  -6   7   44.53    3.89
  -3  -6   7   44.39    3.93
   2   6  -7   11.39    1.74
   2   6  -7    9.57    2.15
   2   6  -7   10.61    1.48
  -2  -6   7    8.73    1.78
  -2  -6   7    6.99    1.63
  -2  -6   7    9.04    1.89
   1   6  -7   41.97    3.47
   1   6  -7   42.72    3.90
  -1  -6   7   45.56    3.82
  -1  -6   7   45.66    3.70
  -1  -6   7   42.61    3.67
   0  -6   7   12.38    1.73
   0  -6   7   12.12    1.88
   0  -6   7   12.54    1.90
   0  -6   7   13.11    1.77
  -1   6  -7   45.41    3.80
  -1   6  -7   48.97    4.17
  -1   6  -7   49.01    4.07
  -1   6  -7   48.66    3.58
   1  -6   7   45.93    4.13
   1  -6   7   48.28    3.88
   1  -6   7   46.97    4.05
   1  -6   7   45.42    3.91
  -2   6  -7   23.23    2.83
  -2   6  -7   19.53    2.22
  -2   6  -7   21.36    2.45
  -2   6  -7   20.08    2.12
   2  -6   7   18.04    2.16
   2  -6   7   15.79    2.22
   2  -6   7   19.07    2.63
   2  -6   7   17.95    2.26
  -3   6  -7   29.35    2.22
  -3   6  -7   26.99    2.70
  -3   6  -7   29.47    2.65
   3  -6   7   21.63    2.59
   3  -6   7   23.23    2.87
   3  -6   7   23.54    2.66
  -4   6  -7    6.65    1.65
  -4   6  -7    7.58    1.70
  -4   6  -7    8.30    1.39
   4  -6   7   10.97    2.17
   4  -6   7   10.41    1.91
   4  -6   7   11.36    2.10
  -5   6  -7    1.25    1.21
  -5   6  -7    1.34    1.04
  -5   6  -7    1.89    1.25
  -5   6  -7    3.96    1.53
   5  -6   7    2.23    1.50
   5  -6   7    0.25    1.45
   5  -6   7    1.09    1.47
   5  -6   7    1.40    1.35
  -6   6  -7   17.47    2.77
  -6   6  -7   20.46    2.64
  -6   6  -7   20.38    2.76
  -6   6  -7   21.44    2.99
   6  -6   7   25.50    3.42
   6  -6   7   22.19    3.30
   6  -6   7   22.32    3.34
   6   5  -7    3.45    1.82
   6   5  -7    6.68    1.88
   6   5  -7    6.15    1.71
  -6  -5   7    7.72    2.21
  -6  -5   7    8.51    2.36
   5   5  -7   31.38    3.46
   5   5  -7   32.24    3.09
   5   5  -7   31.66    3.23
  -5  -5   7   27.92    3.26
  -5  -5   7   29.07    3.40
   4   5  -7   25.86    2.73
   4   5  -7   26.13    2.76
   4   5  -7   24.32    3.10
  -4  -5   7   24.38    2.79
  -4  -5   7   26.20    2.87
   3   5  -7   11.43    1.77
   3   5  -7   11.57    1.92
   3   5  -7   11.42    2.07
  -3  -5   7   15.35    2.03
  -3  -5   7   18.28    2.21
  -3  -5   7   16.20    2.50
   2   5  -7   59.66    4.99
   2   5  -7   55.67    4.60
   2   5  -7   57.15    4.64
  -2  -5   7   66.27    5.11
  -2  -5   7   62.17    4.75
  -2  -5   7   64.62    4.87
   1   5  -7   38.66    3.58
   1   5  -7   40.40    3.46
   1   5  -7   44.39    3.89
   1   5  -7   43.88    3.10
  -1  -5   7   49.38    3.78
  -1  -5   7   55.00    3.96
  -1  -5   7   48.41    3.41
   0   5  -7   77.32    5.53
   0   5  -7   78.66    4.97
   0   5  -7   78.60    5.32
   0  -5   7   68.19    5.39
   0  -5   7   69.05    5.41
   0  -5   7   73.25    5.43
   0  -5   7   66.10    5.30
  -1   5  -7    8.93    1.48
  -1   5  -7    7.15    1.40
  -1   5  -7    8.27    1.26
   1  -5   7   15.38    2.15
   1  -5   7   14.10    1.83
   1  -5   7   12.62    1.84
   1  -5   7   13.58    1.72
  -2   5  -7   15.45    1.89
  -2   5  -7   17.14    2.00
  -2   5  -7   18.98    2.36
  -2   5  -7   16.11    1.75
  -2   5  -7   17.74    1.39
   2  -5   7   15.46    2.10
   2  -5   7   12.22    1.86
   2  -5   7   15.21    2.32
   2  -5   7   12.87    2.01
   2  -5   7   12.69    2.24
  -3   5  -7   16.76    2.01
  -3   5  -7   17.55    2.23
  -3   5  -7   16.83    1.63
   3  -5   7   16.83    2.50
   3  -5   7   17.90    2.30
   3  -5   7   19.34    2.13
  -4   5  -7    2.57    1.15
  -4   5  -7    4.72    1.42
  -4   5  -7    5.87    1.17
  -4   5  -7    5.07    1.39
   4  -5   7    7.82    1.81
   4  -5   7    7.36    1.73
   4  -5   7    7.70    1.57
  -5   5  -7   14.56    2.19
  -5   5  -7   13.77    1.93
  -5   5  -7   14.25    2.23
  -5   5  -7   13.52    2.10
   5  -5   7   16.34    2.48
   5  -5   7   13.19    2.24
   5  -5   7   13.48    2.45
  -6   5  -7    5.12    1.52
  -6   5  -7    6.26    1.69
  -6   5  -7    3.76    1.62
  -6   5  -7    4.22    1.39
   6  -5   7    4.12    1.73
   6  -5   7    5.80    1.99
   6  -5   7    5.17    1.65
   6  -5   7    3.81    1.64
   7   4  -7   21.35    3.30
   7   4  -7   18.79    2.81
  -7  -4   7   16.76    3.01
   6   4  -7   23.02    3.09
   6   4  -7   22.75    2.87
   6   4  -7   21.69    2.78
  -6  -4   7   21.93    3.13
   5   4  -7   18.13    2.40
   5   4  -7   14.87    2.33
   5   4  -7   16.47    2.58
  -5  -4   7   18.91    2.77
  -5  -4   7   17.76    2.81
   4   4  -7   19.62    2.46
   4   4  -7   24.34    2.58
   4   4  -7   20.55    2.62
  -4  -4   7   23.46    2.63
  -4  -4   7   23.95    2.70
   3   4  -7   73.08    5.32
   3   4  -7   68.24    5.04
   3   4  -7   69.36    5.01
   3   4  -7   73.00    5.55
  -3  -4   7   57.82    4.95
  -3  -4   7   58.58    5.33
  -3  -4   7   57.07    4.97
   2   4  -7   32.12    3.07
   2   4  -7   32.32    3.10
   2   4  -7   29.96    3.21
  -2  -4   7   41.85    3.35
  -2  -4   7   46.23    3.60
  -2  -4   7   43.07    3.28
   1   4  -7   58.61    4.36
   1   4  -7   55.85    4.11
   1   4  -7   59.27    4.26
  -1  -4   7   50.29    4.12
  -1  -4   7   51.70    4.29
  -1  -4   7   51.23    4.23
  -1  -4   7   53.03    3.94
   0   4  -7   30.82    2.73
   0   4  -7   29.70    2.43
   0   4  -7   32.60    2.84
   0   4  -7   31.78    2.72
   0  -4   7   36.09    2.97
   0  -4   7   34.81    2.93
   0  -4   7   33.11    2.94
   0  -4   7   35.34    2.88
  -1   4  -7   63.08    4.68
  -1   4  -7   63.29    4.48
  -1   4  -7   65.09    4.68
  -1   4  -7   67.26    4.06
   1  -4   7   61.46    4.84
   1  -4   7   60.00    4.77
   1  -4   7   63.38    4.69
   1  -4   7   61.73    5.00
  -2   4  -7   18.76    2.13
  -2   4  -7   19.68    2.01
  -2   4  -7   19.53    1.90
  -2   4  -7   19.95    2.08
  -2   4  -7   19.41    1.66
   2  -4   7   24.59    2.46
   2  -4   7   23.53    2.15
   2  -4   7   23.28    2.41
   2  -4   7   25.16    2.31
   2  -4   7   26.36    2.83
  -3   4  -7   18.03    1.62
  -3   4  -7   18.18    1.95
  -3   4  -7   16.34    1.96
  -3   4  -7   18.73    1.60
  -3   4  -7   18.84    2.04
   3  -4   7   14.88    1.93
   3  -4   7   13.60    2.14
   3  -4   7   14.33    2.08
  -4   4  -7   39.89    3.72
  -4   4  -7   44.35    3.49
  -4   4  -7   42.32    3.73
  -4   4  -7   42.49    3.76
   4  -4   7   46.70    4.13
   4  -4   7   51.93    3.93
   4  -4   7   52.05    4.19
  -5   4  -7    0.63    0.98
  -5   4  -7    0.25    1.02
  -5   4  -7   -0.21    0.93
  -5   4  -7    0.10    1.06
   5  -4   7    2.92    1.32
   5  -4   7    1.16    1.32
   5  -4   7    0.89    1.30
  -6   4  -7   20.18    2.50
  -6   4  -7   22.95    2.78
  -6   4  -7   21.95    2.41
   6  -4   7   16.44    2.66
   6  -4   7   16.46    2.71
  -7   4  -7    3.37    1.74
  -7   4  -7    3.55    1.52
   7  -4   7    2.20    1.48
   7  -4   7    1.10    1.73
   7  -4   7    3.91    1.75
   7   3  -7   19.27    2.83
   7   3  -7   22.45    3.28
  -7  -3   7   13.88    2.77
   6   3  -7   23.16    2.99
   6   3  -7   24.06    3.02
   6   3  -7   24.00    3.01
  -6  -3   7   25.93    3.13
   5   3  -7   11.12    2.04
   5   3  -7   12.42    2.19
   5   3  -7   12.71    2.11
  -5  -3   7   16.05    2.40
   4   3  -7   51.38    4.25
   4   3  -7   56.13    4.22
   4   3  -7   54.43    4.17
  -4  -3   7   44.27    4.09
  -4  -3   7   43.21    4.17
   3   3  -7   70.80    5.50
   3   3  -7   72.73    5.91
   3   3  -7   64.33    5.46
   3   3  -7   65.51    5.55
  -3  -3   7   79.91    5.63
  -3  -3   7   86.75    5.68
  -3  -3   7   84.04    6.05
   2   3  -7  146.83    9.33
   2   3  -7  146.46    9.54
   2   3  -7  143.16    9.29
  -2  -3   7  130.03    8.80
  -2  -3   7  132.73    9.47
  -2  -3   7  130.58    9.35
  -2  -3   7  132.30    9.23
  -1  -3   7   15.06    1.77
  -1  -3   7   16.07    1.63
  -1  -3   7   16.82    1.88
  -1  -3   7   14.85    1.69
   0   3  -7   35.69    3.07
   0   3  -7   34.65    2.87
   0   3  -7   33.25    3.06
   0  -3   7   44.33    3.22
   0  -3   7   43.11    3.35
   0  -3   7   45.97    3.41
   0  -3   7   47.33    3.44
  -1   3  -7   15.27    1.15
  -1   3  -7   15.09    1.55
  -1   3  -7   14.34    1.54
  -1   3  -7   14.29    1.69
  -1   3  -7   15.18    1.51
   1  -3   7   17.58    1.95
   1  -3   7   17.70    1.93
   1  -3   7   18.08    2.12
   1  -3   7   18.60    1.81
  -2   3  -7   28.08    2.58
  -2   3  -7   29.83    2.21
  -2   3  -7   30.99    2.50
  -2   3  -7   31.60    2.71
  -2   3  -7   29.89    2.42
  -2   3  -7   34.34    2.73
   2  -3   7   29.39    2.84
   2  -3   7   30.51    2.65
   2  -3   7   33.39    3.25
   2  -3   7   29.44    2.53
   2  -3   7   31.83    2.83
  -3   3  -7   53.48    4.25
  -3   3  -7   58.52    4.20
  -3   3  -7   52.09    4.19
  -3   3  -7   53.58    4.22
  -3   3  -7   57.78    3.86
  -3   3  -7   53.82    3.90
   3  -3   7   54.94    4.19
   3  -3   7   54.19    4.47
   3  -3   7   58.90    4.58
  -4   3  -7   41.15    3.29
  -4   3  -7   42.80    3.07
  -4   3  -7   45.12    3.48
  -4   3  -7   39.46    3.25
   4  -3   7   31.16    3.39
   4  -3   7   30.81    3.10
   4  -3   7   31.75    3.40
  -5   3  -7   29.76    2.82
  -5   3  -7   30.70    2.90
  -5   3  -7   29.49    3.05
   5  -3   7   32.38    3.35
   5  -3   7   34.15    3.14
   5  -3   7   29.02    3.35
  -6   3  -7    5.02    1.48
  -6   3  -7    4.04    1.28
  -6   3  -7    3.76    1.53
   6  -3   7    3.93    1.76
   6  -3   7    2.49    1.44
  -7   3  -7   12.82    2.33
  -7   3  -7   13.01    2.15
  -7   3  -7   12.74    2.48
   7  -3   7   10.75    2.30
   7  -3   7   11.28    2.52
   7  -3   7    9.41    2.33
   7   2  -7   10.78    2.24
   7   2  -7   11.51    2.39
  -7  -2   7   17.27    2.86
   6   2  -7    3.70    1.45
   6   2  -7    2.16    1.31
   6   2  -7    4.41    1.54
  -6  -2   7    1.72    1.46
   5   2  -7   19.95    2.58
   5   2  -7   20.22    2.54
   5   2  -7   20.58    2.74
  -5  -2   7   21.32    2.62
   4   2  -7   18.40    2.36
   4   2  -7   19.48    2.49
   4   2  -7   18.69    2.38
  -4  -2   7   26.67    3.00
  -4  -2   7   27.85    1.96
  -4  -2   7   24.92    2.67
   3   2  -7   31.56    3.16
   3   2  -7   30.65    2.91
   3   2  -7   30.92    2.89
   3   2  -7   31.42    2.83
   3   2  -7   30.44    2.35
  -3  -2   7   30.96    2.23
  -3  -2   7   30.32    2.93
  -3  -2   7   32.66    3.19
  -3  -2   7   32.86    2.74
  -3  -2   7   31.60    2.91
   2   2  -7   29.23    2.68
   2   2  -7   29.77    2.38
   2   2  -7   30.15    2.72
   2   2  -7   30.76    2.84
  -2  -2   7   32.67    2.82
  -2  -2   7   30.40    2.44
  -2  -2   7   31.81    2.04
  -2  -2   7   32.93    2.90
  -2  -2   7   29.70    2.63
   1   2  -7  103.40    7.14
   1   2  -7  103.80    7.12
   1   2  -7  104.21    7.11
   1   2  -7  101.05    6.89
  -1  -2   7  104.96    7.03
  -1  -2   7  106.07    7.14
  -1  -2   7  104.69    7.08
  -1  -2   7  101.95    7.17
   0   2  -7   39.05    2.89
   0   2  -7   41.16    2.62
   0   2  -7   40.42    3.04
   0   2  -7   40.04    2.95
   0   2  -7   41.21    3.11
   0  -2   7   39.73    3.31
   0  -2   7   36.19    3.23
   0  -2   7   38.71    3.19
   0  -2   7   39.02    3.03
  -1   2  -7  106.34    7.53
  -1   2  -7  110.37    7.27
  -1   2  -7  111.35    7.46
  -1   2  -7  102.57    7.39
  -1   2  -7  116.17    7.13
  -1   2  -7  108.77    7.11
   1  -2   7  120.12    7.83
   1  -2   7  110.37    7.68
   1  -2   7  122.42    8.11
   1  -2   7  117.08    7.50
  -2   2  -7   35.93    2.60
  -2   2  -7   35.74    2.66
  -2   2  -7   36.09    2.54
  -2   2  -7   33.66    2.81
  -2   2  -7   35.61    2.91
  -3   2  -7   11.77    1.30
  -3   2  -7   11.28    1.34
  -3   2  -7   11.16    1.62
  -3   2  -7   12.92    1.18
  -3   2  -7   11.15    1.60
   3  -2   7   15.32    2.83
   3  -2   7   14.06    1.97
   3  -2   7   13.73    1.49
   3  -2   7   13.90    2.02
  -4   2  -7   26.27    2.68
  -4   2  -7   26.35    2.70
  -4   2  -7   27.61    2.47
   4  -2   7   31.52    3.07
   4  -2   7   31.85    3.00
   4  -2   7   29.39    2.61
  -5   2  -7    0.75    1.04
  -5   2  -7    0.29    0.97
  -5   2  -7   -0.15    0.89
   5  -2   7    0.79    1.16
   5  -2   7    0.53    1.17
   5  -2   7    0.76    0.96
  -6   2  -7    2.89    1.25
  -6   2  -7    2.14    1.24
  -6   2  -7    2.19    1.33
   6  -2   7    0.86    1.58
   6  -2   7    2.87    1.26
  -7   2  -7    1.98    1.68
  -7   2  -7    0.68    1.21
  -7   2  -7    0.15    1.08
   7  -2   7    2.97    1.67
   7  -2   7    2.53    1.50
   7   1  -7    4.03    1.76
   7   1  -7    6.87    1.87
  -7  -1   7    3.31    2.00
   6   1  -7   14.77    2.41
   6   1  -7   13.45    2.33
   6   1  -7   16.64    2.47
  -6  -1   7   13.88    2.03
  -6  -1   7   13.60    2.48
   5   1  -7   27.48    2.89
   5   1  -7   26.29    2.85
   5   1  -7   24.34    2.89
  -5  -1   7   30.50    2.43
  -5  -1   7   30.68    3.07
   4   1  -7   28.56    2.78
   4   1  -7   26.87    2.53
   4   1  -7   26.57    2.57
  -4  -1   7   23.46    2.54
  -4  -1   7   22.80    2.95
  -4  -1   7   21.19    1.96
   3   1  -7   77.25    5.05
   3   1  -7   75.40    5.62
   3   1  -7   72.74    5.56
   3   1  -7   79.98    5.62
   3   1  -7   77.26    5.94
  -3  -1   7   76.10    5.89
  -3  -1   7   74.03    5.55
  -3  -1   7   78.02    5.69
  -3  -1   7   76.50    5.05
  -3  -1   7   76.56    5.36
   2   1  -7   53.33    4.43
   2   1  -7   53.16    3.99
   2   1  -7   51.92    4.31
   2   1  -7   50.02    4.29
  -2  -1   7   64.56    4.55
  -2  -1   7   62.13    4.34
  -2  -1   7   66.10    3.82
  -2  -1   7   62.68    4.44
   1   1  -7   33.93    2.99
   1   1  -7   34.02    3.05
   1   1  -7   35.68    2.77
   1   1  -7   35.30    2.89
   1   1  -7   34.31    3.13
  -1  -1   7   39.95    3.28
  -1  -1   7   44.60    3.09
  -1  -1   7   45.89    3.12
  -1  -1   7   45.79    2.58
  -1  -1   7   45.49    3.28
   0   1  -7  144.08    9.05
   0   1  -7  139.38    8.97
   0   1  -7  146.25    9.42
   0   1  -7  143.84    9.25
   0   1  -7  143.63    9.29
   0  -1   7  135.46    9.57
   0  -1   7  145.67    9.56
   0  -1   7  132.18    9.36
   0  -1   7  141.90    9.21
  -1   1  -7   33.25    2.55
  -1   1  -7   32.50    2.55
  -1   1  -7   31.71    2.62
  -1   1  -7   33.20    2.25
  -1   1  -7   34.46    2.34
   1  -1   7   31.46    2.35
   1  -1   7   32.78    3.02
   1  -1   7   32.92    2.84
   1  -1   7   28.77    2.66
   1  -1   7   30.66    2.47
  -2   1  -7   30.26    2.45
  -2   1  -7   31.64    2.54
  -2   1  -7   33.41    2.30
  -2   1  -7   32.30    2.21
   2  -1   7   28.75    2.23
   2  -1   7   26.52    2.71
   2  -1   7   25.63    2.92
   2  -1   7   27.19    2.60
   2  -1   7   26.50    2.29
  -3   1  -7    6.70    1.02
  -3   1  -7    4.63    1.14
  -3   1  -7    6.96    1.24
  -3   1  -7    6.46    0.87
  -3   1  -7    5.60    0.79
   3  -1   7    8.38    1.85
   3  -1   7    8.75    1.17
   3  -1   7    8.94    1.61
   3  -1   7    8.59    1.49
  -4   1  -7    2.84    1.15
  -4   1  -7    1.52    1.02
   4  -1   7    5.09    1.59
   4  -1   7    4.98    1.03
   4  -1   7    5.62    1.37
  -5   1  -7   20.15    2.13
  -5   1  -7   22.35    2.45
  -5   1  -7   20.21    2.28
   5  -1   7   22.67    2.65
   5  -1   7   23.02    2.75
   5  -1   7   20.98    2.26
  -6   1  -7    1.57    1.11
  -6   1  -7    3.23    1.21
  -6   1  -7    1.26    1.26
   6  -1   7    5.21    1.85
   6  -1   7    5.00    1.48
  -7   1  -7    6.50    1.80
  -7   1  -7    4.83    1.47
  -7   1  -7    5.87    1.68
   7  -1   7    4.03    1.51
   7  -1   7    4.44    1.92
   7   0  -7   21.87    2.97
  -7   0   7   21.24    3.34
   6   0  -7    8.58    1.82
   6   0  -7   10.05    1.89
  -6   0   7    4.66    1.67
  -6   0   7    6.84    1.38
   5   0  -7   12.08    1.92
   5   0  -7   13.16    1.98
   5   0  -7   10.92    1.97
  -5   0   7    8.61    1.37
  -5   0   7    9.86    1.96
   4   0  -7   24.98    2.85
   4   0  -7   29.40    2.74
   4   0  -7   28.88    2.85
  -4   0   7   30.11    2.28
  -4   0   7   28.61    2.80
  -4   0   7   29.06    2.33
  -4   0   7   29.29    3.20
  -3   0   7   36.94    3.12
  -3   0   7   37.68    3.43
  -3   0   7   35.49    3.11
  -3   0   7   34.97    2.65
   2   0  -7   96.85    6.35
   2   0  -7  102.78    6.72
   2   0  -7   93.18    6.56
   2   0  -7   98.75    6.23
  -2   0   7   92.63    6.11
  -2   0   7   91.77    6.47
  -2   0   7   93.63    6.68
  -2   0   7   86.16    6.51
  -2   0   7   95.73    6.67
   1   0  -7  148.31    9.46
   1   0  -7  148.82    9.52
   1   0  -7  152.57    9.23
   1   0  -7  145.03    9.23
  -1   0   7  134.53    9.31
  -1   0   7  136.36    9.57
  -1   0   7  136.25    9.45
  -1   0   7  139.10    9.27
   0   0  -7    3.95    0.71
   0   0  -7    4.82    1.02
   0   0  -7    3.23    0.78
   0   0  -7    4.11    0.88
   0   0   7    8.41    1.34
  -1   0  -7   72.19    4.60
  -1   0  -7   73.72    4.81
  -1   0  -7   71.83    4.49
  -1   0  -7   74.56    4.74
   1   0   7   65.95    4.41
   1   0   7   63.61    5.21
   1   0   7   65.31    4.54
   1   0   7   61.26    4.79
   1   0   7   63.26    4.96
  -2   0  -7  146.05    9.36
  -2   0  -7  144.49    9.61
  -2   0  -7  150.43    9.64
  -2   0  -7  150.78    9.40
   2   0   7  144.82    9.28
   2   0   7  146.02    9.73
   2   0   7  137.47   10.18
   2   0   7  144.10    9.89
  -3   0  -7    1.43    0.45
  -3   0  -7    1.95    0.86
  -3   0  -7    1.06    0.79
  -3   0  -7    2.29    0.72
  -3   0  -7    1.29    0.39
   3   0   7    0.72    0.94
   3   0   7    0.89    0.91
   3   0   7   -0.01    0.91
   3   0   7    0.00    0.49
  -4   0  -7   53.59    3.81
  -4   0  -7   55.70    3.99
  -4   0  -7   48.81    3.91
   4   0   7   48.43    4.25
   4   0   7   45.10    3.97
   4   0   7   47.03    3.64
  -5   0  -7    3.03    1.19
  -5   0  -7    3.79    1.15
  -5   0  -7    4.11    1.27
   5   0   7    5.84    1.67
   5   0   7    7.68    1.36
   5   0   7    5.83    1.52
  -6   0  -7   14.01    2.25
  -6   0  -7   17.78    2.26
  -6   0  -7   13.35    2.05
   6   0   7   13.33    2.04
   6   0   7   14.36    2.56
  -7   0  -7    8.38    1.78
  -7   0  -7    9.63    2.14
  -7   0  -7    9.49    2.03
   7   0   7   11.37    2.07
   7   0   7    9.95    2.42
   7  -1  -7    3.19    1.57
  -7   1   7    2.55    1.33
  -7   1   7    5.28    1.82
   6  -1  -7   21.38    2.72
  -6   1   7   16.58    2.75
  -6   1   7   17.30    2.14
   5  -1  -7   34.47    3.26
   5  -1  -7   33.31    3.24
   5  -1  -7   31.55    2.90
  -5   1   7   29.63    3.22
  -5   1   7   26.95    2.62
   4  -1  -7   17.65    2.17
   4  -1  -7   18.96    2.28
   4  -1  -7   19.10    1.98
  -4   1   7   15.48    2.22
  -4   1   7   15.16    2.29
  -4   1   7   15.11    1.60
  -4   1   7   15.22    1.64
  -4   1   7   14.99    1.98
   3  -1  -7   27.68    2.76
   3  -1  -7   25.81    2.17
   3  -1  -7   22.85    2.68
  -3   1   7   34.81    2.44
  -3   1   7   35.68    2.81
  -3   1   7   37.34    3.20
  -3   1   7   34.82    3.00
   2  -1  -7   85.25    5.28
   2  -1  -7   83.63    4.83
   2  -1  -7   83.25    5.31
   2  -1  -7   78.05    5.03
  -2   1   7   63.59    4.96
  -2   1   7   59.43    5.05
  -2   1   7   61.09    5.22
  -2   1   7   62.21    5.16
   1  -1  -7   37.13    3.15
   1  -1  -7   39.48    2.92
   1  -1  -7   37.11    2.94
   1  -1  -7   36.69    3.08
  -1   1   7   42.01    3.04
  -1   1   7   41.78    3.17
  -1   1   7   42.93    2.94
  -1   1   7   37.69    3.19
   0  -1  -7   52.88    3.46
   0  -1  -7   47.66    3.20
   0  -1  -7   49.48    3.28
   0  -1  -7   48.38    3.34
   0   1   7   38.77    2.87
   0   1   7   39.20    2.99
   0   1   7   38.68    3.42
   0   1   7   40.19    3.28
  -1  -1  -7   62.15    4.63
  -1  -1  -7   61.33    4.61
  -1  -1  -7   62.88    4.55
  -1  -1  -7   63.06    4.48
   1   1   7   71.27    4.31
   1   1   7   65.78    4.86
   1   1   7   70.44    4.69
  -2  -1  -7   12.43    1.29
  -2  -1  -7   11.95    1.25
  -2  -1  -7   11.69    1.47
  -2  -1  -7   13.21    1.53
  -3  -1  -7  141.46    9.50
  -3  -1  -7  140.95    9.48
  -3  -1  -7  140.00    8.91
  -3  -1  -7  144.88    9.29
   3   1   7  144.26    9.10
   3   1   7  137.25   10.19
   3   1   7  143.20    9.51
  -4  -1  -7    8.43    1.46
  -4  -1  -7    6.31    1.24
  -4  -1  -7    6.00    1.36
   4   1   7    9.24    1.19
   4   1   7   10.48    1.60
   4   1   7    9.67    1.89
  -5  -1  -7   11.82    1.87
  -5  -1  -7   11.70    1.87
  -5  -1  -7   12.91    1.86
   5   1   7   12.67    1.98
   5   1   7   14.05    2.35
   5   1   7   12.35    1.61
  -6  -1  -7   -0.11    1.01
  -6  -1  -7    0.56    1.07
  -6  -1  -7   -0.40    1.06
   6   1   7    1.18    1.03
   6   1   7   -0.64    1.25
  -7  -1  -7    2.10    1.34
  -7  -1  -7    1.41    1.35
  -7  -1  -7    1.24    1.32
   7   1   7    1.91    1.83
   7  -2  -7    4.64    1.76
  -7   2   7    3.99    1.40
  -7   2   7    2.29    1.66
   6  -2  -7   15.36    2.53
  -6   2   7   24.40    2.45
   5  -2  -7   12.45    2.02
   5  -2  -7   11.13    2.08
   5  -2  -7   10.21    1.65
  -5   2   7    8.72    1.47
  -5   2   7    7.58    1.32
   4  -2  -7   57.04    4.18
   4  -2  -7   54.06    4.58
   4  -2  -7   53.49    4.53
   4  -2  -7   51.45    4.24
  -4   2   7   58.70    4.18
  -4   2   7   58.73    4.80
  -4   2   7   56.66    5.37
  -4   2   7   59.64    4.18
   3  -2  -7   42.42    3.60
   3  -2  -7   42.85    3.58
   3  -2  -7   42.11    3.52
  -3   2   7   44.61    3.85
  -3   2   7   44.63    3.84
   2  -2  -7   24.11    2.40
   2  -2  -7   20.79    2.42
   2  -2  -7   23.07    2.02
   2  -2  -7   21.66    2.29
  -2   2   7   28.54    2.22
  -2   2   7   29.32    2.76
  -2   2   7   32.21    2.65
  -2   2   7   28.61    2.38
   1  -2  -7   20.58    2.06
   1  -2  -7   19.11    1.81
   1  -2  -7   18.97    1.77
   1  -2  -7   18.14    1.93
  -1   2   7   20.71    1.72
  -1   2   7   21.10    1.93
  -1   2   7   20.57    1.86
  -1   2   7   20.10    2.04
   0  -2  -7   76.50    6.02
   0  -2  -7   85.47    6.01
   0  -2  -7   89.58    6.06
   0  -2  -7   84.20    6.07
   0  -2  -7   84.90    6.00
   0   2   7   91.31    5.75
   0   2   7   93.10    5.78
   0   2   7   97.77    6.32
   0   2   7   95.16    6.07
  -1  -2  -7   29.56    2.34
  -1  -2  -7   29.23    2.35
  -1  -2  -7   27.52    2.24
  -1  -2  -7   30.64    2.30
  -1  -2  -7   27.84    2.24
   1   2   7   24.92    2.24
   1   2   7   24.96    1.75
   1   2   7   22.35    2.38
  -2  -2  -7   49.16    3.39
  -2  -2  -7   43.42    3.56
  -2  -2  -7   47.29    3.58
  -2  -2  -7   45.68    3.46
  -2  -2  -7   47.70    3.39
   2   2   7   47.43    3.53
   2   2   7   44.14    3.75
  -3  -2  -7   18.67    1.83
  -3  -2  -7   17.53    1.98
  -3  -2  -7   17.52    2.01
  -3  -2  -7   18.00    1.99
   3   2   7   21.63    2.04
   3   2   7   22.22    2.32
  -4  -2  -7   33.16    2.92
  -4  -2  -7   34.05    2.94
  -4  -2  -7   31.74    2.73
  -4  -2  -7   34.71    2.89
   4   2   7   30.04    2.73
   4   2   7   29.81    2.79
   4   2   7   27.88    3.08
  -5  -2  -7   51.23    4.16
  -5  -2  -7   54.90    4.27
  -5  -2  -7   50.23    4.12
   5   2   7   50.70    4.57
   5   2   7   49.55    3.90
  -6  -2  -7   11.97    1.96
  -6  -2  -7   12.29    1.96
  -6  -2  -7   13.53    2.18
   6   2   7   14.17    2.60
  -7  -2  -7    0.64    1.24
  -7  -2  -7    0.92    1.30
  -7  -2  -7    0.51    1.20
   7   2   7    0.54    1.72
  -7   3   7   10.06    2.03
   6  -3  -7   17.17    2.59
  -6   3   7   14.86    2.18
   5  -3  -7   16.53    2.17
   5  -3  -7   15.58    2.47
  -5   3   7   20.11    2.19
  -5   3   7   22.66    2.13
   4  -3  -7    7.53    1.50
   4  -3  -7    9.28    1.80
   4  -3  -7    8.22    1.69
  -4   3   7   13.00    1.61
  -4   3   7    9.30    1.94
  -4   3   7   12.78    1.51
  -4   3   7    9.62    1.46
   3  -3  -7   69.57    5.38
   3  -3  -7   67.73    5.25
   3  -3  -7   73.12    5.28
   3  -3  -7   70.33    5.34
  -3   3   7   74.54    5.71
  -3   3   7   72.30    5.74
   2  -3  -7   35.32    2.38
   2  -3  -7   32.77    2.70
   2  -3  -7   30.73    2.71
   2  -3  -7   28.77    2.67
  -2   3   7   26.64    2.68
  -2   3   7   28.77    2.62
  -2   3   7   27.17    2.96
  -2   3   7   26.59    2.45
   1  -3  -7   94.39    6.42
   1  -3  -7   95.83    6.26
   1  -3  -7   94.97    6.25
   1  -3  -7   90.06    6.45
   1  -3  -7   92.28    6.45
  -1   3   7   93.20    6.33
  -1   3   7   90.36    6.13
  -1   3   7   93.05    6.43
  -1   3   7   93.04    6.49
   0  -3  -7   94.76    6.36
   0  -3  -7   95.03    6.29
   0  -3  -7   99.99    6.40
   0  -3  -7   95.24    6.39
   0  -3  -7   90.36    6.24
   0   3   7   86.58    6.15
   0   3   7   89.72    6.12
   0   3   7   88.56    5.90
   0   3   7   93.97    6.50
  -1  -3  -7   64.96    4.26
  -1  -3  -7   61.84    4.32
  -1  -3  -7   61.47    4.28
  -1  -3  -7   63.07    4.30
  -1  -3  -7   67.42    4.25
   1   3   7   56.26    4.11
   1   3   7   54.75    3.78
   1   3   7   52.76    4.38
   1   3   7   52.47    3.77
  -2  -3  -7  181.47   11.41
  -2  -3  -7  174.92   11.59
  -2  -3  -7  175.96   11.61
  -2  -3  -7  177.71   11.43
   2   3   7  174.98   11.40
   2   3   7  172.71   11.76
  -3  -3  -7   37.53    3.04
  -3  -3  -7   37.29    3.19
  -3  -3  -7   35.71    3.19
  -3  -3  -7   39.10    2.96
   3   3   7   40.80    3.47
   3   3   7   40.37    3.27
   3   3   7   38.94    3.04
  -4  -3  -7   13.05    1.85
  -4  -3  -7   12.37    1.72
  -4  -3  -7   13.04    1.83
   4   3   7   11.43    2.04
   4   3   7   12.63    1.69
   4   3   7   12.75    1.70
  -5  -3  -7   17.57    2.14
  -5  -3  -7   17.85    2.35
  -5  -3  -7   16.91    2.32
  -5  -3  -7   15.35    2.13
   5   3   7   16.99    2.64
   5   3   7   16.53    1.99
  -6  -3  -7   21.02    2.54
  -6  -3  -7   23.41    2.67
  -6  -3  -7   20.50    2.71
   6   3   7   21.18    3.21
  -7  -3  -7    8.10    1.90
  -7  -3  -7    8.85    1.98
  -7  -3  -7    8.98    1.83
   7   3   7    2.77    1.89
  -6   4   7   12.83    2.08
   5  -4  -7   48.46    4.52
   5  -4  -7   54.28    4.31
   5  -4  -7   57.07    4.46
  -5   4   7   46.37    4.03
  -5   4   7   46.55    4.03
   4  -4  -7   34.78    3.11
   4  -4  -7   35.66    3.33
   4  -4  -7   34.72    3.28
   4  -4  -7   36.40    3.19
  -4   4   7   34.92    3.01
  -4   4   7   30.68    2.91
  -4   4   7   35.81    3.05
   3  -4  -7   27.13    2.76
   3  -4  -7   27.66    2.78
   3  -4  -7   26.49    2.45
   3  -4  -7   27.40    2.66
   3  -4  -7   25.78    2.66
  -3   4   7   30.60    3.23
  -3   4   7   29.46    2.99
   2  -4  -7   93.09    7.06
   2  -4  -7   98.10    6.70
   2  -4  -7   99.31    6.69
   2  -4  -7   96.33    7.04
   2  -4  -7  101.45    7.17
   2  -4  -7   94.79    7.07
  -2   4   7  103.74    6.92
  -2   4   7  108.70    7.07
  -2   4   7  105.14    7.70
  -2   4   7  113.32    7.44
   1  -4  -7   77.31    5.07
   1  -4  -7   77.22    5.31
   1  -4  -7   73.47    5.20
   1  -4  -7   77.63    5.33
   1  -4  -7   73.28    5.00
  -1   4   7   68.10    4.98
  -1   4   7   67.94    5.26
  -1   4   7   66.91    5.16
   0  -4  -7   33.75    2.94
   0  -4  -7   34.36    2.85
   0  -4  -7   36.63    2.88
   0  -4  -7   38.94    2.89
   0   4   7   34.81    2.40
   0   4   7   34.28    2.95
   0   4   7   35.88    2.65
  -1  -4  -7   33.55    2.97
  -1  -4  -7   36.90    2.83
  -1  -4  -7   32.58    2.89
  -1  -4  -7   33.46    2.89
   1   4   7   37.95    3.09
   1   4   7   37.38    2.66
   1   4   7   36.86    2.67
  -2  -4  -7   51.25    3.44
   2   4   7   37.83    3.33
   2   4   7   37.99    2.86
   2   4   7   39.26    3.37
   2   4   7   38.21    2.95
  -3  -4  -7   60.96    4.55
  -3  -4  -7   61.65    4.66
  -3  -4  -7   65.78    4.32
  -3  -4  -7   60.33    4.69
   3   4   7   63.08    4.43
   3   4   7   59.74    4.86
   3   4   7   59.89    4.69
  -4  -4  -7   46.23    3.78
  -4  -4  -7   42.13    3.76
  -4  -4  -7   46.33    3.69
   4   4   7   45.69    3.75
   4   4   7   47.92    4.10
  -5  -4  -7    5.19    1.49
  -5  -4  -7    6.41    1.47
  -5  -4  -7    8.44    1.75
   5   4   7    3.02    1.16
   5   4   7    3.29    1.54
  -6  -4  -7    9.63    2.04
  -6  -4  -7    9.39    1.90
  -6  -4  -7   10.71    1.92
   6   4   7   12.09    2.48
  -7  -4  -7   14.06    2.43
  -7  -4  -7   13.83    2.27
   7   4   7   16.68    3.01
   7   4   7   16.96    2.87
   6  -5  -7    9.36    2.11
   6  -5  -7   11.73    2.17
  -6   5   7   13.09    2.10
  -6   5   7   14.01    2.26
   5  -5  -7   19.40    2.64
   5  -5  -7   24.00    2.80
  -5   5   7   26.89    2.60
  -5   5   7   25.93    2.71
  -5   5   7   26.28    2.63
   4  -5  -7   27.95    2.73
   4  -5  -7   22.24    2.46
   4  -5  -7   21.14    2.77
  -4   5   7   26.38    2.46
  -4   5   7   23.06    2.44
  -4   5   7   21.30    2.39
   3  -5  -7   25.57    2.66
   3  -5  -7   27.06    2.35
   3  -5  -7   24.35    2.67
   3  -5  -7   24.62    2.77
  -3   5   7   23.12    2.80
  -3   5   7   23.58    2.38
  -3   5   7   22.49    2.45
   2  -5  -7   27.96    2.35
   2  -5  -7   30.13    2.83
   2  -5  -7   27.04    2.34
   2  -5  -7   27.10    2.76
   2  -5  -7   29.96    2.86
  -2   5   7   30.33    2.63
  -2   5   7   32.46    3.08
  -2   5   7   29.31    2.76
  -2   5   7   32.99    2.56
  -2   5   7   32.10    3.38
   1  -5  -7   21.41    2.28
   1  -5  -7   21.58    2.23
   1  -5  -7   22.41    2.05
   1  -5  -7   21.22    2.31
   1  -5  -7   21.54    1.71
  -1   5   7   24.12    2.85
  -1   5   7   21.53    2.31
  -1   5   7   22.44    2.16
  -1   5   7   24.74    1.94
   0  -5  -7   53.22    3.97
   0  -5  -7   53.60    4.04
   0  -5  -7   52.17    4.01
   0  -5  -7   57.35    4.24
   0   5   7   53.90    3.57
   0   5   7   55.31    4.25
   0   5   7   52.55    3.68
   0   5   7   54.44    4.07
  -1  -5  -7   60.62    4.41
  -1  -5  -7   54.87    4.56
  -1  -5  -7   52.03    4.53
  -1  -5  -7   59.14    4.73
   1   5   7   67.57    4.73
   1   5   7   70.41    4.25
   1   5   7   66.41    4.56
   1   5   7   69.46    4.89
  -2  -5  -7    4.99    0.87
  -2  -5  -7    2.63    1.04
  -2  -5  -7    3.01    1.05
   2   5   7    5.96    1.29
   2   5   7    5.45    0.98
   2   5   7    6.17    0.83
   2   5   7    5.39    1.24
  -3  -5  -7   21.03    2.23
  -3  -5  -7   20.79    2.34
  -3  -5  -7   21.75    2.43
   3   5   7   22.40    2.50
   3   5   7   24.66    2.51
  -4  -5  -7    6.20    1.43
  -4  -5  -7    5.77    1.49
  -4  -5  -7    7.13    1.64
   4   5   7    9.50    1.64
   4   5   7    9.02    1.79
  -5  -5  -7   21.71    2.48
  -5  -5  -7   22.62    2.58
  -5  -5  -7   21.26    2.47
   5   5   7   22.17    2.97
   5   5   7   18.97    2.40
  -6  -5  -7    7.12    1.78
  -6  -5  -7    9.00    1.96
  -6  -5  -7    6.88    1.78
   6   5   7   12.53    2.27
   6   5   7   12.38    2.50
  -7  -5  -7    0.61    1.31
  -7  -5  -7   -0.75    1.36
  -7  -5  -7   -0.18    1.45
   7   5   7   -0.14    1.49
   7   5   7    0.76    1.69
   6  -6  -7    8.95    2.13
   6  -6  -7   14.49    2.47
  -6   6   7    8.86    1.90
  -6   6   7   10.04    2.01
   5  -6  -7    7.63    1.78
   5  -6  -7    5.90    1.76
  -5   6   7    9.75    1.72
  -5   6   7    8.62    1.75
  -5   6   7    6.52    1.71
   4  -6  -7   39.65    3.48
   4  -6  -7   37.46    3.78
   4  -6  -7   38.69    3.71
  -4   6   7   38.78    3.45
  -4   6   7   41.11    3.51
  -4   6   7   46.27    3.77
   3  -6  -7   32.84    3.31
   3  -6  -7   32.06    2.91
   3  -6  -7   31.51    3.21
  -3   6   7   35.52    3.14
  -3   6   7   37.60    3.00
  -3   6   7   34.02    3.11
   2  -6  -7   48.54    3.43
   2  -6  -7   46.09    3.90
   2  -6  -7   47.20    3.42
   2  -6  -7   45.42    3.87
  -2   6   7   42.29    3.82
  -2   6   7   44.04    3.40
  -2   6   7   45.07    3.58
  -2   6   7   44.07    4.08
   1  -6  -7    6.41    1.27
   1  -6  -7    6.59    1.48
   1  -6  -7    6.78    1.45
   1  -6  -7    9.66    1.36
   0  -6  -7   27.96    2.47
   0  -6  -7   27.32    2.72
   0  -6  -7   29.38    2.55
   0   6   7   29.75    2.56
   0   6   7   26.03    2.69
  -1  -6  -7   35.21    3.28
  -1  -6  -7   37.15    3.46
  -1  -6  -7   39.18    3.39
  -1  -6  -7   42.20    3.16
   1   6   7   44.78    3.47
   1   6   7   41.57    3.04
   1   6   7   46.34    3.66
   1   6   7   43.75    3.43
  -2  -6  -7   23.78    2.62
  -2  -6  -7   27.62    2.74
  -2  -6  -7   25.08    2.75
   2   6   7   32.20    2.88
   2   6   7   35.04    3.04
   2   6   7   33.09    3.51
  -3  -6  -7   31.77    2.96
  -3  -6  -7   32.54    3.02
   3   6   7   28.30    2.93
   3   6   7   32.68    3.16
  -4  -6  -7   17.44    2.48
  -4  -6  -7   15.11    2.30
  -4  -6  -7   16.71    2.22
   4   6   7   19.72    2.39
   4   6   7   19.78    2.47
   4   6   7   16.50    2.13
  -5  -6  -7    6.25    1.71
  -5  -6  -7    5.20    1.58
  -5  -6  -7    6.01    1.64
   5   6   7    9.77    2.02
   5   6   7    8.77    2.08
   5   6   7    7.79    1.67
  -6  -6  -7   18.81    2.54
  -6  -6  -7   19.28    2.80
  -6  -6  -7   15.75    2.46
   6   6   7   14.32    2.76
   6   6   7   14.56    2.74
  -7  -6  -7   11.41    2.42
  -7  -6  -7   11.12    2.30
   7   6   7   14.31    3.02
   7   6   7   12.66    2.67
   5  -7  -7    6.39    1.83
   5  -7  -7    5.91    1.62
  -5   7   7    2.06    1.48
  -5   7   7    3.12    1.32
  -5   7   7    3.99    1.49
   4  -7  -7   14.29    2.54
   4  -7  -7   12.63    2.01
   4  -7  -7   14.22    2.45
  -4   7   7   12.66    1.99
  -4   7   7   14.29    2.30
  -4   7   7   14.32    2.13
   3  -7  -7   33.79    3.35
   3  -7  -7   34.23    3.13
   3  -7  -7   34.03    3.37
  -3   7   7   31.94    3.14
  -3   7   7   28.71    2.97
   2  -7  -7   19.47    2.04
   2  -7  -7   23.97    2.61
   2  -7  -7   20.11    2.55
  -2   7   7   25.13    2.65
  -2   7   7   24.73    2.51
   1  -7  -7   93.18    6.99
   1  -7  -7   97.44    7.02
   1  -7  -7   91.82    6.61
  -1   7   7  100.47    7.04
  -1   7   7   96.43    6.57
   0  -7  -7   21.07    2.51
   0  -7  -7   20.60    2.20
   0   7   7   19.01    2.34
   0   7   7   20.03    2.02
   0   7   7   18.80    2.45
  -1  -7  -7   17.56    1.76
  -1  -7  -7   17.41    2.16
  -1  -7  -7   18.33    2.38
   1   7   7   16.68    1.96
   1   7   7   17.09    2.22
   1   7   7   20.81    2.24
  -2  -7  -7   29.62    3.07
  -2  -7  -7   28.08    3.03
   2   7   7   36.34    3.12
   2   7   7   34.09    3.21
   2   7   7   37.33    2.88
  -3  -7  -7   20.40    2.41
  -3  -7  -7   24.79    2.48
   3   7   7   19.62    2.36
   3   7   7   20.30    2.29
   3   7   7   18.92    2.43
  -4  -7  -7   33.40    3.32
  -4  -7  -7   31.76    3.14
   4   7   7   33.47    3.45
   4   7   7   33.67    3.43
   4   7   7   34.78    3.39
  -5  -7  -7   11.08    2.17
  -5  -7  -7   11.05    1.99
   5   7   7   10.11    2.15
   5   7   7   10.83    1.99
   5   7   7   12.49    2.28
  -6  -7  -7   20.64    2.83
  -6  -7  -7   21.66    2.82
   6   7   7   14.39    2.74
   6   7   7   15.59    2.88
   5  -8  -7    7.86    2.21
  -5   8   7    9.14    2.09
  -5   8   7    9.29    1.92
  -5   8   7    9.69    2.12
   4  -8  -7    0.82    1.34
   4  -8  -7    0.84    1.58
  -4   8   7    1.99    1.42
  -4   8   7    1.20    1.22
  -4   8   7    1.43    1.35
   3  -8  -7    9.37    2.00
   3  -8  -7   10.07    2.03
  -3   8   7    8.68    1.86
  -3   8   7    6.78    1.70
   2  -8  -7   24.62    2.89
   2  -8  -7   24.40    2.43
   2  -8  -7   27.96    3.03
  -2   8   7   30.28    2.95
  -2   8   7   27.55    2.88
   1  -8  -7   22.30    2.65
   1  -8  -7   26.00    2.89
   1  -8  -7   21.44    2.37
  -1   8   7   23.42    2.58
  -1   8   7   23.62    2.82
   0  -8  -7   46.83    3.91
   0  -8  -7   48.08    4.12
   0  -8  -7   44.18    4.01
   0   8   7   48.64    4.16
   0   8   7   47.51    4.31
  -1  -8  -7   57.18    4.43
  -1  -8  -7   64.69    4.77
   1   8   7   51.42    4.17
   1   8   7   48.12    4.47
  -2  -8  -7   19.67    2.49
  -2  -8  -7   18.35    2.61
   2   8   7   23.01    2.42
   2   8   7   25.24    2.75
  -3  -8  -7    4.18    1.50
   3   8   7    3.15    1.23
   3   8   7    3.55    1.56
   3   8   7    4.67    1.25
  -4  -8  -7   16.08    2.49
   4   8   7   18.09    2.66
   4   8   7   19.45    2.62
   4   8   7   18.98    2.35
  -5  -8  -7    0.16    1.55
  -5  -8  -7    0.43    1.27
   5   8   7    5.11    1.70
   5   8   7    5.79    1.84
   5   8   7    4.36    1.56
  -6  -8  -7   -0.91    1.29
  -6  -8  -7    1.92    1.57
   6   8   7   -0.47    1.55
   6   8   7    0.46    1.53
   4  -9  -7   26.18    3.35
   4  -9  -7   20.53    3.23
  -4   9   7   26.21    3.11
  -4   9   7   24.17    2.92
   3  -9  -7   13.32    2.49
  -3   9   7   16.96    2.59
  -3   9   7   14.15    2.37
   2  -9  -7   20.65    2.87
   2  -9  -7   19.94    2.84
  -2   9   7   15.82    2.42
  -2   9   7   16.66    2.61
   1  -9  -7   16.38    2.17
   1  -9  -7   15.61    2.47
   1  -9  -7   16.96    2.47
  -1   9   7   12.80    2.21
  -1   9   7   17.96    2.58
   0  -9  -7   11.65    2.08
   0  -9  -7    9.14    1.78
   0  -9  -7   11.42    2.14
   0   9   7   14.46    2.15
   0   9   7   14.76    2.39
  -1  -9  -7   18.54    2.72
  -1  -9  -7   21.92    2.68
   1   9   7   20.69    2.51
   1   9   7   24.69    2.85
  -2  -9  -7   28.68    3.18
  -2  -9  -7   34.67    3.42
   2   9   7   24.68    3.12
  -3  -9  -7    9.20    2.03
  -3  -9  -7    7.12    1.86
   3   9   7    9.06    2.11
   3   9   7   12.41    1.94
  -4  -9  -7   16.54    2.47
   4   9   7    6.63    1.86
   4   9   7    7.63    1.59
   4   9   7    7.93    1.80
   4   9   7    8.06    1.87
  -5  -9  -7    6.12    1.96
   5   9   7    8.27    2.03
   5   9   7    9.71    2.21
   5   9   7    9.11    2.16
   4 -10  -7    2.07    1.77
   4 -10  -7    5.18    1.94
  -4  10   7    4.50    1.77
  -4  10   7    4.04    1.81
   3 -10  -7   13.97    2.69
   3 -10  -7   17.22    2.86
  -3  10   7   11.96    2.49
  -3  10   7   14.98    2.51
  -3  10   7   12.06    2.35
   2 -10  -7   28.89    3.24
   2 -10  -7   30.16    3.35
  -2  10   7   20.85    2.99
  -2  10   7   20.49    2.91
   1 -10  -7   17.11    2.29
   1 -10  -7   14.64    2.55
   1 -10  -7   17.65    2.67
  -1  10   7   14.61    2.40
  -1  10   7   13.76    2.46
   0 -10  -7   30.13    3.31
   0 -10  -7   29.84    3.16
   0 -10  -7   32.53    3.31
   0  10   7   25.62    3.23
   0  10   7   26.98    3.16
  -1 -10  -7   37.36    3.59
  -1 -10  -7   31.95    3.31
   1  10   7   31.93    3.33
   1  10   7   29.22    3.46
  -2 -10  -7   26.97    3.20
  -2 -10  -7   24.51    3.22
   2  10   7   36.21    3.30
   2  10   7   30.69    3.45
  -3 -10  -7   18.90    2.85
  -3 -10  -7   23.91    3.01
   3  10   7   24.96    2.91
   3  10   7   26.06    3.32
  -4 -10  -7   13.69    2.53
   4  10   7    9.93    2.29
   4  10   7   11.49    2.06
  -5 -10  -7    8.45    2.20
   5  10   7    9.23    2.37
   3 -11  -7   21.69    3.43
   3 -11  -7   20.16    3.15
  -3  11   7   10.84    2.54
  -3  11   7   14.65    2.69
  -3  11   7   11.50    2.48
   2 -11  -7   11.30    2.74
   2 -11  -7   13.32    2.71
  -2  11   7   17.52    2.85
  -2  11   7   19.33    2.87
   1 -11  -7   21.57    2.68
   1 -11  -7   21.05    3.09
   1 -11  -7   20.49    3.07
  -1  11   7   17.85    2.78
  -1  11   7   17.06    2.87
   0 -11  -7    5.94    2.10
   0 -11  -7   10.52    2.06
   0 -11  -7    9.06    2.15
   0  11   7    4.64    1.98
   0  11   7    8.98    2.03
  -1 -11  -7   17.71    2.61
  -1 -11  -7   17.31    2.75
   1  11   7   10.61    2.30
   1  11   7   12.21    2.58
  -2 -11  -7   22.26    3.15
  -2 -11  -7   23.57    2.99
   2  11   7   20.31    2.93
   2  11   7   19.85    3.11
  -3 -11  -7   12.31    2.53
  -3 -11  -7   13.58    2.54
   3  11   7   15.66    2.77
   3  11   7   15.07    2.53
  -4 -11  -7   16.75    2.82
  -4 -11  -7   14.03    2.92
   4  11   7   25.81    2.92
   4  11   7   23.53    3.34
   1 -12  -7   13.59    2.72
   1 -12  -7   15.10    2.81
   1 -12  -7   11.59    2.24
  -1  12   7   18.47    2.97
  -1  12   7   17.74    2.99
   0 -12  -7   13.55    2.65
   0 -12  -7   12.79    2.64
   0 -12  -7   14.89    2.52
   0  12   7   17.10    2.87
   0  12   7   18.75    3.12
  -1 -12  -7    0.28    1.64
  -1 -12  -7    1.18    1.60
   1  12   7    0.23    1.81
   1  12   7    0.99    1.47
  -2 -12  -7   31.38    3.78
  -2 -12  -7   34.24    3.96
   2  12   7   24.98    3.90
   2  12   7   28.41    3.34
  -3 -12  -7    4.18    1.94
  -3 -12  -7    6.07    2.19
   3  12   7    1.85    1.60
   3  12   7    1.36    1.84
   2  11  -8   14.54    2.33
  -2 -11   8   13.56    2.90
  -2 -11   8   14.35    2.71
   1  11  -8    8.77    1.98
   1  11  -8    8.72    1.93
  -1 -11   8    5.11    2.05
  -1 -11   8    5.54    2.11
   0  11  -8   10.02    2.09
   0 -11   8    9.94    2.55
   0 -11   8   14.52    2.50
  -1  11  -8    8.58    2.19
   1 -11   8    8.82    2.07
   1 -11   8    9.88    2.41
   1 -11   8   10.72    2.45
  -2  11  -8    6.71    2.06
   2 -11   8    4.12    1.90
   2 -11   8    5.02    2.07
   2 -11   8    3.94    2.15
   2 -11   8    3.07    1.84
   4  10  -8   11.20    2.56
  -4 -10   8   12.33    2.77
  -4 -10   8   11.53    2.48
  -3 -10   8    3.34    2.06
  -3 -10   8    6.35    2.09
   2  10  -8   24.41    2.61
   2  10  -8   23.66    2.59
  -2 -10   8   15.96    2.85
  -2 -10   8   15.73    2.77
  -2 -10   8   13.46    2.42
   1  10  -8   10.08    1.97
   1  10  -8   11.07    2.15
  -1 -10   8   13.86    2.45
  -1 -10   8   14.62    2.53
   0  10  -8    1.34    1.24
   0 -10   8    0.94    1.62
   0 -10   8   -0.23    1.14
   0 -10   8    0.47    1.43
  -1  10  -8    6.60    1.84
   1 -10   8    7.77    2.22
   1 -10   8    8.21    2.25
   1 -10   8    6.41    1.74
  -2  10  -8   25.74    3.12
  -2  10  -8   24.88    3.18
   2 -10   8   29.76    3.61
   2 -10   8   27.51    3.22
   2 -10   8   30.63    3.41
   2 -10   8   26.12    3.44
  -3  10  -8    8.01    2.06
  -3  10  -8    8.30    1.84
   3 -10   8    5.78    2.09
   3 -10   8    5.39    2.19
   3 -10   8    6.77    2.12
   4   9  -8    5.99    1.85
  -4  -9   8   10.12    2.61
  -4  -9   8    9.89    2.43
   3   9  -8   25.60    2.80
  -3  -9   8   18.50    3.06
  -3  -9   8   21.21    3.15
   2   9  -8    6.44    1.70
   2   9  -8    5.53    1.49
  -2  -9   8   10.82    2.27
  -2  -9   8    8.26    1.95
  -2  -9   8   10.31    2.05
   1   9  -8   31.25    3.09
   1   9  -8   31.56    3.20
  -1  -9   8   31.05    3.15
  -1  -9   8   30.69    3.45
  -1  -9   8   31.45    3.56
   0   9  -8   20.36    2.51
   0  -9   8   22.87    2.50
   0  -9   8   19.62    2.93
   0  -9   8   20.57    2.55
   0  -9   8   19.80    3.02
  -1   9  -8   11.43    2.10
   1  -9   8   12.43    2.42
   1  -9   8   10.48    2.07
   1  -9   8   13.89    2.48
  -2   9  -8    5.58    1.42
  -2   9  -8    8.10    1.92
   2  -9   8    2.78    1.65
   2  -9   8    5.75    1.99
   2  -9   8    4.85    1.65
   2  -9   8    4.33    1.73
  -3   9  -8   21.17    3.07
  -3   9  -8   24.46    2.84
   3  -9   8   23.46    3.34
   3  -9   8   22.63    3.25
   3  -9   8   19.81    3.10
  -4   9  -8   12.43    2.27
  -4   9  -8   10.89    2.32
   4  -9   8   16.19    2.85
   4  -9   8   13.90    2.74
   4  -9   8   10.48    2.49
   5   8  -8    3.12    1.83
  -5  -8   8    5.73    2.07
  -5  -8   8   10.62    2.47
   4   8  -8   14.36    2.55
   4   8  -8   12.51    2.16
  -4  -8   8   13.89    2.54
  -4  -8   8   16.73    2.78
   3   8  -8    9.23    1.83
   3   8  -8    8.33    1.91
  -3  -8   8   12.44    2.37
  -3  -8   8   14.29    2.50
   2   8  -8    8.98    1.60
   2   8  -8    8.24    1.70
  -2  -8   8   10.34    2.02
  -2  -8   8   10.80    2.13
   1   8  -8   33.26    3.13
   1   8  -8   32.41    2.98
  -1  -8   8   28.35    3.19
  -1  -8   8   28.14    2.89
  -1  -8   8   30.69    3.19
  -1  -8   8   29.16    3.26
   0   8  -8   38.72    3.56
   0  -8   8   42.29    3.92
   0  -8   8   39.51    3.42
   0  -8   8   41.10    3.84
   0  -8   8   37.92    3.65
  -1   8  -8   15.74    2.26
  -1   8  -8   15.74    1.87
   1  -8   8   15.10    2.41
   1  -8   8   16.49    2.22
   1  -8   8   12.90    2.09
   1  -8   8   13.37    2.40
  -2   8  -8   26.54    2.75
  -2   8  -8   29.25    3.03
   2  -8   8   27.67    3.19
   2  -8   8   30.18    3.52
   2  -8   8   24.34    2.91
   2  -8   8   28.68    3.00
   2  -8   8   29.18    3.12
  -3   8  -8    6.33    1.70
  -3   8  -8    7.28    1.61
   3  -8   8    5.24    1.80
   3  -8   8    4.72    1.83
   3  -8   8    4.21    1.72
  -4   8  -8    5.88    1.77
  -4   8  -8    5.48    1.79
   4  -8   8    7.62    2.19
   4  -8   8   11.31    2.43
   4  -8   8    7.42    2.08
  -5   8  -8   12.54    2.52
  -5   8  -8   10.22    2.27
  -5   8  -8   12.30    2.48
   5  -8   8   12.11    2.70
   5  -8   8   14.92    2.72
   5  -8   8   16.30    3.01
   5   7  -8    9.74    2.17
   5   7  -8    8.98    2.57
   5   7  -8   12.48    2.19
  -5  -7   8    9.83    2.36
  -5  -7   8   11.02    2.44
   4   7  -8    8.67    1.78
   4   7  -8    8.51    2.02
  -4  -7   8   10.46    2.23
  -4  -7   8   15.35    2.58
   3   7  -8   22.98    2.71
   3   7  -8   21.75    2.69
  -3  -7   8   25.73    3.12
  -3  -7   8   26.42    3.01
   2   7  -8   16.51    2.33
   2   7  -8   16.61    2.07
  -2  -7   8   20.53    2.59
  -2  -7   8   16.55    2.47
   1   7  -8   13.65    2.06
   1   7  -8   13.00    1.91
  -1  -7   8   11.76    2.03
  -1  -7   8   11.57    2.11
  -1  -7   8   10.87    2.06
   0   7  -8    3.26    1.29
   0   7  -8    3.60    1.28
   0  -7   8    6.48    1.57
   0  -7   8    5.76    1.54
   0  -7   8    6.29    1.61
  -1   7  -8   14.59    2.12
  -1   7  -8   13.29    1.66
   1  -7   8   13.38    2.08
   1  -7   8   12.80    2.22
   1  -7   8   12.51    2.09
  -2   7  -8   10.32    1.82
  -2   7  -8    8.51    1.55
   2  -7   8    8.32    1.94
   2  -7   8    9.55    1.77
   2  -7   8    8.67    1.85
   2  -7   8   10.03    1.87
  -3   7  -8    6.60    1.72
  -3   7  -8    8.86    1.75
   3  -7   8   10.33    1.94
   3  -7   8   11.23    2.22
   3  -7   8   10.10    1.99
  -4   7  -8   14.76    2.25
  -4   7  -8   12.96    2.22
  -4   7  -8   16.15    2.42
   4  -7   8   10.62    2.22
   4  -7   8   14.45    2.40
   4  -7   8   11.13    2.14
   4  -7   8   11.61    2.45
  -5   7  -8    2.46    1.46
  -5   7  -8    1.30    1.44
  -5   7  -8    2.17    1.46
   5  -7   8    3.52    1.98
   5  -7   8    4.46    1.84
   5  -7   8    3.77    1.79
   6   6  -8   20.27    3.55
   6   6  -8   19.16    2.96
   6   6  -8   16.04    3.64
  -6  -6   8   33.63    3.64
  -6  -6   8   25.96    3.37
   5   6  -8   19.55    2.71
   5   6  -8   16.46    2.60
   5   6  -8   18.86    3.16
  -5  -6   8   14.61    2.66
  -5  -6   8   17.76    2.86
   4   6  -8   32.37    3.16
   4   6  -8   28.57    3.09
  -4  -6   8   25.16    3.22
  -4  -6   8   25.09    3.25
   3   6  -8   24.36    2.75
   3   6  -8   19.04    2.58
  -3  -6   8   28.70    3.01
  -3  -6   8   28.88    2.95
   2   6  -8   31.56    2.97
   2   6  -8   29.78    2.84
  -2  -6   8   24.72    2.99
  -2  -6   8   28.09    3.21
  -2  -6   8   23.91    2.91
   1   6  -8    3.99    1.19
   1   6  -8    3.36    1.33
   1   6  -8    3.19    1.30
  -1  -6   8    7.11    1.58
  -1  -6   8    8.29    1.64
  -1  -6   8    6.39    1.58
   0   6  -8   17.99    2.08
   0   6  -8   16.05    1.63
   0   6  -8   15.27    2.14
   0  -6   8   20.62    2.38
   0  -6   8   19.52    2.35
   0  -6   8   17.26    2.19
  -1   6  -8   15.03    1.71
  -1   6  -8   11.78    1.91
  -1   6  -8   14.97    2.09
   1  -6   8   16.05    2.09
   1  -6   8   16.52    2.40
   1  -6   8   15.74    2.36
   1  -6   8   17.19    2.20
  -2   6  -8   -0.27    0.69
   2  -6   8    2.97    1.36
   2  -6   8    3.04    1.20
   2  -6   8    2.72    1.28
   2  -6   8    2.34    1.16
  -3   6  -8   26.53    2.76
  -3   6  -8   22.16    2.57
   3  -6   8   25.72    2.89
   3  -6   8   22.54    2.70
   3  -6   8   23.94    2.96
  -4   6  -8    2.23    1.34
  -4   6  -8    0.21    1.26
  -4   6  -8    2.32    1.24
   4  -6   8    4.35    1.72
   4  -6   8    3.31    1.44
   4  -6   8    4.33    1.61
  -5   6  -8   13.06    2.08
  -5   6  -8   12.06    2.17
  -5   6  -8   11.78    2.13
   5  -6   8    8.73    1.99
   5  -6   8   11.88    2.46
   5  -6   8    7.30    2.07
   5  -6   8    9.23    2.10
  -6   6  -8    0.63    1.43
  -6   6  -8    0.05    1.17
  -6   6  -8   -0.21    1.29
   6  -6   8    0.79    1.79
   6  -6   8    0.42    1.60
   6  -6   8    0.40    1.52
   6   5  -8   35.33    3.66
   6   5  -8   30.84    3.63
   6   5  -8   32.64    3.91
  -6  -5   8   32.04    3.90
  -6  -5   8   33.49    3.86
   5   5  -8   10.87    2.34
   5   5  -8    8.25    1.92
   5   5  -8    9.19    1.93
  -5  -5   8    9.28    2.23
  -5  -5   8    9.38    2.18
   4   5  -8   26.78    2.99
   4   5  -8   23.67    2.77
   4   5  -8   24.69    3.12
  -4  -5   8   25.54    2.96
  -4  -5   8   32.89    3.25
   3   5  -8   64.05    4.89
   3   5  -8   65.80    4.84
  -3  -5   8   54.32    4.82
  -3  -5   8   56.67    4.95
   2   5  -8    8.89    1.73
   2   5  -8    8.20    1.77
   2   5  -8    7.70    1.62
  -2  -5   8   12.52    1.92
  -2  -5   8   12.68    2.08
  -2  -5   8   11.44    1.90
   1   5  -8   11.66    1.86
   1   5  -8   13.05    1.79
   1   5  -8   10.31    1.72
  -1  -5   8    8.99    1.67
  -1  -5   8    8.41    1.73
  -1  -5   8    9.75    1.77
   0   5  -8   29.89    2.74
   0   5  -8   28.42    2.60
   0   5  -8   25.49    2.57
   0   5  -8   26.16    2.22
   0  -5   8   28.04    2.71
   0  -5   8   28.62    2.73
   0  -5   8   26.25    2.76
   0  -5   8   28.43    2.80
  -1   5  -8    9.20    1.52
  -1   5  -8    9.74    1.40
  -1   5  -8   10.44    1.53
  -1   5  -8   10.99    1.78
   1  -5   8   10.39    1.92
   1  -5   8    8.57    1.65
   1  -5   8   11.51    2.01
   1  -5   8    8.58    1.59
  -2   5  -8   65.23    4.72
  -2   5  -8   63.89    4.59
  -2   5  -8   63.37    4.87
   2  -5   8   60.26    4.72
   2  -5   8   64.85    5.02
   2  -5   8   61.12    5.06
   2  -5   8   59.49    4.85
  -3   5  -8    4.93    1.41
  -3   5  -8    6.09    1.47
  -3   5  -8    6.58    1.30
  -3   5  -8    6.33    1.58
   3  -5   8    9.28    1.61
   3  -5   8   12.11    2.03
   3  -5   8   11.32    2.02
  -4   5  -8   22.02    2.51
  -4   5  -8   21.03    2.53
  -4   5  -8   23.90    2.76
  -4   5  -8   20.96    2.10
   4  -5   8   24.45    2.92
   4  -5   8   20.93    2.59
   4  -5   8   21.28    2.86
  -5   5  -8   13.22    2.25
  -5   5  -8   13.10    2.20
  -5   5  -8   12.70    2.26
  -5   5  -8   13.00    1.88
   5  -5   8   14.29    2.55
   5  -5   8   14.10    2.50
   5  -5   8   17.34    2.45
  -6   5  -8    5.82    1.92
  -6   5  -8    9.08    1.77
  -6   5  -8    5.13    1.65
   6  -5   8    7.65    2.08
   6  -5   8    5.94    1.96
   6  -5   8    7.23    2.29
   6  -5   8    8.25    2.11
   6   4  -8   25.82    3.02
   6   4  -8   24.49    3.02
   6   4  -8   26.87    3.48
  -6  -4   8   18.77    3.22
   5   4  -8   15.05    2.49
   5   4  -8   17.06    2.79
   5   4  -8   18.34    2.70
  -5  -4   8   20.44    2.86
  -5  -4   8   16.24    2.73
   4   4  -8   15.03    2.50
   4   4  -8   17.65    2.46
   4   4  -8   18.53    2.35
   3   4  -8   32.48    3.16
   3   4  -8   31.46    3.20
  -3  -4   8   35.66    3.41
  -3  -4   8   38.47    3.31
  -3  -4   8   34.85    3.59
   2   4  -8   28.07    2.86
   2   4  -8   31.37    2.96
   2   4  -8   31.57    3.10
  -2  -4   8   32.76    3.08
  -2  -4   8   32.30    3.22
  -2  -4   8   32.83    3.06
   1   4  -8   83.07    5.94
   1   4  -8   79.80    5.99
   1   4  -8   83.24    6.08
  -1  -4   8   81.57    5.77
  -1  -4   8   80.04    6.10
  -1  -4   8   83.63    6.12
  -1  -4   8   82.29    6.02
  -1  -4   8   83.45    6.18
   0   4  -8   12.11    1.60
   0   4  -8   12.06    1.62
   0   4  -8   11.01    1.34
   0  -4   8   14.90    1.81
   0  -4   8   15.67    1.91
   0  -4   8   15.24    1.93
   0  -4   8   15.56    1.94
  -1   4  -8   12.82    1.66
  -1   4  -8   12.40    1.78
  -1   4  -8   11.90    1.52
  -1   4  -8   11.84    1.46
   1  -4   8   16.68    1.85
   1  -4   8   17.14    2.08
   1  -4   8   17.31    2.17
   1  -4   8   18.11    2.07
  -2   4  -8    4.86    1.34
  -2   4  -8    4.59    1.04
  -2   4  -8    3.71    1.25
  -2   4  -8    4.49    1.11
   2  -4   8    7.90    1.32
   2  -4   8   10.28    2.04
   2  -4   8    7.45    1.61
   2  -4   8    9.08    1.50
   2  -4   8    7.09    1.60
  -3   4  -8   10.03    1.67
  -3   4  -8   10.93    1.36
  -3   4  -8   10.76    1.64
  -3   4  -8   11.34    1.79
  -3   4  -8   10.38    1.22
   3  -4   8    5.68    1.62
   3  -4   8    6.13    1.35
   3  -4   8    6.63    1.73
  -4   4  -8    4.18    1.02
  -4   4  -8    3.53    1.36
  -4   4  -8    5.05    1.41
  -4   4  -8    3.52    1.36
   4  -4   8    4.63    1.37
   4  -4   8    4.57    1.64
   4  -4   8    5.70    1.65
  -5   4  -8    9.60    1.59
  -5   4  -8   10.81    1.95
  -5   4  -8    9.53    1.93
   5  -4   8    7.85    1.77
   5  -4   8    8.82    2.20
   5  -4   8    9.12    2.05
  -6   4  -8    2.34    1.35
  -6   4  -8    1.91    1.27
  -6   4  -8    4.22    1.67
   6  -4   8    2.91    1.64
   6  -4   8    3.34    1.76
   6  -4   8    1.46    1.35
   6   3  -8    4.46    1.72
   6   3  -8    4.54    1.65
   6   3  -8    3.40    1.54
  -6  -3   8    3.05    1.84
   5   3  -8   14.63    2.40
   5   3  -8   10.84    2.01
   5   3  -8   11.95    2.16
  -5  -3   8    8.73    2.07
  -5  -3   8    8.97    1.99
   4   3  -8   20.52    2.78
   4   3  -8   23.11    2.62
   4   3  -8   19.60    2.52
  -4  -3   8   27.17    2.79
  -4  -3   8   25.75    2.80
   3   3  -8   15.82    1.55
   3   3  -8   17.30    2.10
   3   3  -8   17.09    2.16
   3   3  -8   13.23    2.18
   2   3  -8   60.19    5.02
   2   3  -8   60.85    5.02
   2   3  -8   60.06    5.17
   2   3  -8   58.71    4.68
  -2  -3   8   79.22    5.16
  -2  -3   8   81.32    5.44
  -2  -3   8   74.65    5.28
   1   3  -8   37.00    3.07
   1   3  -8   41.31    3.07
   1   3  -8   39.82    3.02
  -1  -3   8   31.29    2.90
  -1  -3   8   31.14    2.81
  -1  -3   8   31.01    3.03
  -1  -3   8   29.08    2.80
  -1  -3   8   31.45    3.07
   0   3  -8   71.63    5.01
   0   3  -8   71.32    4.95
   0   3  -8   74.24    4.94
   0   3  -8   74.52    4.77
   0  -3   8   63.14    5.16
   0  -3   8   64.17    5.19
   0  -3   8   65.26    4.95
   0  -3   8   64.02    5.14
  -1   3  -8   30.45    2.64
  -1   3  -8   31.87    2.77
  -1   3  -8   32.76    2.61
  -1   3  -8   31.38    2.84
   1  -3   8   37.58    3.19
   1  -3   8   37.01    2.92
   1  -3   8   34.72    3.31
   1  -3   8   36.94    3.15
  -2   3  -8   18.31    1.80
  -2   3  -8   18.91    1.39
  -2   3  -8   19.36    1.97
  -2   3  -8   19.17    1.71
   2  -3   8   11.86    1.98
   2  -3   8   14.76    2.36
   2  -3   8   13.40    2.15
   2  -3   8   13.91    1.79
   2  -3   8   13.34    1.64
  -3   3  -8   11.57    1.75
  -3   3  -8    9.81    1.65
  -3   3  -8   10.11    1.25
  -3   3  -8    9.82    1.20
   3  -3   8   13.79    2.18
   3  -3   8   13.88    1.64
   3  -3   8   11.21    1.94
  -4   3  -8    8.70    1.69
  -4   3  -8    9.48    1.32
  -4   3  -8    8.35    1.65
   4  -3   8    5.10    1.65
   4  -3   8    7.25    1.48
   4  -3   8    5.36    1.74
  -5   3  -8    8.53    1.46
  -5   3  -8    7.92    1.76
  -5   3  -8    7.49    1.57
   5  -3   8    5.59    1.77
   5  -3   8    6.93    1.61
   5  -3   8    5.31    1.79
  -6   3  -8    6.66    1.68
  -6   3  -8    6.43    1.49
  -6   3  -8    5.60    1.77
   6  -3   8    4.09    1.51
   6  -3   8    3.30    1.89
   6  -3   8    4.37    1.81
   6   2  -8    9.94    2.22
   6   2  -8    9.87    2.22
   6   2  -8    9.73    2.03
  -6  -2   8   12.45    2.39
   5   2  -8   38.61    3.94
   5   2  -8   42.93    3.82
   5   2  -8   40.67    3.84
  -5  -2   8   40.17    3.86
   4   2  -8   22.33    2.50
   4   2  -8   24.31    2.66
   4   2  -8   22.34    2.66
  -4  -2   8   19.51    2.56
  -4  -2   8   16.03    2.42
   3   2  -8   81.18    5.93
   3   2  -8   82.09    5.33
   3   2  -8   82.11    6.21
   3   2  -8   75.13    5.83
  -3  -2   8   81.25    6.17
  -3  -2   8   72.52    5.88
  -3  -2   8   75.14    5.80
   2   2  -8  170.41   11.06
   2   2  -8  174.32   10.58
   2   2  -8  162.31   10.91
   2   2  -8  168.24   10.91
  -2  -2   8  154.71   10.79
  -2  -2   8  155.22   10.64
  -2  -2   8  152.84   10.93
  -2  -2   8  162.19   11.01
   1   2  -8   15.27    1.89
   1   2  -8   15.94    1.85
   1   2  -8   17.82    1.68
   1   2  -8   16.58    1.74
   0   2  -8   74.68    5.41
   0   2  -8   79.05    4.89
   0   2  -8   76.79    5.18
   0   2  -8   78.94    5.56
   0   2  -8   79.46    5.38
   0  -2   8   74.58    5.57
   0  -2   8   75.50    5.65
   0  -2   8   74.02    5.67
   0  -2   8   71.41    5.28
  -1   2  -8  102.07    6.72
  -1   2  -8  102.88    6.83
  -1   2  -8   99.68    6.35
  -1   2  -8  100.74    6.29
  -1   2  -8   96.69    6.69
   1  -2   8   94.83    6.68
   1  -2   8   97.36    6.99
   1  -2   8   92.15    6.99
   1  -2   8   99.31    7.32
  -2   2  -8   35.26    2.72
  -2   2  -8   38.33    2.65
  -2   2  -8   35.47    3.06
  -2   2  -8   40.24    2.99
  -2   2  -8   39.57    3.22
  -2   2  -8   36.13    2.65
   2  -2   8   40.62    3.80
   2  -2   8   42.23    3.11
   2  -2   8   42.35    3.00
   2  -2   8   42.19    3.43
   2  -2   8   39.46    3.46
  -3   2  -8   60.75    4.62
  -3   2  -8   59.79    4.55
  -3   2  -8   62.42    4.17
  -3   2  -8   65.04    4.27
   3  -2   8   58.68    4.96
   3  -2   8   57.48    4.37
   3  -2   8   58.11    4.83
  -4   2  -8    7.00    1.43
  -4   2  -8    5.16    1.35
  -4   2  -8    5.17    1.05
   4  -2   8    6.85    1.33
   4  -2   8    5.40    1.60
   4  -2   8    5.09    1.60
  -5   2  -8   15.17    1.89
  -5   2  -8   12.99    2.10
   5  -2   8   12.94    1.88
   5  -2   8   13.58    2.54
   5  -2   8   11.33    2.19
  -6   2  -8    6.24    1.57
  -6   2  -8    6.37    1.76
  -6   2  -8    5.08    1.58
   6  -2   8    8.15    2.07
   6  -2   8    7.18    2.08
   6  -2   8    7.27    1.71
  -7   2  -8    1.14    1.45
  -7   2  -8    1.03    1.26
  -7   2  -8    0.86    1.26
   7  -2   8    1.27    1.88
   6   1  -8   29.24    3.48
   6   1  -8   29.35    3.28
   6   1  -8   29.51    3.29
  -6  -1   8   28.22    3.54
   5   1  -8   13.09    2.16
   5   1  -8   16.39    2.39
   5   1  -8   16.35    2.44
  -5  -1   8   11.21    2.15
   4   1  -8   57.34    4.91
   4   1  -8   58.73    4.93
   4   1  -8   61.69    4.85
  -4  -1   8   66.86    5.00
  -4  -1   8   63.37    5.07
   3   1  -8   35.63    3.15
   3   1  -8   35.64    3.30
   3   1  -8   38.34    2.54
   3   1  -8   35.42    3.09
  -3  -1   8   27.27    2.87
  -3  -1   8   29.84    3.01
  -3  -1   8   28.97    3.13
   2   1  -8   63.78    4.74
   2   1  -8   67.30    4.34
   2   1  -8   71.53    4.91
   2   1  -8   70.27    4.81
  -2  -1   8   56.40    4.06
  -2  -1   8   54.34    4.68
  -2  -1   8   59.79    4.59
  -2  -1   8   54.83    4.66
   1   1  -8   90.71    6.60
   1   1  -8   96.65    6.59
   1   1  -8   93.52    6.35
   1   1  -8   94.72    6.16
   1   1  -8   96.79    6.45
  -1  -1   8   89.67    6.58
  -1  -1   8   90.73    6.68
  -1  -1   8   93.45    6.42
  -1  -1   8   92.30    6.41
  -1  -1   8   95.64    5.89
   0   1  -8   31.97    2.26
   0   1  -8   31.71    2.26
   0   1  -8   31.58    2.56
   0   1  -8   32.31    2.77
   0   1  -8   34.82    2.70
   0  -1   8   30.63    2.86
   0  -1   8   30.20    2.50
   0  -1   8   27.94    2.90
   0  -1   8   28.72    2.71
  -1   1  -8   30.30    2.41
  -1   1  -8   26.10    2.59
  -1   1  -8   27.07    2.57
  -1   1  -8   30.56    2.74
   1  -1   8   38.91    3.13
   1  -1   8   37.78    2.48
   1  -1   8   36.92    2.65
   1  -1   8   40.67    3.04
   1  -1   8   37.08    3.27
  -2   1  -8   61.72    4.42
  -2   1  -8   59.55    4.17
  -2   1  -8   64.22    4.08
  -2   1  -8   60.08    4.45
   2  -1   8   54.04    4.96
   2  -1   8   58.69    4.10
   2  -1   8   59.92    4.63
   2  -1   8   57.00    4.74
   2  -1   8   58.68    4.20
  -3   1  -8   36.08    3.30
  -3   1  -8   39.25    2.91
  -3   1  -8   36.43    3.01
  -3   1  -8   36.21    3.28
   3  -1   8   47.00    3.13
   3  -1   8   48.05    3.92
   3  -1   8   44.30    3.62
  -4   1  -8   13.42    1.96
  -4   1  -8   16.97    1.77
  -4   1  -8   15.35    2.04
   4  -1   8   13.54    2.14
   4  -1   8   13.58    1.68
   4  -1   8   13.20    2.27
  -5   1  -8    2.64    1.20
  -5   1  -8    3.99    1.29
  -5   1  -8    3.88    1.21
   5  -1   8    5.44    1.23
   5  -1   8    2.64    1.39
   5  -1   8    4.38    1.70
  -6   1  -8    6.90    1.66
  -6   1  -8    6.15    1.70
  -6   1  -8    5.15    1.50
   6  -1   8    3.35    1.30
   6  -1   8    6.34    2.01
  -7   1  -8    6.55    1.83
  -7   1  -8    5.02    1.59
  -7   1  -8    5.00    1.81
   7  -1   8    6.98    2.17
   6   0  -8    0.23    1.37
   6   0  -8   -0.41    1.14
  -6   0   8    2.04    1.46
   5   0  -8   46.67    3.95
   5   0  -8   45.28    4.16
   5   0  -8   42.57    4.00
  -5   0   8   42.87    4.14
   4   0  -8    9.25    1.85
   4   0  -8   12.19    2.01
  -4   0   8   10.93    1.88
  -4   0   8   10.40    1.27
  -3   0   8   21.80    1.83
  -3   0   8   23.38    2.37
  -3   0   8   22.26    2.30
  -3   0   8   22.11    2.43
  -3   0   8   22.77    2.54
   2   0  -8    5.65    0.99
   2   0  -8    5.32    0.92
   2   0  -8    5.04    1.28
   2   0  -8    4.49    1.14
  -2   0   8    3.45    0.62
  -2   0   8    4.32    1.09
  -2   0   8    4.08    1.20
  -2   0   8    3.51    0.94
   1   0  -8   75.03    5.31
   1   0  -8   70.54    5.32
   1   0  -8   77.04    5.03
   1   0  -8   75.37    5.11
  -1   0   8   71.03    5.10
  -1   0   8   74.18    5.12
  -1   0   8   69.33    5.42
  -1   0   8   75.09    5.34
   0   0  -8   13.56    1.52
   0   0  -8   12.80    1.28
   0   0  -8   13.36    1.61
   0   0  -8   12.66    1.44
   0   0   8   11.17    1.32
   0   0   8   12.33    1.65
   0   0   8   12.19    1.72
  -1   0  -8  108.21    6.45
  -1   0  -8  103.25    6.77
  -1   0  -8  103.97    6.67
  -1   0  -8  105.46    6.58
   1   0   8   91.92    6.35
   1   0   8   89.22    6.83
   1   0   8   89.55    7.11
   1   0   8   89.51    6.17
   1   0   8   90.48    6.70
  -2   0  -8   39.73    3.54
  -2   0  -8   42.35    3.26
  -2   0  -8   42.64    3.57
  -2   0  -8   41.79    3.33
   2   0   8   55.02    4.36
   2   0   8   60.00    3.89
  -3   0  -8   27.47    1.94
  -3   0  -8   24.74    2.40
  -3   0  -8   27.39    2.43
  -3   0  -8   27.45    2.14
   3   0   8   19.51    2.37
   3   0   8   20.02    2.57
   3   0   8   20.91    1.90
  -4   0  -8   74.39    5.81
  -4   0  -8   75.77    5.57
  -4   0  -8   73.67    5.78
   4   0   8   82.54    6.30
   4   0   8   82.38    5.51
   4   0   8   87.28    6.10
  -5   0  -8    7.13    1.45
  -5   0  -8    5.86    1.46
  -5   0  -8    4.73    1.41
   5   0   8    8.59    1.81
   5   0   8    6.98    2.02
   5   0   8    7.13    1.32
  -6   0  -8    3.76    1.40
  -6   0  -8    5.06    1.44
  -6   0  -8    5.28    1.63
   6   0   8    5.31    2.09
  -7   0  -8   -0.44    1.21
  -7   0  -8    0.45    1.38
  -7   0  -8   -0.36    1.18
   7   0   8   -0.43    1.73
   6  -1  -8   16.12    2.51
  -6   1   8   14.29    2.51
   5  -1  -8    2.22    1.31
  -5   1   8    7.31    1.66
  -5   1   8    8.11    1.31
   4  -1  -8   52.25    4.20
   4  -1  -8   51.18    4.26
  -4   1   8   45.00    3.54
  -4   1   8   48.03    3.61
  -4   1   8   46.78    4.08
   3  -1  -8   11.42    1.85
   3  -1  -8   15.46    1.97
  -3   1   8   11.50    1.86
  -3   1   8   12.75    1.33
  -3   1   8   14.87    1.84
  -3   1   8   11.45    1.83
  -3   1   8   13.32    1.91
   2  -1  -8   91.67    6.45
   2  -1  -8   94.85    6.87
   2  -1  -8   88.04    6.86
   2  -1  -8   87.77    6.60
  -2   1   8  105.23    6.89
  -2   1   8  103.91    7.16
  -2   1   8  101.64    6.71
  -2   1   8  106.04    7.00
   1  -1  -8   37.30    2.85
   1  -1  -8   37.06    3.05
   1  -1  -8   37.47    3.08
   1  -1  -8   39.61    2.85
  -1   1   8   36.03    2.84
  -1   1   8   35.20    3.16
  -1   1   8   32.54    2.93
  -1   1   8   34.32    2.75
   0  -1  -8   50.29    3.79
   0  -1  -8   48.91    3.85
   0  -1  -8   49.22    3.94
   0  -1  -8   52.07    4.03
   0   1   8   54.87    4.02
   0   1   8   60.19    4.32
   0   1   8   56.43    3.69
  -1  -1  -8   86.66    6.29
  -1  -1  -8   83.06    6.09
  -1  -1  -8   82.75    6.14
  -1  -1  -8   87.90    6.24
   1   1   8   96.78    6.58
   1   1   8   95.81    6.32
   1   1   8   98.34    5.88
  -2  -1  -8   84.47    5.40
  -2  -1  -8   85.75    5.66
  -2  -1  -8   84.92    5.37
   2   1   8   70.29    5.60
   2   1   8   68.88    6.21
   2   1   8   76.97    5.90
  -3  -1  -8   27.86    2.42
  -3  -1  -8   26.83    2.62
  -3  -1  -8   31.73    2.74
  -4  -1  -8   11.32    1.77
  -4  -1  -8   13.55    1.87
  -4  -1  -8   10.94    1.59
   4   1   8    8.52    1.90
   4   1   8   10.04    1.69
  -5  -1  -8   30.15    2.89
  -5  -1  -8   26.10    2.66
  -5  -1  -8   26.98    2.97
   5   1   8   23.36    3.10
   5   1   8   24.40    2.80
  -6  -1  -8   17.04    2.43
  -6  -1  -8   18.08    2.42
  -6  -1  -8   18.47    2.65
   6   1   8   20.46    3.13
  -7  -1  -8    7.65    1.90
  -7  -1  -8    8.78    2.11
  -7  -1  -8    8.62    1.88
   7   1   8    5.98    2.24
   6  -2  -8   18.33    2.80
  -6   2   8   20.52    3.02
  -6   2   8   19.89    2.32
   5  -2  -8   24.10    2.92
   5  -2  -8   22.31    2.94
  -5   2   8   29.54    3.08
  -5   2   8   24.58    2.31
   4  -2  -8   15.83    2.49
   4  -2  -8   18.68    2.42
  -4   2   8   20.44    2.01
  -4   2   8   23.21    2.05
  -4   2   8   21.45    2.33
   3  -2  -8   68.29    5.60
   3  -2  -8   62.13    5.57
   3  -2  -8   65.25    5.44
  -3   2   8   82.86    5.56
  -3   2   8   83.62    5.98
  -3   2   8   83.44    6.05
  -3   2   8   82.07    5.69
   2  -2  -8   39.09    3.07
   2  -2  -8   39.88    2.90
   2  -2  -8   40.61    3.08
   2  -2  -8   39.44    2.62
  -2   2   8   28.08    2.85
  -2   2   8   29.19    2.63
  -2   2   8   28.88    2.93
  -2   2   8   26.71    3.04
  -2   2   8   28.86    2.74
   1  -2  -8   40.41    3.37
   1  -2  -8   38.09    3.30
   1  -2  -8   42.51    3.22
   1  -2  -8   41.88    3.12
  -1   2   8   41.71    3.19
  -1   2   8   41.75    3.51
  -1   2   8   40.82    3.02
  -1   2   8   39.76    3.25
   0  -2  -8   51.18    4.29
   0  -2  -8   54.87    4.24
   0  -2  -8   55.16    4.33
   0  -2  -8   55.60    4.23
   0   2   8   63.75    4.61
   0   2   8   62.08    3.98
   0   2   8   62.39    3.89
   0   2   8   64.88    4.37
  -1  -2  -8   34.89    2.68
  -1  -2  -8   39.86    2.77
  -1  -2  -8   39.70    2.82
   1   2   8   27.88    2.15
   1   2   8   29.98    2.90
   1   2   8   27.72    2.65
  -2  -2  -8  126.23    8.72
  -2  -2  -8  122.23    8.48
  -2  -2  -8  127.72    8.51
  -2  -2  -8  132.03    8.66
   2   2   8  131.24    8.71
   2   2   8  137.19    9.06
  -3  -2  -8   80.78    5.64
  -3  -2  -8   81.97    5.88
   3   2   8   80.51    5.79
   3   2   8   81.45    6.21
  -4  -2  -8   11.27    1.81
  -4  -2  -8   10.65    1.57
  -4  -2  -8    9.21    1.64
   4   2   8    9.40    1.60
   4   2   8    7.54    1.86
   4   2   8    9.93    1.62
  -5  -2  -8   12.18    2.11
  -5  -2  -8   15.19    2.16
  -5  -2  -8   15.85    2.15
   5   2   8   15.72    2.59
   5   2   8   17.84    1.96
  -6  -2  -8    4.25    1.55
  -6  -2  -8    4.43    1.44
  -6  -2  -8    3.20    1.33
   6   2   8    3.44    1.77
  -7  -2  -8    9.07    2.12
  -7  -2  -8   11.11    2.13
  -7  -2  -8    7.97    1.79
   7   2   8   10.29    2.54
   6  -3  -8   14.96    2.54
  -6   3   8   15.25    2.19
  -6   3   8   17.50    2.71
   5  -3  -8   12.31    1.95
   5  -3  -8   13.62    2.25
  -5   3   8    9.87    1.80
  -5   3   8   10.05    1.67
   4  -3  -8   38.06    3.53
   4  -3  -8   39.10    3.66
  -4   3   8   34.66    3.09
  -4   3   8   38.88    3.12
   3  -3  -8   39.46    3.41
   3  -3  -8   38.29    3.42
   3  -3  -8   41.96    3.33
  -3   3   8   37.37    3.21
  -3   3   8   35.22    3.64
  -3   3   8   33.06    3.42
  -3   3   8   34.63    3.10
   2  -3  -8   20.38    2.42
   2  -3  -8   23.71    2.11
   2  -3  -8   22.44    2.54
   2  -3  -8   23.29    2.37
  -2   3   8   29.52    2.66
  -2   3   8   26.42    2.24
  -2   3   8   24.29    2.31
  -2   3   8   25.98    2.88
  -2   3   8   27.69    2.54
   1  -3  -8   42.60    3.50
   1  -3  -8   41.51    3.27
   1  -3  -8   41.27    3.53
   1  -3  -8   40.68    3.55
  -1   3   8   46.49    3.40
  -1   3   8   44.63    3.43
  -1   3   8   46.48    3.69
  -1   3   8   45.63    3.20
   0  -3  -8   39.74    3.04
   0  -3  -8   40.99    3.15
   0  -3  -8   43.37    3.21
   0  -3  -8   40.55    3.09
   0  -3  -8   43.33    3.09
   0   3   8   34.70    2.72
   0   3   8   37.91    2.96
   0   3   8   34.51    3.18
   0   3   8   33.50    2.57
  -1  -3  -8   24.60    2.35
  -1  -3  -8   25.11    2.27
  -1  -3  -8   22.97    2.26
  -1  -3  -8   24.88    2.33
  -1  -3  -8   24.87    2.32
   1   3   8   32.06    2.67
  -2  -3  -8    9.19    1.49
  -2  -3  -8    9.81    1.37
  -2  -3  -8    8.93    1.52
  -3  -3  -8   35.48    3.11
  -3  -3  -8   37.69    3.15
  -3  -3  -8   36.94    2.86
  -3  -3  -8   38.65    3.00
   3   3   8   30.94    3.24
   3   3   8   30.20    2.86
  -4  -3  -8   17.47    2.25
  -4  -3  -8   22.45    2.33
  -4  -3  -8   21.76    2.44
   4   3   8   20.20    2.65
   4   3   8   23.78    2.33
   4   3   8   20.71    2.33
  -5  -3  -8    8.72    1.73
  -5  -3  -8    8.31    1.70
   5   3   8    6.81    1.86
   5   3   8    6.09    1.39
  -6  -3  -8   -0.75    1.00
  -6  -3  -8    0.88    1.20
   6   3   8    1.19    1.52
  -7  -3  -8    1.73    1.43
  -7  -3  -8    3.19    1.54
   7   3   8    2.28    1.86
  -6   4   8    7.54    1.66
   5  -4  -8   19.61    2.87
   5  -4  -8   15.86    2.46
  -5   4   8   20.32    2.25
  -5   4   8   21.92    2.33
   4  -4  -8   13.86    2.13
   4  -4  -8   14.87    2.14
   4  -4  -8   12.48    2.26
   4  -4  -8   12.72    2.29
  -4   4   8   13.13    1.80
  -4   4   8   12.63    1.82
  -4   4   8   13.17    1.84
   3  -4  -8   53.62    4.36
   3  -4  -8   52.81    4.22
   3  -4  -8   48.43    4.26
   3  -4  -8   55.50    4.32
  -3   4   8   48.68    4.16
  -3   4   8   49.21    4.49
   2  -4  -8    5.77    1.46
   2  -4  -8    5.65    1.40
   2  -4  -8    7.53    1.47
  -2   4   8    6.69    1.34
  -2   4   8    7.48    1.23
  -2   4   8   10.18    2.01
  -2   4   8    7.53    1.49
   1  -4  -8   21.91    2.02
   1  -4  -8   22.36    2.05
   1  -4  -8   25.13    2.32
   1  -4  -8   22.27    2.31
   1  -4  -8   23.91    2.27
  -1   4   8   20.00    1.95
  -1   4   8   19.78    2.28
  -1   4   8   21.97    1.84
  -1   4   8   20.31    2.14
   0  -4  -8   51.48    4.08
   0  -4  -8   56.11    4.09
   0  -4  -8   54.92    4.02
   0  -4  -8   54.71    4.16
   0  -4  -8   52.63    3.99
   0   4   8   49.08    4.09
   0   4   8   51.52    3.81
   0   4   8   53.87    3.85
  -1  -4  -8   11.64    1.68
  -1  -4  -8   10.75    1.48
  -1  -4  -8   11.01    1.57
  -1  -4  -8    9.58    1.47
   1   4   8    6.60    1.53
  -2  -4  -8   26.98    2.68
  -2  -4  -8   26.00    2.41
  -2  -4  -8   26.39    2.66
   2   4   8   34.49    2.94
   2   4   8   33.19    2.98
   2   4   8   31.60    2.45
  -3  -4  -8   11.26    1.58
  -3  -4  -8    9.64    1.66
  -3  -4  -8    9.37    1.33
  -3  -4  -8   10.53    1.72
  -4  -4  -8    9.02    1.77
  -4  -4  -8    9.31    1.62
  -4  -4  -8    8.35    1.69
   4   4   8    8.97    1.93
   4   4   8   11.75    1.85
  -5  -4  -8    8.24    1.78
  -5  -4  -8    6.46    1.71
  -5  -4  -8    6.65    1.64
   5   4   8    5.77    1.84
   5   4   8    8.15    1.58
  -6  -4  -8   29.25    3.13
  -6  -4  -8   29.99    3.17
   6   4   8   28.25    3.74
  -7  -4  -8   -0.25    1.11
  -7  -4  -8   -1.52    1.17
   7   4   8    1.64    1.58
   7   4   8    0.46    1.69
   5  -5  -8    9.04    1.99
  -5   5   8    7.65    1.72
  -5   5   8    9.57    1.76
   4  -5  -8   26.60    2.91
   4  -5  -8   26.01    2.62
   4  -5  -8   25.70    2.88
  -4   5   8   23.37    2.48
  -4   5   8   22.61    2.55
  -4   5   8   21.74    2.54
   3  -5  -8   27.11    3.06
   3  -5  -8   27.45    3.04
   3  -5  -8   28.15    3.08
  -3   5   8   36.86    3.17
  -3   5   8   34.21    3.68
  -3   5   8   36.83    3.04
   2  -5  -8   63.18    4.36
   2  -5  -8   59.02    4.77
   2  -5  -8   59.54    4.89
   2  -5  -8   59.33    4.82
  -2   5   8   61.51    4.65
  -2   5   8   60.83    5.00
  -2   5   8   65.05    4.94
  -2   5   8   59.04    4.43
   1  -5  -8   51.67    3.69
   1  -5  -8   49.09    3.61
   1  -5  -8   47.69    3.85
   1  -5  -8   49.55    3.95
  -1   5   8   46.26    3.87
  -1   5   8   43.78    3.45
  -1   5   8   45.49    3.95
  -1   5   8   45.68    3.78
  -1   5   8   44.33    3.45
   0  -5  -8    7.17    1.37
   0  -5  -8    5.62    1.31
   0  -5  -8    6.43    1.23
   0  -5  -8    5.51    1.20
   0   5   8    8.45    1.58
   0   5   8    7.64    1.02
   0   5   8    6.45    1.28
  -1  -5  -8   78.68    5.57
  -1  -5  -8   79.19    5.81
  -1  -5  -8   75.84    5.74
  -1  -5  -8   78.58    5.86
   1   5   8   80.39    5.98
   1   5   8   81.12    5.88
   1   5   8   83.92    5.40
  -2  -5  -8   23.83    2.44
  -2  -5  -8   25.84    2.48
  -2  -5  -8   25.06    2.48
  -2  -5  -8   24.82    2.09
   2   5   8   21.51    2.47
   2   5   8   18.03    2.48
  -3  -5  -8   38.61    3.84
  -3  -5  -8   44.13    3.80
  -3  -5  -8   43.80    3.91
   3   5   8   55.70    4.11
   3   5   8   54.91    4.27
  -4  -5  -8   27.68    2.85
  -4  -5  -8   28.35    2.70
  -4  -5  -8   27.74    2.85
   4   5   8   24.75    2.78
   4   5   8   22.64    3.04
  -5  -5  -8   11.62    2.20
  -5  -5  -8   14.24    2.28
  -5  -5  -8   14.52    2.29
   5   5   8   14.59    2.16
   5   5   8   17.71    2.72
  -6  -5  -8    7.79    2.11
  -6  -5  -8   10.15    2.03
  -6  -5  -8    7.80    1.83
   6   5   8   10.49    2.22
   6   5   8   11.48    2.56
   5  -6  -8   15.93    2.58
  -5   6   8   11.64    2.13
  -5   6   8   12.64    2.06
   4  -6  -8   11.37    2.08
   4  -6  -8   12.39    2.36
  -4   6   8    7.50    1.66
  -4   6   8    8.28    1.69
  -4   6   8    7.80    1.73
   3  -6  -8   27.82    2.86
   3  -6  -8   25.07    2.89
  -3   6   8   21.06    2.54
  -3   6   8   19.22    2.24
  -3   6   8   20.39    2.50
   2  -6  -8   65.96    5.23
   2  -6  -8   61.36    4.55
   2  -6  -8   62.05    5.12
   2  -6  -8   60.32    4.94
  -2   6   8   63.04    5.04
  -2   6   8   65.51    4.84
  -2   6   8   68.11    5.51
   1  -6  -8   20.64    2.22
   1  -6  -8   21.05    2.50
   1  -6  -8   23.20    2.46
  -1   6   8   27.33    2.70
  -1   6   8   25.78    2.38
   0  -6  -8   90.90    6.32
   0  -6  -8   85.19    6.50
   0  -6  -8   87.15    6.33
   0  -6  -8   90.36    6.38
   0   6   8   95.52    6.48
   0   6   8   87.67    6.60
  -1  -6  -8   28.22    2.38
  -1  -6  -8   25.86    2.72
  -1  -6  -8   27.90    2.73
  -1  -6  -8   25.36    2.64
   1   6   8   28.20    2.84
   1   6   8   27.69    2.74
  -2  -6  -8   18.12    2.35
  -2  -6  -8   21.58    2.55
  -2  -6  -8   20.92    2.40
   2   6   8   25.58    2.66
   2   6   8   27.27    2.57
  -3  -6  -8   16.47    2.31
  -3  -6  -8   16.01    2.21
   3   6   8   12.69    2.14
   3   6   8   13.89    2.29
  -4  -6  -8   18.80    2.49
  -4  -6  -8   17.46    2.35
  -4  -6  -8   19.20    2.61
   4   6   8   13.88    2.27
   4   6   8   15.58    2.51
  -5  -6  -8    6.57    1.72
  -5  -6  -8    6.30    1.70
  -5  -6  -8    5.14    1.54
   5   6   8    2.93    1.43
   5   6   8    4.27    1.52
   5   6   8    6.19    1.85
  -6  -6  -8   15.15    2.42
  -6  -6  -8   14.93    2.56
  -6  -6  -8   15.86    2.54
   6   6   8   10.59    2.49
   6   6   8    8.75    2.40
   5  -7  -8   15.99    2.73
  -5   7   8   13.72    2.29
  -5   7   8   19.36    2.67
  -5   7   8   21.67    2.79
   4  -7  -8   11.17    2.34
   4  -7  -8    9.67    2.24
  -4   7   8   11.97    2.04
  -4   7   8   11.73    2.00
  -4   7   8   11.31    2.11
   3  -7  -8   25.94    2.84
   3  -7  -8   22.48    2.99
  -3   7   8   15.74    2.45
  -3   7   8   16.36    2.47
   2  -7  -8   10.47    2.15
   2  -7  -8   13.64    2.19
  -2   7   8    9.40    1.79
  -2   7   8    9.32    1.90
   1  -7  -8   14.32    2.23
   1  -7  -8   17.23    1.97
   1  -7  -8   14.50    2.34
  -1   7   8   13.74    2.25
  -1   7   8   17.51    1.93
   0  -7  -8   33.64    3.31
   0  -7  -8   35.04    2.93
   0  -7  -8   35.61    3.10
   0   7   8   34.36    2.99
   0   7   8   31.16    3.29
  -1  -7  -8   33.62    3.02
  -1  -7  -8   31.69    3.14
   1   7   8   30.91    2.93
   1   7   8   32.55    3.22
  -2  -7  -8   50.85    4.14
  -2  -7  -8   51.62    4.07
  -2  -7  -8   48.49    4.05
   2   7   8   42.18    4.06
   2   7   8   44.61    4.00
  -3  -7  -8   18.69    2.55
  -3  -7  -8   19.97    2.53
   3   7   8   21.96    2.60
   3   7   8   21.60    2.34
   3   7   8   18.34    2.55
  -4  -7  -8    9.65    1.93
  -4  -7  -8   13.19    2.29
   4   7   8    6.45    1.86
   4   7   8    8.91    1.87
   4   7   8    7.42    1.89
  -5  -7  -8   17.96    2.69
  -5  -7  -8   16.08    2.48
  -5  -7  -8   15.20    2.42
   5   7   8   16.52    2.70
   5   7   8   13.59    2.51
   5   7   8   16.14    2.55
  -6  -7  -8    3.46    1.71
  -6  -7  -8    2.88    1.55
   6   7   8    4.79    2.06
   6   7   8    6.37    1.97
   4  -8  -8   14.02    2.71
   4  -8  -8   13.90    2.61
  -4   8   8   14.48    2.39
  -4   8   8   13.21    2.23
   3  -8  -8   37.15    3.81
   3  -8  -8   33.87    3.85
  -3   8   8   34.60    3.53
  -3   8   8   37.87    3.67
   2  -8  -8   28.23    3.09
   2  -8  -8   27.94    3.17
  -2   8   8   25.14    2.91
  -2   8   8   25.96    3.10
   1  -8  -8   57.99    5.04
   1  -8  -8   60.94    5.03
   1  -8  -8   61.72    4.65
  -1   8   8   60.15    5.03
   0  -8  -8   21.97    2.43
   0  -8  -8   22.14    2.60
   0   8   8   17.87    2.65
  -1  -8  -8   27.78    3.07
  -1  -8  -8   31.51    3.25
   1   8   8   34.35    3.04
   1   8   8   32.74    3.34
  -2  -8  -8   34.22    3.59
  -2  -8  -8   30.05    3.28
   2   8   8   39.36    3.38
   2   8   8   36.45    3.58
  -3  -8  -8   11.45    2.16
  -3  -8  -8   13.99    2.18
   3   8   8   11.14    2.22
   3   8   8   10.23    2.06
  -4  -8  -8   11.30    2.25
   4   8   8   13.96    2.39
   4   8   8   12.68    2.21
   4   8   8   11.60    2.07
  -5  -8  -8    9.61    2.23
   5   8   8   12.62    2.27
   5   8   8    9.73    2.18
   5   8   8   12.39    2.35
   4  -9  -8    9.80    2.57
   4  -9  -8   12.75    2.80
  -4   9   8   16.99    2.65
  -4   9   8   16.48    2.61
   3  -9  -8    7.85    2.14
   3  -9  -8    9.34    2.22
  -3   9   8    7.96    2.02
  -3   9   8   10.65    2.20
   2  -9  -8   27.82    3.37
   2  -9  -8   26.98    3.55
  -2   9   8   30.68    3.34
  -2   9   8   32.90    3.36
   1  -9  -8   19.09    2.29
   1  -9  -8   19.07    2.77
   1  -9  -8   19.47    2.94
  -1   9   8   18.39    2.81
  -1   9   8   18.06    2.63
   0  -9  -8   29.77    3.09
   0  -9  -8   25.77    2.81
   0   9   8   26.43    3.09
   0   9   8   22.26    2.80
  -1  -9  -8   32.82    3.42
  -1  -9  -8   38.91    3.80
   1   9   8   33.19    3.60
  -2  -9  -8    8.37    1.99
  -2  -9  -8   10.37    1.98
   2   9   8   11.16    2.26
  -3  -9  -8   24.14    3.14
  -3  -9  -8   25.33    3.15
   3   9   8   35.80    3.30
   3   9   8   30.51    3.40
  -4  -9  -8    9.85    2.33
   4   9   8   13.91    2.39
   4   9   8   14.92    2.53
  -5  -9  -8    4.52    2.03
   5   9   8    7.54    2.06
   5   9   8    5.26    1.95
   3 -10  -8    1.38    1.87
   3 -10  -8    0.68    1.75
  -3  10   8    0.41    1.44
  -3  10   8    0.82    1.59
  -3  10   8   -1.44    1.29
   2 -10  -8   26.93    3.67
   2 -10  -8   29.10    3.41
  -2  10   8   23.12    3.23
  -2  10   8   24.89    3.35
   1 -10  -8    5.48    1.51
   1 -10  -8    4.79    1.93
   1 -10  -8    5.77    2.00
  -1  10   8   14.21    2.64
  -1  10   8   11.05    2.14
   0 -10  -8   11.33    2.07
   0 -10  -8    8.79    2.08
   0  10   8   11.06    2.17
   0  10   8   12.01    2.54
  -1 -10  -8   15.30    2.53
  -1 -10  -8   17.56    2.83
   1  10   8   13.97    2.39
   1  10   8   16.29    2.79
  -2 -10  -8   23.17    3.19
  -2 -10  -8   22.00    2.73
   2  10   8   16.16    2.58
   2  10   8   15.01    2.77
  -3 -10  -8    8.33    2.08
  -3 -10  -8    9.41    2.09
   3  10   8    8.95    2.22
   3  10   8    8.52    1.96
  -4 -10  -8   12.36    2.56
  -4 -10  -8   12.61    2.62
   4  10   8   11.11    2.53
   4  10   8   10.19    2.09
   2 -11  -8    3.09    1.92
   2 -11  -8    5.37    2.07
  -2  11   8   -0.16    1.54
  -2  11   8    0.09    1.58
   1 -11  -8   16.88    3.02
   1 -11  -8   17.97    2.96
   1 -11  -8   17.04    3.18
  -1  11   8   16.43    2.96
  -1  11   8   14.20    2.50
   0 -11  -8   12.38    2.40
   0 -11  -8   13.19    2.60
   0  11   8   15.37    2.52
   0  11   8   15.27    2.77
  -1 -11  -8    7.99    2.06
  -1 -11  -8    6.77    2.14
   1  11   8    6.91    2.14
   1  11   8    8.23    2.18
  -2 -11  -8    9.62    2.29
  -2 -11  -8   10.60    2.30
   2  11   8   10.07    2.39
   2  11   8   12.30    2.37
  -3 -11  -8   18.21    3.01
  -3 -11  -8   19.85    3.05
   3  11   8   17.45    2.77
   3  11   8   17.54    3.13
   0 -12  -8    0.82    1.77
   0 -12  -8    1.73    1.64
   0  12   8    2.54    1.98
   0  12   8    2.33    1.79
  -1 -12  -8   18.08    2.97
  -1 -12  -8   17.67    2.83
   1  12   8   13.94    2.81
   1  12   8   13.76    2.66
   1  11  -9   21.58    2.94
   1  11  -9   18.07    2.84
  -1 -11   9   19.02    3.22
  -1 -11   9   18.88    3.26
   0  11  -9    3.68    1.75
   0 -11   9    4.58    2.08
   0 -11   9    4.02    1.86
   1 -11   9    0.10    1.77
   1 -11   9    0.20    1.55
   3  10  -9    1.26    1.62
  -3 -10   9    3.75    1.83
  -3 -10   9    1.07    1.99
  -3 -10   9    4.54    1.84
   2  10  -9   19.52    2.87
   2  10  -9   19.69    2.57
  -2 -10   9   21.12    3.28
  -2 -10   9   19.13    2.92
  -2 -10   9   22.39    3.25
   1  10  -9    0.62    1.35
   1  10  -9    2.20    1.50
  -1 -10   9    1.38    1.62
  -1 -10   9    0.66    1.77
   0  10  -9   24.92    3.19
   0 -10   9   23.10    3.38
   0 -10   9   29.97    3.56
  -1  10  -9   11.17    2.34
   1 -10   9    9.48    2.36
   1 -10   9   10.71    2.20
   1 -10   9   11.49    2.51
  -2  10  -9    2.14    1.51
   2 -10   9    0.44    1.59
   2 -10   9    0.95    1.60
   2 -10   9    0.45    1.62
   2 -10   9    0.20    1.50
   4   9  -9    2.70    1.67
  -4  -9   9    7.14    2.27
  -4  -9   9    5.44    2.07
   3   9  -9    7.19    1.82
   3   9  -9    4.57    1.83
  -3  -9   9    5.69    2.02
  -3  -9   9    8.28    2.17
   2   9  -9    4.40    1.42
   2   9  -9    3.22    1.52
   2   9  -9    4.50    1.68
  -2  -9   9    2.15    1.74
  -2  -9   9    3.48    1.62
  -2  -9   9    5.25    2.05
   1   9  -9    0.75    1.21
   1   9  -9    2.02    1.29
  -1  -9   9   -0.36    1.06
  -1  -9   9    0.46    1.36
  -1  -9   9    0.69    1.46
   0   9  -9   17.88    2.51
   0  -9   9   13.56    2.62
   0  -9   9   11.94    2.06
   0  -9   9   13.60    2.27
   0  -9   9   13.83    2.59
  -1   9  -9   12.10    2.32
   1  -9   9   15.80    2.67
   1  -9   9   17.51    2.80
   1  -9   9   17.86    2.49
  -2   9  -9   16.70    2.56
   2  -9   9   15.26    2.77
   2  -9   9   15.62    2.79
   2  -9   9   15.41    2.55
   2  -9   9   13.97    2.59
  -3   9  -9    7.62    2.04
  -3   9  -9    7.12    1.72
   3  -9   9    4.61    1.79
   3  -9   9    6.29    2.18
   3  -9   9    6.10    2.09
   4   8  -9   20.16    3.08
   4   8  -9   23.10    2.94
  -4  -8   9   18.98    3.15
  -4  -8   9   22.46    3.43
   3   8  -9    8.06    1.83
   3   8  -9    5.31    1.72
  -3  -8   9    8.69    2.14
  -3  -8   9    9.05    2.16
   2   8  -9    2.72    1.32
   2   8  -9    3.67    1.60
  -2  -8   9   -0.39    1.29
  -2  -8   9    0.61    1.26
  -2  -8   9    0.62    1.49
   1   8  -9   24.46    2.81
   1   8  -9   23.00    2.83
  -1  -8   9   24.68    3.03
  -1  -8   9   26.87    3.08
  -1  -8   9   24.15    3.29
   0   8  -9    3.57    1.36
   0  -8   9    0.24    1.01
   0  -8   9    1.19    1.35
   0  -8   9    1.63    1.48
   0  -8   9   -0.63    1.19
  -1   8  -9   18.37    2.51
   1  -8   9   15.68    2.41
   1  -8   9   13.49    2.46
   1  -8   9   13.24    2.38
  -2   8  -9    2.61    1.51
  -2   8  -9    2.49    1.06
   2  -8   9    0.87    1.36
   2  -8   9    3.51    1.55
   2  -8   9    2.73    1.48
   2  -8   9    1.23    1.54
   2  -8   9    1.63    1.26
  -3   8  -9   13.99    2.14
  -3   8  -9   13.94    2.45
   3  -8   9    7.53    2.16
   3  -8   9   12.80    2.35
   3  -8   9   11.55    2.58
  -4   8  -9   10.13    2.11
  -4   8  -9    8.85    2.17
  -4   8  -9    8.56    1.89
   4  -8   9    6.83    2.21
   4  -8   9    6.22    2.22
   4  -8   9    6.49    2.00
   5   7  -9   13.24    2.46
   5   7  -9   14.00    2.67
  -5  -7   9   17.37    3.02
  -5  -7   9   16.64    3.10
   4   7  -9   16.63    2.69
   4   7  -9   21.23    2.77
  -4  -7   9   18.59    3.06
  -4  -7   9   17.97    2.96
   3   7  -9   18.47    2.72
   3   7  -9   16.66    2.39
  -3  -7   9   13.55    2.51
  -3  -7   9   13.36    2.56
   2   7  -9   31.34    3.32
   2   7  -9   31.38    3.36
  -2  -7   9   34.96    3.54
  -2  -7   9   41.83    3.81
  -2  -7   9   33.87    3.54
   1   7  -9   22.85    2.61
   1   7  -9   22.71    2.67
   1   7  -9   25.67    2.78
  -1  -7   9   21.90    3.00
  -1  -7   9   22.76    2.77
  -1  -7   9   25.31    2.97
   0   7  -9   20.12    2.40
   0  -7   9   19.93    2.54
   0  -7   9   16.44    2.51
   0  -7   9   19.74    2.64
  -1   7  -9   17.15    2.50
  -1   7  -9   20.37    2.11
   1  -7   9   21.97    2.82
   1  -7   9   21.25    2.67
   1  -7   9   22.92    3.05
  -2   7  -9    4.60    1.34
  -2   7  -9    5.28    1.55
   2  -7   9    5.61    1.85
   2  -7   9    6.23    1.84
   2  -7   9    6.43    1.55
   2  -7   9    8.27    1.92
  -3   7  -9    3.67    1.32
  -3   7  -9    3.32    1.44
   3  -7   9    1.54    1.68
   3  -7   9    1.16    1.32
   3  -7   9    1.02    1.40
  -4   7  -9   16.67    2.61
  -4   7  -9   17.96    2.71
  -4   7  -9   18.87    2.90
   4  -7   9   26.98    3.21
   4  -7   9   21.19    3.25
   4  -7   9   22.25    3.09
  -5   7  -9    2.59    1.49
  -5   7  -9    4.53    1.78
  -5   7  -9    1.69    1.50
   5  -7   9    2.66    1.54
   5  -7   9    4.90    2.02
   5  -7   9    1.71    1.90
   5   6  -9    9.36    2.09
   5   6  -9    8.64    2.19
  -5  -6   9    8.40    2.25
  -5  -6   9    8.63    2.40
   4   6  -9   10.53    2.14
   4   6  -9    7.61    1.92
  -4  -6   9    9.41    2.18
  -4  -6   9   10.71    2.27
   3   6  -9   31.55    3.43
   3   6  -9   33.64    3.47
  -3  -6   9   39.17    3.90
  -3  -6   9   38.50    3.78
   2   6  -9   30.03    3.02
   2   6  -9   30.20    3.01
  -2  -6   9   24.04    3.11
  -2  -6   9   27.97    3.16
   1   6  -9   10.73    1.88
   1   6  -9   11.41    2.07
  -1  -6   9   13.01    2.15
  -1  -6   9   11.64    2.09
  -1  -6   9   14.31    2.36
   0   6  -9   13.22    1.97
   0   6  -9   13.97    2.08
   0  -6   9   15.82    2.42
   0  -6   9   15.59    2.33
   0  -6   9   16.88    2.40
  -1   6  -9    3.21    1.30
  -1   6  -9    3.14    0.96
  -1   6  -9    2.92    1.14
   1  -6   9    2.61    1.27
   1  -6   9    2.42    1.40
   1  -6   9    1.47    1.18
  -2   6  -9   19.60    2.35
  -2   6  -9   16.66    2.08
  -2   6  -9   17.88    1.99
   2  -6   9   15.15    2.20
   2  -6   9   16.39    2.42
   2  -6   9   13.79    2.46
   2  -6   9   15.96    2.43
  -3   6  -9    8.39    1.67
  -3   6  -9    8.57    1.87
  -3   6  -9    6.79    1.66
   3  -6   9    9.69    1.79
   3  -6   9    8.05    2.03
   3  -6   9    8.25    1.90
  -4   6  -9   10.61    2.00
  -4   6  -9   11.30    2.15
  -4   6  -9   11.39    2.12
   4  -6   9    8.55    1.87
   4  -6   9    8.59    2.13
   4  -6   9    8.39    2.21
  -5   6  -9    8.11    2.07
  -5   6  -9    8.06    1.94
  -5   6  -9   10.08    2.17
   5  -6   9   12.13    2.57
   5  -6   9   13.86    2.48
   5  -6   9   14.33    2.61
   6   5  -9    3.45    1.86
   6   5  -9    3.05    1.84
  -6  -5   9   -0.02    1.53
  -6  -5   9    0.33    1.60
   5   5  -9   32.56    3.40
   5   5  -9   26.97    3.30
  -5  -5   9   26.33    3.49
  -5  -5   9   22.96    3.45
   4   5  -9    2.29    1.43
   4   5  -9    1.61    1.28
  -4  -5   9    1.71    1.53
  -4  -5   9    1.66    1.33
   3   5  -9   15.26    2.32
   3   5  -9   15.92    2.45
  -3  -5   9   18.38    2.63
  -3  -5   9   15.73    2.40
   2   5  -9   27.18    2.81
   2   5  -9   30.57    2.94
  -2  -5   9   25.42    2.97
  -2  -5   9   23.43    2.78
   1   5  -9   18.34    2.29
   1   5  -9   19.00    2.36
  -1  -5   9   17.17    2.20
  -1  -5   9   17.55    2.35
  -1  -5   9   19.36    2.43
   0   5  -9   30.56    2.53
   0   5  -9   33.25    3.01
   0  -5   9   29.02    3.08
   0  -5   9   31.82    3.24
   0  -5   9   31.29    3.00
  -1   5  -9   18.78    2.10
  -1   5  -9   15.66    1.83
  -1   5  -9   16.31    2.14
   1  -5   9   17.77    2.16
   1  -5   9   18.90    2.54
   1  -5   9   16.22    2.50
   1  -5   9   18.17    2.44
  -2   5  -9   14.19    2.24
  -2   5  -9   14.86    1.87
  -2   5  -9   18.08    2.06
  -2   5  -9   16.40    2.32
   2  -5   9   20.14    2.68
   2  -5   9   18.04    2.29
   2  -5   9   16.04    2.49
   2  -5   9   19.58    2.18
  -3   5  -9    8.40    1.82
  -3   5  -9   13.78    2.02
  -3   5  -9   14.37    2.15
   3  -5   9   11.09    2.22
   3  -5   9   10.20    2.26
   3  -5   9   12.39    1.91
  -4   5  -9   15.25    2.31
  -4   5  -9   15.92    2.38
  -4   5  -9   16.25    2.33
   4  -5   9   13.42    2.19
   4  -5   9   12.02    2.41
   4  -5   9   12.74    2.46
  -5   5  -9    9.10    1.97
  -5   5  -9    8.42    1.84
   5  -5   9    4.89    1.83
   5  -5   9    5.19    2.03
   5  -5   9    8.95    1.99
  -6   5  -9   -1.30    1.03
  -6   5  -9    0.36    1.63
   6  -5   9   -0.36    1.76
   6  -5   9   -1.12    1.53
   6  -5   9    0.34    1.43
   6   4  -9   12.99    2.81
   6   4  -9   14.85    2.55
   6   4  -9   13.17    2.52
  -6  -4   9   15.31    2.75
  -6  -4   9   16.57    3.00
   5   4  -9    5.76    1.80
   5   4  -9    6.63    1.90
  -5  -4   9    8.44    2.08
  -5  -4   9    6.75    2.01
   4   4  -9   51.90    4.48
   4   4  -9   48.31    4.41
  -4  -4   9   49.28    4.61
  -4  -4   9   52.96    4.54
   3   4  -9   29.50    2.46
   3   4  -9   27.18    2.91
   3   4  -9   30.87    3.01
  -3  -4   9   26.82    3.19
  -3  -4   9   23.58    2.83
   2   4  -9   17.73    2.30
   2   4  -9   17.74    2.30
   2   4  -9   18.62    2.35
  -2  -4   9   21.45    2.52
  -2  -4   9   22.23    2.50
  -2  -4   9   19.42    2.53
   1   4  -9   33.57    3.37
   1   4  -9   33.54    3.45
  -1  -4   9   45.45    3.88
  -1  -4   9   44.07    3.55
  -1  -4   9   47.85    3.81
   0   4  -9   28.35    2.29
   0   4  -9   29.46    2.64
   0   4  -9   25.46    2.71
   0  -4   9   25.07    2.76
   0  -4   9   27.63    2.80
   0  -4   9   26.48    2.84
   0  -4   9   26.33    2.74
  -1   4  -9   72.43    5.40
  -1   4  -9   69.40    5.45
  -1   4  -9   69.72    5.22
   1  -4   9   72.61    5.72
   1  -4   9   77.76    6.01
   1  -4   9   81.15    5.87
   1  -4   9   78.46    5.58
  -2   4  -9   18.27    2.23
  -2   4  -9   19.62    2.14
  -2   4  -9   17.64    2.32
   2  -4   9   26.70    2.50
   2  -4   9   25.25    2.76
   2  -4   9   26.26    2.34
   2  -4   9   25.56    2.73
  -3   4  -9    8.78    1.74
  -3   4  -9   11.49    1.77
   3  -4   9   10.13    2.01
   3  -4   9    8.51    1.93
   3  -4   9   11.41    1.72
  -4   4  -9   13.06    2.11
  -4   4  -9   12.79    2.13
   4  -4   9   13.58    2.45
   4  -4   9   19.43    2.20
   4  -4   9   14.19    2.44
  -5   4  -9    4.27    1.60
  -5   4  -9    1.84    1.52
   5  -4   9    1.92    1.28
   5  -4   9    0.23    1.43
   5  -4   9    1.85    1.46
  -6   4  -9    6.98    1.89
  -6   4  -9    6.64    1.95
   6  -4   9    5.28    2.09
   6  -4   9    5.99    2.20
   6  -4   9    6.43    2.12
   6   3  -9   -0.45    1.42
   6   3  -9    1.54    1.66
   6   3  -9    2.23    1.57
  -6  -3   9    1.32    1.60
  -6  -3   9    2.24    1.74
   5   3  -9   35.80    3.87
   5   3  -9   39.80    3.98
  -5  -3   9   45.89    4.21
  -5  -3   9   42.93    4.33
   4   3  -9   14.79    2.35
   4   3  -9   12.01    2.10
  -4  -3   9   10.10    2.03
  -4  -3   9   13.53    2.26
   3   3  -9   29.67    3.12
   3   3  -9   31.05    3.25
   3   3  -9   34.33    2.68
  -3  -3   9   31.87    3.12
  -3  -3   9   31.88    3.40
  -3  -3   9   35.42    3.43
   2   3  -9   68.29    4.91
   2   3  -9   67.47    5.26
   2   3  -9   64.59    5.26
   2   3  -9   71.69    5.37
  -2  -3   9   69.34    5.42
  -2  -3   9   70.96    5.29
  -2  -3   9   65.71    5.34
   1   3  -9   54.07    4.40
   1   3  -9   55.83    4.40
   1   3  -9   55.17    4.09
   1   3  -9   56.28    4.30
  -1  -3   9   54.23    4.57
  -1  -3   9   51.55    4.53
  -1  -3   9   54.22    4.46
  -1  -3   9   53.76    4.24
  -1  -3   9   51.57    4.83
   0   3  -9   24.10    2.53
   0   3  -9   22.09    2.61
   0   3  -9   23.30    2.49
   0  -3   9   34.67    2.73
   0  -3   9   31.20    2.96
   0  -3   9   32.02    2.94
   0  -3   9   32.36    2.91
  -1   3  -9   26.42    2.34
  -1   3  -9   24.67    2.50
  -1   3  -9   24.84    2.29
   1  -3   9   24.37    2.68
   1  -3   9   23.39    2.83
   1  -3   9   23.54    2.64
   1  -3   9   24.02    2.39
  -2   3  -9   41.42    3.25
  -2   3  -9   41.38    3.36
  -2   3  -9   39.41    3.49
   2  -3   9   41.53    3.85
   2  -3   9   44.05    3.45
   2  -3   9   43.22    3.29
   2  -3   9   38.42    3.68
  -3   3  -9   10.35    1.87
  -3   3  -9   11.99    1.82
   3  -3   9   17.61    2.53
   3  -3   9   15.03    1.81
   3  -3   9   15.95    2.42
  -4   3  -9    4.10    1.37
  -4   3  -9    3.07    1.33
  -4   3  -9    3.96    1.07
   4  -3   9    7.21    1.43
   4  -3   9    6.48    1.91
   4  -3   9    5.05    1.65
  -5   3  -9   11.81    2.16
  -5   3  -9    9.68    1.90
  -5   3  -9    6.63    1.43
   5  -3   9   10.48    1.86
   5  -3   9    9.89    2.27
   5  -3   9    9.82    2.19
  -6   3  -9    6.37    1.73
  -6   3  -9    5.85    1.81
  -6   3  -9    5.49    1.51
   6  -3   9    6.23    2.30
   6  -3   9    9.36    2.50
   6   2  -9    9.81    2.29
   6   2  -9    9.71    2.26
   6   2  -9   11.88    2.38
  -6  -2   9    8.67    2.32
  -6  -2   9    7.99    2.27
   5   2  -9    5.19    1.71
   5   2  -9    4.90    1.65
  -5  -2   9    2.14    1.45
  -5  -2   9    2.55    1.59
   4   2  -9   21.39    2.81
   4   2  -9   21.69    2.67
  -4  -2   9   17.67    2.60
  -4  -2   9   21.14    2.60
   3   2  -9    2.29    1.27
   3   2  -9    2.85    1.26
  -3  -2   9    7.75    1.59
  -3  -2   9    5.72    1.52
  -3  -2   9    6.29    1.56
   2   2  -9   33.38    3.05
   2   2  -9   29.35    2.87
   2   2  -9   34.32    2.57
   2   2  -9   36.68    3.04
  -2  -2   9   25.92    2.82
  -2  -2   9   22.19    2.66
  -2  -2   9   26.79    2.90
   1   2  -9  117.59    7.54
   1   2  -9  119.54    7.79
   1   2  -9  116.18    7.60
   1   2  -9  110.43    7.81
  -1  -2   9  101.81    7.85
  -1  -2   9  107.84    7.82
  -1  -2   9  107.84    7.58
  -1  -2   9  104.23    7.56
  -1  -2   9  108.46    7.74
   0   2  -9   20.43    1.97
   0   2  -9   18.65    2.10
   0   2  -9   21.44    2.04
   0  -2   9   16.63    2.15
   0  -2   9   13.06    2.05
   0  -2   9   13.97    2.19
   0  -2   9   15.46    1.84
  -1   2  -9   21.43    2.08
  -1   2  -9   22.94    2.25
  -1   2  -9   21.99    2.17
   1  -2   9   21.53    2.42
   1  -2   9   20.22    2.45
   1  -2   9   23.29    1.95
   1  -2   9   21.63    2.71
   1  -2   9   21.16    2.10
  -2   2  -9   11.90    1.79
  -2   2  -9   12.11    1.46
  -2   2  -9   12.82    1.73
   2  -2   9   14.43    2.06
   2  -2   9   14.14    1.62
   2  -2   9   12.73    1.45
   2  -2   9   12.53    2.13
  -3   2  -9    9.09    1.58
  -3   2  -9    7.86    1.18
  -3   2  -9    8.90    1.77
   3  -2   9   12.13    2.11
   3  -2   9    9.57    1.91
   3  -2   9   12.12    1.46
  -4   2  -9    8.01    1.65
  -4   2  -9    7.86    1.33
  -4   2  -9    7.28    1.61
   4  -2   9    9.58    2.15
   4  -2   9    8.88    1.89
   4  -2   9   10.37    1.55
  -5   2  -9    3.25    1.50
  -5   2  -9    2.51    1.04
  -5   2  -9    3.94    1.47
   5  -2   9    4.74    1.64
   5  -2   9    4.08    1.74
  -6   2  -9    4.19    1.42
  -6   2  -9    2.81    1.71
  -6   2  -9    2.79    1.37
   6  -2   9    0.68    1.61
   6  -2   9    2.70    1.68
   6   1  -9    7.79    2.25
   6   1  -9    7.12    2.15
  -6  -1   9   11.16    2.44
   5   1  -9   25.95    3.11
   5   1  -9   27.24    3.27
  -5  -1   9   22.72    3.27
  -5  -1   9   17.58    2.79
   4   1  -9    9.78    2.02
   4   1  -9   11.39    2.02
  -4  -1   9   12.44    2.07
  -4  -1   9   12.31    2.24
   3   1  -9   26.07    2.78
   3   1  -9   25.75    2.85
   3   1  -9   27.13    2.96
  -3  -1   9   28.23    2.91
  -3  -1   9   32.02    2.84
  -3  -1   9   26.89    2.98
   2   1  -9    7.30    1.54
   2   1  -9    7.90    1.48
   2   1  -9    7.89    1.52
   2   1  -9    7.50    1.22
  -2  -1   9   10.58    1.57
  -2  -1   9    9.11    1.69
  -2  -1   9   10.79    1.60
   1   1  -9    1.96    0.60
   1   1  -9    1.58    0.74
   1   1  -9    0.74    0.85
   1   1  -9    0.68    0.94
  -1  -1   9    1.27    0.96
  -1  -1   9    1.03    0.98
  -1  -1   9    1.27    0.68
  -1  -1   9    1.28    0.78
  -1  -1   9    1.48    0.90
   0   1  -9  105.25    7.43
   0   1  -9  107.42    7.50
   0   1  -9  107.48    7.66
   0   1  -9  108.57    7.09
   0  -1   9  112.78    7.89
   0  -1   9  108.25    7.35
   0  -1   9  114.19    8.00
   0  -1   9  111.22    7.73
  -1   1  -9    8.25    1.40
   1  -1   9    2.53    1.21
   1  -1   9    3.22    0.84
   1  -1   9    2.72    1.11
   1  -1   9    2.18    1.17
   1  -1   9    2.71    0.66
  -2   1  -9   34.10    2.65
  -2   1  -9   30.20    2.46
  -2   1  -9   32.35    2.89
  -2   1  -9   33.30    2.88
  -2   1  -9   33.27    2.45
   2  -1   9   31.48    3.04
   2  -1   9   32.47    2.48
   2  -1   9   33.85    2.64
   2  -1   9   33.58    3.25
  -3   1  -9   11.78    1.80
  -3   1  -9   12.93    1.88
  -3   1  -9   11.81    1.45
   3  -1   9   12.76    2.06
   3  -1   9   11.73    2.16
  -4   1  -9    9.54    1.42
  -4   1  -9   10.00    1.76
  -4   1  -9   11.80    1.94
   4  -1   9    8.29    1.99
   4  -1   9    6.33    1.72
  -5   1  -9   19.87    2.24
  -5   1  -9   16.70    2.49
  -5   1  -9   20.26    2.46
   5  -1   9   22.02    3.02
   5  -1   9   19.89    2.71
  -6   1  -9    9.75    2.13
  -6   1  -9   10.60    1.99
  -6   1  -9    9.19    2.06
   6  -1   9   11.35    2.62
   6  -1   9   14.17    2.53
   6   0  -9   22.54    3.26
   6   0  -9   21.43    3.01
  -6   0   9   20.51    3.20
   5   0  -9    7.70    2.03
   5   0  -9    8.23    2.02
  -5   0   9   13.13    2.34
  -5   0   9   15.01    2.43
   4   0  -9   19.98    2.76
   4   0  -9   21.52    2.68
  -4   0   9   21.14    2.52
  -4   0   9   22.81    2.73
   3   0  -9   41.95    3.59
   3   0  -9   42.96    3.69
  -3   0   9   36.86    3.58
  -3   0   9   38.76    3.40
  -3   0   9   38.52    3.64
   2   0  -9    5.45    1.04
   2   0  -9    6.29    1.02
   2   0  -9    5.40    1.34
   2   0  -9    5.88    1.48
  -2   0   9    3.17    1.01
  -2   0   9    3.25    1.01
  -2   0   9    2.99    1.15
  -2   0   9    2.09    1.17
   1   0  -9   67.06    4.99
   1   0  -9   67.78    5.28
   1   0  -9   67.18    5.22
   1   0  -9   67.28    4.89
  -1   0   9   75.04    5.05
  -1   0   9   73.44    5.49
  -1   0   9   73.78    5.14
  -1   0   9   74.57    5.35
   0   0  -9    7.65    1.31
   0   0  -9   10.08    1.66
   0   0  -9    9.29    1.18
   0   0  -9    8.05    1.35
   0   0   9    8.95    1.75
   0   0   9    7.82    1.17
   0   0   9    8.66    1.50
  -1   0  -9   90.01    6.34
  -1   0  -9   88.75    6.68
  -1   0  -9   86.77    6.59
  -1   0  -9   87.41    6.50
   1   0   9  106.36    6.37
   1   0   9   99.45    6.79
   1   0   9   98.07    6.96
   1   0   9  102.78    7.41
  -2   0  -9   52.09    3.78
  -2   0  -9   53.43    3.75
  -2   0  -9   50.27    3.60
  -2   0  -9   48.50    4.00
   2   0   9   50.18    4.17
   2   0   9   50.92    4.37
  -3   0  -9   43.15    3.35
  -3   0  -9   39.57    3.65
  -3   0  -9   43.64    3.70
   3   0   9   50.38    4.21
   3   0   9   48.21    3.89
  -4   0  -9    1.18    1.05
  -4   0  -9    1.86    1.11
  -4   0  -9    0.58    0.76
   4   0   9    3.15    1.27
   4   0   9    2.09    1.43
  -5   0  -9    9.72    1.64
  -5   0  -9   10.86    1.96
  -5   0  -9    8.63    1.73
   5   0   9    8.08    2.15
   5   0   9    6.55    1.87
  -6   0  -9    9.78    1.94
  -6   0  -9   10.96    2.23
  -6   0  -9    9.62    1.89
   6   0   9   11.57    2.66
   6  -1  -9   13.01    2.51
  -6   1   9   13.60    2.54
   5  -1  -9   40.20    4.07
   5  -1  -9   39.28    4.00
  -5   1   9   40.87    3.89
   4  -1  -9    8.53    1.82
   4  -1  -9    8.98    1.93
  -4   1   9    8.91    1.84
  -4   1   9   11.77    1.96
   3  -1  -9   43.61    3.96
   3  -1  -9   43.22    3.92
  -3   1   9   43.14    4.05
  -3   1   9   47.38    3.79
  -3   1   9   47.61    3.33
  -3   1   9   44.29    3.81
   2  -1  -9   42.28    3.96
   2  -1  -9   44.01    3.54
   2  -1  -9   48.16    4.06
   2  -1  -9   46.88    3.72
  -2   1   9   50.63    4.07
  -2   1   9   49.67    3.97
  -2   1   9   49.37    3.74
  -2   1   9   53.55    4.19
  -2   1   9   50.97    4.26
   1  -1  -9   29.65    2.58
   1  -1  -9   29.74    2.34
   1  -1  -9   28.48    2.58
   1  -1  -9   27.81    2.25
  -1   1   9   21.11    2.36
  -1   1   9   20.97    2.53
  -1   1   9   20.35    2.09
   0  -1  -9   53.98    4.40
   0  -1  -9   55.85    4.23
   0  -1  -9   56.37    4.34
   0  -1  -9   57.77    4.14
   0   1   9   58.18    4.67
   0   1   9   58.31    3.99
   0   1   9   58.37    4.37
  -1  -1  -9    7.41    1.41
  -1  -1  -9    8.33    1.28
  -1  -1  -9    6.95    1.14
  -1  -1  -9    9.76    1.53
   1   1   9    4.57    1.05
   1   1   9    3.29    1.33
   1   1   9    3.12    1.08
  -2  -1  -9   19.82    1.87
  -2  -1  -9   18.61    1.80
  -2  -1  -9   18.86    2.07
  -2  -1  -9   18.12    1.68
  -2  -1  -9   16.93    2.00
   2   1   9   13.87    2.31
   2   1   9   15.75    2.00
  -3  -1  -9   85.60    5.87
  -3  -1  -9   87.28    6.22
   3   1   9   84.60    6.52
   3   1   9   80.94    6.19
  -4  -1  -9   13.63    2.12
  -4  -1  -9   17.97    1.91
  -4  -1  -9   17.72    2.33
   4   1   9   18.59    2.77
   4   1   9   17.32    2.31
  -5  -1  -9    6.26    1.57
  -5  -1  -9    5.42    1.60
  -5  -1  -9    7.39    1.53
   5   1   9    3.53    1.74
   5   1   9    4.01    1.45
  -6  -1  -9   10.08    1.96
  -6  -1  -9    8.49    1.91
  -6  -1  -9   13.51    2.26
   6   1   9    7.31    2.29
   6  -2  -9    3.65    1.66
  -6   2   9    5.98    2.01
   5  -2  -9   17.66    2.79
   5  -2  -9   17.02    2.62
  -5   2   9   12.86    2.28
   4  -2  -9   36.90    3.66
   4  -2  -9   36.95    3.55
  -4   2   9   33.06    3.51
  -4   2   9   35.65    2.92
  -4   2   9   35.65    3.40
   3  -2  -9   12.33    1.80
   3  -2  -9    9.55    1.88
   3  -2  -9   10.26    1.81
  -3   2   9    8.12    1.50
  -3   2   9    8.04    1.60
   2  -2  -9   71.50    4.92
   2  -2  -9   71.32    5.36
   2  -2  -9   69.90    5.13
   2  -2  -9   70.13    5.37
  -2   2   9   73.06    5.34
  -2   2   9   68.72    5.44
  -2   2   9   67.33    5.64
  -2   2   9   68.84    5.03
   1  -2  -9   49.74    3.72
   1  -2  -9   50.35    3.92
   1  -2  -9   51.52    3.71
   1  -2  -9   49.40    3.95
  -1   2   9   45.59    3.78
  -1   2   9   45.94    4.05
  -1   2   9   43.59    3.44
   0  -2  -9   22.49    2.12
   0  -2  -9   20.16    1.99
   0  -2  -9   20.61    1.99
   0  -2  -9   21.02    2.19
   0   2   9   15.55    2.18
   0   2   9   17.44    1.59
   0   2   9   18.68    2.03
  -1  -2  -9   87.58    6.28
  -1  -2  -9   91.27    6.43
  -1  -2  -9   92.63    6.43
  -1  -2  -9   92.46    6.33
   1   2   9   84.35    6.60
   1   2   9   95.26    6.44
  -2  -2  -9   10.11    1.52
  -2  -2  -9    9.24    1.36
  -2  -2  -9   10.13    1.56
  -2  -2  -9    9.38    1.59
  -3  -2  -9   15.23    1.64
  -3  -2  -9   15.34    2.04
  -3  -2  -9   12.09    1.69
   3   2   9    7.15    1.77
   3   2   9    7.95    1.55
  -4  -2  -9   56.45    4.47
  -4  -2  -9   60.18    4.79
   4   2   9   60.76    4.74
   4   2   9   61.34    5.19
  -5  -2  -9    9.58    1.87
  -5  -2  -9   10.87    1.78
  -5  -2  -9    8.62    1.81
   5   2   9    9.33    2.21
   5   2   9    7.96    1.81
  -6  -2  -9   16.26    2.45
  -6  -2  -9   17.29    2.67
  -6  -2  -9   17.63    2.66
   6   2   9   17.35    3.05
   6  -3  -9    8.50    2.26
  -6   3   9    8.62    2.16
   5  -3  -9   28.78    3.48
   5  -3  -9   27.42    3.25
  -5   3   9   24.80    3.09
  -5   3   9   29.23    2.64
   4  -3  -9   17.35    2.68
   4  -3  -9   17.14    2.62
  -4   3   9   23.94    2.27
  -4   3   9   21.76    2.47
  -4   3   9   22.25    2.16
  -4   3   9   21.02    2.53
   3  -3  -9   41.31    3.69
   3  -3  -9   38.73    3.57
   3  -3  -9   44.89    3.84
  -3   3   9   41.03    3.69
  -3   3   9   38.71    3.98
  -3   3   9   38.35    3.47
  -3   3   9   39.57    3.37
   2  -3  -9   74.36    5.30
   2  -3  -9   71.49    4.97
   2  -3  -9   69.34    5.40
   2  -3  -9   71.08    5.43
  -2   3   9   68.07    5.04
  -2   3   9   71.79    5.28
  -2   3   9   67.74    5.40
  -2   3   9   71.01    5.88
   1  -3  -9    3.26    1.15
   1  -3  -9    3.70    1.04
   1  -3  -9    2.07    0.90
   1  -3  -9    1.89    0.98
   0  -3  -9  120.98    7.96
   0  -3  -9  116.02    7.78
   0  -3  -9  114.99    7.85
   0  -3  -9  111.25    7.74
   0   3   9  112.58    7.69
   0   3   9  104.69    7.94
  -1  -3  -9   19.03    2.14
  -1  -3  -9   19.17    2.11
  -1  -3  -9   19.60    2.19
  -1  -3  -9   19.65    2.16
   1   3   9   26.96    2.25
   1   3   9   24.53    2.50
  -2  -3  -9   43.16    3.41
  -2  -3  -9   37.89    3.35
  -2  -3  -9   40.99    3.54
  -2  -3  -9   40.77    3.56
   2   3   9   42.60    3.79
   2   3   9   45.62    3.45
  -3  -3  -9   12.00    1.96
  -3  -3  -9   12.38    1.69
  -3  -3  -9   12.11    1.69
  -3  -3  -9   11.59    1.88
   3   3   9   14.64    1.80
   3   3   9   13.44    2.24
  -4  -3  -9   -0.16    0.94
  -4  -3  -9    0.56    0.97
  -4  -3  -9    0.52    0.75
   4   3   9    1.09    1.08
   4   3   9    0.93    1.35
   4   3   9    1.65    1.01
  -5  -3  -9   12.94    2.27
  -5  -3  -9   12.64    2.12
   5   3   9   18.98    2.91
   5   3   9   18.73    2.34
  -6  -3  -9    4.67    1.61
  -6  -3  -9    5.52    1.58
   6   3   9    3.34    1.87
   5  -4  -9    6.89    2.06
  -5   4   9    5.92    1.43
  -5   4   9    7.15    1.85
   4  -4  -9   43.60    3.82
   4  -4  -9   45.69    4.02
   4  -4  -9   47.27    4.08
  -4   4   9   36.83    3.33
  -4   4   9   35.16    3.62
  -4   4   9   36.64    3.42
  -4   4   9   38.64    3.61
   3  -4  -9   48.34    4.26
   3  -4  -9   47.11    4.15
   3  -4  -9   45.66    4.29
  -3   4   9   48.58    3.83
  -3   4   9   45.47    3.87
  -3   4   9   51.08    4.16
   2  -4  -9    3.93    1.43
   2  -4  -9    4.21    1.10
   2  -4  -9    5.40    1.46
   2  -4  -9    5.22    1.43
  -2   4   9    9.14    1.45
  -2   4   9   10.08    1.73
   1  -4  -9  129.66    9.18
   1  -4  -9  131.14    9.25
   1  -4  -9  134.94    9.31
   1  -4  -9  133.99    9.02
  -1   4   9  134.78    9.31
  -1   4   9  141.50    9.05
   0  -4  -9    3.80    1.09
   0  -4  -9    4.60    1.19
   0  -4  -9    3.65    1.27
   0  -4  -9    4.71    1.15
   0  -4  -9    3.93    1.12
  -1  -4  -9   45.05    3.78
  -1  -4  -9   46.93    3.87
  -1  -4  -9   49.56    3.81
  -1  -4  -9   45.23    3.78
   1   4   9   46.63    3.53
   1   4   9   49.93    4.09
  -2  -4  -9   24.60    2.65
  -2  -4  -9   24.12    2.55
  -2  -4  -9   22.98    2.26
  -2  -4  -9   23.42    2.51
   2   4   9   33.43    3.00
  -3  -4  -9   17.64    2.15
  -3  -4  -9   16.51    1.96
  -3  -4  -9   15.70    2.22
  -3  -4  -9   17.22    1.77
   3   4   9   11.82    1.99
   3   4   9   11.86    2.19
   3   4   9   13.71    1.68
  -4  -4  -9   39.46    3.73
  -4  -4  -9   39.19    3.62
  -4  -4  -9   37.03    3.40
   4   4   9   43.77    4.17
   4   4   9   38.84    3.41
   4   4   9   41.75    3.69
  -5  -4  -9    6.67    1.83
  -5  -4  -9    9.36    1.97
  -5  -4  -9    8.36    1.73
   5   4   9    3.27    1.37
   5   4   9    3.55    1.89
  -6  -4  -9    6.66    1.81
  -6  -4  -9    8.14    1.95
   6   4   9   10.29    2.60
  -5   5   9    8.32    1.70
  -5   5   9    8.87    1.72
   4  -5  -9   14.37    2.35
  -4   5   9   11.31    1.99
  -4   5   9   13.54    2.01
  -4   5   9   10.61    1.86
  -4   5   9   12.71    2.06
  -4   5   9   11.86    1.99
   3  -5  -9   14.64    2.21
   3  -5  -9   16.04    2.28
  -3   5   9    7.07    1.44
  -3   5   9    8.74    1.74
  -3   5   9   10.23    1.83
   2  -5  -9   46.36    4.08
   2  -5  -9   51.75    4.29
  -2   5   9   47.76    4.23
  -2   5   9   50.97    3.87
  -2   5   9   47.09    4.06
   1  -5  -9   30.70    2.80
   1  -5  -9   26.84    2.91
   1  -5  -9   29.23    3.05
   1  -5  -9   27.92    2.71
  -1   5   9   35.51    2.70
  -1   5   9   35.72    3.07
   0  -5  -9   68.20    4.92
   0  -5  -9   66.03    5.05
   0  -5  -9   64.63    4.91
   0  -5  -9   67.37    4.92
   0   5   9   61.24    5.01
   0   5   9   63.82    5.20
  -1  -5  -9   29.37    2.75
  -1  -5  -9   31.92    2.98
  -1  -5  -9   33.44    3.03
  -1  -5  -9   29.68    2.89
   1   5   9   33.60    3.19
   1   5   9   34.16    3.12
  -2  -5  -9   44.83    3.86
  -2  -5  -9   44.10    3.87
  -2  -5  -9   41.32    3.82
  -2  -5  -9   46.53    3.56
   2   5   9   49.14    4.08
   2   5   9   48.58    4.11
  -3  -5  -9   17.55    2.32
  -3  -5  -9   12.20    2.06
   3   5   9   16.85    2.38
   3   5   9   13.24    2.36
  -4  -5  -9   13.58    2.26
  -4  -5  -9   12.36    1.97
  -4  -5  -9   14.60    2.32
   4   5   9   14.13    2.27
   4   5   9   13.50    2.53
  -5  -5  -9   24.67    2.94
  -5  -5  -9   22.94    2.93
  -5  -5  -9   26.18    3.10
   5   5   9   25.27    2.88
   5   5   9   25.62    3.34
  -6  -5  -9   10.21    2.20
  -6  -5  -9    8.87    2.18
  -6  -5  -9    9.99    2.04
   6   5   9    6.08    2.29
   5  -6  -9   15.68    2.71
  -5   6   9   14.60    2.35
  -5   6   9   15.46    2.39
   4  -6  -9   10.76    2.38
   4  -6  -9   10.62    2.29
  -4   6   9   14.45    2.23
  -4   6   9   14.47    2.17
  -4   6   9   12.80    2.15
   3  -6  -9   33.24    3.54
   3  -6  -9   31.55    3.42
  -3   6   9   32.53    3.17
  -3   6   9   34.27    3.39
   2  -6  -9   24.42    2.98
  -2   6   9   30.95    2.86
  -2   6   9   26.20    2.96
   1  -6  -9   33.86    3.14
   1  -6  -9   33.90    3.20
   1  -6  -9   33.55    2.91
  -1   6   9   29.01    3.19
  -1   6   9   29.72    2.95
   0  -6  -9   27.60    2.76
   0  -6  -9   26.40    2.86
   0  -6  -9   24.78    2.71
   0  -6  -9   28.24    2.82
   0   6   9   37.55    3.40
   0   6   9   35.81    3.06
  -1  -6  -9   30.03    2.66
  -1  -6  -9   24.71    2.85
  -1  -6  -9   29.73    2.89
  -1  -6  -9   30.15    3.07
   1   6   9   29.93    3.01
   1   6   9   28.76    3.04
  -2  -6  -9   25.97    2.61
  -2  -6  -9   22.36    2.64
  -2  -6  -9   25.49    2.73
   2   6   9   17.70    2.58
   2   6   9   18.54    2.53
  -3  -6  -9   16.74    2.49
  -3  -6  -9   16.47    2.48
   3   6   9   22.63    2.85
   3   6   9   23.69    2.79
  -4  -6  -9   18.29    2.60
  -4  -6  -9   17.07    2.57
   4   6   9   12.75    2.41
   4   6   9   15.88    2.37
  -5  -6  -9    3.26    1.69
  -5  -6  -9    3.42    1.47
  -5  -6  -9    2.62    1.70
   5   6   9    4.71    1.88
   5   6   9    3.17    1.59
   5   6   9    5.34    1.63
  -6  -6  -9   12.60    2.63
  -6  -6  -9   15.01    2.61
  -6  -6  -9   16.42    2.65
   6   6   9   14.60    2.85
   6   6   9   18.45    3.14
   4  -7  -9    6.48    1.94
   4  -7  -9    5.70    1.89
  -4   7   9    5.20    1.61
  -4   7   9    6.14    1.75
  -4   7   9    4.65    1.49
   3  -7  -9   17.36    2.86
   3  -7  -9   14.55    2.65
  -3   7   9   24.77    2.73
  -3   7   9   23.47    2.66
   2  -7  -9   33.45    3.43
  -2   7   9   26.30    3.13
   1  -7  -9   20.36    2.44
   1  -7  -9   20.81    2.60
   1  -7  -9   17.90    2.20
  -1   7   9   21.04    2.34
  -1   7   9   20.16    2.62
   0  -7  -9   51.38    4.43
   0  -7  -9   52.53    4.19
   0  -7  -9   53.54    4.32
   0   7   9   53.82    4.63
   0   7   9   52.61    4.27
  -1  -7  -9   10.32    1.83
  -1  -7  -9    8.01    1.78
   1   7   9    9.43    2.08
   1   7   9    9.14    1.68
  -2  -7  -9   26.76    3.03
  -2  -7  -9   23.07    3.02
  -2  -7  -9   27.84    3.12
   2   7   9   31.81    3.04
   2   7   9   31.54    3.22
  -3  -7  -9   14.45    2.30
  -3  -7  -9   13.97    2.31
  -3  -7  -9   11.19    2.20
   3   7   9   16.47    2.55
   3   7   9   14.98    2.48
  -4  -7  -9    1.13    1.47
  -4  -7  -9    0.87    1.32
   4   7   9    0.21    1.27
   4   7   9   -0.33    1.33
   4   7   9    0.23    1.09
  -5  -7  -9   15.24    2.70
  -5  -7  -9   16.46    2.72
  -5  -7  -9   18.34    2.62
   5   7   9   16.66    2.61
   5   7   9   17.66    2.90
   5   7   9   19.52    2.91
   4  -8  -9   13.42    2.68
   4  -8  -9   11.47    2.48
  -4   8   9   11.46    2.29
  -4   8   9   12.37    2.33
   3  -8  -9   14.08    2.62
   3  -8  -9   16.99    2.81
  -3   8   9    6.92    2.02
  -3   8   9    7.28    1.88
   2  -8  -9    7.03    2.03
   2  -8  -9    9.35    2.18
  -2   8   9    7.46    1.84
  -2   8   9    8.58    1.91
   1  -8  -9   18.11    2.68
   1  -8  -9   18.45    2.38
  -1   8   9   19.89    2.88
   0  -8  -9   11.66    1.96
   0  -8  -9   11.72    2.15
   0   8   9    6.61    1.86
  -1  -8  -9   45.21    4.00
  -1  -8  -9   49.12    4.27
   1   8   9   38.50    4.03
   1   8   9   41.12    3.71
  -2  -8  -9   18.84    2.79
  -2  -8  -9   16.55    2.50
   2   8   9   16.77    2.68
   2   8   9   17.48    2.41
  -3  -8  -9    7.79    1.85
  -3  -8  -9    7.72    1.97
   3   8   9    8.82    1.82
   3   8   9    9.41    2.11
  -4  -8  -9   21.56    3.13
   4   8   9   25.34    3.20
   4   8   9   26.29    3.37
  -5  -8  -9    0.99    1.71
   5   8   9    0.25    1.36
   5   8   9   -0.84    1.37
   5   8   9   -0.04    1.35
   3  -9  -9    3.58    1.90
   3  -9  -9    4.02    1.92
  -3   9   9    7.05    1.91
  -3   9   9    4.74    1.83
   2  -9  -9   14.90    2.60
   2  -9  -9   17.30    2.82
  -2   9   9   12.06    2.45
  -2   9   9   10.28    2.32
   1  -9  -9   15.18    2.21
   1  -9  -9   13.89    2.49
  -1   9   9   17.32    2.60
  -1   9   9   14.57    2.59
   0  -9  -9    5.70    1.66
   0  -9  -9    2.80    1.54
   0   9   9    7.36    1.96
  -1  -9  -9    5.48    1.73
  -1  -9  -9    3.67    1.67
   1   9   9    7.21    2.13
  -2  -9  -9   39.19    3.98
  -2  -9  -9   34.79    3.60
   2   9   9   31.85    3.91
  -3  -9  -9   26.14    3.32
  -3  -9  -9   31.24    3.41
   3   9   9   27.24    3.45
  -4  -9  -9    2.80    1.84
  -4  -9  -9    2.37    1.83
   4   9   9    4.71    1.68
   4   9   9    2.05    1.61
   2 -10  -9    7.24    2.24
   2 -10  -9    2.52    1.92
  -2  10   9   10.73    2.45
  -2  10   9    9.98    2.26
   1 -10  -9   31.68    3.58
  -1  10   9   17.88    3.01
  -1  10   9   21.34    3.34
   0 -10  -9   18.35    2.99
   0 -10  -9   15.47    2.50
   0  10   9   23.51    3.39
   0  10   9   20.51    2.99
  -1 -10  -9    9.04    2.28
  -1 -10  -9    9.70    2.11
   1  10   9    9.22    2.31
   1  10   9    8.85    2.13
  -2 -10  -9   12.61    2.41
  -2 -10  -9   12.81    2.59
   2  10   9   16.91    2.96
   2  10   9   19.54    2.79
  -3 -10  -9    7.33    2.09
  -3 -10  -9    9.12    2.40
   3  10   9    7.90    2.26
   3  10   9   10.08    2.06
   1 -11  -9    3.17    1.98
  -1  11   9    7.31    2.30
  -1  11   9    7.54    2.10
   0 -11  -9   27.93    3.38
   0 -11  -9   32.64    3.78
   0  11   9   30.15    3.66
   0  11   9   29.47    3.92
  -1 -11  -9    5.33    1.88
  -1 -11  -9    6.42    1.90
   1  11   9    6.34    2.31
   1  11   9    6.13    2.02
  -2 -11  -9    8.00    2.17
  -2 -11  -9    6.31    2.08
   2  11   9    7.94    2.18
   2  11   9    8.68    2.41
   1  10 -10   21.17    3.15
   1  10 -10   21.61    2.94
   1  10 -10   16.65    2.84
  -1 -10  10   20.44    3.25
  -1 -10  10   15.08    3.09
   0  10 -10    6.91    1.99
   0 -10  10    2.59    1.97
   0 -10  10    0.63    1.74
  -1  10 -10    9.29    2.11
   1 -10  10    4.61    2.11
   1 -10  10    4.59    1.81
   1 -10  10    5.87    2.07
   3   9 -10   26.67    3.36
  -3  -9  10   33.56    4.19
  -3  -9  10   37.03    4.09
  -3  -9  10   26.78    3.71
   2   9 -10   16.35    2.76
   2   9 -10   16.35    2.77
  -2  -9  10   21.07    3.08
  -2  -9  10   17.53    3.00
  -2  -9  10   16.81    3.05
   1   9 -10    4.94    1.57
   1   9 -10    2.89    1.51
   1   9 -10    3.14    1.58
  -1  -9  10    2.66    1.72
  -1  -9  10    3.06    1.53
  -1  -9  10    2.43    1.70
   0   9 -10   25.16    3.27
   0   9 -10   22.00    3.01
   0  -9  10   29.29    3.46
   0  -9  10   35.40    3.84
   0  -9  10   26.93    3.30
  -1   9 -10    8.94    1.94
  -1   9 -10    9.33    2.08
   1  -9  10    4.66    1.66
   1  -9  10    4.40    1.86
   1  -9  10    4.40    2.09
  -2   9 -10    2.57    1.62
   2  -9  10    4.76    1.89
   2  -9  10    4.70    1.86
   2  -9  10    3.55    1.63
   2  -9  10    6.86    2.40
   4   8 -10   13.00    2.65
  -4  -8  10   20.43    3.38
   3   8 -10    9.95    2.29
   3   8 -10    8.38    1.96
  -3  -8  10    7.82    2.22
  -3  -8  10    6.80    2.12
   2   8 -10    7.65    1.98
   2   8 -10   11.05    2.21
  -2  -8  10    8.83    2.22
  -2  -8  10   10.40    2.32
  -2  -8  10    9.01    2.26
   1   8 -10    4.25    1.63
   1   8 -10    4.36    1.72
  -1  -8  10    7.48    2.06
  -1  -8  10    6.82    1.87
  -1  -8  10    7.86    2.08
   0   8 -10    5.85    1.74
   0   8 -10    6.32    1.73
   0  -8  10    7.31    1.98
   0  -8  10    7.26    2.10
   0  -8  10    5.15    1.95
  -1   8 -10   14.96    2.27
  -1   8 -10   13.77    2.38
   1  -8  10   16.85    2.73
   1  -8  10   12.72    2.54
   1  -8  10   19.27    2.81
  -2   8 -10   15.98    2.22
  -2   8 -10   14.96    2.52
   2  -8  10   10.22    2.59
   2  -8  10   15.61    2.62
   2  -8  10   14.61    2.59
   2  -8  10   11.60    2.30
  -3   8 -10    0.48    1.24
  -3   8 -10    1.10    1.39
  -3   8 -10    1.80    1.64
   3  -8  10    2.56    1.79
   3  -8  10    2.49    1.60
   3  -8  10    4.21    2.02
   4   7 -10    5.81    1.86
   4   7 -10    7.89    1.95
  -4  -7  10    5.23    1.98
  -4  -7  10    3.89    1.88
   3   7 -10   18.44    2.72
   3   7 -10   19.02    2.82
  -3  -7  10   17.86    2.95
  -3  -7  10   18.05    2.92
   2   7 -10    9.70    2.12
   2   7 -10   13.10    2.31
  -2  -7  10   12.00    2.40
  -2  -7  10   13.02    2.40
  -2  -7  10   12.05    2.33
   1   7 -10    6.80    1.75
   1   7 -10    6.53    1.82
  -1  -7  10    9.98    2.24
  -1  -7  10    8.28    2.03
  -1  -7  10    8.48    2.08
   0   7 -10    6.98    1.73
   0   7 -10    9.48    1.82
   0  -7  10    9.21    2.15
   0  -7  10    9.68    2.06
   0  -7  10   11.35    2.14
  -1   7 -10    5.93    1.69
  -1   7 -10    7.79    1.71
   1  -7  10   13.06    2.26
   1  -7  10    9.11    2.19
   1  -7  10    9.77    1.98
  -2   7 -10    3.23    1.53
  -2   7 -10    3.96    1.26
  -2   7 -10    4.15    1.31
   2  -7  10    2.42    1.42
   2  -7  10    3.30    1.75
   2  -7  10    4.76    1.79
   2  -7  10    3.64    1.65
  -3   7 -10   20.37    2.52
  -3   7 -10   19.89    2.93
  -3   7 -10   22.40    2.97
   3  -7  10   20.57    3.24
   3  -7  10   20.32    2.83
   3  -7  10   19.66    3.03
  -4   7 -10    2.40    1.55
  -4   7 -10    3.66    1.59
  -4   7 -10    1.42    1.58
   4  -7  10   -0.86    2.12
   4  -7  10   -0.61    1.67
   4  -7  10    2.01    1.52
   5   6 -10    7.93    2.15
   5   6 -10    6.76    2.06
  -5  -6  10    4.71    2.01
  -5  -6  10    3.54    1.99
   4   6 -10   25.14    3.16
   4   6 -10   24.17    3.05
  -4  -6  10   19.90    3.16
  -4  -6  10   18.70    3.13
   3   6 -10    1.94    1.40
   3   6 -10    0.26    1.27
  -3  -6  10    1.03    1.50
  -3  -6  10    1.53    1.48
   2   6 -10   16.27    2.57
   2   6 -10   14.60    2.40
  -2  -6  10   15.91    2.64
  -2  -6  10   18.13    2.86
  -2  -6  10   20.90    2.91
   1   6 -10   31.29    3.29
   1   6 -10   32.70    3.12
  -1  -6  10   27.56    3.25
  -1  -6  10   27.32    3.12
  -1  -6  10   24.89    3.14
   0   6 -10    6.47    1.62
   0   6 -10    5.69    1.58
   0  -6  10    6.68    1.76
   0  -6  10    6.65    1.63
   0  -6  10    5.76    1.70
  -1   6 -10   18.56    2.02
  -1   6 -10   17.32    2.33
   1  -6  10   18.49    2.60
   1  -6  10   17.36    2.77
   1  -6  10   18.11    2.64
  -2   6 -10    2.73    1.14
  -2   6 -10    4.45    1.54
  -2   6 -10    4.39    1.29
  -2   6 -10    3.70    1.55
   2  -6  10    6.00    1.70
   2  -6  10    5.51    1.88
   2  -6  10    6.76    1.61
   2  -6  10    7.11    2.02
  -3   6 -10    1.98    1.24
  -3   6 -10    2.13    1.38
  -3   6 -10    0.46    1.34
   3  -6  10    4.01    1.85
   3  -6  10    2.13    1.33
   3  -6  10    3.32    1.74
  -4   6 -10    9.79    2.04
  -4   6 -10   12.19    2.30
   4  -6  10   12.30    2.16
   4  -6  10    9.13    2.37
   4  -6  10   11.13    2.47
  -5   6 -10   11.29    2.21
  -5   6 -10   10.36    2.23
   5  -6  10    7.41    2.26
   5  -6  10    7.87    2.47
   5   5 -10    6.57    1.92
   5   5 -10    8.63    2.18
  -5  -5  10    6.85    2.26
  -5  -5  10    7.74    2.24
   4   5 -10    9.64    2.25
   4   5 -10   10.48    2.19
  -4  -5  10   17.07    2.70
  -4  -5  10   14.97    2.70
   3   5 -10   20.68    2.81
   3   5 -10   18.81    2.73
  -3  -5  10   17.71    2.79
  -3  -5  10   17.36    2.73
   2   5 -10   42.35    4.02
   2   5 -10   41.75    4.01
   2   5 -10   45.39    3.65
  -2  -5  10   45.53    4.27
  -2  -5  10   44.44    4.21
  -2  -5  10   46.63    4.20
   1   5 -10    9.74    1.97
   1   5 -10   10.69    2.16
  -1  -5  10   17.53    2.57
  -1  -5  10   16.87    2.50
  -1  -5  10   18.78    2.29
   0   5 -10   29.28    2.78
   0   5 -10   27.16    2.69
   0   5 -10   27.28    2.90
   0  -5  10   25.06    3.02
   0  -5  10   23.24    2.80
   0  -5  10   23.17    2.94
  -1   5 -10   10.88    1.60
  -1   5 -10   11.01    1.86
  -1   5 -10   10.67    1.77
   1  -5  10    9.41    2.10
   1  -5  10   10.76    2.08
   1  -5  10   10.85    1.92
  -2   5 -10   15.03    1.93
  -2   5 -10   16.38    2.40
  -2   5 -10   14.07    2.01
   2  -5  10   17.60    2.73
   2  -5  10   17.26    2.14
   2  -5  10   18.56    2.25
   2  -5  10   16.06    2.52
  -3   5 -10    1.08    1.21
  -3   5 -10    1.59    1.09
   3  -5  10    2.96    1.72
   3  -5  10    1.55    1.55
   3  -5  10    1.73    1.17
  -4   5 -10    1.30    1.28
  -4   5 -10    4.41    1.70
   4  -5  10    3.54    1.82
   4  -5  10    4.62    1.48
   4  -5  10    2.82    1.75
  -5   5 -10    2.77    1.67
  -5   5 -10    3.16    1.50
   5  -5  10    3.37    1.88
   5  -5  10    5.55    2.12
   5   4 -10    8.14    2.04
   5   4 -10    8.32    2.04
  -5  -4  10    3.13    1.68
  -5  -4  10    4.99    2.08
   4   4 -10   11.02    2.38
   4   4 -10   13.40    2.44
  -4  -4  10   12.16    2.35
  -4  -4  10   14.05    2.68
   3   4 -10   24.94    3.01
   3   4 -10   27.67    3.02
  -3  -4  10   26.94    2.99
  -3  -4  10   24.99    3.41
   2   4 -10   32.36    2.79
   2   4 -10   36.16    3.24
   2   4 -10   34.37    3.33
  -2  -4  10   24.46    3.19
  -2  -4  10   26.34    3.33
  -2  -4  10   26.59    3.05
   1   4 -10   53.30    4.41
   1   4 -10   53.84    4.34
  -1  -4  10   45.00    4.36
  -1  -4  10   52.47    4.33
  -1  -4  10   54.08    4.60
   0   4 -10   14.68    2.07
   0   4 -10   12.10    2.08
   0   4 -10   12.44    2.01
   0  -4  10   16.46    2.19
   0  -4  10   15.88    2.38
   0  -4  10   19.36    2.71
  -1   4 -10   12.74    1.82
  -1   4 -10   14.31    1.74
  -1   4 -10   15.99    2.20
   1  -4  10   11.09    2.14
   1  -4  10   11.36    1.85
   1  -4  10    9.92    2.06
  -2   4 -10   16.19    2.26
  -2   4 -10   17.53    1.95
  -2   4 -10   17.44    2.11
   2  -4  10   16.38    2.01
   2  -4  10   15.88    2.19
   2  -4  10   16.31    2.54
   2  -4  10   13.79    2.40
  -3   4 -10   13.57    2.02
  -3   4 -10   14.95    2.30
   3  -4  10   13.96    2.54
   3  -4  10   15.43    2.53
   3  -4  10   13.12    1.98
  -4   4 -10    5.07    1.56
  -4   4 -10    4.72    1.61
   4  -4  10   -0.51    1.56
   4  -4  10    2.62    1.59
  -5   4 -10    1.86    1.48
  -5   4 -10    0.64    1.34
   5  -4  10    1.40    1.61
   5  -4  10    0.52    1.54
   5   3 -10   11.10    2.22
   5   3 -10   12.75    2.47
  -5  -3  10    6.39    1.98
  -5  -3  10    7.73    2.15
   4   3 -10   44.87    4.30
   4   3 -10   46.83    4.17
  -4  -3  10   41.15    4.27
  -4  -3  10   40.66    4.05
   3   3 -10    4.09    1.44
   3   3 -10    4.76    1.58
  -3  -3  10    3.42    1.45
  -3  -3  10    3.86    1.36
   2   3 -10   13.43    2.04
   2   3 -10   12.07    1.94
  -2  -3  10    5.99    1.72
  -2  -3  10    5.84    1.71
  -2  -3  10    5.57    1.52
   1   3 -10   58.99    4.47
   1   3 -10   54.14    4.52
   1   3 -10   57.79    4.26
  -1  -3  10   53.16    4.35
  -1  -3  10   49.83    4.58
  -1  -3  10   51.13    4.52
   0   3 -10   30.99    2.97
   0   3 -10   30.33    2.81
   0   3 -10   30.07    2.76
   0  -3  10   23.80    2.84
   0  -3  10   26.34    3.18
   0  -3  10   30.74    2.83
   0  -3  10   26.73    3.45
  -1   3 -10   36.22    2.94
  -1   3 -10   37.95    3.11
  -1   3 -10   39.66    3.23
   1  -3  10   34.97    2.83
   1  -3  10   31.82    3.01
   1  -3  10   32.41    3.40
   1  -3  10   28.33    3.30
  -2   3 -10   24.32    2.33
  -2   3 -10   22.04    2.55
  -2   3 -10   21.95    2.50
   2  -3  10   24.94    2.45
   2  -3  10   25.10    2.48
   2  -3  10   22.64    2.85
   2  -3  10   24.42    2.85
  -3   3 -10   22.94    2.61
  -3   3 -10   23.31    2.51
   3  -3  10   20.74    2.87
   3  -3  10   21.92    2.87
  -4   3 -10   15.20    2.31
  -4   3 -10    9.96    1.94
   4  -3  10   14.21    2.46
   4  -3  10   13.58    2.52
  -5   3 -10    5.23    1.80
  -5   3 -10    5.16    1.74
   5  -3  10    4.13    1.96
   5  -3  10    5.62    2.02
  -6   3 -10    1.19    1.47
  -6   3 -10    0.80    1.50
   6  -3  10    0.92    1.67
   6  -3  10    0.49    1.91
   5   2 -10   14.63    2.70
   5   2 -10   13.93    2.55
  -5  -2  10   16.80    2.79
  -5  -2  10   15.86    2.78
   4   2 -10   38.33    3.60
   4   2 -10   35.35    3.64
  -4  -2  10   31.54    3.49
  -4  -2  10   30.88    3.71
   3   2 -10   11.69    2.10
   3   2 -10   13.63    2.27
  -3  -2  10   15.31    2.18
  -3  -2  10   15.85    2.44
   2   2 -10   34.82    3.39
   2   2 -10   33.81    3.34
   2   2 -10   36.59    2.98
  -2  -2  10   36.50    3.48
  -2  -2  10   37.69    3.26
  -2  -2  10   36.32    3.70
   1   2 -10    1.35    1.10
   1   2 -10    1.47    0.92
   1   2 -10    2.19    1.19
  -1  -2  10    3.17    1.40
  -1  -2  10    3.28    1.13
  -1  -2  10    3.87    1.47
   0   2 -10   14.23    2.20
   0   2 -10   14.43    2.10
   0   2 -10   18.99    2.09
   0  -2  10   21.36    2.41
   0  -2  10   20.10    2.11
   0  -2  10   18.91    2.43
   0  -2  10   22.47    2.61
  -1   2 -10   36.83    3.23
  -1   2 -10   32.63    3.34
  -1   2 -10   37.80    3.13
   1  -2  10   35.65    3.05
   1  -2  10   37.89    3.49
   1  -2  10   36.07    3.54
  -2   2 -10    6.37    1.37
  -2   2 -10    6.56    1.47
  -2   2 -10    8.72    1.36
   2  -2  10    8.05    1.88
   2  -2  10    7.19    1.31
   2  -2  10    5.94    1.61
  -3   2 -10    5.96    1.48
  -3   2 -10    5.41    1.47
   3  -2  10    9.27    2.03
   3  -2  10   10.17    2.20
  -4   2 -10   11.57    2.03
  -4   2 -10   10.61    1.96
   4  -2  10   11.21    2.20
   4  -2  10   12.03    2.44
  -5   2 -10    2.85    1.39
  -5   2 -10    6.53    1.76
   5  -2  10    4.06    1.95
   5  -2  10    4.93    1.76
  -6   2 -10    6.21    1.93
  -6   2 -10    6.46    1.91
   6  -2  10    5.20    2.15
   6  -2  10    5.93    2.18
   6   1 -10    4.14    1.85
   6   1 -10    3.70    2.02
  -6  -1  10    2.78    1.85
  -6  -1  10    4.04    1.84
   5   1 -10   21.48    3.11
   5   1 -10   22.04    3.40
  -5  -1  10   26.45    3.19
  -5  -1  10   24.17    3.19
   4   1 -10    3.13    1.39
   4   1 -10    2.24    1.56
  -4  -1  10    4.11    1.61
  -4  -1  10    5.40    1.54
   3   1 -10   46.64    4.12
   3   1 -10   42.08    4.13
  -3  -1  10   48.93    4.29
  -3  -1  10   48.88    4.05
   2   1 -10   16.75    2.43
   2   1 -10   15.45    1.86
   2   1 -10   12.98    2.12
  -2  -1  10   19.04    2.34
  -2  -1  10   19.58    2.15
  -2  -1  10   22.48    2.58
   1   1 -10   46.06    3.73
   1   1 -10   46.52    3.60
   1   1 -10   50.21    3.44
  -1  -1  10   37.13    3.27
  -1  -1  10   36.46    3.58
  -1  -1  10   37.14    3.65
  -1  -1  10   34.52    3.65
   0   1 -10   21.76    2.50
   0   1 -10   21.33    2.32
   0   1 -10   19.25    2.32
   0  -1  10   24.84    2.60
   0  -1  10   25.63    2.31
   0  -1  10   27.34    2.85
   0  -1  10   25.81    2.82
  -1   1 -10    5.12    1.21
  -1   1 -10    7.06    1.39
  -1   1 -10    6.18    1.43
   1  -1  10    6.88    1.17
   1  -1  10    6.17    1.61
   1  -1  10    5.43    1.46
  -2   1 -10   50.73    4.20
  -2   1 -10   52.25    3.93
   2  -1  10   48.48    4.36
   2  -1  10   53.07    4.56
  -3   1 -10   33.26    3.24
  -3   1 -10   31.55    3.17
   3  -1  10   39.81    3.68
   3  -1  10   35.23    3.80
  -4   1 -10    8.33    1.45
  -4   1 -10    9.44    1.87
  -4   1 -10    8.95    1.80
   4  -1  10   10.46    2.16
   4  -1  10   11.26    2.32
  -5   1 -10   11.40    1.81
  -5   1 -10    9.29    2.11
  -5   1 -10   11.00    2.13
   5  -1  10    9.89    2.25
   5  -1  10   10.80    2.48
  -6   1 -10    7.93    1.89
  -6   1 -10    8.34    2.15
  -6   1 -10    9.75    1.82
   6  -1  10    6.80    2.04
   6  -1  10    9.04    2.50
   6   0 -10   17.17    3.01
   6   0 -10   22.87    3.47
  -6   0  10   21.87    3.21
  -6   0  10   26.35    3.45
   5   0 -10   11.30    2.37
   5   0 -10   14.18    2.54
  -5   0  10    9.04    2.16
  -5   0  10    9.31    2.20
   4   0 -10   31.57    3.54
   4   0 -10   34.62    3.53
  -4   0  10   32.77    3.46
  -4   0  10   35.20    3.48
   3   0 -10   28.14    2.98
   3   0 -10   23.76    2.90
  -3   0  10   27.50    2.99
  -3   0  10   28.33    2.83
   2   0 -10   40.83    3.15
   2   0 -10   39.77    3.76
   2   0 -10   36.49    3.11
   2   0 -10   37.59    3.52
  -2   0  10   41.70    3.76
  -2   0  10   39.42    3.56
  -2   0  10   41.53    3.37
   1   0 -10   38.74    3.15
   1   0 -10   39.15    3.59
   1   0 -10   41.95    3.34
   1   0 -10   38.51    3.52
  -1   0  10   45.56    3.71
  -1   0  10   45.62    3.36
  -1   0  10   43.90    3.87
   0   0 -10   61.01    4.56
   0   0 -10   62.31    4.21
   0   0 -10   60.12    4.48
   0   0 -10   61.63    4.75
   0   0  10   55.28    4.83
   0   0  10   60.18    4.73
   0   0  10   54.04    4.23
   0   0  10   59.48    5.09
  -1   0 -10   27.87    2.74
  -1   0 -10   27.22    2.25
  -1   0 -10   29.34    2.60
  -1   0 -10   29.02    2.65
   1   0  10   23.13    2.85
   1   0  10   25.93    2.84
  -2   0 -10   19.38    1.93
  -2   0 -10   18.77    2.23
  -2   0 -10   18.39    1.94
  -2   0 -10   21.36    2.28
   2   0  10   21.97    2.82
   2   0  10   19.14    2.34
  -3   0 -10   35.01    3.11
  -3   0 -10   32.44    3.02
  -3   0 -10   30.72    2.57
   3   0  10   26.36    3.14
   3   0  10   29.66    3.39
  -4   0 -10   44.98    3.99
  -4   0 -10   45.77    3.57
  -4   0 -10   44.96    3.93
   4   0  10   42.40    4.01
   4   0  10   42.09    4.30
  -5   0 -10   14.22    2.37
  -5   0 -10   17.57    2.52
  -5   0 -10   15.62    2.15
   5   0  10   17.72    3.01
   5   0  10   16.80    2.63
  -6   0 -10    2.05    1.39
  -6   0 -10    4.19    1.68
  -6   0 -10    4.32    1.55
   6   0  10    1.83    2.06
   5  -1 -10   17.18    2.77
   5  -1 -10   15.83    2.83
  -5   1  10   19.13    2.84
  -5   1  10   22.63    3.14
   4  -1 -10   37.20    3.61
   4  -1 -10   31.48    3.57
  -4   1  10   36.77    3.47
  -4   1  10   31.55    3.50
   3  -1 -10   31.50    3.13
   3  -1 -10   28.45    3.12
  -3   1  10   25.85    3.18
  -3   1  10   27.71    2.79
  -3   1  10   28.50    3.00
   2  -1 -10   15.12    2.35
   2  -1 -10   16.87    1.98
   2  -1 -10   14.17    2.30
   2  -1 -10   16.82    1.93
  -2   1  10   21.80    2.69
  -2   1  10   21.92    2.07
  -2   1  10   23.16    2.37
   1  -1 -10   35.89    3.12
   1  -1 -10   40.32    3.25
   1  -1 -10   37.06    3.52
   1  -1 -10   37.56    3.47
  -1   1  10   42.91    3.57
  -1   1  10   43.77    3.78
  -1   1  10   41.61    3.12
   0  -1 -10   22.21    2.49
   0  -1 -10   24.18    2.54
   0  -1 -10   25.25    2.45
   0  -1 -10   28.60    2.30
   0   1  10   21.61    2.40
   0   1  10   22.64    2.70
  -1  -1 -10   51.15    4.24
  -1  -1 -10   52.03    4.38
  -1  -1 -10   53.85    4.22
  -1  -1 -10   51.04    4.05
   1   1  10   63.87    4.50
   1   1  10   59.96    4.81
  -2  -1 -10   11.81    1.57
  -2  -1 -10   11.44    1.80
  -2  -1 -10   11.32    1.54
  -2  -1 -10   14.10    1.96
   2   1  10    7.42    1.86
   2   1  10    9.49    1.73
  -3  -1 -10    7.56    1.22
  -3  -1 -10    7.66    1.55
   3   1  10    3.07    1.34
   3   1  10    2.70    1.53
  -4  -1 -10    3.48    1.09
  -4  -1 -10    4.32    1.44
   4   1  10    3.52    1.80
   4   1  10    4.74    1.45
  -5  -1 -10    5.86    1.50
  -5  -1 -10    7.47    1.74
  -5  -1 -10    7.42    1.83
   5   1  10    4.41    1.94
   5   1  10    3.52    1.57
  -6  -1 -10    9.10    1.89
  -6  -1 -10   10.36    2.23
  -6  -1 -10   10.88    2.20
   6   1  10   11.07    2.84
   5  -2 -10   15.61    2.67
   5  -2 -10   16.99    2.92
  -5   2  10   12.69    2.43
  -5   2  10   15.07    2.46
   4  -2 -10   12.80    2.30
   4  -2 -10   15.93    2.65
  -4   2  10   15.43    2.38
  -4   2  10   15.27    2.32
   3  -2 -10   20.83    2.59
   3  -2 -10   22.02    2.89
   3  -2 -10   24.19    2.89
  -3   2  10   29.24    2.88
  -3   2  10   27.79    3.01
  -3   2  10   32.41    2.74
   2  -2 -10   25.43    2.28
   2  -2 -10   26.50    2.75
   2  -2 -10   25.09    2.69
   2  -2 -10   24.89    2.45
  -2   2  10   22.31    2.85
  -2   2  10   21.76    2.68
  -2   2  10   23.03    2.24
  -2   2  10   20.79    2.53
   1  -2 -10    8.01    1.63
   1  -2 -10    8.86    1.73
   1  -2 -10    8.15    1.47
   1  -2 -10    9.62    1.51
  -1   2  10    9.97    1.96
  -1   2  10   11.51    1.76
   0  -2 -10    8.42    1.65
   0  -2 -10    9.74    1.62
   0  -2 -10    7.89    1.52
   0  -2 -10    9.27    1.48
   0   2  10    9.71    1.57
   0   2  10   10.30    1.94
  -1  -2 -10   17.54    2.08
  -1  -2 -10   19.55    2.04
  -1  -2 -10   19.78    2.15
  -1  -2 -10   18.70    2.07
   1   2  10   16.30    2.31
   1   2  10   17.53    2.18
  -2  -2 -10   18.76    2.31
  -2  -2 -10   18.75    2.15
  -2  -2 -10   18.20    2.10
  -2  -2 -10   21.31    2.33
   2   2  10   27.01    2.87
   2   2  10   26.62    2.51
  -3  -2 -10   26.60    2.70
  -3  -2 -10   25.25    2.46
  -3  -2 -10   25.66    2.77
   3   2  10   28.78    3.33
   3   2  10   30.35    2.82
  -4  -2 -10    2.31    1.04
  -4  -2 -10    2.16    1.10
  -4  -2 -10    4.04    1.45
   4   2  10    0.49    1.36
   4   2  10    0.88    1.07
  -5  -2 -10   10.65    1.93
  -5  -2 -10   10.31    2.11
   5   2  10   14.07    2.28
   5   2  10   11.38    2.49
  -6  -2 -10    0.30    1.26
  -6  -2 -10    0.08    1.32
   6   2  10    1.74    1.86
   5  -3 -10   24.19    3.43
   5  -3 -10   25.39    3.16
  -5   3  10   18.67    2.98
  -5   3  10   20.58    2.95
   4  -3 -10    5.72    1.78
   4  -3 -10    7.29    1.98
  -4   3  10    3.85    1.41
  -4   3  10    3.18    1.29
  -4   3  10    2.33    1.46
   3  -3 -10   55.44    4.57
   3  -3 -10   54.08    4.39
   3  -3 -10   56.24    4.67
  -3   3  10   48.13    4.31
  -3   3  10   49.33    4.46
  -3   3  10   49.07    4.10
   2  -3 -10   57.33    4.73
   2  -3 -10   54.64    4.85
   2  -3 -10   56.63    4.84
   2  -3 -10   59.79    4.43
  -2   3  10   65.66    4.74
  -2   3  10   65.96    5.03
   1  -3 -10   35.50    3.12
   1  -3 -10   33.74    2.84
   1  -3 -10   33.73    3.12
   1  -3 -10   35.95    2.99
  -1   3  10   24.87    3.03
  -1   3  10   27.04    2.80
   0  -3 -10   46.56    3.90
   0  -3 -10   46.89    4.09
   0  -3 -10   48.01    3.99
   0  -3 -10   43.17    3.89
   0   3  10   56.24    3.93
   0   3  10   52.82    4.28
  -1  -3 -10    4.63    1.23
  -1  -3 -10    4.28    1.23
  -1  -3 -10    5.66    1.27
  -1  -3 -10    5.86    1.25
   1   3  10    4.59    1.57
   1   3  10    3.99    1.19
  -2  -3 -10   17.07    2.15
  -2  -3 -10   17.85    2.26
  -2  -3 -10   16.84    2.11
   2   3  10   21.53    2.20
   2   3  10   21.93    2.64
  -3  -3 -10    1.33    0.99
  -3  -3 -10    2.02    1.21
   3   3  10    6.51    1.80
   3   3  10    6.83    1.39
  -4  -3 -10   48.64    4.17
  -4  -3 -10   49.61    3.89
   4   3  10   49.29    4.76
   4   3  10   44.40    4.12
   4   3  10   44.45    3.95
  -5  -3 -10    1.97    1.52
  -5  -3 -10    2.08    1.40
   5   3  10    1.32    1.40
   5   3  10    1.26    1.84
  -6  -3 -10   11.33    2.20
  -6  -3 -10   11.85    2.21
   6   3  10   12.07    2.78
   5  -4 -10    7.14    2.30
  -5   4  10    7.45    2.01
  -5   4  10    9.81    2.15
  -5   4  10    9.84    2.04
   4  -4 -10    8.47    2.07
   4  -4 -10   10.57    2.32
  -4   4  10    7.68    1.77
  -4   4  10    7.38    1.70
  -4   4  10    8.40    1.90
  -4   4  10    7.81    1.64
   3  -4 -10    8.91    1.93
   3  -4 -10    8.31    1.83
   3  -4 -10    5.28    1.67
  -3   4  10    9.26    1.93
  -3   4  10    8.87    1.63
   2  -4 -10   49.06    4.03
   2  -4 -10   42.48    3.69
   2  -4 -10   49.70    4.04
   2  -4 -10   48.75    3.45
  -2   4  10   34.38    3.38
  -2   4  10   32.34    3.58
   1  -4 -10   30.19    3.18
   1  -4 -10   30.64    3.23
   1  -4 -10   32.08    3.19
   1  -4 -10   31.96    3.02
  -1   4  10   40.95    3.48
  -1   4  10   42.25    3.16
   0  -4 -10   47.04    3.82
   0  -4 -10   47.71    3.71
   0  -4 -10   48.32    3.97
   0  -4 -10   42.87    3.77
   0   4  10   42.87    3.49
   0   4  10   37.62    3.81
  -1  -4 -10   39.49    3.49
  -1  -4 -10   40.82    3.45
  -1  -4 -10   41.06    3.46
  -1  -4 -10   37.64    3.46
   1   4  10   39.69    3.73
   1   4  10   37.35    3.16
  -2  -4 -10   23.29    2.51
  -2  -4 -10   23.15    2.65
  -2  -4 -10   23.78    2.41
  -2  -4 -10   25.18    2.76
   2   4  10   22.99    2.98
  -3  -4 -10   23.74    2.76
  -3  -4 -10   24.87    2.81
  -3  -4 -10   28.11    3.09
   3   4  10   25.21    2.94
   3   4  10   25.88    3.21
  -4  -4 -10    0.41    1.00
  -4  -4 -10    0.75    1.19
   4   4  10    3.70    1.46
   4   4  10    1.11    1.48
  -5  -4 -10   26.18    2.96
  -5  -4 -10   24.73    2.99
   5   4  10   23.86    2.86
   5   4  10   24.99    3.37
  -6  -4 -10    2.50    1.72
  -6  -4 -10    1.16    1.55
   6   4  10    3.57    1.92
   4  -5 -10   12.33    2.55
   4  -5 -10   12.72    2.50
  -4   5  10   18.65    2.37
  -4   5  10   18.20    3.13
  -4   5  10   20.11    2.28
  -4   5  10   17.69    2.57
   3  -5 -10   12.79    2.19
   3  -5 -10   15.62    2.60
  -3   5  10    7.86    1.80
  -3   5  10    8.88    1.90
   2  -5 -10   29.80    3.36
   2  -5 -10   30.85    3.35
  -2   5  10   42.13    3.47
   1  -5 -10   28.16    2.82
   1  -5 -10   24.86    2.83
   1  -5 -10   28.13    2.71
  -1   5  10   25.81    2.87
   0  -5 -10   16.22    2.23
   0  -5 -10   19.44    2.19
   0  -5 -10   18.76    2.28
   0  -5 -10   19.49    2.30
   0   5  10   16.80    2.40
  -1  -5 -10   40.20    3.89
  -1  -5 -10   41.72    3.82
  -1  -5 -10   46.40    3.91
  -1  -5 -10   43.89    3.71
   1   5  10   50.40    4.23
   1   5  10   50.86    4.23
  -2  -5 -10   28.56    2.47
  -2  -5 -10   24.43    2.77
  -2  -5 -10   25.85    2.72
  -2  -5 -10   24.13    2.67
   2   5  10   18.04    2.81
   2   5  10   17.09    2.68
  -3  -5 -10   11.89    2.12
  -3  -5 -10   12.33    2.17
  -3  -5 -10   12.53    2.15
   3   5  10   11.60    2.11
   3   5  10   13.90    2.39
  -4  -5 -10    5.43    1.84
  -4  -5 -10    5.70    1.85
   4   5  10    4.60    1.69
   4   5  10    3.75    1.86
  -5  -5 -10    3.29    1.63
  -5  -5 -10    3.75    1.74
  -5  -5 -10    3.56    1.62
   5   5  10    0.99    1.29
   5   5  10    0.68    1.71
   4  -6 -10   25.57    3.13
  -4   6  10   22.35    2.78
  -4   6  10   21.30    2.80
  -4   6  10   19.66    2.70
   3  -6 -10    8.88    1.97
   3  -6 -10    9.60    2.15
  -3   6  10   11.62    2.19
   2  -6 -10   16.69    2.56
   2  -6 -10   17.19    2.49
  -2   6  10   13.03    2.40
  -2   6  10   14.48    2.18
   1  -6 -10   35.08    3.22
   1  -6 -10   38.81    3.57
   1  -6 -10   37.61    3.44
  -1   6  10   36.10    3.45
  -1   6  10   35.26    3.74
   0  -6 -10   26.62    2.81
   0  -6 -10   24.00    2.60
   0  -6 -10   24.96    2.66
   0  -6 -10   23.88    2.60
   0   6  10   22.55    2.77
   0   6  10   22.35    2.86
  -1  -6 -10   32.18    3.18
  -1  -6 -10   31.31    3.19
  -1  -6 -10   32.17    2.85
  -1  -6 -10   31.97    3.05
   1   6  10   25.81    3.12
   1   6  10   28.00    3.35
  -2  -6 -10   22.98    3.09
  -2  -6 -10   26.72    2.97
  -2  -6 -10   24.74    3.09
   2   6  10   33.83    3.28
   2   6  10   30.75    3.13
  -3  -6 -10   19.05    2.47
  -3  -6 -10   21.12    2.81
  -3  -6 -10   17.84    2.71
   3   6  10   14.69    2.68
   3   6  10   17.94    2.75
  -4  -6 -10    5.08    1.70
  -4  -6 -10    5.74    1.80
   4   6  10    4.95    1.85
   4   6  10    6.84    1.87
  -5  -6 -10    9.92    2.24
  -5  -6 -10   12.50    2.46
  -5  -6 -10    9.01    2.09
   5   6  10    6.84    2.30
   5   6  10    6.99    1.95
   4  -7 -10   20.09    3.27
  -4   7  10   29.56    3.20
  -4   7  10   25.55    3.10
  -4   7  10   23.17    3.19
   3  -7 -10   15.71    2.59
  -3   7  10   10.91    2.11
  -3   7  10    8.70    2.06
   2  -7 -10   36.62    3.53
  -2   7  10   26.67    3.45
   1  -7 -10   16.55    2.59
   1  -7 -10   15.89    2.11
   1  -7 -10   13.72    2.15
  -1   7  10   14.98    2.51
   0  -7 -10   17.87    2.40
   0  -7 -10   18.20    2.64
   0  -7 -10   17.43    2.22
   0   7  10   15.28    2.58
   0   7  10   18.06    2.37
  -1  -7 -10   37.37    3.46
  -1  -7 -10   39.12    3.69
  -1  -7 -10   35.99    3.41
   1   7  10   26.88    3.18
   1   7  10   29.17    3.46
  -2  -7 -10   38.21    3.87
  -2  -7 -10   44.94    4.05
  -2  -7 -10   42.29    3.90
   2   7  10   35.02    3.82
   2   7  10   36.04    3.77
  -3  -7 -10   17.97    2.70
  -3  -7 -10   16.60    2.65
  -3  -7 -10   15.57    2.58
   3   7  10   21.66    2.81
   3   7  10   21.55    2.77
  -4  -7 -10   39.58    3.92
  -4  -7 -10   37.07    3.86
  -4  -7 -10   33.49    3.79
   4   7  10   37.11    4.08
   4   7  10   37.16    3.82
  -5  -7 -10    7.42    2.26
  -5  -7 -10    7.87    2.22
   5   7  10   11.69    2.39
   5   7  10   13.30    2.80
   5   7  10   13.10    2.50
   3  -8 -10   26.80    3.57
  -3   8  10   30.68    3.64
  -3   8  10   35.81    3.60
   2  -8 -10    9.79    2.24
  -2   8  10    3.65    1.66
  -2   8  10    5.90    1.75
   1  -8 -10   30.66    3.36
   1  -8 -10   26.53    4.02
  -1   8  10   27.86    3.34
   0  -8 -10   14.75    2.54
   0  -8 -10   13.35    2.24
   0   8  10   17.04    2.72
  -1  -8 -10    3.57    1.57
  -1  -8 -10    3.13    1.49
   1   8  10    7.48    1.94
  -2  -8 -10    4.08    1.69
  -2  -8 -10    5.42    1.81
   2   8  10    7.24    1.80
   2   8  10    9.48    2.19
  -3  -8 -10   27.89    3.40
  -3  -8 -10   29.34    3.26
   3   8  10   22.29    3.39
   3   8  10   21.80    3.05
  -4  -8 -10    3.17    1.68
  -4  -8 -10    3.94    1.87
   4   8  10    8.94    2.20
   4   8  10    8.67    2.15
   2  -9 -10    5.96    2.04
  -2   9  10   12.50    2.49
  -2   9  10   14.50    2.53
   1  -9 -10    7.43    2.03
  -1   9  10    7.02    1.93
  -1   9  10    5.97    2.00
   0  -9 -10   19.48    3.06
   0  -9 -10   22.83    2.94
   0   9  10   19.67    3.09
  -1  -9 -10    8.58    2.20
  -1  -9 -10    7.06    1.90
   1   9  10   14.28    2.68
  -2  -9 -10   18.63    2.76
  -2  -9 -10   19.58    3.07
   2   9  10   14.59    2.85
  -3  -9 -10    9.57    2.30
  -3  -9 -10   10.84    2.42
   3   9  10   16.20    2.85
   1 -10 -10   12.79    2.71
  -1  10  10   17.95    3.08
  -1  10  10   16.86    2.86
   0 -10 -10   11.78    2.66
   0 -10 -10   10.38    2.20
   0  10  10   15.13    2.86
   0  10  10   13.78    2.51
  -1 -10 -10   21.29    3.05
  -1 -10 -10   21.63    3.28
   1  10  10   16.81    3.11
   1  10  10   21.51    3.14
  -2 -10 -10   12.34    2.49
  -2 -10 -10   15.09    2.90
   2  10  10   13.78    2.84
   1   9 -11   14.27    2.60
   1   9 -11   11.64    2.52
  -1  -9  11   12.06    2.55
  -1  -9  11   13.74    2.81
  -1  -9  11   12.06    2.59
   0   9 -11    3.18    1.63
   0   9 -11    3.05    1.55
   0  -9  11    1.38    1.62
   0  -9  11    1.58    1.61
   0  -9  11    0.18    1.93
  -1   9 -11    8.86    2.11
  -1   9 -11   10.27    2.39
   1  -9  11   12.93    2.56
   1  -9  11   12.82    2.66
   1  -9  11   11.39    2.29
   1  -9  11   13.56    2.93
   2   8 -11   16.48    2.73
   2   8 -11   18.04    2.84
  -2  -8  11   16.83    2.99
  -2  -8  11   15.74    2.94
  -2  -8  11   11.91    2.72
   1   8 -11   11.28    2.26
   1   8 -11   10.81    2.16
  -1  -8  11    6.85    2.04
  -1  -8  11    5.57    1.95
  -1  -8  11    7.90    2.25
   0   8 -11   17.47    2.86
   0   8 -11   19.76    2.93
   0  -8  11   18.58    3.23
   0  -8  11   21.56    3.21
   0  -8  11   22.71    3.27
  -1   8 -11    5.58    1.69
   1  -8  11    4.38    1.78
   1  -8  11    3.56    1.83
   1  -8  11    4.20    1.89
  -2   8 -11    7.93    2.25
  -2   8 -11    9.77    2.32
   2  -8  11   11.16    2.69
   2  -8  11   14.54    2.67
   2  -8  11   11.87    2.30
   2  -8  11   14.93    2.64
   3   7 -11    7.50    1.97
   3   7 -11    6.28    1.92
  -3  -7  11    3.19    1.91
  -3  -7  11    4.18    1.90
  -3  -7  11    5.58    2.20
   2   7 -11    3.49    1.62
   2   7 -11    3.48    1.65
  -2  -7  11    5.92    2.11
  -2  -7  11    2.47    1.70
  -2  -7  11    2.38    1.79
   1   7 -11   11.61    2.31
   1   7 -11    8.75    2.15
  -1  -7  11   14.06    2.54
  -1  -7  11   12.47    2.59
  -1  -7  11   12.51    2.34
   0   7 -11    6.98    1.91
   0   7 -11    8.45    1.82
   0  -7  11    5.42    1.98
   0  -7  11    7.25    2.12
   0  -7  11    3.75    1.79
  -1   7 -11   16.23    2.60
  -1   7 -11   16.99    2.54
   1  -7  11   19.20    3.15
   1  -7  11   19.84    2.99
   1  -7  11   20.69    2.72
  -2   7 -11    2.00    1.59
   2  -7  11    0.07    1.76
   2  -7  11   -0.43    1.19
   2  -7  11    0.80    1.27
   2  -7  11    0.13    1.62
  -3   7 -11    0.21    1.31
  -3   7 -11   -0.17    1.14
   3  -7  11   -1.00    1.59
   3  -7  11    1.11    1.70
   4   6 -11   12.46    2.49
   4   6 -11   12.56    2.54
  -4  -6  11    8.55    2.54
  -4  -6  11    8.91    2.27
   3   6 -11    3.99    1.79
   3   6 -11    4.32    1.86
  -3  -6  11   11.17    2.40
  -3  -6  11    8.77    2.42
  -3  -6  11   10.24    2.37
   2   6 -11   25.90    2.77
   2   6 -11   26.17    3.12
   2   6 -11   27.89    3.28
  -2  -6  11   21.26    2.95
  -2  -6  11   22.41    3.38
  -2  -6  11   25.88    3.31
   1   6 -11   14.88    2.59
   1   6 -11   13.00    2.42
   1   6 -11   12.73    2.14
  -1  -6  11   18.06    2.73
  -1  -6  11   16.49    2.62
  -1  -6  11   18.93    2.87
   0   6 -11   15.84    2.45
   0   6 -11   15.34    2.40
   0   6 -11   14.09    2.45
   0  -6  11   15.69    2.71
   0  -6  11   13.95    2.55
   0  -6  11   15.08    2.44
  -1   6 -11   14.75    2.41
  -1   6 -11   14.11    2.24
   1  -6  11   16.07    2.75
   1  -6  11   14.84    2.33
   1  -6  11   13.32    2.50
  -2   6 -11   27.11    2.98
  -2   6 -11   22.86    2.61
   2  -6  11   24.64    3.03
   2  -6  11   19.96    3.23
   2  -6  11   24.11    2.88
   2  -6  11   24.85    3.49
  -3   6 -11   15.49    2.36
  -3   6 -11   16.42    2.65
   3  -6  11   15.07    2.87
   3  -6  11   15.17    2.77
  -4   6 -11    4.23    1.58
  -4   6 -11    3.59    1.70
   4  -6  11    1.01    1.81
   4  -6  11    4.16    1.93
   4   5 -11    8.80    2.12
   4   5 -11    9.26    2.22
  -4  -5  11    6.51    2.00
  -4  -5  11    3.84    1.88
   3   5 -11   11.59    2.27
   3   5 -11   11.93    2.33
  -3  -5  11   12.84    2.36
  -3  -5  11   11.27    2.46
  -3  -5  11   12.97    2.67
   2   5 -11   18.21    2.83
   2   5 -11   19.55    2.97
   2   5 -11   20.90    2.44
  -2  -5  11   22.47    3.24
  -2  -5  11   24.83    3.03
  -2  -5  11   23.04    3.05
   1   5 -11   76.75    6.26
   1   5 -11   84.11    6.24
   1   5 -11   87.74    6.06
  -1  -5  11   77.31    6.42
  -1  -5  11   72.86    6.19
  -1  -5  11   77.82    6.45
   0   5 -11   20.94    2.61
   0   5 -11   21.69    2.83
   0   5 -11   22.03    2.76
   0  -5  11   26.58    3.32
   0  -5  11   24.45    2.84
   0  -5  11   27.41    3.11
  -1   5 -11   23.48    2.67
  -1   5 -11   22.14    2.70
  -1   5 -11   21.34    2.39
   1  -5  11   22.92    3.15
   1  -5  11   26.17    2.85
   1  -5  11   27.47    3.16
  -2   5 -11   17.10    2.53
  -2   5 -11   19.90    3.30
  -2   5 -11   15.95    2.20
   2  -5  11   15.75    2.81
   2  -5  11   20.39    2.54
   2  -5  11   16.98    2.80
  -3   5 -11   10.10    1.96
  -3   5 -11    9.51    2.04
   3  -5  11   12.89    2.56
   3  -5  11   14.10    2.72
  -4   5 -11   17.27    2.84
  -4   5 -11   15.69    2.42
   4  -5  11   14.88    2.85
   4  -5  11   15.63    2.90
   4   4 -11   19.69    3.01
   4   4 -11   16.85    2.81
  -4  -4  11   18.25    2.99
  -4  -4  11   14.82    2.62
   3   4 -11   33.83    3.67
   3   4 -11   34.13    3.83
  -3  -4  11   34.24    3.97
  -3  -4  11   36.77    3.97
  -3  -4  11   39.20    3.73
   2   4 -11    2.83    1.16
   2   4 -11    1.54    1.38
   2   4 -11    1.40    1.27
  -2  -4  11    0.96    1.21
  -2  -4  11    2.20    1.47
  -2  -4  11    1.77    1.47
   1   4 -11    9.43    1.95
   1   4 -11    9.94    1.67
   1   4 -11   10.15    1.91
  -1  -4  11    5.19    1.78
  -1  -4  11    6.58    1.70
  -1  -4  11    6.10    1.84
   0   4 -11   39.89    3.54
   0   4 -11   37.57    3.39
   0   4 -11   38.60    3.74
   0  -4  11   37.09    3.83
   0  -4  11   31.22    3.61
   0  -4  11   35.40    3.41
  -1   4 -11    3.02    1.18
  -1   4 -11    2.56    1.24
  -1   4 -11    3.13    1.42
   1  -4  11    0.83    1.05
   1  -4  11    0.20    1.26
   1  -4  11   -0.38    1.22
  -2   4 -11   12.48    2.14
  -2   4 -11   11.89    1.85
  -2   4 -11   12.22    1.92
   2  -4  11   11.68    2.36
   2  -4  11   15.18    2.68
   2  -4  11   17.05    2.16
  -3   4 -11    2.82    1.41
  -3   4 -11    2.23    1.36
   3  -4  11    3.54    1.87
   3  -4  11    4.38    1.95
  -4   4 -11    6.25    1.80
  -4   4 -11    5.44    1.69
   4  -4  11    6.65    2.13
   4  -4  11    7.50    2.21
  -5   4 -11   10.18    2.18
  -5   4 -11   11.97    2.31
   5  -4  11   13.41    2.67
   5  -4  11   12.15    2.90
   5   3 -11    0.50    1.47
   5   3 -11    2.57    1.81
  -5  -3  11    0.19    1.40
  -5  -3  11    2.47    1.84
   4   3 -11    5.97    1.96
   4   3 -11    8.78    2.13
  -4  -3  11   12.87    2.27
  -4  -3  11   15.32    2.65
   3   3 -11   22.50    3.05
   3   3 -11   24.70    2.77
  -3  -3  11   13.55    2.60
  -3  -3  11   16.43    2.56
  -3  -3  11   16.58    2.71
   2   3 -11   13.87    2.35
   2   3 -11   17.40    2.51
   2   3 -11   16.18    2.03
  -2  -3  11   18.34    2.44
  -2  -3  11   20.66    2.80
  -2  -3  11   17.69    2.65
   1   3 -11    7.33    1.70
   1   3 -11    5.83    1.35
   1   3 -11    8.05    1.80
  -1  -3  11    5.80    1.66
  -1  -3  11    4.76    1.43
  -1  -3  11    7.14    1.93
   0   3 -11   11.24    2.02
   0   3 -11    9.73    1.75
   0   3 -11    9.40    1.65
   0  -3  11    5.63    1.79
   0  -3  11    5.32    1.42
   0  -3  11    3.84    1.49
  -1   3 -11   29.74    2.84
  -1   3 -11   27.65    3.08
  -1   3 -11   27.17    2.91
   1  -3  11   32.02    2.88
   1  -3  11   29.78    3.32
   1  -3  11   31.93    3.38
  -2   3 -11    8.01    1.46
  -2   3 -11    6.27    1.50
  -2   3 -11    8.18    1.83
   2  -3  11    5.53    1.78
   2  -3  11    3.35    1.59
  -3   3 -11   13.83    2.20
  -3   3 -11   10.61    2.05
   3  -3  11   14.23    2.49
   3  -3  11   14.96    2.70
  -4   3 -11    0.40    1.21
  -4   3 -11    0.00    1.18
   4  -3  11    1.71    1.55
   4  -3  11    1.77    1.69
  -5   3 -11    3.07    1.74
  -5   3 -11    1.49    1.52
   5  -3  11    3.11    1.72
   5  -3  11    3.20    2.12
   5   2 -11   11.39    2.37
   5   2 -11   11.14    2.41
  -5  -2  11   12.50    2.47
  -5  -2  11   13.39    2.84
   4   2 -11    9.91    2.22
   4   2 -11    8.76    2.15
  -4  -2  11    8.27    1.94
  -4  -2  11   12.04    2.53
   3   2 -11    7.51    1.95
   3   2 -11    8.64    1.93
  -3  -2  11    9.75    2.05
  -3  -2  11    8.97    1.80
  -3  -2  11    9.83    2.25
   2   2 -11   20.81    2.79
   2   2 -11   20.33    2.87
   2   2 -11   21.66    2.42
  -2  -2  11   30.04    3.13
  -2  -2  11   30.12    2.86
  -2  -2  11   27.48    3.18
   1   2 -11   11.18    1.72
   1   2 -11    7.21    1.77
   1   2 -11   10.45    1.97
  -1  -2  11   12.06    2.29
  -1  -2  11   12.64    2.13
  -1  -2  11   13.82    1.92
   0   2 -11   40.14    3.51
   0   2 -11   41.48    3.46
   0   2 -11   39.27    3.69
   0  -2  11   40.52    3.93
   0  -2  11   38.17    3.40
   0  -2  11   39.44    3.72
  -1   2 -11    7.86    1.66
  -1   2 -11    6.86    1.79
  -1   2 -11    6.28    1.40
   1  -2  11   12.58    1.85
   1  -2  11   10.78    2.13
   1  -2  11   10.75    2.03
  -2   2 -11   15.61    1.90
  -2   2 -11   12.51    2.12
   2  -2  11   14.84    2.44
   2  -2  11   16.10    2.66
  -3   2 -11   46.26    4.00
  -3   2 -11   44.78    4.03
   3  -2  11   45.76    4.60
   3  -2  11   44.62    4.42
  -4   2 -11    5.90    1.71
  -4   2 -11    5.01    1.68
   4  -2  11   10.11    2.34
   4  -2  11    8.92    2.24
  -5   2 -11    2.45    1.54
  -5   2 -11    2.51    1.65
   5  -2  11    1.64    2.06
   5  -2  11    3.59    1.77
   5   1 -11   17.81    2.96
   5   1 -11   15.36    2.94
  -5  -1  11   15.57    2.72
  -5  -1  11   15.57    2.90
   4   1 -11   18.76    2.83
   4   1 -11   19.48    2.97
  -4  -1  11   16.19    2.77
  -4  -1  11   17.64    2.63
   3   1 -11   11.19    2.28
   3   1 -11   11.41    2.19
  -3  -1  11   12.09    2.28
  -3  -1  11   14.93    2.16
  -3  -1  11   15.11    2.57
   2   1 -11   21.07    2.75
   2   1 -11   18.94    2.65
   2   1 -11   20.99    2.21
  -2  -1  11   20.41    2.80
  -2  -1  11   18.52    2.32
  -2  -1  11   21.49    2.80
   1   1 -11   16.02    2.07
   1   1 -11   13.51    2.30
   1   1 -11   16.16    2.38
  -1  -1  11   20.95    2.67
  -1  -1  11   19.25    2.55
  -1  -1  11   20.59    2.16
   0   1 -11   17.02    2.15
   0   1 -11   16.81    2.12
   0   1 -11   17.57    2.51
   0  -1  11   17.46    2.32
   0  -1  11   19.26    2.58
   0  -1  11   21.17    2.13
  -1   1 -11   41.22    3.43
  -1   1 -11   37.55    3.60
  -1   1 -11   39.46    3.49
   1  -1  11   37.45    3.87
   1  -1  11   40.18    3.75
  -2   1 -11    3.55    1.08
  -2   1 -11    2.66    1.25
  -2   1 -11    4.31    1.43
   2  -1  11    2.84    1.51
   2  -1  11    2.75    1.54
  -3   1 -11   12.42    1.99
  -3   1 -11   11.50    2.00
   3  -1  11    8.49    2.09
   3  -1  11   10.55    2.41
  -4   1 -11   38.87    3.74
  -4   1 -11   39.44    3.76
   4  -1  11   38.21    3.89
   4  -1  11   35.28    4.09
  -5   1 -11    0.13    1.20
  -5   1 -11    1.54    1.61
   5  -1  11    2.48    1.87
   5  -1  11    1.95    1.60
   5   0 -11   18.68    3.05
   5   0 -11   19.03    3.23
  -5   0  11   20.98    3.22
  -5   0  11   18.28    2.91
   4   0 -11   10.37    2.27
   4   0 -11    8.98    2.35
  -4   0  11   11.41    2.16
  -4   0  11   11.20    2.40
   3   0 -11   22.01    2.84
   3   0 -11   24.42    2.97
  -3   0  11   22.53    2.86
  -3   0  11   23.58    3.04
  -3   0  11   24.10    2.70
   2   0 -11   36.51    2.91
   2   0 -11   38.60    3.46
   2   0 -11   38.13    3.55
  -2   0  11   30.50    2.97
  -2   0  11   27.96    3.23
  -2   0  11   29.70    3.46
   1   0 -11   11.68    1.81
   1   0 -11   12.57    2.09
   1   0 -11   14.70    2.18
  -1   0  11   16.82    2.50
  -1   0  11   13.82    1.73
  -1   0  11   13.87    2.15
   0   0 -11    6.23    1.41
   0   0 -11    8.39    1.58
   0   0 -11    7.96    1.69
   0   0  11    5.19    1.63
   0   0  11    3.68    1.32
  -1   0 -11   29.97    3.03
  -1   0 -11   32.01    2.92
  -1   0 -11   32.81    3.10
   1   0  11   27.92    3.07
   1   0  11   29.48    3.32
  -2   0 -11   14.62    1.91
  -2   0 -11   15.77    2.29
  -2   0 -11   14.84    2.30
   2   0  11   18.41    2.37
   2   0  11   22.24    2.83
  -3   0 -11    6.68    1.67
   3   0  11    2.28    1.62
   3   0  11    3.03    1.55
  -4   0 -11    6.75    1.73
   4   0  11    3.67    1.53
   4   0  11    3.27    1.85
  -5   0 -11    4.22    1.69
  -5   0 -11    1.62    1.42
   5   0  11    1.70    1.77
   5   0  11   -0.31    1.25
   5  -1 -11    7.86    2.12
   5  -1 -11    6.32    2.23
  -5   1  11    3.24    1.70
  -5   1  11    4.36    1.85
   4  -1 -11   24.18    3.46
   4  -1 -11   23.23    3.08
  -4   1  11   24.20    3.20
  -4   1  11   27.78    3.31
  -4   1  11   25.40    2.94
   3  -1 -11   34.80    3.67
   3  -1 -11   36.49    3.79
  -3   1  11   36.02    3.71
  -3   1  11   35.37    3.87
  -3   1  11   38.46    3.45
   2  -1 -11   24.85    2.46
   2  -1 -11   23.80    3.00
   2  -1 -11   22.61    2.86
   2  -1 -11   23.79    2.40
  -2   1  11   28.52    2.99
  -2   1  11   26.46    2.49
  -2   1  11   27.16    3.23
   1  -1 -11   26.02    2.63
   1  -1 -11   27.49    2.54
   1  -1 -11   29.63    3.07
   1  -1 -11   29.46    2.95
  -1   1  11   26.14    3.10
  -1   1  11   25.53    2.89
   0  -1 -11   11.70    1.82
   0  -1 -11   12.24    1.58
   0  -1 -11   11.36    1.96
   0  -1 -11    9.89    1.70
   0   1  11    8.16    1.68
   0   1  11    8.31    1.93
  -1  -1 -11    5.69    1.33
  -1  -1 -11    7.60    1.42
  -1  -1 -11    6.01    1.60
  -1  -1 -11    7.91    1.64
   1   1  11    4.96    1.61
   1   1  11    3.98    1.37
  -2  -1 -11   12.75    1.70
  -2  -1 -11   10.25    1.84
  -2  -1 -11    9.69    1.79
   2   1  11    6.49    2.03
   2   1  11    8.62    1.77
  -3  -1 -11   18.82    2.63
  -3  -1 -11   20.80    2.50
   3   1  11   20.42    2.51
   3   1  11   17.75    2.94
  -4  -1 -11    8.09    1.92
   4   1  11    5.06    1.59
   4   1  11    3.73    1.97
  -5  -1 -11    8.63    2.10
  -5  -1 -11    7.45    2.10
   5   1  11    6.17    1.80
   5   1  11    8.62    2.49
   5  -2 -11    6.04    2.21
   5  -2 -11    6.09    2.06
  -5   2  11    6.91    1.88
  -5   2  11    6.37    2.02
   4  -2 -11   34.51    3.98
   4  -2 -11   40.16    3.89
  -4   2  11   30.52    3.61
  -4   2  11   29.35    3.27
  -4   2  11   34.40    3.75
   3  -2 -11   10.63    2.11
   3  -2 -11    9.24    1.71
   3  -2 -11    9.20    2.04
  -3   2  11    4.23    1.41
  -3   2  11    5.38    1.86
  -3   2  11    5.14    1.58
   2  -2 -11   44.72    3.77
   2  -2 -11   46.31    4.16
   2  -2 -11   43.83    4.06
  -2   2  11   43.58    3.96
  -2   2  11   45.73    4.20
   1  -2 -11   55.23    4.35
   1  -2 -11   56.85    4.35
   1  -2 -11   51.48    4.58
   1  -2 -11   56.53    4.72
  -1   2  11   58.39    4.53
  -1   2  11   58.00    5.01
   0  -2 -11   38.57    3.43
   0  -2 -11   41.39    3.27
   0  -2 -11   35.07    3.46
   0  -2 -11   35.73    3.52
   0   2  11   38.04    3.83
   0   2  11   37.17    3.37
  -1  -2 -11   21.12    2.32
  -1  -2 -11   21.19    2.44
  -1  -2 -11   21.91    2.25
  -1  -2 -11   21.41    2.58
   1   2  11   21.87    2.76
   1   2  11   26.86    2.69
  -2  -2 -11   40.90    3.79
  -2  -2 -11   46.00    3.69
  -2  -2 -11   44.14    3.91
  -2  -2 -11   42.62    3.60
   2   2  11   42.65    3.82
   2   2  11   46.38    4.28
  -3  -2 -11    5.16    1.37
  -3  -2 -11    4.18    1.51
  -3  -2 -11    5.18    1.44
   3   2  11   10.47    2.19
   3   2  11    8.97    1.71
  -4  -2 -11   14.69    2.11
  -4  -2 -11   11.93    2.23
  -4  -2 -11   14.04    1.97
   4   2  11   12.00    2.09
   4   2  11   13.37    2.65
  -5  -2 -11   24.89    3.09
  -5  -2 -11   25.02    2.87
   5   2  11   24.89    3.75
   5   2  11   29.62    3.23
   4  -3 -11    4.66    1.76
   4  -3 -11    3.94    1.97
  -4   3  11    5.53    1.74
  -4   3  11    2.19    1.59
   3  -3 -11   25.60    3.14
   3  -3 -11   23.98    2.83
   3  -3 -11   27.24    3.10
  -3   3  11   22.31    3.09
  -3   3  11   25.79    2.92
   2  -3 -11    8.17    1.87
   2  -3 -11    8.18    1.71
   2  -3 -11    8.74    1.95
  -2   3  11    5.32    1.75
  -2   3  11    5.67    1.47
   1  -3 -11   27.04    2.72
   1  -3 -11   29.49    2.67
   1  -3 -11   22.91    2.77
   1  -3 -11   24.71    2.86
  -1   3  11   26.90    2.67
  -1   3  11   24.52    3.08
   0  -3 -11   19.10    2.40
   0  -3 -11   17.82    2.32
   0  -3 -11   17.16    2.22
   0  -3 -11   18.24    2.35
   0   3  11   22.59    2.69
   0   3  11   22.99    2.34
  -1  -3 -11   39.63    3.41
  -1  -3 -11   38.76    3.52
  -1  -3 -11   40.23    3.50
  -1  -3 -11   37.89    3.54
   1   3  11   39.66    3.84
   1   3  11   36.45    3.33
  -2  -3 -11   12.57    2.00
  -2  -3 -11   12.41    1.94
  -2  -3 -11   11.47    1.99
   2   3  11   16.33    2.69
   2   3  11   17.19    2.09
  -3  -3 -11   37.44    3.48
  -3  -3 -11   37.55    3.27
  -3  -3 -11   38.01    3.30
   3   3  11   30.09    3.69
   3   3  11   31.78    3.19
  -4  -3 -11    1.39    1.31
  -4  -3 -11    2.66    1.09
   4   3  11    3.16    1.42
   4   3  11    2.70    1.76
  -5  -3 -11    3.77    1.68
  -5  -3 -11    6.22    1.54
   5   3  11    1.43    1.82
   4  -4 -11   10.55    2.45
   4  -4 -11   10.08    2.46
  -4   4  11   11.20    2.26
  -4   4  11   13.94    2.31
   3  -4 -11   14.67    2.72
   3  -4 -11   17.39    2.55
   3  -4 -11   12.63    2.46
  -3   4  11   20.20    2.59
  -3   4  11   17.88    2.33
   2  -4 -11   19.94    2.87
   2  -4 -11   22.71    3.02
   2  -4 -11   24.90    2.68
  -2   4  11   20.66    2.46
  -2   4  11   23.67    2.99
   1  -4 -11   23.82    2.73
   1  -4 -11   24.63    2.91
   1  -4 -11   20.94    2.32
   1  -4 -11   22.36    2.63
  -1   4  11   20.65    2.68
   0  -4 -11   31.78    3.15
   0  -4 -11   34.13    3.21
   0  -4 -11   30.08    3.13
   0  -4 -11   33.51    3.27
   0   4  11   32.59    3.37
  -1  -4 -11    8.39    1.70
  -1  -4 -11    8.76    1.76
  -1  -4 -11    8.51    1.70
   1   4  11    8.83    2.02
  -2  -4 -11   27.09    2.84
  -2  -4 -11   34.19    3.18
  -2  -4 -11   29.70    3.10
   2   4  11   30.90    3.59
  -3  -4 -11   14.56    2.37
  -3  -4 -11   16.47    2.35
   3   4  11   20.45    3.07
   3   4  11   19.48    2.56
  -4  -4 -11   14.92    2.43
   4   4  11   14.75    2.47
   4   4  11   10.93    2.67
  -5  -4 -11   11.16    2.06
  -5  -4 -11    8.71    2.27
   5   4  11    9.27    2.54
   4  -5 -11   13.90    2.71
   4  -5 -11   13.10    2.47
  -4   5  11   12.49    2.30
  -4   5  11   15.60    2.35
   3  -5 -11   22.47    3.23
   3  -5 -11   24.56    3.10
  -3   5  11   25.52    3.02
  -3   5  11   20.05    2.82
   2  -5 -11   19.39    2.93
   2  -5 -11   19.50    2.75
  -2   5  11   27.22    2.98
   1  -5 -11   25.88    2.89
   1  -5 -11   25.00    2.95
   1  -5 -11   24.41    2.71
  -1   5  11   27.72    3.09
   0  -5 -11   38.76    3.73
   0  -5 -11   42.38    3.72
   0  -5 -11   40.01    3.63
   0   5  11   37.58    3.74
  -1  -5 -11   24.56    2.68
  -1  -5 -11   25.96    2.85
  -1  -5 -11   25.33    2.91
   1   5  11   28.18    3.33
   1   5  11   24.51    3.00
  -2  -5 -11   24.95    3.22
  -2  -5 -11   26.23    3.04
  -2  -5 -11   26.37    3.08
   2   5  11   33.26    3.48
   2   5  11   29.74    3.29
  -3  -5 -11   12.15    2.33
  -3  -5 -11    9.61    2.03
  -3  -5 -11   13.59    2.40
   3   5  11   15.86    2.50
   3   5  11   14.45    2.56
  -4  -5 -11    9.12    2.14
  -4  -5 -11    9.32    2.08
   4   5  11   12.46    2.59
   4   5  11   14.49    2.43
  -5  -5 -11    1.31    1.30
  -5  -5 -11    3.37    1.74
   5   5  11    6.65    1.81
   5   5  11    5.17    2.13
   3  -6 -11    7.92    2.08
   3  -6 -11    6.43    2.02
  -3   6  11   13.56    2.42
   2  -6 -11   17.95    2.71
   2  -6 -11   16.83    2.69
  -2   6  11   15.45    2.39
  -2   6  11   12.62    2.46
   1  -6 -11   15.38    2.41
   1  -6 -11   18.83    2.68
  -1   6  11   17.01    2.48
  -1   6  11   14.87    2.56
   0  -6 -11    5.17    1.63
   0  -6 -11    2.40    1.36
   0  -6 -11    6.20    1.57
   0  -6 -11    7.02    1.59
   0   6  11    7.37    1.81
   0   6  11    7.96    1.97
  -1  -6 -11    9.94    2.03
  -1  -6 -11   10.64    2.05
  -1  -6 -11   12.26    2.17
   1   6  11   12.50    2.37
   1   6  11   13.05    2.39
  -2  -6 -11   32.39    3.31
  -2  -6 -11   30.72    3.20
  -2  -6 -11   33.34    3.35
   2   6  11   21.16    3.23
   2   6  11   21.04    2.98
  -3  -6 -11   20.16    2.90
  -3  -6 -11   19.08    2.91
  -3  -6 -11   18.74    2.78
   3   6  11   24.74    3.24
   3   6  11   23.21    3.28
  -4  -6 -11    3.06    1.85
  -4  -6 -11    6.52    1.97
  -4  -6 -11    5.06    1.99
   4   6  11    3.45    1.75
   4   6  11    4.59    1.98
   3  -7 -11    8.17    2.12
  -3   7  11    9.99    2.18
  -3   7  11    6.07    2.01
   2  -7 -11    2.39    1.67
   2  -7 -11    2.70    1.54
  -2   7  11    6.51    2.01
   1  -7 -11   25.59    3.02
   1  -7 -11   27.82    3.05
  -1   7  11   18.33    3.11
   0  -7 -11   22.29    2.75
   0  -7 -11   20.71    2.93
   0   7  11   22.83    2.81
   0   7  11   22.76    3.26
  -1  -7 -11    5.47    1.68
  -1  -7 -11    5.91    1.75
  -1  -7 -11    4.71    1.66
   1   7  11    5.03    1.84
   1   7  11    5.28    1.69
  -2  -7 -11   14.05    2.38
  -2  -7 -11    8.96    2.14
  -2  -7 -11    9.86    2.17
   2   7  11   12.51    2.48
   2   7  11   12.70    2.32
  -3  -7 -11   16.64    2.68
  -3  -7 -11   15.09    2.57
  -3  -7 -11   12.91    2.43
   3   7  11    9.40    2.30
   3   7  11   10.27    2.41
  -4  -7 -11    8.22    2.18
  -4  -7 -11    7.42    2.16
  -4  -7 -11    5.02    1.94
   4   7  11    8.71    2.27
   4   7  11   13.63    2.55
   2  -8 -11    5.65    1.97
  -2   8  11    8.79    2.21
  -2   8  11    9.40    2.25
  -1   8  11   11.51    2.42
   0  -8 -11   16.30    2.49
   0  -8 -11   17.36    2.79
   0   8  11   11.06    2.58
  -1  -8 -11   14.14    2.49
  -1  -8 -11   15.20    2.66
   1   8  11   19.03    3.07
  -2  -8 -11    5.92    2.03
  -2  -8 -11    7.06    2.01
   2   8  11    4.43    1.84
   2   8  11    6.51    2.02
  -3  -8 -11   15.09    2.78
  -3  -8 -11   15.98    2.85
   3   8  11   19.13    2.96
   3   8  11   18.28    2.96
   1  -9 -11    9.64    2.47
  -1   9  11   15.22    2.80
  -1   9  11   13.47    2.53
   0  -9 -11   15.06    2.67
   0  -9 -11   12.55    2.34
   0   9  11   11.75    2.60
  -1  -9 -11    8.42    2.06
  -1  -9 -11    6.69    1.98
   1   9  11    8.05    2.25
  -2  -9 -11   14.18    2.73
  -2  -9 -11   17.22    2.77
   2   9  11   13.84    2.85
   0   8 -12    1.45    1.55
   0  -8  12    2.47    1.70
   2   7 -12   24.02    3.36
   2   7 -12   24.48    2.99
  -2  -7  12   23.10    3.38
  -2  -7  12   16.21    3.11
  -2  -7  12   16.46    3.10
   1   7 -12    9.94    2.16
   1   7 -12   10.88    2.46
   1   7 -12   10.84    2.35
  -1  -7  12   11.41    2.45
  -1  -7  12   15.12    2.81
  -1  -7  12   14.67    2.91
   0   7 -12    5.61    1.80
   0   7 -12    4.68    1.72
   0   7 -12    7.06    2.18
   0  -7  12    7.68    1.98
   0  -7  12    8.24    2.38
   0  -7  12    7.67    2.33
  -1   7 -12    3.19    1.69
  -1   7 -12    5.31    1.71
  -1   7 -12    1.83    1.52
   1  -7  12    3.68    1.89
   1  -7  12    6.68    2.17
   1  -7  12    5.13    1.85
  -2   7 -12    6.82    2.05
   2  -7  12    9.80    2.56
   2  -7  12    8.42    2.66
   2  -7  12    8.89    2.15
   3   6 -12    5.13    2.04
   3   6 -12    1.94    1.57
  -3  -6  12    3.26    1.88
  -3  -6  12    3.49    1.93
  -3  -6  12    2.59    1.86
   2   6 -12    2.43    1.69
   2   6 -12    3.70    1.82
   2   6 -12    3.14    1.41
  -2  -6  12    5.68    2.10
  -2  -6  12    2.57    1.78
  -2  -6  12    4.99    2.11
   1   6 -12   36.02    3.39
   1   6 -12   34.71    3.49
  -1  -6  12   25.59    3.83
  -1  -6  12   25.30    3.69
  -1  -6  12   26.83    3.46
   0   6 -12   22.88    2.81
   0   6 -12   25.34    3.17
   0   6 -12   21.05    2.78
   0  -6  12   25.16    3.36
   0  -6  12   23.05    3.15
   0  -6  12   21.82    3.40
  -1   6 -12   -0.44    1.39
  -1   6 -12    0.47    1.35
  -1   6 -12   -1.19    1.07
   1  -6  12    0.19    1.50
   1  -6  12    1.91    1.75
   1  -6  12    1.82    1.42
  -2   6 -12   15.18    2.51
   2  -6  12   14.18    2.81
   2  -6  12   15.79    2.52
   2  -6  12   13.80    2.80
  -3   6 -12    3.92    1.50
  -3   6 -12    2.62    1.63
   3  -6  12    6.15    2.24
   3  -6  12    8.39    2.53
   3   5 -12   12.69    2.75
   3   5 -12   12.71    2.62
  -3  -5  12   17.46    2.77
  -3  -5  12   17.20    2.96
  -3  -5  12   13.09    2.73
   2   5 -12    9.70    2.29
   2   5 -12    8.25    2.05
   2   5 -12   11.95    1.92
  -2  -5  12    6.24    2.04
  -2  -5  12    6.22    1.99
  -2  -5  12    4.68    1.97
   1   5 -12    1.63    1.52
   1   5 -12    0.26    1.20
   1   5 -12    1.38    1.30
  -1  -5  12    4.60    1.76
  -1  -5  12    4.16    1.75
  -1  -5  12    4.76    1.98
   0   5 -12   19.37    2.96
   0   5 -12   21.79    2.57
   0   5 -12   17.84    2.59
   0  -5  12   17.51    2.98
   0  -5  12   15.37    2.48
   0  -5  12   14.18    2.74
  -1   5 -12   21.94    2.90
  -1   5 -12   21.55    2.60
  -1   5 -12   20.67    2.96
   1  -5  12   17.12    3.09
   1  -5  12   20.34    2.64
   1  -5  12   14.06    2.84
  -2   5 -12   -0.14    1.08
  -2   5 -12    0.05    1.22
   2  -5  12    0.34    1.74
   2  -5  12    0.38    1.58
  -3   5 -12    8.77    1.89
  -3   5 -12   12.33    2.39
   3  -5  12    6.48    2.24
   3  -5  12    9.52    2.45
   4   4 -12    0.77    1.47
   4   4 -12    0.23    1.66
  -4  -4  12    2.04    1.86
  -4  -4  12    0.19    1.57
  -4  -4  12    0.21    1.38
   3   4 -12    7.95    1.97
   3   4 -12    8.41    2.34
  -3  -4  12    4.48    1.93
  -3  -4  12    6.02    1.93
  -3  -4  12    6.29    2.14
   2   4 -12    8.53    2.09
   2   4 -12    5.62    1.53
   2   4 -12    7.98    2.03
  -2  -4  12    8.71    2.02
  -2  -4  12   10.32    2.23
  -2  -4  12   10.17    2.36
   1   4 -12   17.48    2.49
   1   4 -12   15.86    2.24
   1   4 -12   17.58    2.82
  -1  -4  12   14.48    2.66
  -1  -4  12   12.43    2.27
  -1  -4  12   11.90    2.50
   0   4 -12    1.10    1.32
   0   4 -12    2.81    1.49
   0   4 -12    2.79    1.47
   0  -4  12    4.18    1.74
   0  -4  12    5.18    1.55
   0  -4  12    4.27    1.93
  -1   4 -12   14.36    2.41
  -1   4 -12   14.03    2.52
  -1   4 -12   16.50    2.40
   1  -4  12   20.50    3.10
   1  -4  12   16.89    2.86
   1  -4  12   18.03    3.35
  -2   4 -12   13.55    2.04
  -2   4 -12   13.82    2.34
   2  -4  12    9.56    2.50
   2  -4  12   11.05    2.52
  -3   4 -12    8.32    1.95
  -3   4 -12    6.47    1.74
   3  -4  12    5.50    2.09
   3  -4  12    6.80    2.22
  -4   4 -12    4.10    1.76
  -4   4 -12    3.88    1.71
   4  -4  12    7.11    2.45
   4  -4  12    2.10    1.75
   4   3 -12    8.04    2.21
   4   3 -12    6.16    2.10
  -4  -3  12    5.36    2.11
  -4  -3  12    8.47    2.19
  -4  -3  12    7.56    2.31
   3   3 -12    9.37    2.36
   3   3 -12   10.32    2.28
  -3  -3  12   12.61    2.54
  -3  -3  12   11.18    2.22
  -3  -3  12   11.71    2.52
   2   3 -12   12.46    2.43
   2   3 -12   12.07    1.91
   2   3 -12   13.93    2.41
  -2  -3  12   11.00    2.19
  -2  -3  12   16.08    2.73
  -2  -3  12   12.45    2.48
   1   3 -12    7.05    1.60
   1   3 -12    5.35    1.63
   1   3 -12    5.67    1.92
  -1  -3  12    7.25    2.08
  -1  -3  12    7.02    2.01
  -1  -3  12    8.98    1.84
   0   3 -12   23.08    2.81
   0   3 -12   22.53    2.71
   0   3 -12   20.35    2.69
   0  -3  12   22.42    3.31
   0  -3  12   19.64    2.96
   0  -3  12   18.47    2.41
  -1   3 -12    4.20    1.61
  -1   3 -12    4.54    1.54
  -1   3 -12    5.72    1.42
   1  -3  12    5.09    1.94
   1  -3  12    3.93    1.69
  -2   3 -12   10.93    2.10
  -2   3 -12    9.94    2.15
   2  -3  12   12.87    2.62
   2  -3  12   16.46    2.79
  -3   3 -12   19.88    2.68
  -3   3 -12   19.18    2.75
   3  -3  12   17.63    3.15
   3  -3  12   21.83    3.23
  -4   3 -12   12.72    2.45
  -4   3 -12   14.22    2.47
   4  -3  12   22.98    3.27
   4  -3  12   15.34    2.97
   4   2 -12   24.91    3.64
   4   2 -12   32.46    3.57
  -4  -2  12   25.42    3.16
  -4  -2  12   29.31    3.78
  -4  -2  12   27.78    3.57
   3   2 -12   19.45    2.91
   3   2 -12   20.06    3.14
  -3  -2  12   17.00    2.85
  -3  -2  12   17.19    2.60
  -3  -2  12   14.54    2.78
   2   2 -12   18.25    2.79
   2   2 -12   17.17    2.65
  -2  -2  12   19.32    2.89
  -2  -2  12   19.77    3.08
  -2  -2  12   16.03    2.41
   1   2 -12   17.20    2.24
   1   2 -12   17.56    2.66
   1   2 -12   16.24    2.43
  -1  -2  12   18.65    2.74
  -1  -2  12   16.35    2.20
  -1  -2  12   18.26    2.96
   0   2 -12    8.17    1.90
   0   2 -12   10.65    1.85
   0   2 -12    9.36    1.74
   0  -2  12   10.67    2.27
   0  -2  12    8.53    2.09
  -1   2 -12   15.62    2.28
  -1   2 -12   14.82    2.16
  -1   2 -12   14.49    2.48
   1  -2  12   17.58    2.69
   1  -2  12   15.62    2.67
  -2   2 -12   19.03    2.52
  -2   2 -12   16.32    2.61
   2  -2  12   11.91    2.47
   2  -2  12   14.03    2.71
  -3   2 -12   -0.30    1.30
   3  -2  12    0.42    1.47
   3  -2  12    1.02    1.64
  -4   2 -12   32.65    3.46
   4  -2  12   27.72    3.77
   4  -2  12   32.00    3.97
   4   1 -12   12.66    2.75
   4   1 -12    8.91    2.28
  -4  -1  12   13.43    2.73
  -4  -1  12   13.57    2.44
  -4  -1  12   14.76    2.84
   3   1 -12   14.77    2.71
   3   1 -12   17.45    2.72
  -3  -1  12   16.35    2.46
  -3  -1  12   15.74    2.64
  -3  -1  12   12.89    2.69
   2   1 -12   25.25    2.95
   2   1 -12   26.72    3.20
  -2  -1  12   23.58    3.18
  -2  -1  12   21.51    3.13
  -2  -1  12   23.65    2.65
   1   1 -12   16.53    2.48
   1   1 -12   14.35    2.32
   1   1 -12   16.41    2.16
  -1  -1  12   14.71    2.70
  -1  -1  12   14.86    2.47
   0   1 -12   21.64    2.84
   0   1 -12   23.50    2.53
   0   1 -12   20.25    2.48
   0  -1  12   17.63    2.90
   0  -1  12   17.56    2.67
  -1   1 -12   16.82    2.54
  -1   1 -12   13.67    2.15
  -1   1 -12   18.23    2.32
   1  -1  12   14.16    2.44
   1  -1  12   12.47    2.59
  -2   1 -12   23.50    3.07
  -2   1 -12   25.20    2.87
   2  -1  12   26.73    3.17
   2  -1  12   30.51    3.59
  -3   1 -12   15.77    2.48
  -3   1 -12   15.22    2.39
   3  -1  12   12.17    2.40
   3  -1  12   11.68    2.65
  -4   1 -12   -0.08    1.29
   4  -1  12    1.95    1.85
   4  -1  12    5.35    1.83
  -5   1 -12   10.68    2.33
   5  -1  12    7.99    2.61
   5  -1  12    9.23    2.28
   4   0 -12    9.01    2.36
   4   0 -12    9.97    2.42
  -4   0  12    7.03    1.90
  -4   0  12    8.10    2.19
  -4   0  12    6.93    2.31
   3   0 -12   35.26    3.79
   3   0 -12   37.58    3.93
  -3   0  12   35.75    3.59
  -3   0  12   35.91    4.14
  -3   0  12   32.31    3.65
   2   0 -12   25.46    3.45
   2   0 -12   28.83    3.30
  -2   0  12   32.08    3.35
  -2   0  12   33.89    3.65
   1   0 -12   25.68    3.05
   1   0 -12   25.72    2.71
   1   0 -12   25.61    2.97
  -1   0  12   30.19    3.44
  -1   0  12   27.93    3.20
   0   0 -12   22.73    2.61
   0   0 -12   19.86    2.84
   0   0 -12   21.46    2.70
   0   0  12   23.26    2.76
   0   0  12   25.47    3.11
  -1   0 -12    7.24    1.89
  -1   0 -12    7.81    1.71
  -1   0 -12   10.36    1.77
   1   0  12    9.78    2.09
   1   0  12    8.23    2.09
  -2   0 -12    4.86    1.60
  -2   0 -12    4.19    1.55
   2   0  12    3.78    1.96
   2   0  12    2.44    1.42
  -3   0 -12    6.30    1.74
  -3   0 -12    5.47    1.74
   3   0  12   10.47    2.10
   3   0  12   10.99    2.44
  -4   0 -12    5.02    1.84
  -4   0 -12    5.30    1.61
   4   0  12    7.42    2.38
   4   0  12    5.53    1.81
  -5   0 -12    0.04    1.46
   5   0  12    0.84    1.90
   5   0  12   -0.10    1.48
   4  -1 -12    6.34    2.03
   4  -1 -12    4.70    1.98
  -4   1  12    5.22    1.82
  -4   1  12    4.68    1.95
   3  -1 -12   10.51    2.32
   3  -1 -12   10.10    2.24
  -3   1  12    8.42    1.98
  -3   1  12    9.46    2.25
   2  -1 -12   25.64    3.00
   2  -1 -12   25.49    3.15
  -2   1  12   17.07    2.91
  -2   1  12   13.22    2.44
   1  -1 -12   14.44    2.09
   1  -1 -12   13.38    2.41
   1  -1 -12   12.03    2.23
  -1   1  12   18.94    2.55
  -1   1  12   17.21    2.69
   0  -1 -12   23.24    2.72
   0  -1 -12   21.19    2.59
   0  -1 -12   22.19    2.69
   0   1  12   23.93    3.02
   0   1  12   21.32    2.76
  -1  -1 -12   18.95    2.25
  -1  -1 -12   16.92    2.49
  -1  -1 -12   18.78    2.54
   1   1  12   18.76    2.65
   1   1  12   17.99    2.78
  -2  -1 -12   15.29    2.38
  -2  -1 -12   11.39    2.14
   2   1  12   14.59    2.72
   2   1  12   14.74    2.34
  -3  -1 -12   13.57    2.21
  -3  -1 -12   11.75    2.19
   3   1  12   12.54    2.69
   3   1  12   13.17    2.33
  -4  -1 -12    1.93    1.58
  -4  -1 -12    1.52    1.34
   4   1  12    0.94    1.25
   4   1  12    0.81    1.67
  -5  -1 -12   11.66    2.33
   5   1  12   13.43    2.54
   5   1  12   10.19    2.72
   4  -2 -12   27.83    3.51
   4  -2 -12   22.41    3.65
  -4   2  12   30.49    3.59
  -4   2  12   31.61    3.67
   3  -2 -12   11.05    2.33
   3  -2 -12   12.67    2.42
  -3   2  12    6.85    2.09
  -3   2  12    6.27    1.77
   2  -2 -12   22.96    2.90
   2  -2 -12   20.38    3.02
  -2   2  12   24.11    2.85
  -2   2  12   19.41    3.05
   1  -2 -12   22.08    2.75
   1  -2 -12   22.62    2.40
   1  -2 -12   21.15    2.65
  -1   2  12   17.22    2.53
  -1   2  12   16.28    2.75
   0  -2 -12   10.08    1.87
   0  -2 -12    8.19    1.87
   0  -2 -12   10.62    1.92
   0   2  12    9.42    2.10
   0   2  12   11.51    1.93
  -1  -2 -12   20.39    2.68
  -1  -2 -12   22.49    2.64
  -1  -2 -12   22.05    2.57
   1   2  12   22.06    2.65
   1   2  12   22.22    2.99
  -2  -2 -12   21.01    2.76
  -2  -2 -12   16.09    2.52
  -2  -2 -12   14.64    2.28
   2   2  12   15.56    2.36
   2   2  12   18.48    2.92
  -3  -2 -12   13.55    2.21
  -3  -2 -12   17.10    2.67
   3   2  12   15.49    2.34
   3   2  12   14.40    2.73
  -4  -2 -12   17.30    2.72
   4   2  12   13.46    2.80
   4   2  12   15.95    2.45
  -5  -2 -12   -1.05    1.23
   5   2  12    1.47    1.86
   4  -3 -12   12.78    2.69
   4  -3 -12   17.74    3.07
  -4   3  12   10.77    2.51
  -4   3  12   13.47    2.45
   3  -3 -12    8.06    2.09
   3  -3 -12    8.42    1.92
   3  -3 -12    8.21    2.24
  -3   3  12   16.12    2.38
  -3   3  12   14.60    2.62
   2  -3 -12   27.45    3.48
   2  -3 -12   27.37    3.42
   2  -3 -12   28.61    3.01
  -2   3  12   32.75    3.56
  -2   3  12   30.94    3.16
   1  -3 -12   11.66    2.22
   1  -3 -12   11.38    1.91
   1  -3 -12   12.95    2.27
   1  -3 -12   11.73    1.92
  -1   3  12   15.32    2.16
  -1   3  12   13.83    2.48
   0  -3 -12   31.80    3.22
   0  -3 -12   31.41    3.28
   0  -3 -12   31.56    2.96
   0  -3 -12   33.60    3.19
   0   3  12   24.72    2.86
   0   3  12   27.75    3.39
  -1  -3 -12   13.19    2.16
  -1  -3 -12   13.30    2.04
  -1  -3 -12   14.50    2.24
  -1  -3 -12   14.04    2.21
   1   3  12   18.30    2.88
  -2  -3 -12    2.65    1.33
  -2  -3 -12    3.21    1.30
  -2  -3 -12    4.34    1.51
   2   3  12    2.10    1.58
  -3  -3 -12    7.67    2.44
  -3  -3 -12    7.89    1.95
  -3  -3 -12    7.62    1.77
   3   3  12    7.74    2.19
  -4  -3 -12    5.07    1.82
   4   3  12   10.35    2.11
   4   3  12    6.36    2.26
   3  -4 -12   12.80    2.64
   3  -4 -12   10.93    2.50
   3  -4 -12   10.29    2.16
  -3   4  12   12.17    2.42
   2  -4 -12    4.65    1.59
   2  -4 -12    6.10    1.89
   2  -4 -12    4.78    1.74
  -2   4  12    0.01    1.46
   1  -4 -12   47.35    4.00
   1  -4 -12   45.90    4.34
   1  -4 -12   46.71    4.32
   1  -4 -12   47.59    4.14
   0  -4 -12    6.29    1.78
   0  -4 -12    7.52    1.79
   0  -4 -12    6.05    1.62
   0   4  12    5.54    1.79
  -1  -4 -12   37.34    3.57
  -1  -4 -12   39.14    3.63
  -1  -4 -12   37.67    3.50
   1   4  12   34.39    4.03
  -2  -4 -12   35.84    3.35
  -2  -4 -12   33.42    3.41
  -2  -4 -12   33.30    3.33
   2   4  12   29.02    3.68
  -3  -4 -12    4.37    1.57
  -3  -4 -12    2.98    1.54
   3   4  12    4.07    2.06
   3   4  12    6.40    1.84
  -4  -4 -12    4.23    1.63
  -4  -4 -12    5.31    1.79
   4   4  12    6.20    1.89
   4   4  12    5.82    2.23
   3  -5 -12   23.07    3.12
   3  -5 -12   19.00    3.21
  -3   5  12   18.46    2.93
  -3   5  12   22.83    3.03
   2  -5 -12   22.12    2.96
   2  -5 -12   18.32    2.93
  -2   5  12   16.93    2.79
  -2   5  12   16.93    2.88
   1  -5 -12   17.18    2.39
   1  -5 -12   17.43    2.55
   1  -5 -12   17.21    2.60
  -1   5  12   11.46    2.41
   0  -5 -12   12.61    2.09
   0  -5 -12   12.66    2.26
   0  -5 -12   15.47    2.40
   0   5  12   15.64    2.70
   0   5  12   13.91    2.49
  -1  -5 -12    9.48    2.00
  -1  -5 -12    9.58    1.85
  -1  -5 -12   11.02    2.03
   1   5  12   10.19    2.30
   1   5  12   10.99    2.32
  -2  -5 -12    7.78    1.89
  -2  -5 -12    5.88    1.77
   2   5  12    2.89    1.66
   2   5  12    5.04    1.89
  -3  -5 -12   39.94    3.78
  -3  -5 -12   38.76    3.75
   3   5  12   26.66    3.87
   3   5  12   30.17    3.78
  -4  -5 -12    7.75    1.97
  -4  -5 -12    7.46    2.06
   4   5  12    8.20    2.36
   4   5  12    8.50    2.22
   2  -6 -12    6.05    1.98
   2  -6 -12    6.21    2.05
  -2   6  12   12.72    2.43
   1  -6 -12   16.00    2.50
   1  -6 -12   17.06    2.51
  -1   6  12   10.07    2.33
  -1   6  12    8.18    2.05
   0  -6 -12   38.34    3.56
   0  -6 -12   35.19    3.58
   0  -6 -12   37.94    3.79
   0   6  12   32.47    3.86
   0   6  12   33.65    3.85
  -1  -6 -12    0.68    1.18
  -1  -6 -12   -1.01    1.32
   1   6  12    2.44    1.64
   1   6  12    3.98    1.79
  -2  -6 -12   25.34    3.11
  -2  -6 -12   28.28    3.27
   2   6  12   27.39    3.37
   2   6  12   22.04    3.14
  -3  -6 -12    7.18    2.10
  -3  -6 -12    8.53    2.11
   3   6  12   12.78    2.52
   3   6  12   11.93    2.59
   2  -7 -12   16.02    2.86
   2  -7 -12   17.83    2.96
   1  -7 -12   11.63    2.43
   1  -7 -12    8.16    2.06
  -1   7  12   13.58    2.53
   0  -7 -12    5.17    1.89
   0   7  12    6.57    2.18
  -1  -7 -12   28.44    3.25
  -1  -7 -12   27.85    3.41
  -1  -7 -12   31.42    3.51
   1   7  12   25.29    3.33
   1   7  12   30.82    3.83
  -2  -7 -12    3.90    1.90
  -2  -7 -12    2.13    1.57
  -2  -7 -12    2.24    1.78
   2   7  12    4.45    2.09
   2   7  12    3.15    1.77
  -3  -7 -12   10.04    2.42
  -3  -7 -12   13.00    2.56
  -3  -7 -12    9.42    2.32
   3   7  12   12.08    2.65
   3   7  12   12.05    2.52
   0  -8 -12   13.28    2.37
   0  -8 -12   14.03    2.60
   0   8  12   13.01    2.81
  -1  -8 -12   16.47    2.90
  -1  -8 -12   15.67    2.68
   1   8  12   15.86    3.00
   1   6 -13    4.64    1.65
   1   6 -13    4.93    2.03
   1   6 -13    5.70    2.03
  -1  -6  13    5.39    2.24
  -1  -6  13    3.74    1.85
  -1  -6  13    3.43    1.98
   0   6 -13    2.17    1.48
   0   6 -13    3.89    1.83
   0   6 -13    1.90    1.60
   0  -6  13    5.33    2.27
   0  -6  13    2.15    1.87
   0  -6  13    4.25    1.72
  -1   6 -13   17.52    2.68
  -1   6 -13   12.37    2.65
  -1   6 -13   15.58    2.47
   1  -6  13   10.05    2.56
   1  -6  13   11.53    2.61
   2   5 -13   22.57    3.37
   2   5 -13   22.31    3.24
  -2  -5  13   22.57    3.55
  -2  -5  13   23.84    3.78
  -2  -5  13   23.47    3.25
   1   5 -13    1.21    1.43
   1   5 -13    1.34    1.52
   1   5 -13    0.32    1.14
  -1  -5  13    0.39    1.46
  -1  -5  13    2.30    1.80
  -1  -5  13    3.19    1.77
   0   5 -13    9.04    2.03
   0   5 -13    9.03    2.03
   0   5 -13   10.64    2.33
   0  -5  13    7.49    2.35
   0  -5  13    5.07    2.26
  -1   5 -13   10.77    2.11
  -1   5 -13    7.62    1.98
  -1   5 -13    9.28    2.31
   1  -5  13   13.91    2.74
   1  -5  13   12.42    2.66
  -2   5 -13    0.87    1.58
  -2   5 -13    2.08    1.56
   2  -5  13    1.81    1.79
   2  -5  13    1.93    2.05
   2   4 -13    1.12    1.52
   2   4 -13    1.57    1.45
  -2  -4  13    1.77    1.74
  -2  -4  13    0.45    1.46
  -2  -4  13    3.02    1.98
   1   4 -13   10.90    2.24
   1   4 -13   10.21    2.01
   1   4 -13    8.30    2.18
  -1  -4  13   12.32    2.45
  -1  -4  13   15.19    3.53
  -1  -4  13   13.98    2.92
   0   4 -13   15.03    2.60
   0   4 -13   13.00    2.29
   0   4 -13   10.78    2.14
   0  -4  13   14.75    2.78
   0  -4  13   13.45    2.69
  -1   4 -13    5.40    1.88
  -1   4 -13    6.24    1.79
  -1   4 -13    6.01    1.65
   1  -4  13    4.05    2.15
   1  -4  13    3.44    1.88
  -2   4 -13    5.31    1.91
  -2   4 -13    4.87    1.92
   2  -4  13    9.57    2.46
   2  -4  13    7.03    2.36
  -3   4 -13    6.51    1.69
  -3   4 -13    6.10    2.06
   3  -4  13    6.20    2.27
   3  -4  13    3.54    2.12
   3   3 -13    5.89    2.03
   3   3 -13    6.77    2.33
  -3  -3  13    7.51    2.05
  -3  -3  13    8.42    2.52
  -3  -3  13   12.04    2.55
   2   3 -13   20.52    2.93
   2   3 -13   16.77    2.91
  -2  -3  13   12.90    2.75
  -2  -3  13   15.92    2.94
  -2  -3  13   16.61    2.88
   1   3 -13   29.51    3.51
   1   3 -13   27.75    3.11
   1   3 -13   29.01    3.33
  -1  -3  13   35.30    4.19
  -1  -3  13   33.87    3.85
   0   3 -13    1.25    1.46
   0   3 -13   -0.84    0.98
   0   3 -13    0.16    1.11
   0  -3  13    0.99    1.50
   0  -3  13    1.24    1.57
  -1   3 -13   47.99    4.49
  -1   3 -13   52.27    4.81
  -1   3 -13   54.65    4.51
   1  -3  13   55.01    5.32
   1  -3  13   48.58    4.93
  -2   3 -13    0.53    1.54
  -2   3 -13    1.81    1.57
   2  -3  13    2.47    2.10
   2  -3  13    1.39    1.63
  -3   3 -13    0.33    1.41
   3  -3  13    2.68    1.85
   3  -3  13    1.24    1.85
   3   2 -13   11.93    2.47
   3   2 -13    9.94    2.61
  -3  -2  13   10.84    2.49
  -3  -2  13   13.84    2.86
   2   2 -13    8.81    2.10
   2   2 -13   13.45    2.71
  -2  -2  13   14.34    2.58
  -2  -2  13   15.95    2.91
   1   2 -13    6.06    1.56
   1   2 -13    4.49    1.65
   1   2 -13    4.97    1.72
  -1  -2  13    2.02    1.77
  -1  -2  13    2.03    1.51
   0   2 -13   15.20    2.63
   0   2 -13   14.13    2.32
   0   2 -13   15.27    2.33
   0  -2  13   19.76    3.09
   0  -2  13   16.82    2.72
  -1   2 -13    5.16    1.59
  -1   2 -13    3.61    1.39
  -1   2 -13    4.65    1.67
   1  -2  13    1.51    1.65
   1  -2  13   -0.20    1.43
  -2   2 -13   15.25    2.69
  -2   2 -13   18.82    2.77
   2  -2  13   16.49    2.84
   2  -2  13   19.25    3.29
  -3   2 -13    1.81    1.43
  -3   2 -13    2.47    1.70
   3  -2  13    3.05    1.94
   3  -2  13    2.31    2.00
   3   1 -13   14.24    2.75
   3   1 -13   18.59    3.05
  -3  -1  13   11.94    2.52
  -3  -1  13   11.96    2.64
   2   1 -13   16.01    2.68
   2   1 -13   13.98    2.64
  -2  -1  13   14.90    2.81
  -2  -1  13   14.19    2.58
   1   1 -13   18.39    2.66
   1   1 -13   15.47    2.28
   1   1 -13   13.57    2.54
  -1  -1  13   14.72    2.69
  -1  -1  13   17.98    2.97
   0   1 -13    3.50    1.39
   0   1 -13    4.34    1.65
   0   1 -13    3.60    1.62
   0  -1  13    5.51    1.84
   0  -1  13    8.18    2.19
  -1   1 -13    8.38    1.80
  -1   1 -13    7.63    1.96
  -1   1 -13    9.48    1.97
   1  -1  13   10.85    2.44
   1  -1  13    9.78    2.32
  -2   1 -13    5.77    1.84
  -2   1 -13    5.63    1.75
   2  -1  13    3.18    1.92
   2  -1  13    1.43    1.50
  -3   1 -13    7.52    2.07
  -3   1 -13    6.37    1.99
   3  -1  13   13.24    2.87
   3  -1  13    9.46    2.35
  -4   1 -13    5.93    2.00
  -4   1 -13    6.19    1.90
   4  -1  13    4.35    2.23
   4  -1  13    4.00    1.96
   3   0 -13    9.93    2.34
   3   0 -13   13.80    2.69
  -3   0  13   10.17    2.49
  -3   0  13   12.60    2.52
   2   0 -13   17.52    2.97
   2   0 -13   19.86    2.88
  -2   0  13   13.72    2.48
  -2   0  13   14.23    2.79
   1   0 -13   19.71    2.49
   1   0 -13   26.04    3.29
   1   0 -13   20.84    2.98
  -1   0  13   18.59    2.87
  -1   0  13   18.44    3.09
   0   0 -13   14.37    2.41
   0   0 -13   17.78    2.70
   0   0 -13   16.87    2.36
   0   0  13   16.24    2.61
   0   0  13   17.92    2.90
  -1   0 -13    6.66    1.84
  -1   0 -13    6.16    1.59
  -1   0 -13    6.31    1.75
   1   0  13    6.77    2.23
   1   0  13    8.21    1.98
  -2   0 -13   17.88    2.79
  -2   0 -13   17.43    2.67
   2   0  13   21.49    2.87
   2   0  13   21.66    3.37
  -3   0 -13    4.10    1.67
  -3   0 -13    4.62    1.75
   3   0  13    4.51    2.20
   3   0  13    5.04    1.78
  -4   0 -13    0.64    1.47
  -4   0 -13    0.15    1.35
   4   0  13    5.39    2.29
   4   0  13    2.60    1.77
   3  -1 -13    6.30    2.01
   3  -1 -13    4.80    2.05
  -3   1  13    8.59    2.22
  -3   1  13    6.82    2.13
   2  -1 -13    7.47    2.08
   2  -1 -13    8.15    2.16
  -2   1  13    8.12    1.94
  -2   1  13    6.30    2.10
   1  -1 -13   21.71    2.83
   1  -1 -13   23.61    3.25
   1  -1 -13   20.88    2.60
  -1   1  13   22.13    3.02
   0  -1 -13   13.99    2.39
   0  -1 -13   13.73    2.36
   0  -1 -13   14.44    2.27
   0   1  13   10.54    2.19
   0   1  13   11.67    2.60
  -1  -1 -13   14.33    2.39
  -1  -1 -13   12.45    2.08
  -1  -1 -13   11.79    2.27
   1   1  13   16.55    2.58
   1   1  13   21.68    3.28
  -2  -1 -13    6.55    1.71
  -2  -1 -13    5.32    1.68
   2   1  13    3.51    1.63
   2   1  13    3.10    1.89
  -3  -1 -13   15.71    2.64
  -3  -1 -13   14.47    2.45
   3   1  13   17.09    2.73
   3   1  13   14.41    2.98
  -4  -1 -13    7.06    2.05
  -4  -1 -13    5.72    2.18
   4   1  13    5.55    2.41
   4   1  13    7.01    2.01
   3  -2 -13   11.21    2.66
   3  -2 -13    8.60    2.28
  -3   2  13   14.00    2.74
  -3   2  13   10.49    2.38
   2  -2 -13    9.01    2.28
   2  -2 -13   10.77    2.28
  -2   2  13   13.60    2.69
  -2   2  13   13.12    2.41
   1  -2 -13   10.40    2.30
   1  -2 -13   10.98    2.19
   1  -2 -13    9.09    1.86
  -1   2  13   12.86    2.22
  -1   2  13   10.40    2.34
   0  -2 -13   32.37    3.42
   0  -2 -13   34.32    3.60
   0  -2 -13   39.43    3.82
   0   2  13   35.14    3.58
   0   2  13   35.04    3.99
  -1  -2 -13   14.27    2.21
  -1  -2 -13   10.33    2.11
  -1  -2 -13   16.02    2.40
   1   2  13    8.21    2.26
   1   2  13   10.05    1.97
  -2  -2 -13   17.98    2.79
  -2  -2 -13   18.20    2.63
   2   2  13   24.02    3.62
   2   2  13   19.65    2.97
  -3  -2 -13    1.60    1.36
  -3  -2 -13    1.09    1.45
   3   2  13    1.31    1.80
  -4  -2 -13    1.10    1.45
   4   2  13    2.06    2.13
   3  -3 -13   25.79    3.82
   3  -3 -13   25.71    3.60
  -3   3  13   25.43    3.69
   2  -3 -13    7.13    2.09
   2  -3 -13    4.80    2.06
  -2   3  13    7.43    2.20
   1  -3 -13   15.65    2.38
   1  -3 -13   20.83    2.95
   1  -3 -13   19.86    2.93
  -1   3  13   15.92    2.91
   0  -3 -13   10.80    2.25
   0  -3 -13   11.19    2.16
   0  -3 -13   10.38    2.01
   0   3  13   12.93    2.62
  -1  -3 -13   20.08    2.68
  -1  -3 -13   16.89    2.59
   1   3  13   13.11    2.86
  -2  -3 -13   23.12    2.86
  -2  -3 -13   24.15    2.96
   2   3  13   21.43    3.52
  -3  -3 -13   27.08    3.27
   3   3  13   25.05    3.90
   2  -4 -13   35.13    3.98
   2  -4 -13   36.21    3.86
   2  -4 -13   31.67    3.58
  -2   4  13   27.20    3.83
   1  -4 -13   11.97    2.17
   1  -4 -13   11.22    2.46
   1  -4 -13   13.18    2.43
  -1   4  13   11.42    2.56
   0  -4 -13   27.61    3.32
   0  -4 -13   23.97    3.83
   0  -4 -13   30.89    3.28
   0   4  13   28.37    3.62
  -1  -4 -13    7.82    1.95
  -1  -4 -13    7.36    1.96
   1   4  13    9.17    2.30
  -2  -4 -13    6.69    1.83
   2   4  13    6.55    2.26
  -3  -4 -13   11.09    2.31
   3   4  13    9.14    2.54
   3   4  13    8.79    2.30
   2  -5 -13   13.12    2.43
   2  -5 -13    9.34    2.39
  -2   5  13   16.99    2.82
  -2   5  13   17.81    2.97
   1  -5 -13    4.33    1.64
   1  -5 -13    2.85    1.66
  -1   5  13    6.37    2.00
  -1   5  13    9.98    2.38
   0  -5 -13   25.79    2.92
   0  -5 -13   23.46    2.99
   0  -5 -13   23.31    2.75
   0   5  13   16.04    3.09
   0   5  13   16.19    2.90
  -1  -5 -13   20.02    2.94
  -1  -5 -13   22.91    2.92
   1   5  13   25.11    3.55
   1   5  13   22.60    3.43
  -2  -5 -13    2.73    1.50
  -2  -5 -13    2.99    1.64
   2   5  13   -0.49    1.48
   2   5  13   -0.30    1.38
  -3  -5 -13    4.60    1.76
  -3  -5 -13    6.24    2.16
   3   5  13    6.84    2.08
   3   5  13    5.61    2.31
   1  -6 -13    6.87    2.09
   1  -6 -13    9.08    2.10
  -1   6  13   10.25    2.46
  -1   6  13   12.06    2.62
   0  -6 -13   11.31    2.34
   0  -6 -13   10.48    2.27
   0   6  13   19.29    3.01
   0   6  13   17.98    2.98
  -1  -6 -13   12.61    2.33
  -1  -6 -13   15.10    2.58
   1   6  13    8.70    2.46
   1   6  13    8.91    2.40
  -2  -6 -13   18.18    2.83
  -2  -6 -13   20.34    3.05
   2   6  13   20.16    3.32
   2   6  13   22.37    3.33
   1   3 -14    4.28    2.00
   1   3 -14    4.27    1.57
   1   3 -14    3.31    1.58
  -1  -3  14    7.35    2.37
  -1  -3  14    6.07    2.24
   0   3 -14   28.83    3.02
   0   3 -14   23.68    3.36
   0  -3  14   17.58    3.16
   0  -3  14   17.89    3.30
  -1   3 -14    2.52    1.83
  -1   3 -14    3.84    1.64
   1  -3  14    4.69    2.06
   1  -3  14    5.68    2.21
   1   2 -14   26.61    3.00
   1   2 -14   24.36    3.40
   1   2 -14   27.89    3.62
  -1  -2  14   21.94    3.42
  -1  -2  14   22.09    3.70
   0   2 -14   11.36    2.24
   0   2 -14   11.78    2.58
   0   2 -14   13.37    2.33
   0  -2  14   17.18    3.05
   0  -2  14   13.22    2.81
  -1   2 -14    8.77    2.05
  -1   2 -14   13.22    2.61
   1  -2  14   11.17    2.66
   1  -2  14    9.65    2.36
  -2   2 -14    1.93    1.57
  -2   2 -14    0.61    1.43
   2  -2  14   -0.18    1.92
   2  -2  14   -0.06    1.73
   1   1 -14   10.56    2.40
   1   1 -14   11.64    2.35
   1   1 -14   14.73    2.26
  -1  -1  14   13.17    2.96
  -1  -1  14    9.55    2.30
   0   1 -14   13.50    2.36
   0   1 -14   16.00    2.73
   0   1 -14   12.59    2.25
   0  -1  14   11.85    2.72
   0  -1  14   13.18    2.67
  -1   1 -14   12.28    2.59
  -1   1 -14   12.56    2.19
  -1   1 -14   14.95    2.40
   1  -1  14   10.02    2.60
   1  -1  14   12.24    2.58
  -2   1 -14   14.02    2.67
  -2   1 -14   17.61    2.75
   2  -1  14   17.14    2.95
   2  -1  14   19.23    3.44
   2   0 -14    1.98    1.76
   2   0 -14    2.14    1.60
  -2   0  14    5.88    2.38
  -2   0  14    3.19    1.84
   1   0 -14    1.56    2.06
   1   0 -14    5.33    1.78
   1   0 -14    5.82    2.21
  -1   0  14    5.84    2.15
  -1   0  14    4.68    1.78
   0   0 -14   11.08    2.26
   0   0 -14   12.91    2.57
   0   0 -14   11.61    2.16
   0   0  14   11.71    2.67
   0   0  14   11.95    2.49
  -1   0 -14    8.90    2.04
  -1   0 -14    9.86    2.07
  -1   0 -14    8.95    2.14
   1   0  14    6.44    2.04
   1   0  14    9.51    2.48
  -2   0 -14    2.64    1.67
  -2   0 -14    3.42    1.56
   2   0  14    3.31    2.08
   2   0  14    3.20    1.86
   1  -1 -14   11.62    2.53
   1  -1 -14   10.13    2.36
  -1   1  14   12.81    2.44
   0  -1 -14   10.64    2.12
   0  -1 -14    8.95    2.24
   0  -1 -14   10.71    2.04
   0   1  14    9.01    2.45
   0   1  14    7.10    2.14
  -1  -1 -14   17.16    2.56
  -1  -1 -14   15.09    2.58
  -1  -1 -14   17.46    2.66
   1   1  14   15.79    2.66
   1   1  14   16.74    3.11
  -2  -1 -14   18.63    2.86
  -2  -1 -14   19.62    2.93
   2   1  14   14.54    2.67
   2   1  14   17.27    3.37
   1  -2 -14   20.79    3.17
   1  -2 -14   24.27    3.23
  -1   2  14   18.34    3.25
   0  -2 -14   12.11    2.50
   0  -2 -14    9.13    2.19
   0  -2 -14    9.20    2.06
   0   2  14   11.53    2.69
  -1  -2 -14    2.76    1.67
  -1  -2 -14    2.72    1.60
  -1  -2 -14    4.42    1.62
   1   2  14    0.34    1.99
  -2  -2 -14   10.49    2.36
  -2  -2 -14   10.85    2.20
   2   2  14    7.94    2.50
   1  -3 -14    7.62    2.13
   1  -3 -14    6.56    1.94
  -1   3  14    5.56    2.06
   0  -3 -14   19.47    2.74
   0  -3 -14   23.50    3.30
   0   3  14   14.11    3.01
  -1  -3 -14   11.68    2.30
  -1  -3 -14    9.25    2.20
   1   3  14   10.79    2.85
  -2  -3 -14    1.26    1.48
  -2  -3 -14   -0.48    1.78
   2   3  14    0.49    1.83
   0  -4 -14    4.93    1.74
   0   4  14    2.48    1.94
   0   0   0    0.00    0.00
;
_shelx_hkl_checksum              84076
loop_
_space_group_symop_operation_xyz
'x, y, z'
loop_
_atom_site_type_symbol
_atom_site_label
_atom_site_fract_x
_atom_site_fract_y
_atom_site_fract_z
_atom_site_U_iso_or_equiv
_atom_site_adp_type
_atom_site_calc_flag
_atom_site_refinement_flags_posn
_atom_site_occupancy
Br Br1 -0.15920(2) 0.63080(2) 1.04162(2) 0.01802(6) Uani d . 1
O O1 -0.0363(2) 0.21552(16) 0.49123(15) 0.0161(3) Uani d . 1
O O2 0.4705(6) 0.3860(3) 0.1176(2) 0.0750(10) Uani d . 1
O O3 0.6810(4) 0.3967(3) 0.2917(3) 0.0608(8) Uani d . 1
O O4 0.2146(3) -0.04532(15) 0.37967(15) 0.0168(3) Uani d . 1
O O5 0.2907(2) 0.10825(15) 0.21289(14) 0.0129(3) Uani d . 1
O O6 0.4354(3) 0.11174(15) 0.66386(14) 0.0148(3) Uani d . 1
O O7 0.6337(3) -0.04073(17) 0.52540(16) 0.0119(3) Uani d . 1
N N1 0.5002(5) 0.3870(2) 0.2401(2) 0.0342(6) Uani d . 1
C C1 0.1086(4) 0.2843(2) 0.5366(2) 0.0105(4) Uani d . 1
C C2 0.3368(3) 0.29258(19) 0.45555(19) 0.0101(4) Uani d . 1
H H2 0.445493 0.339298 0.512512 0.012 Uiso calc R 1
C C3 0.2880(4) 0.3836(2) 0.3303(2) 0.0157(4) Uani d . 1
H H3 0.164486 0.343717 0.278943 0.019 Uiso calc R 1
C C4 0.2142(4) 0.5306(2) 0.3649(2) 0.0210(5) Uani d . 1
H H4A 0.067484 0.533563 0.416561 0.032 Uiso calc GR 1
H H4B 0.196684 0.584507 0.28121 0.032 Uiso calc GR 1
H H4C 0.330619 0.569235 0.419224 0.032 Uiso calc GR 1
C C5 0.4420(3) 0.14709(19) 0.42270(19) 0.0095(3) Uani d . 1
H H5 0.589516 0.158237 0.370225 0.011 Uiso calc R 1
C C6 0.2982(3) 0.0573(2) 0.3384(2) 0.0112(4) Uani d . 1
C C7 0.5011(3) 0.0719(2) 0.5532(2) 0.0102(4) Uani d . 1
C C8 0.0595(3) 0.3637(2) 0.66416(19) 0.0104(4) Uani d . 1
C C9 0.2102(3) 0.4522(2) 0.7172(2) 0.0126(4) Uani d . 1
H H9 0.357355 0.459984 0.674542 0.015 Uiso calc R 1
C C10 0.1481(4) 0.5292(2) 0.8315(2) 0.0136(4) Uani d . 1
H H10 0.251701 0.589179 0.867314 0.016 Uiso calc R 1
C C11 -0.0662(4) 0.5174(2) 0.8925(2) 0.0123(4) Uani d . 1
C C12 -0.2174(4) 0.4263(2) 0.8453(2) 0.0139(4) Uani d . 1
H H12 -0.361836 0.416336 0.890585 0.017 Uiso calc R 1
C C13 -0.1531(3) 0.3504(2) 0.7308(2) 0.0129(4) Uani d . 1
H H13 -0.255282 0.288318 0.697126 0.016 Uiso calc R 1
C C14 0.1719(4) 0.0388(2) 0.1054(2) 0.0152(4) Uani d . 1
C C15 -0.0816(4) 0.0367(3) 0.1432(3) 0.0257(5) Uani d . 1
H H15A -0.102777 -0.022128 0.223167 0.039 Uiso calc GR 1
H H15B -0.162201 0.000683 0.067539 0.039 Uiso calc GR 1
H H15C -0.143793 0.130208 0.163446 0.039 Uiso calc GR 1
C C16 0.2864(4) -0.1034(2) 0.0831(2) 0.0201(5) Uani d . 1
H H16A 0.451774 -0.096578 0.067242 0.03 Uiso calc GR 1
H H16B 0.222454 -0.14493 0.004325 0.03 Uiso calc GR 1
H H16C 0.258891 -0.160699 0.163494 0.03 Uiso calc GR 1
C C17 0.2128(4) 0.1304(3) -0.0172(2) 0.0230(5) Uani d . 1
H H17A 0.145342 0.223209 0.00127 0.034 Uiso calc GR 1
H H17B 0.141434 0.093255 -0.095708 0.034 Uiso calc GR 1
H H17C 0.378134 0.13405 -0.036135 0.034 Uiso calc GR 1
C C18 0.7074(3) -0.1380(2) 0.6333(2) 0.0123(4) Uani d . 1
C C19 0.4982(4) -0.1922(2) 0.7068(2) 0.0175(4) Uani d . 1
H H19A 0.415144 -0.117589 0.757475 0.026 Uiso calc GR 1
H H19B 0.547103 -0.265803 0.76962 0.026 Uiso calc GR 1
H H19C 0.397283 -0.228224 0.640721 0.026 Uiso calc GR 1
C C20 0.8402(4) -0.2501(2) 0.5532(2) 0.0184(4) Uani d . 1
H H20A 0.738908 -0.289592 0.489483 0.028 Uiso calc GR 1
H H20B 0.898627 -0.321912 0.61523 0.028 Uiso calc GR 1
H H20C 0.969029 -0.211267 0.502938 0.028 Uiso calc GR 1
C C21 0.8617(4) -0.0679(2) 0.7278(2) 0.0188(4) Uani d . 1
H H21A 0.985934 -0.027607 0.674623 0.028 Uiso calc GR 1
H H21B 0.926855 -0.135596 0.791903 0.028 Uiso calc GR 1
H H21C 0.771628 0.004607 0.777623 0.028 Uiso calc GR 1
loop_
_atom_site_aniso_label
_atom_site_aniso_U_11
_atom_site_aniso_U_22
_atom_site_aniso_U_33
_atom_site_aniso_U_12
_atom_site_aniso_U_13
_atom_site_aniso_U_23
Br1 0.02428(11) 0.01564(9) 0.01405(9) -0.00376(7) 0.00585(7) -0.00507(6)
O1 0.0131(7) 0.0195(7) 0.0162(7) -0.0031(6) -0.0014(6) -0.0062(6)
O2 0.144(3) 0.0589(16) 0.0269(11) -0.0671(18) 0.0438(15) -0.0202(11)
O3 0.0256(11) 0.0727(17) 0.0790(18) 0.0118(11) 0.0206(12) 0.0570(15)
O4 0.0187(7) 0.0155(7) 0.0170(7) -0.0077(6) -0.0011(6) 0.0021(6)
O5 0.0175(7) 0.0131(7) 0.0087(6) -0.0034(6) -0.0025(5) -0.0010(5)
O6 0.0193(8) 0.0150(7) 0.0095(7) 0.0024(6) 0.0004(6) -0.0001(5)
O7 0.0123(8) 0.0115(7) 0.0112(7) 0.0030(6) 0.0006(6) 0.0024(6)
N1 0.0543(16) 0.0131(9) 0.0325(12) 0.0024(10) 0.0245(11) 0.0072(9)
C1 0.0107(10) 0.0108(10) 0.0099(9) 0.0007(8) -0.0011(8) 0.0013(7)
C2 0.0129(9) 0.0093(8) 0.0081(8) -0.0002(7) 0.0002(7) -0.0001(7)
C3 0.0231(11) 0.0127(9) 0.0107(9) 0.0005(8) 0.0018(8) 0.0016(7)
C4 0.0349(13) 0.0114(10) 0.0158(10) 0.0060(9) -0.0015(9) 0.0002(8)
C5 0.0097(9) 0.0102(8) 0.0086(8) -0.0012(7) 0.0004(7) 0.0001(7)
C6 0.0102(9) 0.0132(9) 0.0099(9) 0.0007(7) 0.0006(7) -0.0010(7)
C7 0.0086(8) 0.0103(9) 0.0118(9) -0.0013(7) -0.0005(7) 0.0009(7)
C8 0.0107(9) 0.0103(8) 0.0101(9) 0.0007(7) -0.0016(7) 0.0005(7)
C9 0.0105(9) 0.0141(9) 0.0129(9) -0.0016(7) 0.0017(7) -0.0010(7)
C10 0.0142(10) 0.0134(9) 0.0136(9) -0.0031(7) -0.0016(8) -0.0024(7)
C11 0.0178(10) 0.0103(9) 0.0082(8) 0.0017(7) 0.0010(7) -0.0001(7)
C12 0.0116(9) 0.0159(10) 0.0141(9) -0.0011(7) 0.0026(7) -0.0007(8)
C13 0.0118(9) 0.0141(9) 0.0132(9) -0.0024(7) -0.0011(7) -0.0009(7)
C14 0.0152(10) 0.0193(10) 0.0115(9) -0.0027(8) -0.0031(8) -0.0050(8)
C15 0.0144(11) 0.0416(15) 0.0213(12) -0.0009(10) -0.0023(9) -0.0063(10)
C16 0.0215(11) 0.0185(10) 0.0205(11) -0.0026(9) 0.0009(9) -0.0086(9)
C17 0.0298(13) 0.0275(12) 0.0124(10) -0.0048(10) -0.0042(9) -0.0008(9)
C18 0.0113(9) 0.0115(9) 0.0139(9) 0.0004(7) -0.0015(7) 0.0046(7)
C19 0.0165(11) 0.0157(11) 0.0204(11) -0.0021(9) -0.0008(8) 0.0065(9)
C20 0.0181(10) 0.0131(9) 0.0230(11) 0.0046(8) 0.0006(8) 0.0021(8)
C21 0.0172(10) 0.0196(10) 0.0201(11) -0.0019(8) -0.0064(8) 0.0037(9)
loop_
_atom_type_symbol
_atom_type_description
_atom_type_scat_dispersion_real
_atom_type_scat_dispersion_imag
_atom_type_scat_source
C C 0.0033 0.0016 'International Tables Vol C Tables 4.2.6.8 and 6.1.1.4'
H H 0.0000 0.0000 'International Tables Vol C Tables 4.2.6.8 and 6.1.1.4'
Br Br -0.2901 2.4595 'International Tables Vol C Tables 4.2.6.8 and 6.1.1.4'
N N 0.0061 0.0033 'International Tables Vol C Tables 4.2.6.8 and 6.1.1.4'
O O 0.0106 0.0060 'International Tables Vol C Tables 4.2.6.8 and 6.1.1.4'
loop_
_geom_angle_atom_site_label_1
_geom_angle_atom_site_label_2
_geom_angle_atom_site_label_3
_geom_angle
C6 O5 C14 121.40(16)
C7 O7 C18 121.43(17)
O2 N1 C3 116.0(3)
O3 N1 O2 125.5(3)
O3 N1 C3 118.4(2)
O1 C1 C2 118.1(2)
O1 C1 C8 120.5(2)
C8 C1 C2 121.36(19)
C1 C2 H2 108.3
C1 C2 C3 107.02(16)
C1 C2 C5 110.32(16)
C3 C2 H2 108.3
C3 C2 C5 114.42(16)
C5 C2 H2 108.3
N1 C3 C2 109.98(18)
N1 C3 H3 108.8
N1 C3 C4 106.91(18)
C2 C3 H3 108.8
C4 C3 C2 113.40(17)
C4 C3 H3 108.8
C3 C4 H4A 109.5
C3 C4 H4B 109.5
C3 C4 H4C 109.5
H4A C4 H4B 109.5
H4A C4 H4C 109.5
H4B C4 H4C 109.5
C2 C5 H5 107.1
C6 C5 C2 116.35(16)
C6 C5 H5 107.1
C7 C5 C2 109.54(15)
C7 C5 H5 107.1
C7 C5 C6 109.20(15)
O4 C6 O5 126.59(19)
O4 C6 C5 124.41(18)
O5 C6 C5 108.94(16)
O6 C7 O7 126.67(18)
O6 C7 C5 123.61(17)
O7 C7 C5 109.73(16)
C9 C8 C1 123.83(18)
C9 C8 C13 118.72(18)
C13 C8 C1 117.42(18)
C8 C9 H9 119.6
C10 C9 C8 120.83(18)
C10 C9 H9 119.6
C9 C10 H10 120.4
C11 C10 C9 119.11(19)
C11 C10 H10 120.4
C10 C11 Br1 119.24(15)
C10 C11 C12 121.56(19)
C12 C11 Br1 119.18(15)
C11 C12 H12 120.7
C13 C12 C11 118.59(19)
C13 C12 H12 120.7
C8 C13 H13 119.4
C12 C13 C8 121.11(19)
C12 C13 H13 119.4
O5 C14 C15 109.74(17)
O5 C14 C16 109.15(17)
O5 C14 C17 102.44(16)
C15 C14 C16 112.99(19)
C15 C14 C17 111.24(19)
C16 C14 C17 110.75(18)
C14 C15 H15A 109.5
C14 C15 H15B 109.5
C14 C15 H15C 109.5
H15A C15 H15B 109.5
H15A C15 H15C 109.5
H15B C15 H15C 109.5
C14 C16 H16A 109.5
C14 C16 H16B 109.5
C14 C16 H16C 109.5
H16A C16 H16B 109.5
H16A C16 H16C 109.5
H16B C16 H16C 109.5
C14 C17 H17A 109.5
C14 C17 H17B 109.5
C14 C17 H17C 109.5
H17A C17 H17B 109.5
H17A C17 H17C 109.5
H17B C17 H17C 109.5
O7 C18 C19 109.68(16)
O7 C18 C20 101.99(16)
O7 C18 C21 109.52(16)
C19 C18 C21 112.67(18)
C20 C18 C19 111.18(18)
C20 C18 C21 111.26(17)
C18 C19 H19A 109.5
C18 C19 H19B 109.5
C18 C19 H19C 109.5
H19A C19 H19B 109.5
H19A C19 H19C 109.5
H19B C19 H19C 109.5
C18 C20 H20A 109.5
C18 C20 H20B 109.5
C18 C20 H20C 109.5
H20A C20 H20B 109.5
H20A C20 H20C 109.5
H20B C20 H20C 109.5
C18 C21 H21A 109.5
C18 C21 H21B 109.5
C18 C21 H21C 109.5
H21A C21 H21B 109.5
H21A C21 H21C 109.5
H21B C21 H21C 109.5
loop_
_geom_bond_atom_site_label_1
_geom_bond_atom_site_label_2
_geom_bond_distance
Br1 C11 1.895(2)
O1 C1 1.216(3)
O2 N1 1.230(3)
O3 N1 1.201(3)
O4 C6 1.203(2)
O5 C6 1.333(2)
O5 C14 1.486(2)
O6 C7 1.205(2)
O7 C7 1.329(2)
O7 C18 1.478(2)
N1 C3 1.501(3)
C1 C2 1.535(3)
C1 C8 1.496(3)
C2 H2 1.0
C2 C3 1.540(3)
C2 C5 1.543(3)
C3 H3 1.0
C3 C4 1.511(3)
C4 H4A 0.98
C4 H4B 0.98
C4 H4C 0.98
C5 H5 1.0
C5 C6 1.528(3)
C5 C7 1.517(3)
C8 C9 1.394(3)
C8 C13 1.396(3)
C9 H9 0.95
C9 C10 1.387(3)
C10 H10 0.95
C10 C11 1.380(3)
C11 C12 1.390(3)
C12 H12 0.95
C12 C13 1.386(3)
C13 H13 0.95
C14 C15 1.516(3)
C14 C16 1.516(3)
C14 C17 1.518(3)
C15 H15A 0.98
C15 H15B 0.98
C15 H15C 0.98
C16 H16A 0.98
C16 H16B 0.98
C16 H16C 0.98
C17 H17A 0.98
C17 H17B 0.98
C17 H17C 0.98
C18 C19 1.520(3)
C18 C20 1.512(3)
C18 C21 1.521(3)
C19 H19A 0.98
C19 H19B 0.98
C19 H19C 0.98
C20 H20A 0.98
C20 H20B 0.98
C20 H20C 0.98
C21 H21A 0.98
C21 H21B 0.98
C21 H21C 0.98
loop_
_geom_torsion_atom_site_label_1
_geom_torsion_atom_site_label_2
_geom_torsion_atom_site_label_3
_geom_torsion_atom_site_label_4
_geom_torsion
Br1 C11 C12 C13 175.87(15)
O1 C1 C2 C3 72.5(2)
O1 C1 C2 C5 -52.5(2)
O1 C1 C8 C9 -175.3(2)
O1 C1 C8 C13 2.8(3)
O2 N1 C3 C2 141.7(2)
O2 N1 C3 C4 -94.8(3)
O3 N1 C3 C2 -41.6(3)
O3 N1 C3 C4 81.9(3)
C1 C2 C3 N1 -175.41(18)
C1 C2 C3 C4 64.9(2)
C1 C2 C5 C6 60.3(2)
C1 C2 C5 C7 -64.1(2)
C1 C8 C9 C10 176.03(19)
C1 C8 C13 C12 -176.32(18)
C2 C1 C8 C9 1.6(3)
C2 C1 C8 C13 179.68(18)
C2 C5 C6 O4 -113.3(2)
C2 C5 C6 O5 69.4(2)
C2 C5 C7 O6 12.6(3)
C2 C5 C7 O7 -167.07(16)
C3 C2 C5 C6 -60.4(2)
C3 C2 C5 C7 175.16(16)
C5 C2 C3 N1 -52.9(2)
C5 C2 C3 C4 -172.52(19)
C6 O5 C14 C15 62.9(2)
C6 O5 C14 C16 -61.4(2)
C6 O5 C14 C17 -178.81(17)
C6 C5 C7 O6 -115.8(2)
C6 C5 C7 O7 64.5(2)
C7 O7 C18 C19 59.1(2)
C7 O7 C18 C20 177.05(18)
C7 O7 C18 C21 -65.0(2)
C7 C5 C6 O4 11.3(3)
C7 C5 C6 O5 -166.02(15)
C8 C1 C2 C3 -104.4(2)
C8 C1 C2 C5 130.53(19)
C8 C9 C10 C11 -0.2(3)
C9 C8 C13 C12 1.9(3)
C9 C10 C11 Br1 -176.02(15)
C9 C10 C11 C12 2.6(3)
C10 C11 C12 C13 -2.8(3)
C11 C12 C13 C8 0.5(3)
C13 C8 C9 C10 -2.0(3)
C14 O5 C6 O4 -0.2(3)
C14 O5 C6 C5 177.08(15)
C18 O7 C7 O6 3.6(3)
C18 O7 C7 C5 -176.66(16)
