#------------------------------------------------------------------------------
#$Date: 2018-01-20 08:16:31 +0200 (Sat, 20 Jan 2018) $
#$Revision: 205435 $
#$URL: file:///home/coder/svn-repositories/cod/cif/1/54/87/1548728.cif $
#------------------------------------------------------------------------------
#
# This file is available in the Crystallography Open Database (COD),
# http://www.crystallography.net/. The original data for this entry
# were provided by IUCr Journals, http://journals.iucr.org/.
#
# The file may be used within the scientific community so long as
# proper attribution is given to the journal article from which the
# data were obtained.
#
data_1548728
loop_
_publ_author_name
'Engwerda, Antonius H.J.'
'Brugman, Sander J.T.'
'Tinnemans, Paul'
'Vlieg, Elias'
_publ_section_title
;
 3-Nitrobenzaldehyde
;
_journal_coeditor_code           HB4202
_journal_issue                   1
_journal_name_full               IUCrData
_journal_page_first              x180092
_journal_paper_doi               10.1107/S2414314618000925
_journal_volume                  3
_journal_year                    2018
_chemical_formula_iupac          'C7 H5 N O3'
_chemical_formula_moiety         'C7 H5 N O3'
_chemical_formula_sum            'C7 H5 N O3'
_chemical_formula_weight         151.12
_chemical_melting_point          327
_chemical_name_common
;
meta-nitrobenzaldehyde
m-nitrobenzaldehyde
;
_chemical_name_systematic        3-Nitrobenzaldehyde
_space_group_crystal_system      monoclinic
_space_group_IT_number           4
_space_group_name_Hall           'P 2yb'
_space_group_name_H-M_alt        'P 1 21 1'
_symmetry_space_group_name_Hall  'P 2yb'
_symmetry_space_group_name_H-M   'P 1 21 1'
_atom_sites_solution_hydrogens   geom
_atom_sites_solution_primary     direct
_atom_sites_solution_secondary   difmap
_audit_creation_method           SHELXL-2016/6
_cell_angle_alpha                90
_cell_angle_beta                 94.8144(16)
_cell_angle_gamma                90
_cell_formula_units_Z            2
_cell_length_a                   3.7363(2)
_cell_length_b                   7.0071(3)
_cell_length_c                   12.5877(6)
_cell_measurement_reflns_used    9919
_cell_measurement_temperature    150(2)
_cell_measurement_theta_max      40.3
_cell_measurement_theta_min      2.9
_cell_volume                     328.39(3)
_computing_cell_refinement
;
<i>PEAKREF</i> (Schreurs, 2013)
;
_computing_data_collection
;
APEX3 (Bruker, 2012)
;
_computing_data_reduction
;
SAINT (Bruker, 2012)
;
_computing_molecular_graphics
;
PLATON (Spek, 2009) and <i>ShelXLe</i> (H\"ubschle <i>et al.</i>,
2011)
;
_computing_structure_refinement
;
<i>SHELXL2016/6</i> (Sheldrick, 2015b)
;
_computing_structure_solution
;
<i>SHELXT2014/4</i> (Sheldrick, 2015a)
;
_diffrn_ambient_temperature      150(2)
_diffrn_detector_area_resol_mean 10.4
_diffrn_measured_fraction_theta_full 0.997
_diffrn_measured_fraction_theta_max 0.998
_diffrn_measurement_device       'Bruker D8 Quest APEX3'
_diffrn_measurement_method       '\f and \w scans'
_diffrn_radiation_monochromator  graphite
_diffrn_radiation_type           MoK\a
_diffrn_radiation_wavelength     0.71073
_diffrn_reflns_av_R_equivalents  0.0207
_diffrn_reflns_limit_h_max       6
_diffrn_reflns_limit_h_min       -6
_diffrn_reflns_limit_k_max       12
_diffrn_reflns_limit_k_min       -12
_diffrn_reflns_limit_l_max       22
_diffrn_reflns_limit_l_min       -22
_diffrn_reflns_number            18662
_diffrn_reflns_theta_full        25.242
_diffrn_reflns_theta_max         40.260
_diffrn_reflns_theta_min         3.248
_exptl_absorpt_coefficient_mu    0.122
_exptl_absorpt_correction_T_max  0.7479
_exptl_absorpt_correction_T_min  0.7127
_exptl_absorpt_correction_type   multi-scan
_exptl_absorpt_process_details
;
(SADABS; Bruker, 2011)
;
_exptl_crystal_colour            colourless
_exptl_crystal_density_diffrn    1.528
_exptl_crystal_description       needle
_exptl_crystal_F_000             156
_exptl_crystal_size_max          0.480
_exptl_crystal_size_mid          0.171
_exptl_crystal_size_min          0.090
_refine_diff_density_max         0.376
_refine_diff_density_min         -0.211
_refine_ls_abs_structure_details
;
Flack <i>x</i> determined using 1595 quotients
[(<i>I</i>^+^)-(<i>I</i>^-^)]/[(<i>I</i>^+^)+(<i>I</i>^-^)]
(Parsons <i>et al.</i>,  2013).
;
_refine_ls_abs_structure_Flack   -0.02(13)
_refine_ls_extinction_method     none
_refine_ls_goodness_of_fit_ref   1.051
_refine_ls_hydrogen_treatment    constr
_refine_ls_matrix_type           full
_refine_ls_number_parameters     100
_refine_ls_number_reflns         4005
_refine_ls_number_restraints     1
_refine_ls_restrained_S_all      1.051
_refine_ls_R_factor_all          0.0337
_refine_ls_R_factor_gt           0.0299
_refine_ls_shift/su_max          0.000
_refine_ls_shift/su_mean         0.000
_refine_ls_structure_factor_coef Fsqd
_refine_ls_weighting_details
'w=1/[\s^2^(Fo^2^)+(0.0643P)^2^+0.0066P] where P=(Fo^2^+2Fc^2^)/3'
_refine_ls_weighting_scheme      calc
_refine_ls_wR_factor_gt          0.0863
_refine_ls_wR_factor_ref         0.0890
_reflns_number_gt                3735
_reflns_number_total             4005
_reflns_threshold_expression     'I > 2\s(I)'
_cod_data_source_file            hb4202sup1.cif
_cod_data_source_block           I
_cod_database_code               1548728
_shelx_space_group_comment
;
The symmetry employed for this shelxl refinement is uniquely defined
by the following loop, which should always be used as a source of
symmetry information in preference to the above space-group names.
They are only intended as comments.
;
_shelx_estimated_absorpt_t_min   0.944
_shelx_estimated_absorpt_t_max   0.989
_shelx_hkl_file
;
   1   0   0 234.461 5.67996   1
   1   0   0 237.573 5.67551   2
   1   0   0 237.831 5.67164   2
   1   0   0 234.768 5.68028   3
   1   0   0 234.065 5.68205   3
   1   0   0 239.442 5.67984   1
  -1   0   0 236.173 5.67216   1
  -1   0   0 241.371 5.66135   2
  -1   0   0 232.355 5.66342   2
  -1   0   0 228.466 5.67276   3
  -2   0   0 165.696 3.96561   2
  -2   0   0 158.218 3.96680   2
  -2   0   0 161.518 4.00413   3
  -2   0   0 164.551 4.01622   3
   2   0   0 160.265 4.00593   2
   2   0   0 161.381 4.02719   3
   2   0   0 155.812 4.02432   3
  -2   0   0 160.422 3.98457   1
   2   0   0 164.660 4.03049   1
  -2   0   0 164.409 3.97645   1
   2   0   0 157.885 4.02910   1
   2   0   0 167.163 4.02280   2
  -3   0   0 450.772 11.0399   3
   3   0   0 464.688 11.1104   3
   3   0   0 444.525 11.1021   3
   3   0   0 460.644 11.1083   1
  -3   0   0 462.547 10.9837   1
   3   0   0 463.679 11.0872   2
   3   0   0 445.365 11.1122   1
   4   0   0 5.70284 0.86735   1
   4   0   0 6.75113 0.85486   3
   4   0   0 7.14490 1.20196   3
  -4   0   0 4.97067 0.69856   3
   4   0   0 5.73754 0.86556   2
   4   0   0 4.89712 0.97639   1
   5   0   0 40.5167 2.29777   3
   5   0   0 38.4786 2.32694   2
   5   0   0 42.0340 2.34079   1
   6   0   0 -1.3781 1.68239   3
   6   0   0 2.99562 1.84846   1
   0  -1   0 6.88027 0.31684   1
   0   1   0 7.23814 0.31565   3
   0   1   0 6.93230 0.28308   2
   1  -1   0 7516.86 181.275   1
  -1  -1   0 7423.56 181.511   2
   1  -1   0 7684.79 181.292   2
   1  -1   0 7409.05 181.318   3
  -1  -1   0 7896.90 181.536   1
  -1  -1   0 7640.08 181.578   3
   1  -1   0 7679.78 181.261   2
   1  -1   0 7546.95 181.310   1
  -1  -1   0 7567.56 181.489   2
  -1  -1   0 7925.59 181.542   3
  -1  -1   0 7701.82 181.576   1
   1  -1   0 7519.17 181.300   3
  -1   1   0 7148.72 181.391   3
  -1   1   0 7713.19 181.173   1
  -1   1   0 7618.41 181.159   2
   1   1   0 7764.81 181.550   2
  -1   1   0 7705.50 181.169   1
   1   1   0 7680.50 181.561   1
   1   1   0 7408.34 181.595   1
   1   1   0 7710.94 181.501   2
   1   1   0 7470.03 181.554   3
   1   1   0 7726.34 181.540   3
   2  -1   0 1201.33 29.5111   3
  -2  -1   0 1288.17 29.5534   3
  -2  -1   0 1289.05 29.5225   2
   2  -1   0 1246.28 29.5092   3
  -2  -1   0 1198.93 29.5415   3
   2  -1   0 1237.40 29.5109   1
   2  -1   0 1277.58 29.5057   2
   2  -1   0 1203.86 29.5130   1
   2  -1   0 1233.46 29.5002   2
  -2  -1   0 1191.40 29.5203   2
  -2  -1   0 1263.96 29.5367   1
   2   1   0 1246.22 29.5634   1
  -2   1   0 1292.19 29.4853   3
   2   1   0 1242.17 29.5513   2
   2   1   0 1209.39 29.5647   3
   2   1   0 1257.59 29.5598   3
   2   1   0 1172.48 29.5586   1
  -2   1   0 1196.14 29.4795   3
  -3  -1   0 84.2863 2.34770   3
  -3  -1   0 79.6068 2.27355   2
   3  -1   0 82.8814 2.33025   1
   3  -1   0 83.4566 2.35163   1
  -3  -1   0 89.1732 2.29777   2
   3  -1   0 83.5109 2.41079   2
   3  -1   0 79.6049 2.32954   3
  -3  -1   0 83.1330 2.29245   1
   3  -1   0 83.1548 2.29844   2
   3  -1   0 85.4262 2.36147   3
   3   1   0 84.3120 2.43036   3
   3   1   0 85.0267 2.37159   2
   3   1   0 83.1281 2.49352   3
  -3   1   0 81.9900 2.34804   3
   3   1   0 81.5056 2.42495   1
  -3   1   0 82.1234 2.21267   3
   3   1   0 84.4406 2.45241   1
   4  -1   0 67.9677 2.31104   1
   4  -1   0 71.8783 2.52493   3
   4  -1   0 69.6121 2.28678   3
  -4  -1   0 71.2520 2.22170   3
   4  -1   0 66.5727 2.33070   1
   4  -1   0 71.0904 2.30617   2
  -4  -1   0 70.5158 2.18616   1
   4   1   0 70.9423 2.44682   3
   4   1   0 70.9340 2.41734   1
   4   1   0 62.6834 3.01032   3
   4   1   0 68.3086 2.38680   2
   5  -1   0 37.4853 2.16296   3
   5  -1   0 35.0383 2.31689   2
   5  -1   0 38.6205 2.21922   1
   5   1   0 35.1948 2.38651   3
   5   1   0 37.1156 2.38571   1
   5   1   0 34.7342 2.40426   2
   6  -1   0 48.5891 3.38549   1
   6  -1   0 50.9916 3.27002   3
   6   1   0 44.8729 3.72377   3
   6   1   0 45.3549 2.93326   2
   6   1   0 41.9967 3.52368   1
   0  -2   0 9901.17 233.388   3
   0  -2   0 9988.27 233.351   2
   0  -2   0 9538.82 233.394   1
   0  -2   0 9568.26 233.355   2
   0  -2   0 9680.02 233.395   1
   0   2   0 9999.99 233.320   1
   0   2   0 9910.07 233.311   3
   0   2   0 9743.81 233.351   2
  -1  -2   0 1032.13 25.6075   2
   1  -2   0 1056.95 25.5577   3
   1  -2   0 1034.54 25.5609   1
  -1  -2   0 1056.99 25.6180   1
   1  -2   0 1083.15 25.5615   1
  -1  -2   0 1059.74 25.6218   3
   1  -2   0 1059.74 25.5532   2
  -1  -2   0 1119.20 25.6242   3
   1  -2   0 1098.55 25.5533   2
  -1  -2   0 1084.63 25.6199   1
  -1  -2   0 1106.41 25.6081   2
   1   2   0 1114.90 25.6180   2
  -1   2   0 1066.36 25.5510   3
  -1   2   0 1065.45 25.5308   2
   1   2   0 1048.31 25.6104   2
  -1   2   0 1077.67 25.5339   1
  -1   2   0 1088.41 25.5511   3
  -1   2   0 1057.43 25.5285   2
  -1   2   0 1090.02 25.5341   1
   1   2   0 1054.64 25.6242   1
   1   2   0 1041.09 25.6798   1
   1   2   0 1101.70 25.6243   3
   1   2   0 1049.34 25.6226   3
   2  -2   0 465.382 11.1719   3
   2  -2   0 456.327 11.1785   1
  -2  -2   0 476.043 11.2315   2
   2  -2   0 461.576 11.1721   1
   2  -2   0 483.504 11.1701   2
   2  -2   0 464.885 11.1634   2
  -2  -2   0 463.183 11.2430   1
  -2  -2   0 470.383 11.2731   3
  -2  -2   0 470.541 11.2617   1
  -2  -2   0 453.626 11.2505   3
  -2  -2   0 453.005 11.2255   2
   2  -2   0 460.555 11.1768   3
  -2   2   0 475.572 11.1359   3
   2   2   0 455.520 11.2481   2
   2   2   0 423.691 11.2833   3
   2   2   0 477.614 11.2887   1
   2   2   0 465.166 11.2778   1
   2   2   0 469.035 11.2686   3
   2   2   0 471.606 11.2709   2
   3  -2   0 295.343 7.17129   2
   3  -2   0 288.251 7.14959   1
  -3  -2   0 290.284 7.16115   2
   3  -2   0 293.237 7.13646   1
  -3  -2   0 287.872 7.20700   3
   3  -2   0 291.098 7.11605   2
   3  -2   0 282.903 7.13411   3
  -3  -2   0 297.372 7.18464   2
   3  -2   0 291.898 7.14369   3
   3   2   0 281.062 7.26266   3
   3   2   0 291.159 7.31389   3
   3   2   0 287.607 7.22508   2
   3   2   0 285.953 7.27050   1
   3   2   0 296.538 7.29740   1
  -3   2   0 283.157 7.03526   3
   4  -2   0 102.379 2.95281   3
   4  -2   0 100.726 3.09131   3
   4  -2   0 99.2204 3.24883   2
  -4  -2   0 106.640 3.05288   2
  -4  -2   0 100.755 3.00581   3
   4  -2   0 100.681 3.01260   1
   4  -2   0 103.215 3.01309   1
  -4  -2   0 102.317 2.86712   2
   4   2   0 98.1452 3.53518   1
   4   2   0 100.404 3.12444   2
   4   2   0 103.064 3.17521   3
   4   2   0 101.152 3.17615   1
   5  -2   0 300.512 7.97104   2
   5  -2   0 311.347 7.94018   3
   5  -2   0 303.115 7.97577   1
   5   2   0 305.373 8.10286   2
   5   2   0 321.114 8.15819   3
   5   2   0 307.564 8.16929   1
   6  -2   0 3.75022 1.83974   1
   6  -2   0 6.52151 1.72872   3
   6   2   0 3.33109 2.38125   2
   6   2   0 1.89172 2.01955   1
   6   2   0 -2.9407 1.88793   3
   0  -3   0 0.36172 0.29646   1
   0  -3   0 0.89212 0.30146   2
   0  -3   0 0.50819 0.28381   3
   0  -3   0 0.95472 0.34191   2
   0  -3   0 0.20637 0.29509   3
   0  -3   0 0.51060 0.30099   1
   0   3   0 0.52387 0.29666   1
   0   3   0 0.55232 0.30689   3
   0   3   0 0.02709 0.31967   3
   0   3   0 0.31797 0.31203   2
   0   3   0 0.34608 0.34233   2
   0   3   0 1.18311 0.36464   1
  -1  -3   0 490.311 11.9621   3
  -1  -3   0 503.434 11.9631   3
   1  -3   0 509.558 11.8798   2
  -1  -3   0 525.193 11.9532   2
  -1  -3   0 480.176 11.9574   1
   1  -3   0 465.467 11.8860   1
   1  -3   0 493.735 11.8848   3
   1  -3   0 483.958 11.8799   2
  -1  -3   0 498.883 11.9593   1
   1  -3   0 476.873 11.8887   3
   1  -3   0 496.271 11.8900   1
  -1   3   0 508.046 11.8788   3
  -1   3   0 488.302 11.8722   3
  -1   3   0 494.424 11.8559   1
   1   3   0 486.659 11.9406   2
   1   3   0 500.082 11.9513   2
  -1   3   0 514.655 11.8554   1
  -1   3   0 482.670 11.8463   2
   1   3   0 497.201 11.9603   3
   1   3   0 483.156 11.9569   1
   1   3   0 476.279 11.9553   3
   1   3   0 515.833 11.9737   1
  -1   3   0 499.570 11.8505   2
  -2  -3   0 521.726 13.0821   2
  -2  -3   0 530.885 13.1043   3
   2  -3   0 542.988 12.9925   2
   2  -3   0 538.160 13.0066   3
   2  -3   0 539.109 13.0029   1
  -2  -3   0 551.173 13.0931   2
  -2  -3   0 545.538 13.2552   1
   2  -3   0 532.893 13.0125   1
   2  -3   0 531.907 12.9902   2
   2  -3   0 549.553 13.0003   3
  -2  -3   0 539.543 13.1035   1
  -2   3   0 545.072 12.9564   3
   2   3   0 545.133 13.1356   3
   2   3   0 568.355 13.1458   1
   2   3   0 529.915 13.1238   3
   2   3   0 527.686 13.5370   1
  -3  -3   0 481.021 11.8264   2
   3  -3   0 476.222 11.7527   3
  -3  -3   0 489.941 11.8507   1
  -3  -3   0 489.756 11.8838   3
   3  -3   0 490.565 11.7470   2
   3  -3   0 488.482 11.7568   3
   3  -3   0 480.901 11.7774   1
  -3  -3   0 495.096 11.8755   2
   3  -3   0 484.291 11.7587   1
   3   3   0 478.776 11.9361   1
   3   3   0 480.376 11.8872   2
  -3   3   0 486.809 11.6290   3
   3   3   0 476.626 11.9138   3
   3   3   0 492.710 11.9678   1
  -3   3   0 473.650 11.6338   3
  -4  -3   0 564.697 13.7841   1
   4  -3   0 524.481 14.1491   2
   4  -3   0 557.237 13.7379   1
  -4  -3   0 579.129 13.7430   2
  -4  -3   0 553.438 13.8752   3
   4  -3   0 569.260 13.7168   3
   4  -3   0 555.642 13.7511   1
   4   3   0 570.693 13.9371   3
   4   3   0 569.870 13.9598   1
   4   3   0 577.963 13.8928   2
   5  -3   0 145.440 4.43238   1
   5  -3   0 146.792 4.58033   2
   5  -3   0 151.187 4.35722   3
   5   3   0 150.636 4.71420   2
   5   3   0 157.153 4.84380   1
   5   3   0 156.851 4.76315   3
   6  -3   0 23.3092 2.17720   1
   6  -3   0 24.8896 2.00565   3
   6   3   0 26.5815 2.81294   2
   6   3   0 23.6785 2.56487   1
   6   3   0 24.9047 2.48474   3
   0  -4   0 905.727 22.9322   3
   0  -4   0 970.650 22.9418   1
   0  -4   0 984.019 22.9279   2
   0  -4   0 977.462 22.9397   3
   0  -4   0 941.452 22.9311   2
   0  -4   0 924.753 22.9404   1
   0   4   0 984.259 22.9208   2
   0   4   0 985.813 22.9379   3
   0   4   0 983.203 22.9321   1
   0   4   0 933.766 22.9056   2
   0   4   0 950.064 22.9220   1
   0   4   0 933.460 22.9278   3
   1  -4   0 669.221 16.5592   3
  -1  -4   0 697.159 16.6342   1
  -1  -4   0 723.641 16.6243   2
  -1  -4   0 707.536 16.6459   3
   1  -4   0 678.954 16.5566   1
  -1  -4   0 671.355 16.6251   1
   1  -4   0 681.305 16.5494   2
   1  -4   0 704.208 16.5573   3
   1  -4   0 698.007 16.5445   2
   1   4   0 681.830 16.6329   3
   1   4   0 697.396 16.6376   1
  -1   4   0 680.418 16.5021   2
  -1   4   0 689.212 16.5200   1
  -1   4   0 687.601 16.5116   1
   1   4   0 684.340 16.6294   1
  -1   4   0 675.542 16.5100   2
  -1   4   0 694.489 16.5369   3
  -1   4   0 693.072 16.5415   3
   1   4   0 676.104 16.6271   3
   1   4   0 680.413 16.6197   2
  -2  -4   0 826.892 21.0274   2
  -2  -4   0 891.503 21.0769   3
   2  -4   0 877.641 20.9333   2
   2  -4   0 867.832 20.9474   3
   2  -4   0 908.512 20.9424   2
   2  -4   0 873.108 20.9401   1
   2  -4   0 866.998 20.9572   1
  -2  -4   0 867.560 21.0533   1
  -2   4   0 864.322 20.8827   3
   2   4   0 880.729 21.0873   1
   2   4   0 875.381 21.0914   1
  -2   4   0 883.582 20.8820   3
   2   4   0 853.764 21.0444   2
   2   4   0 874.667 21.0843   3
  -3  -4   0 525.554 12.7779   2
   3  -4   0 537.091 12.6570   2
  -3  -4   0 523.322 12.8269   3
  -3  -4   0 535.067 12.8081   1
   3  -4   0 527.275 12.6716   1
   3  -4   0 517.734 12.6867   1
   3  -4   0 527.608 12.6693   3
   3   4   0 521.378 12.8256   2
   3   4   0 511.303 12.8620   1
   3   4   0 509.744 12.9530   1
   3   4   0 512.336 12.8580   3
  -3   4   0 514.784 12.4969   3
  -3   4   0 512.322 12.5063   3
  -4  -4   0 213.850 5.70352   1
   4  -4   0 206.932 5.52608   1
   4  -4   0 201.474 5.53285   1
   4  -4   0 208.542 5.50883   2
   4  -4   0 207.634 5.48488   3
  -4  -4   0 212.017 5.58049   2
  -4  -4   0 212.402 5.76971   3
   4   4   0 212.485 5.72619   2
   4   4   0 219.969 5.82585   3
   4   4   0 214.843 5.83624   1
   5  -4   0 1.87065 1.16048   3
  -5  -4   0 1.90508 1.23649   2
   5   4   0 -1.6300 2.03974   3
   5   4   0 1.71241 1.54096   2
   5   4   0 3.68091 2.76437   1
   6  -4   0 1.93069 1.88839   3
   6  -4   0 0.17973 1.93237   1
   6   4   0 3.77231 2.42668   3
   6   4   0 -0.5193 2.63766   2
   6   4   0 2.94536 2.56565   1
   0  -5   0 -0.2942 0.47731   1
   0  -5   0 0.25543 0.56220   3
   0  -5   0 0.12423 0.47441   1
   0  -5   0 1.68388 0.44882   3
   0   5   0 0.43218 0.47475   1
   0   5   0 -0.3536 0.46023   2
   0   5   0 0.50867 0.62645   2
   0   5   0 0.58206 0.46337   3
   1  -5   0 1035.90 24.3120   3
   1  -5   0 1008.57 24.3041   2
   1  -5   0 1028.72 24.3179   1
   1  -5   0 989.925 24.3158   3
  -1  -5   0 984.770 24.3858   3
  -1  -5   0 1031.17 24.3818   2
  -1  -5   0 1029.05 24.4038   1
   1  -5   0 979.909 24.3226   1
  -1   5   0 1057.54 24.2530   2
   1   5   0 1001.13 24.3836   3
   1   5   0 1018.01 24.3835   1
  -1   5   0 1004.27 24.2403   2
  -1   5   0 1030.53 24.2542   1
   1   5   0 966.322 24.3465   2
  -1   5   0 1019.87 24.2831   3
   2  -5   0 582.095 14.0517   1
  -2  -5   0 590.907 14.1888   1
  -2  -5   0 572.802 14.1576   2
   2  -5   0 590.525 14.0452   3
   2  -5   0 579.140 14.0573   3
   2  -5   0 581.867 14.0335   2
  -2  -5   0 577.910 14.1945   3
  -2   5   0 582.340 13.9692   3
   2   5   0 566.268 14.1914   3
   2   5   0 575.206 14.2017   1
   2   5   0 576.171 14.1650   2
   3  -5   0 164.542 4.49411   3
   3  -5   0 170.047 4.46096   2
  -3  -5   0 173.006 4.63082   2
  -3  -5   0 172.953 4.68863   1
   3  -5   0 167.152 4.50842   1
   3  -5   0 166.266 4.48359   1
   3  -5   0 173.025 4.47790   3
  -3  -5   0 170.979 4.71342   3
   3   5   0 178.482 4.79251   3
   3   5   0 176.219 4.79910   1
   3   5   0 173.885 4.70351   2
  -3   5   0 166.196 4.44575   3
  -4  -5   0 71.4598 2.69060   2
  -4  -5   0 70.5499 3.11246   3
   4  -5   0 72.8490 2.60598   1
   4  -5   0 69.8137 2.58939   3
   4  -5   0 72.7915 2.63494   2
   4   5   0 77.1662 3.17149   1
   4   5   0 76.2935 2.91204   2
   4   5   0 77.5724 3.08490   3
  -5  -5   0 2.09296 1.55317   2
   5  -5   0 2.61361 1.44204   1
   5  -5   0 0.75333 1.31178   3
   5   5   0 -2.3675 1.77637   1
   5   5   0 -2.0100 1.73608   3
   5   5   0 0.82300 2.43005   2
   6  -5   0 -4.3190 2.08083   1
   6   5   0 3.87573 2.94998   3
   6   5   0 -0.1271 3.03486   1
   6   5   0 3.15166 2.93616   2
   0  -6   0 519.046 12.8810   2
   0  -6   0 525.818 12.9075   3
   0  -6   0 523.512 12.9189   1
   0  -6   0 542.136 12.9344   1
   0  -6   0 537.888 12.9439   3
   0   6   0 534.091 12.8594   1
   0   6   0 513.589 12.8270   2
   0   6   0 526.656 12.8720   3
   0   6   0 524.080 12.8822   2
  -1  -6   0 45.4076 1.74848   2
  -1  -6   0 45.8302 1.82452   1
   1  -6   0 45.9614 1.67454   2
   1  -6   0 47.8000 1.66407   3
  -1  -6   0 46.6853 1.81256   3
   1  -6   0 46.2525 1.70057   1
   1  -6   0 45.9707 1.71069   1
   1  -6   0 46.7304 1.83308   3
   1   6   0 46.3555 1.86786   3
  -1   6   0 48.6642 1.61977   1
  -1   6   0 46.5116 1.67070   3
  -1   6   0 50.6116 1.56264   2
   1   6   0 47.0950 1.82320   1
  -1   6   0 46.8411 1.72180   2
   2  -6   0 110.984 3.11192   1
   2  -6   0 108.716 3.11003   1
  -2  -6   0 108.065 3.31693   1
  -2  -6   0 111.814 3.24177   2
   2  -6   0 108.704 3.08181   2
   2  -6   0 109.423 3.11439   3
   2  -6   0 106.752 3.15490   3
  -2  -6   0 110.451 3.31099   3
   2   6   0 114.255 3.22861   2
   2   6   0 109.940 3.30925   3
  -2   6   0 111.652 2.97708   3
   2   6   0 110.718 3.39635   1
   3  -6   0 165.902 4.41305   3
   3  -6   0 161.922 4.45077   1
   3  -6   0 159.480 4.49145   1
  -3  -6   0 165.658 4.69624   3
   3  -6   0 164.048 4.41667   2
  -3  -6   0 163.406 4.56111   2
   3   6   0 160.343 4.74095   3
   3   6   0 166.536 4.85287   1
   4  -6   0 18.1677 1.27186   3
  -4  -6   0 18.1225 1.69800   3
   4  -6   0 17.8007 1.38232   1
  -4  -6   0 15.8494 1.46986   2
   4  -6   0 18.8892 1.58846   2
   4   6   0 19.5005 1.79048   3
   4   6   0 16.6763 1.78615   2
   4   6   0 18.3673 1.81793   1
  -5  -6   0 -0.2328 1.87185   2
   5  -6   0 0.04490 1.56900   1
   5   6   0 0.89563 2.08921   3
   5   6   0 -1.9841 2.16807   1
   5   6   0 1.10729 2.20988   2
   0  -7   0 -0.2838 0.99847   1
   0  -7   0 0.45015 0.69292   3
   0  -7   0 -0.1335 0.71338   1
   0  -7   0 0.44126 0.74495   2
   0   7   0 -0.2978 0.67719   2
   0   7   0 0.38284 0.75704   1
   0   7   0 0.58653 0.80410   3
  -1  -7   0 1.17331 0.83222   1
  -1  -7   0 1.35438 0.83882   2
   1  -7   0 1.76732 0.70860   3
   1  -7   0 1.82938 0.74535   1
  -1  -7   0 1.40511 0.73582   3
   1  -7   0 3.61120 0.92477   1
   1  -7   0 2.48576 0.73538   2
   1   7   0 1.27374 0.84787   1
  -1   7   0 1.15960 0.67719   2
   1   7   0 2.25542 0.92615   3
   1   7   0 1.30485 0.84150   2
  -1   7   0 2.15746 0.75905   1
  -1   7   0 1.03279 1.03760   2
  -1   7   0 1.30730 0.73586   3
   2  -7   0 15.7586 1.08926   2
  -2  -7   0 14.4875 1.25976   3
   2  -7   0 15.1118 1.09028   3
   2  -7   0 14.8573 1.22672   1
   2  -7   0 14.1845 1.05042   1
  -2  -7   0 16.7848 1.30914   2
  -2  -7   0 11.8857 1.20114   1
   2   7   0 11.1847 1.18622   3
   2   7   0 14.5408 1.33718   1
   2   7   0 14.9162 1.25809   2
  -2   7   0 16.4658 1.32311   3
  -3  -7   0 54.2871 2.44689   2
   3  -7   0 49.9976 2.23934   2
   3  -7   0 57.2763 2.30720   1
   3  -7   0 49.4674 2.27526   3
  -3  -7   0 52.9389 2.64920   3
  -3  -7   0 54.1119 2.78199   1
   3   7   0 56.2122 2.53030   2
   3   7   0 56.0603 2.88054   3
   3   7   0 53.1192 2.87656   1
   4  -7   0 73.8593 3.52944   1
  -4  -7   0 71.4601 3.16942   2
  -4  -7   0 70.9412 3.68214   3
   4  -7   0 72.0296 3.18693   2
   4  -7   0 67.5799 2.88325   3
   4   7   0 73.1315 3.90238   1
   4   7   0 68.8242 4.08425   3
   5  -7   0 2.67104 1.85086   1
   5  -7   0 1.93957 1.89887   3
  -5  -7   0 3.71672 2.24538   2
   5   7   0 -3.9346 2.49729   3
   5   7   0 7.60700 2.73711   1
   5   7   0 4.86901 2.40630   2
   0  -8   0 4.87467 0.92894   2
   0  -8   0 4.90936 0.93146   3
   0  -8   0 4.75626 0.96647   1
   0   8   0 4.37031 0.90343   2
   0   8   0 4.19151 1.04982   3
  -1  -8   0 64.1508 2.45726   2
   1  -8   0 58.4708 2.39959   1
   1  -8   0 61.6313 2.34071   3
   1  -8   0 65.6523 2.35020   2
  -1  -8   0 61.0870 2.61640   1
  -1  -8   0 62.5589 2.52870   3
   1   8   0 58.7306 2.66224   3
  -1   8   0 65.2958 2.70651   1
   1   8   0 62.1114 2.36512   2
  -1   8   0 60.2723 2.41700   3
  -1   8   0 62.9750 2.13090   2
   1   8   0 66.7901 2.92334   1
   2  -8   0 307.144 7.84951   3
  -2  -8   0 306.950 8.08630   1
   2  -8   0 299.460 7.80357   2
  -2  -8   0 304.041 7.97519   2
  -2  -8   0 302.121 8.03743   3
   2   8   0 302.855 7.94527   2
   2   8   0 314.174 8.10420   3
  -2   8   0 303.077 7.67875   3
   2   8   0 300.987 8.17089   1
   3  -8   0 70.9319 2.90679   1
   3  -8   0 65.3372 2.87200   2
  -3  -8   0 71.6831 3.01806   2
  -3  -8   0 72.1142 3.28803   3
  -3  -8   0 77.4475 3.50395   1
   3  -8   0 76.9112 2.90721   3
   3   8   0 70.3731 3.10822   2
   3   8   0 78.4568 3.53220   3
   3   8   0 69.2046 3.90899   1
   4  -8   0 4.41656 1.57869   1
   4  -8   0 8.98528 1.68731   3
  -4  -8   0 9.75085 1.72335   2
  -4  -8   0 5.35274 1.97357   3
   4   8   0 4.08221 2.17655   3
   4   8   0 4.74896 2.13736   2
  -5  -8   0 81.3092 4.89104   2
   5  -8   0 71.4724 4.31256   1
   5   8   0 96.6495 5.77974   3
   5   8   0 82.6469 6.40474   1
   5   8   0 76.3748 5.40063   2
   0  -9   0 -0.7459 0.98931   3
   0  -9   0 -0.4309 0.98701   2
   0  -9   0 0.00702 1.06934   1
   0   9   0 -0.3661 1.06077   2
   0   9   0 0.27227 1.35180   3
  -1  -9   0 164.498 4.82118   2
   1  -9   0 164.196 4.77765   1
  -1  -9   0 168.155 4.88796   3
  -1  -9   0 162.085 4.94632   1
   1  -9   0 164.993 4.71776   3
   1  -9   0 165.554 4.72665   2
   1   9   0 161.894 4.71122   2
   1   9   0 166.494 4.99847   3
   1   9   0 142.235 5.59032   1
  -1   9   0 167.026 4.77989   3
  -1   9   0 166.415 4.48092   2
  -2  -9   0 34.2964 2.32512   2
   2  -9   0 35.8253 2.31083   2
  -2  -9   0 37.9993 2.59307   3
   2  -9   0 35.0868 2.36826   3
  -2  -9   0 29.3439 2.14093   1
   2   9   0 32.8309 2.47912   2
   2   9   0 35.6146 3.23842   1
   2   9   0 35.1497 2.99004   3
  -3  -9   0 6.39744 1.75894   2
   3  -9   0 7.13850 1.75832   2
  -3  -9   0 6.47587 2.31734   1
   3  -9   0 7.80535 1.52751   1
   3  -9   0 6.47403 2.72053   3
   3   9   0 1.96622 1.68527   2
   3   9   0 6.47613 2.24956   1
   3   9   0 2.64721 2.14673   3
  -4  -9   0 29.3848 2.73496   3
   4  -9   0 28.5717 2.21134   3
   4  -9   0 29.6126 2.28846   1
  -4  -9   0 30.8254 2.62199   2
   4   9   0 27.8302 2.99353   3
   4   9   0 25.0333 2.64764   2
   4   9   0 25.8775 3.34585   1
   0 -10   0 136.887 4.37653   2
   0 -10   0 136.707 4.52595   1
   0 -10   0 139.715 4.50863   3
   0  10   0 140.917 4.68018   3
   0  10   0 138.685 4.22710   2
   1 -10   0 14.0970 1.95539   1
  -1 -10   0 14.6133 2.05478   2
   1 -10   0 14.7928 1.54846   2
  -1 -10   0 15.0286 1.70607   1
   1  10   0 14.3593 2.10879   3
   1  10   0 11.5752 1.59825   2
  -1  10   0 12.2381 1.33603   2
   2 -10   0 4.99086 1.61432   2
   2 -10   0 6.00534 1.64256   1
   2 -10   0 8.14265 1.60424   3
  -2 -10   0 4.38644 1.66561   3
  -2 -10   0 7.25657 1.94759   1
  -2 -10   0 5.39463 1.64380   2
   2  10   0 6.55325 2.11381   3
   2  10   0 3.29736 1.72631   2
   3 -10   0 7.54629 1.90229   1
  -3 -10   0 6.39533 2.17484   3
  -3 -10   0 7.92761 1.89283   2
   3 -10   0 7.49262 1.80906   3
   3  10   0 3.90535 2.60660   3
   3  10   0 7.90800 2.23574   2
  -4 -10   0 10.3031 2.82613   2
   4 -10   0 8.98581 2.50083   1
  -4 -10   0 10.5453 3.12795   3
   4 -10   0 13.2418 2.57279   3
   4  10   0 9.09178 3.60165   3
   4  10   0 7.91658 2.97286   2
   0 -11   0 -0.5142 1.60383   2
   0 -11   0 2.39095 1.59003   3
   0 -11   0 1.50862 1.85928   1
  -1 -11   0 3.08141 1.75799   3
   1 -11   0 1.47534 1.62298   3
  -1 -11   0 5.86825 1.90319   2
   1 -11   0 1.71791 1.68583   2
   1 -11   0 1.95652 1.73990   1
  -1 -11   0 0.57317 1.97076   1
   1  11   0 0.85918 2.42154   3
   1  11   0 1.56719 1.82635   2
  -2 -11   0 5.39147 2.17662   3
  -2 -11   0 4.44443 2.03249   2
   2 -11   0 3.66799 2.15977   2
   2 -11   0 2.69100 1.93404   3
   2 -11   0 6.25351 2.02554   1
  -2 -11   0 3.68503 2.46601   1
   2  11   0 4.89148 2.78271   3
   2  11   0 4.93282 2.22272   2
   3 -11   0 6.42405 2.40359   1
  -3 -11   0 3.23340 2.88472   3
  -3 -11   0 3.05338 2.51422   2
   3 -11   0 2.41549 2.34339   3
   3  11   0 4.35021 2.80344   2
   0 -12   0 5.85875 2.10221   2
   0 -12   0 8.94998 2.19613   3
   0 -12   0 7.10351 2.43740   1
   0  12   0 8.85727 2.54455   2
  -1 -12   0 1.57479 2.22050   3
   1 -12   0 1.87890 2.29321   2
  -1 -12   0 1.60641 2.22382   2
  -1 -12   0 2.02365 2.72551   1
   1  12   0 2.63833 2.82060   2
   2 -12   0 8.62606 2.65722   1
  -2 -12   0 9.59263 2.86923   3
   2 -12   0 11.5441 2.62150   3
  -2 -12   0 14.4066 2.82323   2
   2 -12   0 9.67089 3.53607   2
   2  12   0 15.0356 2.97435   2
   2  12   0 17.4005 5.31592   3
   6   0  -1 2.05220 1.87020   1
   6   0  -1 3.95349 1.90676   3
   6   0  -1 3.82622 2.12845   2
   5   0  -1 52.1489 2.53629   3
   5   0  -1 52.2776 2.57507   1
   5   0  -1 54.3948 2.58916   2
  -4   0   1 258.250 6.32145   1
   4   0  -1 255.061 6.56864   1
   4   0  -1 248.434 6.60387   1
   4   0  -1 252.857 6.55228   3
   4   0  -1 258.111 6.72047   3
  -4   0   1 253.586 6.40647   3
   4   0  -1 259.957 6.52280   2
   3   0  -1 254.420 6.49078   1
  -3   0   1 254.786 6.36786   2
  -3   0   1 260.219 6.38675   1
  -3   0   1 268.992 6.37657   2
   3   0  -1 253.514 6.48237   3
   3   0  -1 262.580 6.46241   2
  -3   0   1 261.589 6.43637   3
   3   0  -1 260.084 6.49431   3
   3   0  -1 262.690 6.49702   1
   2   0  -1 2.83370 0.38771   2
  -2   0   1 2.63137 0.38077   3
  -2   0   1 2.73425 0.37637   2
   2   0  -1 3.52524 0.47407   2
  -2   0   1 3.68664 0.41942   1
   2   0  -1 3.92628 0.45384   3
  -2   0   1 3.75413 0.44897   3
   2   0  -1 3.02995 0.41311   3
   2   0  -1 3.08065 0.41664   1
  -2   0   1 3.53051 0.38315   2
   2   0  -1 1.97488 0.38942   1
  -1   0   1 6599.09 157.001   3
  -1   0   1 6454.17 157.066   3
   1   0  -1 6642.95 157.082   1
  -1   0   1 6726.13 157.000   2
  -1   0   1 6555.23 157.025   2
  -1   0   1 6555.71 156.972   1
   1   0  -1 6589.21 157.104   3
   1   0  -1 6511.61 157.053   2
   1   0  -1 6673.67 157.059   3
   1   0  -1 6583.70 157.111   1
   1   0  -1 6551.88 157.288   2
   1   0   1 7787.52 187.099   1
   1   0   1 7826.61 187.113   3
   1   0   1 7812.26 187.101   1
   1   0   1 7732.68 187.060   2
  -1   0  -1 7479.95 187.149   1
   1   0   1 7914.56 187.134   3
  -1   0  -1 8037.15 186.975   1
  -1   0  -1 8086.24 187.061   3
   1   0   1 8034.97 187.071   2
  -2   0  -1 557.889 13.6576   3
  -2   0  -1 573.910 13.6256   1
  -2   0  -1 578.002 13.6250   1
   2   0   1 566.959 13.6912   3
   2   0   1 575.744 13.6895   3
   2   0   1 565.342 13.6869   1
   2   0   1 558.919 13.6896   1
   2   0   1 571.108 13.6774   2
  -2   0  -1 582.369 13.6628   3
  -3   0  -1 0.84961 0.40929   3
   3   0   1 0.91963 0.50419   2
   3   0   1 1.02788 0.55761   3
  -3   0  -1 0.90236 0.63063   3
   3   0   1 1.86485 0.68663   2
   3   0   1 0.47937 0.51451   1
   3   0   1 1.16861 0.51023   3
   4   0   1 59.4670 2.15290   1
   4   0   1 56.4303 2.32167   3
   4   0   1 55.0745 2.04905   2
   4   0   1 58.3926 2.06624   3
   4   0   1 58.2349 2.08333   1
   5   0   1 7.08621 1.18419   1
   5   0   1 5.04803 1.14218   3
   5   0   1 5.77628 1.30346   2
   6   0   1 -2.7801 1.65579   3
   6   0   1 -0.0628 1.81169   1
   6  -1  -1 8.50529 1.89135   1
   6  -1  -1 7.94339 1.86804   3
   6   1  -1 6.21091 2.00490   1
   6   1  -1 8.25632 1.92478   3
   5  -1  -1 35.3300 2.20818   1
   5  -1  -1 35.6774 2.26804   2
   5  -1  -1 35.6475 2.22392   3
   5   1  -1 35.1300 2.39115   1
   5   1  -1 30.8745 2.47187   3
   5   1  -1 29.3016 2.28069   2
  -4  -1   1 144.560 3.93231   3
  -4  -1   1 146.777 3.89567   2
   4  -1  -1 147.455 4.00851   1
  -4  -1   1 146.029 3.89226   1
  -4  -1   1 146.483 3.80468   2
   4  -1  -1 143.899 3.98544   3
   4  -1  -1 147.844 3.97839   2
   4  -1  -1 142.401 4.05801   1
   4  -1  -1 144.312 4.17313   3
   4   1  -1 147.186 4.04874   2
   4   1  -1 139.035 4.39469   3
   4   1  -1 148.089 4.26912   1
   4   1  -1 149.399 4.06409   3
  -4   1   1 144.457 3.80954   3
   4   1  -1 144.962 4.09338   1
   3  -1  -1 25.1731 1.24523   3
   3  -1  -1 27.3407 1.11675   2
  -3  -1   1 25.7733 1.20629   3
  -3  -1   1 26.3019 1.18457   2
  -3  -1   1 22.9259 1.11210   2
   3  -1  -1 23.8377 1.17582   1
   3  -1  -1 23.8324 1.18063   3
   3  -1  -1 24.1175 1.16357   1
  -3   1   1 22.9090 0.95602   1
   3   1  -1 21.2735 1.45136   3
   3   1  -1 23.4751 1.24616   1
  -3   1   1 23.7652 1.04431   3
   3   1  -1 22.8299 1.24248   3
  -2  -1   1 1176.87 27.0629   2
   2  -1  -1 1132.01 27.0662   3
   2  -1  -1 1167.43 27.0516   2
  -2  -1   1 1156.64 27.0812   1
  -2  -1   1 1082.95 27.0610   2
  -2  -1   1 1180.93 27.0973   3
   2  -1  -1 1088.23 27.0475   1
   2  -1  -1 1104.78 27.0582   3
   2  -1  -1 1104.15 27.0628   1
  -2  -1   1 1113.19 27.0709   1
   2  -1  -1 1129.08 27.0468   2
  -2  -1   1 1124.46 27.0862   3
  -2   1   1 1173.75 27.0401   3
  -2   1   1 1139.19 27.0142   1
  -2   1   1 1167.07 27.0061   2
   2   1  -1 1096.77 27.0786   2
   2   1  -1 1165.66 27.1007   3
   2   1  -1 1109.95 27.1027   1
   2   1  -1 1131.76 27.0966   1
   2   1  -1 1164.75 27.0929   2
   2   1  -1 1078.12 27.0949   3
  -2   1   1 1135.15 27.0164   1
  -2   1   1 1108.23 27.0360   3
  -1  -1   1 869.891 21.1087   1
  -1  -1   1 894.204 21.1104   1
   1  -1  -1 875.466 21.0864   1
  -1  -1   1 902.066 21.1013   2
   1  -1  -1 878.146 21.0823   3
  -1  -1   1 889.427 21.1065   2
   1  -1  -1 844.386 21.0812   3
   1  -1  -1 876.828 21.0768   2
   1  -1  -1 861.912 21.0808   2
   1  -1  -1 882.845 21.0831   1
  -1  -1   1 915.542 21.1149   3
  -1   1   1 882.450 21.0805   3
   1   1  -1 860.581 21.1125   1
   1   1  -1 875.528 21.1047   2
   1   1  -1 866.315 21.1130   3
   1   1  -1 916.160 21.1178   1
   1   1  -1 914.756 21.1095   2
  -1   1   1 883.707 21.0731   1
  -1   1   1 901.423 21.0795   3
  -1   1   1 850.816 21.0675   2
  -1   1   1 907.219 21.0678   2
   0  -1   1 1963.73 46.2055   3
   0  -1  -1 1867.37 46.2251   2
   0  -1   1 1907.77 46.1914   1
   0  -1  -1 1900.41 46.2276   2
   0  -1  -1 1907.48 46.2608   3
   0  -1  -1 1971.97 46.2613   3
   0  -1   1 1923.99 46.1993   1
   0  -1   1 1946.69 46.1674   2
   0  -1  -1 1914.74 46.2526   1
   0  -1  -1 1908.89 46.2599   1
   0  -1   1 1906.09 46.1769   3
   0   1   1 2029.26 46.2200   2
   0   1   1 2011.29 46.2322   3
   0   1   1 1867.63 46.2345   2
   0   1   1 1946.80 46.2319   1
   0   1  -1 1980.11 46.1564   1
   0   1  -1 1962.16 46.1269   2
   0   1   1 1903.97 46.2366   3
   0   1  -1 1918.51 46.1529   3
   0   1  -1 1934.78 46.1819   2
   0   1   1 1927.38 46.2724   1
  -2  -1  -1 2981.86 70.3934   2
   2  -1   1 2898.22 70.2139   3
  -2  -1  -1 2949.40 70.4411   3
   2  -1   1 2886.23 70.2303   1
  -2  -1  -1 2988.92 70.2072   1
  -2  -1  -1 2999.71 70.2264   3
  -2  -1  -1 3025.79 70.3535   1
   2  -1   1 3023.35 70.2069   2
   2  -1   1 2991.91 70.2798   1
   2  -1   1 2824.05 70.1814   3
  -2  -1  -1 2906.27 70.2652   2
   2  -1   1 2921.05 70.1702   2
  -2   1  -1 3030.61 70.2774   3
   2   1   1 2980.22 70.2320   2
   2   1   1 2935.23 70.2373   3
   2   1   1 2791.74 70.2432   1
   2   1   1 2983.09 70.3498   1
   2   1   1 2932.03 70.2317   2
  -2   1  -1 2980.42 70.1381   3
   2   1   1 2930.22 70.3987   3
   3  -1   1 58.0147 1.79118   1
  -3  -1  -1 59.1336 1.78067   3
   3  -1   1 60.2014 1.80231   3
   3  -1   1 58.2737 1.76991   3
  -3  -1  -1 59.5796 1.67734   2
   3  -1   1 60.2806 1.90261   2
  -3  -1  -1 54.3018 1.97190   2
   3  -1   1 60.7532 1.77914   1
   3  -1   1 58.4017 1.73035   2
  -3   1  -1 59.4111 1.67887   3
   3   1   1 62.9099 1.97282   3
   3   1   1 59.2791 1.82105   2
   3   1   1 58.5653 1.88113   1
  -3   1  -1 62.5305 1.61199   3
   3   1   1 59.4599 1.91150   1
   3   1   1 59.1148 1.88066   3
   4  -1   1 52.5991 1.87174   3
   4  -1   1 49.8321 2.10024   3
   4  -1   1 51.2145 1.94059   1
   4  -1   1 49.8507 2.62679   2
   4  -1   1 51.2543 1.95772   1
  -4  -1  -1 50.8768 1.81189   3
   4   1   1 56.7815 2.59098   3
   4   1   1 53.2163 1.98682   2
   4   1   1 51.6846 2.24675   1
   4   1   1 51.5525 2.06653   3
   4   1   1 50.0066 2.02596   1
   5  -1   1 66.0225 2.71506   2
   5  -1   1 62.0048 2.65581   1
   5  -1   1 66.8376 2.67420   3
   5   1   1 66.8011 2.78598   1
   5   1   1 65.6878 2.84613   2
   5   1   1 70.4447 2.80506   3
   6  -1   1 110.055 4.16067   3
   6  -1   1 107.586 4.32119   1
   6   1   1 111.094 5.60893   2
   6   1   1 114.641 4.41339   3
   6   1   1 104.551 4.54200   1
   6  -2  -1 56.9744 3.60182   1
   6  -2  -1 59.4059 3.41968   3
   6   2  -1 60.8885 4.08002   1
   6   2  -1 62.5104 4.05560   2
   6   2  -1 51.4168 3.95242   3
   5  -2  -1 1.52181 1.30949   2
   5  -2  -1 1.83797 1.16581   1
   5  -2  -1 3.23053 1.15254   3
   5   2  -1 0.52580 1.28253   1
   5   2  -1 4.61592 1.36785   3
   5   2  -1 2.72503 1.44706   2
  -4  -2   1 12.7095 1.04411   1
   4  -2  -1 11.4212 1.21769   3
  -4  -2   1 15.1456 0.96419   2
   4  -2  -1 10.3560 0.92990   3
   4  -2  -1 14.1365 1.01874   2
   4  -2  -1 13.3559 1.09114   1
  -4  -2   1 12.2507 0.98576   3
  -4  -2   1 14.1418 1.32449   2
   4  -2  -1 11.2869 0.97542   1
   4   2  -1 12.9897 1.53781   1
   4   2  -1 10.5345 1.07518   2
   4   2  -1 10.2232 1.07154   1
   4   2  -1 12.0108 1.13018   3
  -3  -2   1 81.3179 2.31201   1
   3  -2  -1 80.6756 2.27516   1
  -3  -2   1 75.0075 2.26427   2
   3  -2  -1 77.9732 2.26342   1
   3  -2  -1 81.6173 2.27075   3
   3  -2  -1 80.2701 2.22827   2
  -3  -2   1 78.7635 2.32271   3
   3  -2  -1 78.7933 2.28976   3
  -3  -2   1 79.8496 2.37478   2
  -3   2   1 76.6329 2.14749   3
   3   2  -1 74.6396 2.37786   1
   3   2  -1 81.1534 2.51743   1
   3   2  -1 72.9263 2.61304   3
   3   2  -1 75.6141 2.32526   2
   3   2  -1 75.9386 2.38473   3
  -2  -2   1 323.493 8.02272   1
   2  -2  -1 330.165 7.94769   3
  -2  -2   1 327.018 8.02995   3
   2  -2  -1 323.528 7.92968   2
  -2  -2   1 322.264 7.98681   2
  -2  -2   1 326.564 8.00277   1
   2  -2  -1 324.599 7.94517   3
   2  -2  -1 330.743 7.94193   1
  -2  -2   1 336.044 7.99141   2
   2  -2  -1 336.540 7.93845   2
  -2  -2   1 326.172 8.01343   3
   2  -2  -1 311.793 7.96249   1
   2   2  -1 319.320 7.99454   2
  -2   2   1 336.199 7.88167   1
   2   2  -1 329.659 8.02826   3
  -2   2   1 329.244 7.88172   1
  -2   2   1 331.524 7.91756   3
   2   2  -1 330.111 8.03064   2
  -2   2   1 329.157 7.91566   3
   2   2  -1 337.767 8.03859   1
  -2   2   1 327.192 7.87438   2
   2   2  -1 315.360 8.02065   1
  -2   2   1 330.953 7.86838   2
   2   2  -1 306.443 8.05304   3
  -1  -2   1 1053.35 24.8855   3
   1  -2  -1 984.520 24.8414   1
   1  -2  -1 1004.16 24.8425   3
  -1  -2   1 1053.71 24.8874   1
  -1  -2   1 1013.30 24.8822   1
  -1  -2   1 1079.47 24.8746   2
   1  -2  -1 1031.02 24.8388   3
   1  -2  -1 1018.60 24.8339   2
   1  -2  -1 1050.45 24.8321   2
   1  -2  -1 1046.99 24.8429   1
  -1  -2   1 1026.64 24.8770   2
  -1  -2   1 1022.36 24.8841   3
   1   2  -1 1027.74 24.8865   1
  -1   2   1 1032.49 24.8362   3
  -1   2   1 1070.89 24.8368   3
   1   2  -1 1025.44 24.8879   3
   1   2  -1 1073.87 24.8812   2
   1   2  -1 1083.20 24.8895   3
  -1   2   1 1027.21 24.8215   2
   1   2  -1 1027.41 24.8738   2
  -1   2   1 1040.75 24.8250   1
   1   2  -1 1099.04 24.8951   1
  -1   2   1 1037.66 24.8179   2
   0  -2  -1 1043.61 25.4123   1
   0  -2   1 1087.35 25.3962   3
   0  -2   1 1030.34 25.3964   1
   0  -2   1 1041.25 25.3964   3
   0  -2  -1 1047.84 25.4094   3
   0  -2  -1 1124.40 25.5058   1
   0  -2   1 1056.64 25.3920   2
   0  -2   1 1070.51 25.3950   1
   0  -2  -1 1067.46 25.3995   2
   0  -2   1 1104.13 25.3892   2
   0   2   1 1054.32 25.3995   2
   0   2  -1 1086.26 25.4241   2
   0   2  -1 1083.66 25.3925   3
   0   2   1 1028.28 25.4050   1
   0   2  -1 1071.19 25.3842   2
   0   2   1 1019.81 25.4024   2
   0   2  -1 1073.24 25.3891   1
   0   2   1 1065.86 25.4724   3
   0   2   1 1084.77 25.4096   3
   0   2  -1 1048.25 25.5045   3
   1  -2   1 1290.49 30.9024   3
  -1  -2  -1 1285.71 30.9778   1
   1  -2   1 1315.54 30.9188   1
  -1  -2  -1 1342.92 30.9871   3
  -1  -2  -1 1346.79 30.9713   2
   1  -2   1 1284.52 30.9342   1
  -1  -2  -1 1273.70 30.9798   3
  -1  -2  -1 1285.12 30.9703   2
  -1  -2  -1 1324.81 30.9811   1
   1  -2   1 1305.53 30.9292   2
   1  -2   1 1306.28 30.9531   3
  -1   2  -1 1289.15 30.8847   3
   1   2   1 1306.68 30.9915   1
   1   2   1 1299.77 30.9745   2
   1   2   1 1254.49 30.9832   1
   1   2   1 1259.16 30.9834   3
   1   2   1 1304.70 30.9803   3
   1   2   1 1275.29 30.9719   2
   2  -2   1 1462.47 34.8618   3
  -2  -2  -1 1530.52 34.9687   3
  -2  -2  -1 1437.47 34.9533   3
   2  -2   1 1477.82 34.8546   2
   2  -2   1 1454.04 34.8674   1
   2  -2   1 1520.18 34.8565   2
   2  -2   1 1422.69 34.8625   3
   2  -2   1 1455.01 34.8610   1
  -2  -2  -1 1409.84 34.9278   2
  -2  -2  -1 1535.78 34.9578   1
  -2  -2  -1 1551.15 34.9375   2
  -2  -2  -1 1461.73 34.9416   1
   2   2   1 1432.57 34.9567   2
   2   2   1 1492.43 34.9861   1
  -2   2  -1 1450.66 34.8001   3
   2   2   1 1552.41 34.9832   3
   2   2   1 1294.07 35.0522   1
   2   2   1 1323.61 35.0625   3
   2   2   1 1514.29 34.9693   2
  -3  -2  -1 1003.31 24.2231   2
   3  -2   1 1002.45 24.2131   1
  -3  -2  -1 1039.96 24.2268   2
  -3  -2  -1 1024.67 24.2385   1
   3  -2   1 1010.13 24.1866   3
  -3  -2  -1 1010.45 24.2750   3
   3  -2   1 1009.15 24.1980   3
   3  -2   1 1019.56 24.1996   2
   3  -2   1 1013.93 24.1989   1
   3  -2   1 1009.28 24.1823   2
   3   2   1 1014.02 24.3311   3
   3   2   1 989.465 24.3301   1
   3   2   1 962.852 24.4281   1
   3   2   1 1015.82 24.3269   3
   3   2   1 1022.79 24.3098   2
  -4  -2  -1 88.0508 2.67150   2
   4  -2   1 87.3500 2.67123   1
   4  -2   1 89.7823 2.70174   1
   4  -2   1 91.2699 2.63494   2
  -4  -2  -1 89.4107 2.72087   3
  -4  -2  -1 89.5129 2.54017   2
  -4  -2  -1 86.2608 2.65277   1
   4  -2   1 87.7822 2.62637   3
   4   2   1 90.1753 2.91029   1
   4   2   1 89.2270 3.22024   1
   4   2   1 92.2740 2.90494   3
   4   2   1 91.8214 2.87746   2
   5  -2   1 202.550 5.50913   1
   5  -2   1 202.218 5.41285   3
   5  -2   1 194.260 5.57758   2
   5   2   1 205.513 5.71628   2
   5   2   1 204.711 5.75993   1
   5   2   1 203.243 5.71524   3
   6  -2   1 140.915 4.82781   1
   6  -2   1 140.709 4.73541   3
   6   2   1 140.584 5.27144   1
   6   2   1 131.672 5.41474   2
   6   2   1 139.702 5.19994   3
   6  -3  -1 1.87541 1.91616   1
   6  -3  -1 4.02157 1.78232   3
   6   3  -1 0.55353 2.46894   2
   6   3  -1 1.48620 2.23480   1
   6   3  -1 1.00962 2.17258   3
   5  -3  -1 39.1649 2.59906   2
   5  -3  -1 45.5569 2.48836   1
  -5  -3   1 45.4296 2.27877   2
   5  -3  -1 41.4756 2.44112   3
  -5  -3   1 43.1681 3.39027   3
   5   3  -1 44.5400 2.84544   3
   5   3  -1 46.1998 2.87636   1
   5   3  -1 39.4029 2.65819   2
   4  -3  -1 281.866 7.33063   1
  -4  -3   1 292.363 7.31552   2
   4  -3  -1 294.797 7.34097   1
  -4  -3   1 284.594 7.44010   3
   4  -3  -1 280.614 7.26789   2
   4  -3  -1 289.810 7.29548   3
  -4  -3   1 289.345 7.45977   1
   4   3  -1 289.002 7.49114   3
  -4   3   1 280.438 7.04193   3
   4   3  -1 295.943 7.44672   2
   4   3  -1 292.215 7.53476   1
   3  -3  -1 160.136 4.13802   3
   3  -3  -1 160.165 4.08214   2
  -3  -3   1 141.218 4.65363   3
   3  -3  -1 168.546 4.10980   1
  -3  -3   1 154.507 4.16770   2
  -3  -3   1 165.655 4.22946   1
   3  -3  -1 154.284 4.10316   3
   3  -3  -1 156.219 4.13126   1
  -3   3   1 159.645 3.99809   3
   3   3  -1 157.104 4.28307   3
   3   3  -1 162.289 4.23765   2
   3   3  -1 158.597 4.42940   1
   3   3  -1 158.553 4.29229   1
   2  -3  -1 89.7323 2.38953   1
   2  -3  -1 90.4391 2.39147   2
  -2  -3   1 87.5845 2.61082   1
   2  -3  -1 86.5104 2.42488   3
  -2  -3   1 89.6962 2.49203   1
   2  -3  -1 93.3495 2.37392   2
  -2  -3   1 89.9524 2.52675   2
   2  -3  -1 88.4164 2.40463   1
  -2  -3   1 91.5967 2.51603   3
   2   3  -1 85.4842 2.54245   1
  -2   3   1 87.1790 2.31516   1
   2   3  -1 89.7709 2.62110   3
  -2   3   1 91.3270 2.38606   3
   2   3  -1 91.7968 2.59966   1
   2   3  -1 87.8445 2.46672   2
   2   3  -1 87.3298 2.51820   3
  -2   3   1 89.0964 2.34664   3
  -1  -3   1 121.666 3.23713   1
   1  -3  -1 125.725 3.17372   1
   1  -3  -1 126.602 3.17153   3
   1  -3  -1 123.443 3.18211   1
  -1  -3   1 129.443 3.24542   1
   1  -3  -1 123.679 3.17907   3
  -1  -3   1 123.227 3.24437   3
  -1  -3   1 121.818 3.21752   2
   1  -3  -1 121.780 3.16103   2
  -1  -3   1 124.440 3.21604   2
   1  -3  -1 130.124 3.16376   2
  -1  -3   1 127.162 3.24929   3
   1   3  -1 123.501 3.20983   2
  -1   3   1 126.291 3.16712   3
   1   3  -1 124.647 3.24000   2
  -1   3   1 124.625 3.14707   2
   1   3  -1 127.760 3.26304   3
  -1   3   1 125.803 3.15746   1
   1   3  -1 126.099 3.24084   1
  -1   3   1 126.895 3.14117   2
   1   3  -1 127.786 3.26289   1
  -1   3   1 133.281 3.18946   3
   0  -3  -1 2400.85 55.1630   2
   0  -3  -1 2238.32 55.4980   1
   0  -3  -1 2281.25 55.0480   3
   0  -3   1 2271.15 55.2252   1
   0  -3   1 2276.23 55.2564   2
   0  -3  -1 2256.55 55.2846   1
   0  -3   1 2337.15 55.1179   3
   0  -3   1 2361.78 55.0299   2
   0  -3  -1 2280.10 55.2582   2
   0  -3   1 2302.72 55.1677   3
   0  -3   1 2375.92 55.2611   1
   0  -3  -1 2311.19 55.1715   3
   0   3  -1 2356.56 55.0350   3
   0   3  -1 2269.17 55.3062   2
   0   3   1 2254.80 55.1444   3
   0   3   1 2352.59 55.0519   1
   0   3  -1 2295.33 55.0197   2
   0   3   1 2310.96 55.2825   1
   0   3  -1 2311.46 55.3254   1
   0   3   1 2281.96 55.2714   2
   0   3  -1 2296.59 55.2818   3
   0   3   1 2315.89 55.0388   2
   0   3  -1 2350.15 55.0308   1
   0   3   1 2338.13 55.0499   3
   1  -3   1 2602.82 61.7363   3
   1  -3   1 2578.92 61.9570   3
   1  -3   1 2578.02 61.8187   1
   1  -3   1 2619.85 61.8800   2
  -1  -3  -1 2619.98 61.7252   1
   1  -3   1 2560.43 61.9170   1
  -1  -3  -1 2590.79 61.9916   1
   1  -3   1 2692.34 61.7074   2
  -1  -3  -1 2543.01 61.8185   3
  -1  -3  -1 2470.60 61.7066   2
  -1  -3  -1 2619.09 61.7075   2
  -1  -3  -1 2620.16 61.7247   3
  -1   3  -1 2610.28 61.5890   1
  -1   3  -1 2588.62 61.7615   3
   1   3   1 2497.39 61.7067   2
   1   3   1 2573.09 61.7173   3
  -1   3  -1 2587.88 61.6200   3
  -1   3  -1 2678.49 61.6284   1
   1   3   1 2541.05 61.9166   3
   1   3   1 2511.44 61.7118   2
   1   3   1 2606.60 61.9669   1
   1   3   1 2654.67 61.7308   1
  -2  -3  -1 168.143 4.38618   3
   2  -3   1 171.559 4.25156   1
   2  -3   1 170.977 4.24010   1
   2  -3   1 172.008 4.23463   3
  -2  -3  -1 171.772 4.37521   1
   2  -3   1 171.884 4.24203   3
   2  -3   1 172.401 4.23069   2
  -2  -3  -1 175.921 4.38731   2
   2  -3   1 174.169 4.23445   2
  -2  -3  -1 164.059 4.35011   2
  -2   3  -1 168.751 4.15169   3
   2   3   1 177.940 4.44182   1
   2   3   1 174.710 4.44521   3
   2   3   1 168.014 4.42569   1
   2   3   1 166.969 4.40026   3
  -2   3  -1 174.418 4.15441   3
  -3  -3  -1 581.119 13.6981   2
   3  -3   1 546.024 13.5820   2
   3  -3   1 573.926 13.5842   1
  -3  -3  -1 569.540 13.7172   3
  -3  -3  -1 573.762 13.6856   1
   3  -3   1 561.856 13.5776   3
  -3  -3  -1 548.750 13.6555   2
   3  -3   1 560.160 13.5644   3
   3  -3   1 559.450 13.5960   1
   3  -3   1 571.657 13.5709   2
   3   3   1 575.137 13.8058   1
   3   3   1 553.939 13.7625   3
   3   3   1 557.005 13.8131   3
   3   3   1 552.069 13.7272   2
   3   3   1 550.539 13.7695   1
  -4  -3  -1 409.558 10.3388   3
  -4  -3  -1 419.619 10.2325   2
  -4  -3  -1 400.405 10.3169   1
   4  -3   1 418.787 10.2611   1
   4  -3   1 414.607 10.2055   3
   4  -3   1 409.365 10.2305   1
   4  -3   1 420.933 10.2688   3
   4  -3   1 425.436 10.2225   2
   4   3   1 419.408 10.4257   2
   4   3   1 416.629 10.4465   3
   4   3   1 417.903 10.4834   1
   5  -3   1 51.0890 2.30877   3
   5  -3   1 46.9256 2.66969   2
   5  -3   1 51.3850 2.50524   1
   5   3   1 52.2858 2.95098   1
   5   3   1 49.9229 2.82607   2
   5   3   1 53.7954 3.00228   3
   6  -3   1 16.5707 1.92234   3
   6  -3   1 17.8620 1.98039   1
   6   3   1 19.0515 2.46017   1
   6   3   1 20.4656 2.35370   3
   6   3   1 16.9862 2.80292   2
   6  -4  -1 3.18826 1.98019   3
   6  -4  -1 4.22002 2.14044   1
   6   4  -1 5.47086 2.53924   2
   6   4  -1 5.64907 2.57851   1
   6   4  -1 6.93244 2.64837   3
   5  -4  -1 2.93484 1.59781   2
  -5  -4   1 3.08774 1.47840   2
  -5  -4   1 4.44258 1.83387   3
   5  -4  -1 0.53116 1.22265   3
   5   4  -1 0.89588 1.66620   2
   5   4  -1 5.13357 1.63391   1
  -4  -4   1 122.499 3.55160   2
  -4  -4   1 117.041 3.71320   1
   4  -4  -1 124.041 3.46536   3
   4  -4  -1 118.241 3.47964   2
  -4  -4   1 118.087 3.76387   3
   4  -4  -1 116.798 3.49517   1
   4  -4  -1 112.096 3.62191   1
   4   4  -1 120.567 3.67265   2
   4   4  -1 122.980 3.81985   3
   4   4  -1 114.677 3.79528   1
   3  -4  -1 1201.68 28.2366   2
   3  -4  -1 1168.94 28.2734   1
   3  -4  -1 1185.65 28.2362   3
  -3  -4   1 1202.63 28.3621   1
  -3  -4   1 1154.98 28.3322   2
   3  -4  -1 1172.22 28.2467   3
  -3  -4   1 1167.01 28.3754   3
   3  -4  -1 1177.12 28.2469   1
   3   4  -1 1194.70 28.3833   2
   3   4  -1 1166.60 28.4079   3
   3   4  -1 1161.13 28.4155   1
   3   4  -1 1161.44 28.4478   1
   2  -4  -1 520.555 12.6818   1
   2  -4  -1 533.388 12.6579   3
   2  -4  -1 520.302 12.6689   3
  -2  -4   1 510.067 12.7425   2
   2  -4  -1 531.926 12.6538   2
  -2  -4   1 512.277 12.7663   3
   2  -4  -1 535.992 12.6678   1
   2  -4  -1 542.183 12.6801   2
  -2  -4   1 534.489 12.7777   1
  -2   4   1 535.453 12.5617   1
   2   4  -1 503.190 12.7404   2
  -2   4   1 524.542 12.6144   3
   2   4  -1 503.230 12.7660   3
   2   4  -1 531.854 12.8269   1
   2   4  -1 499.861 12.8162   1
  -2   4   1 513.958 12.6257   3
  -2   4   1 531.474 12.5518   2
   1  -4  -1 1898.01 45.3950   2
  -1  -4   1 1950.82 45.4571   1
   1  -4  -1 1903.79 45.3962   1
  -1  -4   1 1680.12 45.6079   3
   1  -4  -1 1933.06 45.3950   3
  -1  -4   1 1936.27 45.4359   2
   1  -4  -1 1911.89 45.3833   2
  -1  -4   1 1875.90 45.4574   1
  -1  -4   1 1956.01 45.4561   3
   1   4  -1 1865.58 45.4499   3
   1   4  -1 1864.79 45.4435   1
  -1   4   1 1965.47 45.3732   1
  -1   4   1 1960.55 45.3554   2
   1   4  -1 1632.54 45.4842   2
  -1   4   1 1865.21 45.3539   2
   1   4  -1 2006.94 45.4439   2
   1   4  -1 1964.99 45.4539   3
   1   4  -1 1965.07 45.4534   1
  -1   4   1 2006.95 45.3922   3
  -1   4   1 1883.16 45.3811   3
   0  -4   1 971.523 24.4577   1
   0  -4   1 992.488 24.3860   3
   0  -4   1 1027.20 24.3827   3
   0  -4   1 1028.09 24.3692   2
   0  -4  -1 1028.29 24.4005   1
   0  -4  -1 1038.80 24.3992   3
   0  -4  -1 995.226 24.4057   1
   0  -4  -1 1085.13 24.3985   2
   0  -4  -1 984.648 24.3860   2
   0  -4  -1 1000.02 24.4009   3
   0  -4   1 991.580 24.3892   1
   0  -4   1 1003.73 24.3767   2
   0   4  -1 1010.40 24.3612   1
   0   4   1 1049.14 24.3993   3
   0   4  -1 1045.18 24.3735   1
   0   4   1 1026.60 24.3902   1
   0   4   1 1010.40 24.3888   1
   0   4  -1 982.850 24.3443   2
   0   4  -1 1034.24 24.3756   3
   0   4  -1 1066.35 24.3645   2
   0   4   1 989.424 24.3870   3
   0   4   1 987.576 24.3689   2
   0   4   1 1069.15 24.3891   2
   0   4  -1 996.482 24.3670   3
   1  -4   1 56.6634 1.84971   1
   1  -4   1 64.8392 1.77413   2
  -1  -4  -1 65.2462 1.98579   3
  -1  -4  -1 59.5011 1.88764   2
   1  -4   1 64.0612 1.76791   3
   1  -4   1 64.1643 1.75936   2
  -1  -4  -1 63.1738 1.90091   3
   1  -4   1 64.4667 1.75922   1
  -1  -4  -1 65.8572 1.90761   1
  -1  -4  -1 64.7973 1.92569   2
  -1   4  -1 65.0369 1.73589   3
  -1   4  -1 64.2979 1.67903   2
  -1   4  -1 64.6288 1.70410   2
  -1   4  -1 66.5261 1.70203   1
  -1   4  -1 63.0259 1.73300   1
   1   4   1 63.5365 1.91010   3
   1   4   1 65.5893 1.91032   1
   1   4   1 63.8215 1.98547   2
   1   4   1 63.5698 2.03641   3
  -1   4  -1 61.8683 1.76992   3
  -2  -4  -1 381.088 9.39325   2
   2  -4   1 384.440 9.25807   3
   2  -4   1 385.608 9.26868   1
   2  -4   1 388.173 9.27810   3
  -2  -4  -1 389.164 9.41621   1
  -2  -4  -1 360.998 9.55530   3
   2  -4   1 385.038 9.27030   2
   2  -4   1 382.553 9.25742   2
   2   4   1 381.644 9.44493   1
   2   4   1 370.406 9.39972   2
  -2   4  -1 380.717 9.18441   3
   2   4   1 388.350 9.48169   1
  -2   4  -1 384.310 9.18132   3
   2   4   1 380.989 9.44296   3
   3  -4   1 406.511 9.91679   1
   3  -4   1 399.429 9.87346   3
   3  -4   1 413.005 9.88454   2
  -3  -4  -1 414.645 10.0581   1
   3  -4   1 403.640 9.88729   3
   3  -4   1 401.337 9.89186   1
  -3  -4  -1 401.019 10.0137   2
  -3  -4  -1 400.274 10.0759   3
   3   4   1 404.204 10.2370   1
   3   4   1 406.130 10.1454   1
   3   4   1 412.422 10.0941   2
   3   4   1 403.424 10.1257   3
  -4  -4  -1 4.89261 1.13626   3
  -4  -4  -1 5.83566 0.98085   2
   4  -4   1 5.73271 0.88316   3
   4  -4   1 4.20912 0.93477   1
   4  -4   1 5.91617 0.90190   2
   4  -4   1 5.82992 0.95592   1
   4   4   1 5.14933 1.14735   3
   4   4   1 6.82679 1.22247   1
   4   4   1 6.83388 1.16547   2
  -5  -4  -1 96.4263 3.25757   2
   5  -4   1 97.5049 3.19673   3
   5   4   1 94.4899 3.81254   2
   5   4   1 97.2676 5.80451   1
   5   4   1 97.3134 4.42839   3
   6  -4   1 9.79254 1.94273   1
   6   4   1 8.96068 2.60796   1
   6   4   1 0.96562 2.47860   3
   6   4   1 5.13320 2.82858   2
   6  -5  -1 10.4670 2.29941   1
   6  -5  -1 12.2604 2.75211   3
   6   5  -1 9.50514 3.17897   1
   6   5  -1 9.65987 2.92941   3
   6   5  -1 10.4281 3.13193   2
   5  -5  -1 3.29073 1.43696   3
  -5  -5   1 2.48316 1.66139   2
   5  -5  -1 3.26429 1.46798   1
  -5  -5   1 4.88697 2.11667   3
   5   5  -1 6.73046 1.94663   1
   5   5  -1 1.58147 2.56589   2
   5   5  -1 3.72295 1.85436   3
   4  -5  -1 -0.3749 1.03812   2
   4  -5  -1 0.47810 0.97705   1
   4  -5  -1 -0.3030 0.96203   3
  -4  -5   1 -0.2184 1.22572   1
  -4  -5   1 0.50838 1.22989   3
  -4  -5   1 0.38307 1.04199   2
   4   5  -1 0.94571 1.29702   1
   4   5  -1 1.27985 1.25525   3
   4   5  -1 0.70782 1.17317   2
  -3  -5   1 114.739 3.35721   2
   3  -5  -1 116.400 3.24345   3
  -3  -5   1 115.454 3.49165   3
   3  -5  -1 113.555 3.26971   1
   3  -5  -1 114.336 3.28006   1
   3  -5  -1 112.776 3.22912   2
   3  -5  -1 111.381 3.32729   3
  -3  -5   1 116.747 3.42743   1
   3   5  -1 113.923 3.56368   1
   3   5  -1 114.039 3.40580   2
   3   5  -1 115.236 3.51308   3
  -2  -5   1 1982.34 46.7608   1
   2  -5  -1 1971.20 46.5900   1
   2  -5  -1 1915.50 46.6110   1
  -2  -5   1 1943.69 46.7083   3
   2  -5  -1 1935.07 46.5766   2
   2  -5  -1 1981.74 46.5816   3
   2  -5  -1 1921.38 46.5939   3
  -2   5   1 1891.08 46.4714   2
   2   5  -1 1894.85 46.6706   2
  -2   5   1 1994.33 46.4621   1
  -2   5   1 1964.76 46.4561   2
   2   5  -1 1959.06 46.7132   1
  -2   5   1 1976.17 46.5326   3
   2   5  -1 1945.41 46.7136   3
   1  -5  -1 499.817 12.0982   3
   1  -5  -1 490.555 12.1076   1
   1  -5  -1 509.903 12.0845   2
  -1  -5   1 494.248 12.1748   1
  -1  -5   1 490.873 12.1541   3
   1  -5  -1 511.821 12.0962   3
  -1  -5   1 496.300 12.1626   1
   1   5  -1 515.603 12.1460   1
  -1   5   1 515.492 12.0712   3
  -1   5   1 462.024 12.1594   2
   1   5  -1 474.839 12.0960   2
  -1   5   1 514.264 12.0427   2
   1   5  -1 482.870 12.1435   3
   0  -5  -1 66.3117 2.04431   1
   0  -5  -1 71.2757 2.06413   1
   0  -5  -1 66.7123 2.00960   2
   0  -5   1 66.2898 2.00058   3
   0  -5  -1 66.3265 2.01258   3
   0  -5   1 69.6683 2.04864   3
   0  -5   1 64.5533 2.01468   2
   0  -5   1 72.5130 2.03851   1
   0  -5   1 66.1428 2.00967   1
   0   5   1 66.5669 2.00926   1
   0   5  -1 66.9278 1.98840   3
   0   5   1 67.3079 2.12185   2
   0   5  -1 69.5058 1.97728   1
   0   5   1 66.3042 1.95676   2
   0   5   1 67.0118 2.01191   3
   0   5  -1 67.8890 2.05939   2
   0   5  -1 67.6926 1.93477   2
   1  -5   1 110.018 2.98110   1
  -1  -5  -1 108.143 3.09258   3
   1  -5   1 117.504 3.09122   2
   1  -5   1 126.589 3.00395   3
   1  -5   1 108.879 2.96547   3
   1  -5   1 112.240 2.97158   1
  -1  -5  -1 109.132 3.04585   2
  -1  -5  -1 109.301 3.20499   1
   1  -5   1 113.722 2.96045   2
  -1  -5  -1 111.573 3.09574   1
  -1   5  -1 111.126 2.89025   1
  -1   5  -1 108.805 2.85434   2
  -1   5  -1 110.688 2.93554   3
   1   5   1 109.376 3.07761   1
   1   5   1 125.260 4.02987   1
   1   5   1 106.751 3.10029   3
  -1   5  -1 107.496 2.91767   2
   1   5   1 107.842 3.02878   2
  -1   5  -1 118.132 3.11271   3
  -2  -5  -1 167.074 4.44131   2
  -2  -5  -1 165.506 4.49166   3
   2  -5   1 167.404 4.30965   3
   2  -5   1 169.779 4.30636   3
   2  -5   1 170.982 4.30866   1
  -2  -5  -1 173.688 4.50097   1
   2  -5   1 165.851 4.31063   1
   2  -5   1 167.443 4.28192   2
   2   5   1 170.703 4.52096   3
   2   5   1 167.869 4.46336   2
  -2   5  -1 166.841 4.23665   3
   2   5   1 166.522 4.53216   1
   3  -5   1 145.212 3.83020   3
  -3  -5  -1 137.513 3.99640   2
   3  -5   1 139.563 3.84358   1
  -3  -5  -1 151.374 4.10866   1
   3  -5   1 145.979 3.82187   2
  -3  -5  -1 144.843 4.10702   3
   3  -5   1 143.890 3.87717   1
   3  -5   1 143.227 3.84688   3
   3   5   1 149.755 4.22383   1
   3   5   1 148.867 4.11186   2
   3   5   1 146.574 4.17223   3
  -4  -5  -1 6.45088 1.29734   3
  -4  -5  -1 5.82385 1.15060   2
   4  -5   1 5.67023 1.17476   2
   4  -5   1 5.36322 0.94904   3
   4  -5   1 5.71326 1.02739   1
   4   5   1 6.42121 1.30049   3
   4   5   1 5.51738 1.25658   2
   4   5   1 4.74670 1.28139   1
   5  -5   1 7.86099 1.29225   3
  -5  -5  -1 9.50745 1.56881   2
   5  -5   1 9.96130 1.45806   1
   5   5   1 9.61650 1.93424   3
   5   5   1 11.9808 1.97314   1
   6  -5   1 2.06602 2.18780   1
   6   5   1 9.09877 3.13782   2
   6   5   1 7.46900 2.96891   1
   6   5   1 7.70530 2.95971   3
   5  -6  -1 7.56326 1.75209   1
   5  -6  -1 2.56092 1.55784   3
  -5  -6   1 6.60942 1.92464   2
   5   6  -1 7.17996 2.28486   1
   5   6  -1 2.44025 1.95453   2
   5   6  -1 4.06259 2.16675   3
   4  -6  -1 6.14092 1.21238   1
   4  -6  -1 7.49085 1.20981   3
   4  -6  -1 8.49467 1.31738   2
  -4  -6   1 8.71671 1.59634   3
  -4  -6   1 4.97430 1.24472   2
   4   6  -1 6.07266 1.48796   3
   4   6  -1 8.35450 1.64377   1
   4   6  -1 5.46093 1.37474   2
  -3  -6   1 158.428 4.70560   1
   3  -6  -1 160.940 4.33244   2
   3  -6  -1 154.789 4.45228   1
  -3  -6   1 156.424 4.62722   3
   3  -6  -1 160.527 4.39127   1
  -3  -6   1 162.598 4.50474   2
   3  -6  -1 162.231 4.37706   3
   3   6  -1 159.407 4.66047   3
   3   6  -1 160.720 4.73646   1
   3   6  -1 156.398 4.52641   2
   2  -6  -1 11.3555 0.90694   1
   2  -6  -1 12.1060 0.92540   3
  -2  -6   1 9.08708 0.95120   1
  -2  -6   1 11.4849 1.01244   2
   2  -6  -1 13.1481 0.95119   2
  -2  -6   1 10.7292 0.99402   3
   2  -6  -1 11.1867 1.02878   3
   2  -6  -1 11.7345 0.88350   1
   2   6  -1 9.32548 0.91735   2
   2   6  -1 9.88080 1.05019   1
   2   6  -1 8.66148 0.94261   3
  -2   6   1 12.5398 0.82878   3
  -2   6   1 11.1623 0.77588   1
   1  -6  -1 55.0459 1.93353   1
  -1  -6   1 53.5410 1.90535   2
   1  -6  -1 55.5840 1.82575   2
   1  -6  -1 52.4044 1.90628   1
  -1  -6   1 52.1075 1.96776   3
   1  -6  -1 51.4556 2.02534   3
  -1  -6   1 54.8240 1.98001   1
   1  -6  -1 53.4946 1.85557   3
  -1  -6   1 54.4411 2.21061   1
  -1   6   1 51.7005 1.94237   2
   1   6  -1 54.8907 1.84761   2
  -1   6   1 53.0816 1.73133   2
  -1   6   1 54.3000 1.84965   3
   1   6  -1 52.7236 1.93272   1
   1   6  -1 53.2064 2.00308   3
   0  -6  -1 281.746 6.93958   1
   0  -6   1 279.929 6.85753   2
   0  -6  -1 271.154 6.85951   2
   0  -6   1 273.627 6.87875   1
   0  -6   1 278.326 6.88834   1
   0  -6  -1 275.440 6.90066   1
   0  -6  -1 266.272 6.86938   3
   0  -6   1 269.436 6.85425   3
   0  -6   1 272.493 6.91686   3
   0   6  -1 276.832 6.81079   1
   0   6  -1 272.627 6.77822   2
   0   6   1 271.545 6.84590   1
   0   6  -1 276.574 6.83593   3
   0   6  -1 270.582 6.86412   2
   0   6   1 246.483 7.03110   3
   0   6   1 273.276 6.81624   2
   1  -6   1 317.854 7.96405   1
  -1  -6  -1 309.333 8.04241   3
   1  -6   1 322.787 7.97300   3
  -1  -6  -1 324.915 8.02984   2
   1  -6   1 325.156 7.95561   3
   1  -6   1 323.674 7.96087   1
   1  -6   1 322.932 7.93665   2
  -1  -6  -1 321.011 8.07387   1
   1   6   1 321.113 8.06391   3
   1   6   1 305.893 7.99047   2
  -1   6  -1 323.828 7.84301   1
   1   6   1 321.306 8.04039   1
  -1   6  -1 316.988 7.84951   2
  -1   6  -1 323.127 7.89497   3
  -2  -6  -1 120.007 3.56584   1
   2  -6   1 120.926 3.33282   3
  -2  -6  -1 120.432 3.45970   2
  -2  -6  -1 119.790 3.54507   3
   2  -6   1 125.907 3.33988   1
   2  -6   1 120.764 3.34405   1
   2   6   1 120.140 3.62219   1
   2   6   1 120.471 3.61036   3
   2   6   1 120.321 3.47988   2
  -2   6  -1 122.931 3.19314   3
   3  -6   1 174.253 4.50139   1
   3  -6   1 158.314 4.45878   2
   3  -6   1 161.520 4.48726   1
  -3  -6  -1 167.011 4.74376   3
  -3  -6  -1 162.970 4.65563   2
  -3  -6  -1 173.299 4.76346   1
   3  -6   1 166.845 4.43954   3
   3   6   1 168.224 4.90578   1
   3   6   1 168.376 4.83549   3
   3   6   1 171.836 4.75673   2
   4  -6   1 124.700 3.78068   1
  -4  -6  -1 128.323 4.25925   3
   4  -6   1 119.822 3.83266   2
   4  -6   1 121.849 3.62027   3
  -4  -6  -1 124.197 3.95011   2
   4   6   1 120.673 4.30469   3
   4   6   1 125.238 4.40663   1
   4   6   1 124.888 4.10919   2
  -5  -6  -1 37.8713 2.65832   2
   5  -6   1 38.6517 2.82115   1
   5  -6   1 38.5545 2.70581   3
   5   6   1 37.5756 2.84839   1
   5   6   1 44.1523 3.88620   2
   5   6   1 39.5557 2.68698   3
   5  -7  -1 13.2357 1.96683   3
   5  -7  -1 15.9535 2.18507   1
  -5  -7   1 13.1064 2.35871   2
   5   7  -1 14.5164 2.65803   3
   5   7  -1 13.4503 2.98357   1
   5   7  -1 13.5988 2.61047   2
   4  -7  -1 31.0769 2.73565   2
  -4  -7   1 37.1057 3.04550   2
   4  -7  -1 33.9419 2.28793   1
  -4  -7   1 32.0105 2.23901   3
   4  -7  -1 33.0231 2.41752   3
   4   7  -1 32.5292 3.47574   3
   4   7  -1 31.2591 3.69405   2
   4   7  -1 37.5014 3.46783   1
  -3  -7   1 2.80856 1.20908   3
   3  -7  -1 6.00716 1.11208   2
  -3  -7   1 2.42846 1.34093   1
   3  -7  -1 4.12418 1.05407   3
   3  -7  -1 4.02847 1.03136   1
  -3  -7   1 1.10739 1.16913   2
   3   7  -1 0.90403 1.41343   1
   3   7  -1 2.81649 1.16123   2
   3   7  -1 2.31733 1.26095   3
  -2  -7   1 188.018 5.14071   3
  -2  -7   1 186.730 5.07176   2
   2  -7  -1 186.126 4.92598   2
   2  -7  -1 188.383 4.99215   3
  -2  -7   1 184.282 5.15249   1
   2  -7  -1 182.165 5.09757   1
   2   7  -1 187.277 5.04327   2
   2   7  -1 179.276 5.16927   1
   2   7  -1 183.696 5.17726   3
  -2   7   1 180.467 4.84985   3
   1  -7  -1 143.269 3.92669   2
  -1  -7   1 142.917 4.03726   3
  -1  -7   1 142.464 4.00644   2
  -1  -7   1 141.565 4.06153   1
   1  -7  -1 139.174 4.06776   1
   1  -7  -1 142.529 3.99287   1
   1  -7  -1 146.634 3.96207   3
  -1   7   1 144.389 3.92832   3
   1   7  -1 142.744 3.94328   2
   1   7  -1 147.491 4.03840   1
  -1   7   1 141.573 4.07122   2
  -1   7   1 143.955 3.81302   2
   1   7  -1 140.938 4.06947   3
   0  -7   1 61.8965 2.19076   3
   0  -7  -1 61.9558 2.55239   1
   0  -7   1 60.6152 2.09037   2
   0  -7  -1 58.3371 2.14072   2
   0  -7  -1 60.5790 2.16799   3
   0  -7   1 63.0721 2.43205   1
   0  -7  -1 62.0122 2.22296   1
   0  -7   1 61.6155 2.18211   1
   0   7   1 61.4355 2.27559   3
   0   7  -1 61.2187 2.13293   1
   0   7  -1 61.9059 2.22418   3
   0   7   1 63.2723 2.22391   1
   0   7  -1 59.6890 2.02337   2
   0   7   1 60.4697 2.07685   2
   1  -7   1 107.294 3.45300   3
   1  -7   1 109.538 3.18984   1
   1  -7   1 105.173 3.13352   3
   1  -7   1 114.271 3.15917   2
  -1  -7  -1 111.497 3.34954   1
  -1  -7  -1 109.291 3.33440   3
   1  -7   1 109.120 3.26085   1
  -1  -7  -1 111.767 3.27132   2
   1   7   1 109.977 3.36060   3
   1   7   1 109.095 3.23162   2
  -1   7  -1 109.626 2.96252   2
   1   7   1 114.705 4.36848   1
  -1   7  -1 107.345 3.11272   3
   2  -7   1 200.242 5.27579   1
  -2  -7  -1 201.624 5.48896   3
   2  -7   1 201.080 5.23406   2
  -2  -7  -1 198.017 5.41190   2
   2  -7   1 199.086 5.32591   1
  -2  -7  -1 203.469 5.51810   1
  -2   7  -1 201.786 5.09512   3
   2   7   1 203.341 5.54929   1
   2   7   1 202.000 5.55343   3
   2   7   1 193.277 5.39992   2
  -3  -7  -1 270.046 7.17018   3
   3  -7   1 267.074 6.86445   2
  -3  -7  -1 258.453 7.15903   1
  -3  -7  -1 261.095 7.03217   2
   3  -7   1 267.278 6.85615   3
   3  -7   1 265.749 6.89826   1
   3   7   1 260.098 7.26279   1
   3   7   1 277.697 7.15072   2
   3   7   1 265.350 7.26856   3
   4  -7   1 51.1007 2.48072   3
  -4  -7  -1 49.1427 3.25357   3
   4  -7   1 49.1840 3.24193   1
  -4  -7  -1 49.8843 2.84265   2
   4   7   1 53.9067 3.48109   1
   4   7   1 49.6233 3.57083   3
   4   7   1 47.3600 4.14924   2
   5  -7   1 31.6017 2.16044   1
  -5  -7  -1 34.2063 2.53748   2
   5   7   1 31.4644 2.93056   3
   5   7   1 31.4685 2.94401   1
   5   7   1 32.6614 2.99307   2
   5  -8  -1 46.7469 4.15618   3
   5  -8  -1 47.9139 4.16044   1
  -5  -8   1 52.0067 3.43054   2
   5   8  -1 54.6214 3.81108   3
   5   8  -1 51.2989 4.03211   1
   5   8  -1 43.9617 3.47672   2
  -4  -8   1 16.5760 1.89262   2
   4  -8  -1 16.2232 1.79346   1
  -4  -8   1 18.2963 3.73932   3
   4  -8  -1 19.0696 1.77064   3
   4   8  -1 12.2865 2.76932   1
   4   8  -1 15.9168 2.30216   3
   4   8  -1 17.1024 2.04548   2
  -3  -8   1 3.38052 1.25127   2
   3  -8  -1 3.14541 1.21958   1
  -3  -8   1 4.71127 1.61289   1
   3  -8  -1 7.39236 1.31313   2
   3  -8  -1 3.53747 1.23581   3
  -3  -8   1 3.52180 1.47632   3
   3   8  -1 6.80765 1.89015   1
   3   8  -1 4.10902 1.55276   3
   3   8  -1 7.69231 1.59899   2
   2  -8  -1 134.367 4.01026   3
   2  -8  -1 136.400 3.95183   2
  -2  -8   1 138.138 4.19034   3
  -2  -8   1 131.196 4.22655   1
  -2  -8   1 129.466 4.02198   2
   2  -8  -1 137.654 4.01597   1
  -2   8   1 131.627 3.87412   3
   2   8  -1 136.883 4.46392   1
   2   8  -1 131.220 4.04338   2
   2   8  -1 128.870 4.31130   3
  -1  -8   1 21.0289 1.86664   1
   1  -8  -1 17.6547 1.23089   3
  -1  -8   1 17.4729 1.33409   3
  -1  -8   1 18.1888 1.40508   2
   1  -8  -1 19.1768 1.64883   1
   1  -8  -1 17.9327 1.55481   2
  -1   8   1 20.6844 1.49601   2
  -1   8   1 16.0781 1.36228   3
  -1   8   1 18.9751 1.28224   1
   1   8  -1 18.3080 1.41066   3
   1   8  -1 14.9810 1.18910   2
   1   8  -1 16.7983 1.34983   1
   0  -8   1 6.95873 0.98282   2
   0  -8   1 7.86755 1.03318   1
   0  -8  -1 5.94118 1.04165   2
   0  -8  -1 6.54106 1.01923   1
   0  -8  -1 6.72674 0.96103   3
   0  -8   1 6.11782 0.94954   3
   0   8  -1 5.50347 1.06733   1
   0   8  -1 7.25655 0.92606   2
   0   8   1 6.21820 1.08692   1
   0   8   1 6.93001 1.12341   3
   0   8   1 6.79744 0.96887   2
   0   8  -1 6.69806 1.06162   3
  -1  -8  -1 148.902 4.27238   3
   1  -8   1 144.451 4.13208   1
  -1  -8  -1 143.391 4.31203   1
   1  -8   1 146.094 4.07677   3
  -1  -8  -1 142.786 4.17098   2
   1  -8   1 143.559 4.11818   2
   1   8   1 145.460 4.35357   3
   1   8   1 140.761 4.43759   1
   1   8   1 143.960 4.14761   2
  -1   8  -1 142.956 3.83980   2
  -1   8  -1 145.511 4.03828   3
  -2  -8  -1 105.631 3.65651   1
  -2  -8  -1 99.7670 3.37759   2
   2  -8   1 103.285 3.26968   1
  -2  -8  -1 103.176 3.55033   3
   2  -8   1 103.631 3.23025   2
   2   8   1 104.244 3.45781   2
   2   8   1 106.758 3.90078   1
   2   8   1 106.390 3.71887   3
   3  -8   1 55.1560 2.63659   3
  -3  -8  -1 56.7897 2.69194   2
   3  -8   1 54.9900 2.60238   2
  -3  -8  -1 53.2359 3.23099   1
  -3  -8  -1 52.7471 3.01796   3
   3  -8   1 55.1137 2.58070   1
   3   8   1 51.5283 3.21345   3
   3   8   1 54.2855 2.85109   2
   3   8   1 52.9387 3.61340   1
   4  -8   1 2.48512 1.60756   1
  -4  -8  -1 3.31787 1.95989   3
  -4  -8  -1 2.25885 1.76105   2
   4   8   1 2.73173 2.21405   3
   4   8   1 1.65199 2.61865   1
   4   8   1 1.87044 2.09262   2
  -5  -8  -1 1.80184 2.62785   2
   5  -8   1 3.02685 2.10298   1
   5   8   1 -1.0987 2.77394   2
   5   8   1 -6.6877 3.59137   1
   5   8   1 3.53649 3.09362   3
   4  -9  -1 70.0650 3.93163   3
   4  -9  -1 66.8315 3.95990   1
  -4  -9   1 69.5349 3.95617   2
  -4  -9   1 69.8638 4.71870   3
   4   9  -1 76.9156 5.20256   3
   4   9  -1 73.3838 4.36776   2
   4   9  -1 63.9336 5.85491   1
  -3  -9   1 31.5923 2.44128   1
  -3  -9   1 31.2228 3.59734   3
  -3  -9   1 27.1208 2.00963   2
   3  -9  -1 29.3569 2.02630   2
   3  -9  -1 31.4632 2.69452   3
   3  -9  -1 33.3006 2.80325   1
   3   9  -1 26.5597 3.07678   3
   3   9  -1 31.1954 2.67112   1
   3   9  -1 33.4876 2.97108   2
  -2  -9   1 65.7207 3.24422   3
  -2  -9   1 77.2886 3.51000   1
  -2  -9   1 74.8259 3.07555   2
   2  -9  -1 72.1657 2.96279   2
   2  -9  -1 77.2372 3.05558   1
   2  -9  -1 72.2867 3.07679   3
   2   9  -1 72.1913 3.75200   1
   2   9  -1 75.8381 3.56497   3
   2   9  -1 73.0380 3.09329   2
  -1  -9   1 322.240 8.44411   2
   1  -9  -1 321.802 8.43570   1
   1  -9  -1 324.668 8.38961   3
  -1  -9   1 327.983 8.56450   1
  -1  -9   1 321.441 8.47069   3
   1  -9  -1 319.444 8.36911   2
  -1   9   1 321.379 8.14993   2
   1   9  -1 323.335 8.32487   2
   1   9  -1 325.017 8.48997   1
   1   9  -1 322.774 8.52376   3
  -1   9   1 313.562 8.34926   3
   0  -9  -1 153.235 4.40760   2
   0  -9   1 153.340 4.44099   3
   0  -9  -1 147.601 4.44951   3
   0  -9   1 148.370 4.37799   2
   0  -9  -1 148.277 4.50985   1
   0  -9   1 145.912 4.46240   1
   0   9   1 152.080 4.30164   2
   0   9  -1 148.135 4.21555   2
   0   9   1 144.525 4.56386   1
   0   9  -1 147.388 4.54493   3
   0   9   1 148.728 4.63496   3
  -1  -9  -1 19.2988 1.50914   3
   1  -9   1 22.1606 1.51628   2
   1  -9   1 20.9619 1.47154   1
  -1  -9  -1 18.1586 1.44154   2
   1  -9   1 19.9652 1.39673   3
  -1  -9  -1 18.8615 1.61068   1
  -1   9  -1 19.2939 2.18635   3
  -1   9  -1 23.8713 1.73447   2
   1   9   1 20.3371 1.75320   1
   1   9   1 23.2333 1.77725   3
   1   9   1 20.5579 1.49353   2
   2  -9   1 4.91088 1.16583   1
  -2  -9  -1 4.95064 1.42116   2
   2  -9   1 3.62607 1.20747   3
   2  -9   1 3.12302 1.25208   2
  -2  -9  -1 3.95140 1.64155   1
  -2  -9  -1 2.42913 1.33212   3
   2   9   1 4.49202 1.72620   1
   2   9   1 4.90339 1.70109   3
   2   9   1 2.27087 1.39839   2
   3  -9   1 9.72660 1.57888   1
  -3  -9  -1 10.9927 1.75508   2
   3  -9   1 10.1488 1.72768   2
  -3  -9  -1 8.46234 2.12425   3
  -3  -9  -1 8.89152 2.38900   1
   3   9   1 10.9072 2.28141   1
   3   9   1 10.4241 2.17097   3
   3   9   1 12.6369 2.08992   2
   4  -9   1 6.50954 1.89434   3
  -4  -9  -1 5.00027 2.36831   2
  -4  -9  -1 6.73934 2.49969   3
   4  -9   1 6.97730 2.01495   1
   4   9   1 0.89022 2.71196   3
   4   9   1 10.8905 3.06011   1
   4   9   1 8.90297 2.65089   2
   4 -10  -1 27.7398 2.78794   1
   4 -10  -1 29.4767 2.74516   3
  -4 -10   1 29.9554 2.86884   2
  -4 -10   1 26.5793 3.23972   3
   4  10  -1 27.2868 3.16815   2
   4  10  -1 32.8593 3.83616   3
   3 -10  -1 81.6527 4.11798   1
   3 -10  -1 86.9099 4.24130   3
  -3 -10   1 81.6529 4.04391   2
  -3 -10   1 86.7594 4.37031   3
   3 -10  -1 76.0059 6.49905   2
   3  10  -1 87.4850 4.30447   2
   3  10  -1 92.3107 5.16165   3
   2 -10  -1 3.93728 1.57000   2
   2 -10  -1 2.78493 1.53156   3
  -2 -10   1 1.16322 1.53145   2
  -2 -10   1 -0.8924 1.90380   1
   2 -10  -1 3.90590 1.63192   1
  -2 -10   1 2.67301 1.65457   3
   2  10  -1 0.79284 2.25108   3
   2  10  -1 2.28225 1.76539   2
  -1 -10   1 48.6959 3.71119   3
   1 -10  -1 58.5819 2.86905   2
  -1 -10   1 64.1507 3.09184   2
   1 -10  -1 56.5132 3.27469   1
  -1 -10   1 65.4956 3.26735   1
  -1  10   1 60.4854 2.72931   2
   1  10  -1 63.0098 2.95500   2
   1  10  -1 63.4987 3.78955   3
   0 -10  -1 87.7570 3.74220   3
   0 -10   1 85.4146 3.30617   2
   0 -10   1 84.3401 3.45178   1
   0 -10  -1 85.0885 3.31292   2
   0 -10   1 84.5380 3.50989   3
   0 -10  -1 89.1600 3.56315   1
   0  10   1 89.9369 3.19052   2
   0  10   1 77.8302 3.69794   3
   0  10  -1 79.9564 3.63899   3
   0  10  -1 88.8020 3.15771   2
  -1 -10  -1 25.8311 2.02670   1
   1 -10   1 27.1900 2.38601   2
   1  10   1 28.8029 2.48337   2
   1  10   1 25.0574 2.31460   3
   2 -10   1 24.2626 1.85605   3
  -2 -10  -1 27.4889 2.14820   2
   2 -10   1 23.1861 1.94450   2
  -2 -10  -1 28.0638 2.17815   3
  -2 -10  -1 20.2371 2.18454   1
   2  10   1 23.9252 2.05083   2
   2  10   1 23.7616 3.29469   3
   3 -10   1 -0.7201 1.74790   1
   3 -10   1 -0.2234 1.68754   3
  -3 -10  -1 -0.3979 1.82567   2
  -3 -10  -1 -0.1834 2.12761   3
   3  10   1 2.81308 2.54041   3
   3  10   1 -2.5137 2.28441   2
   4 -10   1 2.08881 2.64269   3
  -4 -10  -1 -4.1838 3.56022   3
   4 -10   1 -0.1512 2.36744   1
  -4 -10  -1 4.26149 2.69175   2
   4  10   1 -1.5414 3.08219   2
   4  10   1 5.28515 3.82026   3
  -3 -11   1 4.72033 2.67469   3
   3 -11  -1 2.19226 2.40899   3
  -3 -11   1 2.63387 2.29092   2
   3 -11  -1 -0.1177 2.34768   1
   3  11  -1 -5.5868 3.50815   3
   3  11  -1 2.89120 2.71482   2
   2 -11  -1 54.1460 3.80800   2
  -2 -11   1 48.1085 4.09342   3
   2 -11  -1 48.1833 3.70605   3
  -2 -11   1 52.3717 3.60421   2
   2 -11  -1 49.3773 3.91463   1
  -2 -11   1 57.1187 4.40000   1
   2  11  -1 63.6861 5.09841   3
   2  11  -1 52.1607 3.81324   2
  -1 -11   1 38.2529 3.16660   2
   1 -11  -1 39.7638 3.13281   2
  -1 -11   1 42.2092 3.36124   3
  -1 -11   1 40.5517 3.63324   1
   1  11  -1 40.4663 2.94038   3
  -1  11   1 38.6866 3.09914   2
   1  11  -1 35.3122 3.13009   2
   0 -11   1 3.26839 1.87789   2
   0 -11  -1 -0.3138 1.73079   2
   0 -11  -1 0.75328 1.82242   1
   0 -11   1 4.40521 1.80450   1
   0 -11   1 -0.3612 1.58696   3
   0 -11  -1 -2.6760 1.56489   3
   0  11  -1 3.23012 1.63421   2
   0  11   1 0.54012 2.83334   3
   0  11   1 2.08441 1.79206   2
  -1 -11  -1 18.0119 2.06234   3
  -1 -11  -1 17.0751 2.09843   2
  -1 -11  -1 18.3221 2.43474   1
   1 -11   1 16.8155 2.00150   3
   1 -11   1 16.5352 1.97364   1
   1 -11   1 15.1637 1.98516   2
   1  11   1 11.5016 2.60430   3
   1  11   1 12.8644 2.12848   2
   2 -11   1 23.5187 2.60601   2
  -2 -11  -1 24.7775 2.56986   3
  -2 -11  -1 22.4425 2.28595   2
   2 -11   1 23.7566 2.28746   1
  -2 -11  -1 33.1258 3.13032   1
   2 -11   1 26.1930 2.26194   3
   2  11   1 21.8152 2.42231   2
   2  11   1 27.6124 3.24982   3
  -3 -11  -1 3.09090 2.59716   2
   3 -11   1 1.06856 2.41101   3
   3 -11   1 3.93043 2.32280   1
  -3 -11  -1 0.80671 3.08468   3
   3  11   1 0.38728 3.75740   3
   3  11   1 4.20828 3.00815   2
   2 -12  -1 -2.4945 2.46079   3
   2 -12  -1 5.31237 2.98335   2
   2 -12  -1 -1.8051 2.57752   1
  -2 -12   1 -0.2300 2.73797   2
  -2 -12   1 -6.6818 3.61805   1
  -2 -12   1 1.81189 2.59161   3
   2  12  -1 -1.8966 2.73981   2
  -1 -12   1 7.69754 2.32418   3
  -1 -12   1 10.1029 3.00771   1
  -1 -12   1 4.50901 2.29741   2
   1 -12  -1 3.17855 2.49107   2
   1 -12  -1 5.67873 2.36253   3
   1 -12  -1 8.57957 2.68769   1
   1  12  -1 9.01178 2.70094   2
   0 -12  -1 16.7619 2.47020   2
   0 -12  -1 16.9235 2.69441   1
   0 -12   1 15.2279 2.47386   1
   0 -12   1 18.5029 2.40365   2
   0 -12   1 21.0304 2.34341   3
   0 -12  -1 20.5350 2.47956   3
   0  12   1 20.7810 2.43059   2
  -1 -12  -1 -0.7867 2.15965   3
  -1 -12  -1 3.21433 2.75367   1
   1 -12   1 2.34207 2.24360   1
   1 -12   1 1.04647 2.37276   2
  -1 -12  -1 -2.9141 2.14957   2
   1  12   1 -0.7111 2.58729   2
  -2 -12  -1 17.8633 2.74215   2
   2 -12   1 20.8225 2.72162   3
  -2 -12  -1 19.9527 3.19652   3
   2 -12   1 20.5978 2.76235   1
   2  12   1 18.3195 3.21485   2
   2  12   1 17.8747 4.49956   3
   6   0  -2 3.90238 1.94869   1
   6   0  -2 4.11183 2.34563   2
   6   0  -2 6.53408 1.92069   3
   5   0  -2 18.0786 1.48725   2
   5   0  -2 18.4903 1.51296   1
   5   0  -2 17.9793 1.47042   3
   4   0  -2 255.308 6.52390   3
  -4   0   2 254.850 6.32951   2
   4   0  -2 245.681 6.75247   3
   4   0  -2 258.738 6.50733   2
  -4   0   2 248.106 6.27722   2
  -4   0   2 253.129 6.40335   3
   4   0  -2 248.142 6.54465   1
  -4   0   2 256.614 6.34846   1
   4   0  -2 253.804 6.61762   1
   3   0  -2 298.645 7.35149   3
   3   0  -2 278.756 7.31602   2
   3   0  -2 292.449 7.32518   3
  -3   0   2 272.349 7.32304   2
  -3   0   2 305.475 7.24939   1
  -3   0   2 306.114 7.23221   2
  -3   0   2 298.227 7.28127   3
   3   0  -2 291.910 7.33148   1
   3   0  -2 303.083 7.34884   1
  -2   0   2 125.839 3.23785   3
   2   0  -2 123.192 3.23232   3
  -2   0   2 124.271 3.21895   3
   2   0  -2 125.444 3.23756   1
  -2   0   2 128.645 3.18754   2
   2   0  -2 121.850 3.19966   2
  -2   0   2 125.583 3.21982   1
   2   0  -2 127.087 3.22998   2
  -2   0   2 126.160 3.19954   1
   2   0  -2 126.763 3.23333   3
   2   0  -2 128.528 3.23789   1
   1   0  -2 1456.07 34.3573   1
   1   0  -2 1338.77 34.3115   3
   1   0  -2 1431.49 34.2628   2
  -1   0   2 1480.74 34.4000   3
  -1   0   2 1465.81 34.3847   1
   1   0  -2 1445.58 34.2699   1
   1   0  -2 1452.21 34.2648   2
   1   0  -2 1390.61 34.2706   3
  -1   0   2 1442.23 34.2688   3
  -1   0   2 1471.41 34.4413   2
  -1   0   2 1435.25 34.2676   1
   0   0   2 2151.21 50.5902   3
   0   0  -2 2172.00 50.5865   1
   0   0  -2 2161.72 50.5967   3
   0   0   2 2092.22 50.5886   1
   0   0   2 2120.70 50.5709   1
   0   0  -2 2113.92 50.5689   2
   0   0  -2 1981.10 50.5740   3
   0   0   2 2145.55 50.5830   3
   0   0   2 2063.98 50.5661   2
   0   0  -2 2134.75 50.5626   2
   0   0   2 2161.58 50.5632   2
   1   0   2 20.9383 0.62903   1
   1   0   2 22.3157 0.61760   2
   1   0   2 21.7574 0.63991   3
   1   0   2 22.1927 0.62701   1
  -1   0  -2 22.0548 0.61726   3
   1   0   2 22.0375 0.63901   3
   2   0   2 1416.46 34.6586   1
   2   0   2 1453.29 34.6560   3
   2   0   2 1438.36 34.6544   1
  -2   0  -2 1499.01 34.6213   3
   2   0   2 1509.82 34.6524   2
   2   0   2 1439.15 34.6607   3
   2   0   2 1414.41 34.6427   2
  -3   0  -2 32.2534 1.21286   3
   3   0   2 31.2776 1.18957   2
   3   0   2 31.4322 1.46242   2
   3   0   2 31.0012 1.27821   3
   3   0   2 30.8958 1.23440   1
   3   0   2 31.5026 1.23152   1
   3   0   2 30.6395 1.22653   3
   4   0   2 3.99226 0.84262   1
   4   0   2 3.75300 0.92059   2
  -4   0  -2 3.11075 0.57838   3
   4   0   2 4.45448 0.80660   1
   4   0   2 3.40356 0.74649   3
   4   0   2 4.63507 1.00333   3
   5   0   2 4.70593 1.28434   2
   5   0   2 4.60840 1.17535   3
   5   0   2 4.40134 1.19998   1
   6   0   2 9.12736 1.81529   3
   6   0   2 8.34904 1.88862   1
   6  -1  -2 11.1035 2.19840   2
   6  -1  -2 8.30750 1.87188   3
   6  -1  -2 6.78049 1.94783   1
   6   1  -2 9.54253 1.98477   3
   6   1  -2 4.17200 2.64936   2
   6   1  -2 7.94299 2.00928   1
   5  -1  -2 86.5070 3.11502   3
   5  -1  -2 84.3140 3.15883   2
   5  -1  -2 81.5416 3.13738   1
   5   1  -2 88.7221 3.34183   3
   5   1  -2 85.9893 3.14632   2
   5   1  -2 86.0086 3.29021   1
   4  -1  -2 59.4670 2.19806   1
  -4  -1   2 57.0804 2.11427   3
   4  -1  -2 59.0965 2.34883   1
   4  -1  -2 60.5489 2.15291   2
  -4  -1   2 60.1237 2.26353   2
   4  -1  -2 59.6182 2.56094   3
  -4  -1   2 58.5190 1.98329   2
  -4  -1   2 56.9904 2.10563   1
   4  -1  -2 60.4540 2.21657   3
   4   1  -2 59.5292 2.27932   3
   4   1  -2 63.1955 2.18843   2
   4   1  -2 54.3673 2.69197   1
   4   1  -2 55.9659 2.29048   1
  -4   1   2 60.2170 1.94514   1
  -4   1   2 55.4905 1.97000   3
   3  -1  -2 155.303 4.16690   1
  -3  -1   2 162.176 4.13313   1
   3  -1  -2 159.068 4.17073   1
  -3  -1   2 166.316 4.18082   3
  -3  -1   2 162.545 4.14238   2
  -3  -1   2 157.948 4.11942   2
   3  -1  -2 160.046 4.12138   2
   3  -1  -2 160.499 4.17963   3
   3  -1  -2 154.506 4.15638   3
  -3   1   2 163.920 4.03404   2
  -3   1   2 162.214 4.05448   1
   3   1  -2 157.469 4.16874   2
   3   1  -2 163.360 4.25742   1
  -3   1   2 161.194 4.10609   3
   3   1  -2 159.648 4.29815   3
   3   1  -2 157.700 4.20732   3
   3   1  -2 157.645 4.21471   1
  -3   1   2 158.438 4.02561   2
   2  -1  -2 335.921 8.13182   2
   2  -1  -2 325.534 8.15090   1
   2  -1  -2 340.199 8.13839   2
  -2  -1   2 337.033 8.17528   1
  -2  -1   2 335.887 8.18543   3
   2  -1  -2 332.361 8.14086   1
  -2  -1   2 336.851 8.16352   1
  -2  -1   2 323.096 8.16541   3
   2  -1  -2 340.023 8.14788   3
  -2  -1   2 325.847 8.14960   2
  -2  -1   2 348.088 8.14979   2
   2  -1  -2 333.264 8.15182   3
   2   1  -2 311.937 8.16554   3
   2   1  -2 337.017 8.16415   2
  -2   1   2 344.361 8.10059   2
   2   1  -2 333.514 8.17476   2
  -2   1   2 337.989 8.11911   1
   2   1  -2 339.044 8.18390   3
   2   1  -2 334.212 8.19172   1
  -2   1   2 328.815 8.12570   3
  -2   1   2 345.820 8.14353   3
  -2   1   2 328.336 8.10210   2
   2   1  -2 337.733 8.18775   1
  -1  -1   2 1908.69 45.4029   2
  -1  -1   2 1969.96 45.7124   1
   1  -1  -2 1899.00 45.6424   3
  -1  -1   2 1902.85 45.6567   2
   1  -1  -2 1983.09 45.5042   2
  -1  -1   2 1907.64 45.4153   3
  -1  -1   2 1916.79 45.5441   3
   1  -1  -2 1886.07 45.5987   1
  -1  -1   2 1888.62 45.4146   1
   1  -1  -2 1900.57 45.5600   2
   1  -1  -2 1892.16 45.3977   3
   1  -1  -2 1971.45 45.5165   1
  -1   1   2 1901.99 45.6036   2
  -1   1   2 1913.87 45.3956   3
   1   1  -2 1887.38 45.6517   3
  -1   1   2 1921.52 45.6170   3
   1   1  -2 1940.60 45.6669   1
   1   1  -2 1907.94 45.4079   2
   1   1  -2 1865.02 45.4101   3
   1   1  -2 1768.64 45.4502   1
  -1   1   2 1902.58 45.5802   1
  -1   1   2 1882.28 45.3917   1
   0  -1  -2 4016.07 96.2533   1
   0  -1   2 3965.51 96.1134   1
   0  -1  -2 3927.59 96.2373   3
   0  -1  -2 4031.31 96.2246   3
   0  -1  -2 3995.39 96.2450   1
   0  -1   2 4064.21 96.1121   3
   0  -1   2 4037.39 96.0962   2
   0  -1   2 3965.83 96.1140   3
   0  -1  -2 4036.63 96.2096   2
   0  -1   2 4046.93 96.0742   2
   0  -1   2 3990.94 96.1107   1
   0   1   2 4199.80 96.2385   3
   0   1   2 3946.33 96.2402   1
   0   1  -2 3933.00 96.0678   2
   0   1   2 3907.08 96.2169   2
   0   1  -2 4074.72 96.0568   2
   0   1   2 4112.16 96.2338   1
   0   1   2 4042.26 96.2458   3
   0   1  -2 4080.93 96.0551   1
   0   1  -2 4152.35 96.0908   3
   0   1   2 4101.60 96.1911   2
  -1  -1  -2 2572.98 59.8025   2
  -1  -1  -2 2514.68 59.9187   3
  -1  -1  -2 2550.16 59.7961   3
  -1  -1  -2 2447.39 59.6719   1
  -1  -1  -2 2449.86 59.8699   2
   1   1   2 2603.29 59.8422   3
   1   1   2 2574.94 59.9196   2
   1   1   2 2517.74 59.8400   2
   1   1   2 2390.43 59.9051   1
   1   1   2 2490.88 59.9581   1
   1   1   2 2463.16 59.9050   3
  -2  -1  -2 596.676 14.3097   3
   2  -1   2 589.992 14.2439   2
  -2  -1  -2 583.173 14.2720   2
  -2  -1  -2 595.434 14.2801   1
  -2  -1  -2 600.260 14.2897   1
   2  -1   2 594.617 14.2583   1
   2  -1   2 589.049 14.2562   3
   2  -1   2 590.625 14.2546   1
   2  -1   2 579.266 14.2564   3
  -2  -1  -2 611.899 14.3204   3
  -2  -1  -2 620.130 14.2768   2
   2   1   2 615.256 14.3329   2
   2   1   2 583.475 14.3344   3
   2   1   2 587.154 14.3403   1
   2   1   2 593.295 14.3347   1
   2   1   2 604.269 14.3258   2
   3  -1   2 246.093 6.07952   2
   3  -1   2 241.886 6.09637   3
   3  -1   2 242.148 6.12142   2
   3  -1   2 248.361 6.10212   1
  -3  -1  -2 254.090 6.03858   1
  -3  -1  -2 252.962 6.11373   3
   3  -1   2 248.814 6.09931   3
   3  -1   2 240.122 6.10555   1
   3   1   2 250.942 6.20633   3
   3   1   2 244.048 6.19542   1
   3   1   2 247.628 6.19754   3
   3   1   2 248.752 6.16417   2
   3   1   2 252.971 6.20655   1
   4  -1   2 38.2802 2.79480   3
   4  -1   2 41.4123 1.64062   2
   4  -1   2 42.7838 1.70010   1
   4  -1   2 42.7479 1.62473   3
   4  -1   2 40.1888 1.71737   1
  -4  -1  -2 43.1187 1.58636   3
   4   1   2 41.5357 1.83553   3
   4   1   2 39.8335 1.81989   2
   4   1   2 39.3748 1.84683   1
   4   1   2 42.2792 2.03535   1
   4   1   2 43.2350 2.34375   3
   5  -1   2 13.0961 1.44048   2
   5  -1   2 11.9425 1.23064   1
   5  -1   2 12.7604 1.18005   3
   5   1   2 13.5855 1.46186   2
   5   1   2 12.5482 1.34865   1
   5   1   2 13.0730 1.28310   3
   6  -1   2 72.8509 3.56572   3
   6  -1   2 76.8968 3.69895   1
   6   1   2 71.0410 3.89003   1
   6   1   2 73.6554 3.83126   3
   6  -2  -2 7.60455 1.84816   3
   6  -2  -2 5.80516 1.94552   1
   6   2  -2 7.54628 2.17460   1
   6   2  -2 11.9098 2.26648   2
   6   2  -2 5.73921 2.05798   3
   5  -2  -2 39.2524 2.47480   2
   5  -2  -2 44.4940 2.42496   1
  -5  -2   2 42.9212 2.10200   2
  -5  -2   2 41.1918 2.83321   3
   5  -2  -2 44.7412 2.42092   3
   5   2  -2 42.9417 2.57169   2
   5   2  -2 42.1659 2.71368   3
   5   2  -2 43.6261 2.70313   1
  -4  -2   2 48.9815 1.93131   2
   4  -2  -2 50.3898 2.54000   3
   4  -2  -2 49.5602 2.17263   1
   4  -2  -2 46.8667 1.96457   2
   4  -2  -2 46.7639 2.01732   3
   4  -2  -2 47.5016 2.00930   1
  -4  -2   2 45.7308 2.29908   3
  -4  -2   2 57.4839 3.02994   2
   4   2  -2 54.1150 2.99116   1
   4   2  -2 50.4758 2.21547   1
   4   2  -2 45.6758 2.03148   2
  -4   2   2 52.7520 1.77508   3
   4   2  -2 47.1941 2.19564   3
  -3  -2   2 72.2325 2.19540   2
   3  -2  -2 74.3450 2.23269   3
   3  -2  -2 74.1529 2.21799   1
  -3  -2   2 74.6782 2.25835   1
   3  -2  -2 71.5798 2.20114   3
  -3  -2   2 71.6377 2.28081   3
   3  -2  -2 73.6963 2.20490   1
  -3  -2   2 73.7591 2.33965   2
   3  -2  -2 75.0657 2.15889   2
  -3   2   2 72.7313 2.03991   1
  -3   2   2 72.9711 1.99864   2
   3   2  -2 76.1996 2.46804   1
   3   2  -2 72.3304 2.25824   2
   3   2  -2 74.5870 2.32436   3
  -3   2   2 72.7630 2.11453   3
   3   2  -2 71.9542 2.32671   1
   3   2  -2 73.1138 2.59557   3
  -2  -2   2 456.316 11.2750   3
   2  -2  -2 453.268 11.2124   3
  -2  -2   2 465.775 11.2601   1
  -2  -2   2 434.018 11.2575   2
   2  -2  -2 465.322 11.1998   2
   2  -2  -2 470.842 11.2151   1
  -2  -2   2 467.099 11.2785   1
   2  -2  -2 464.924 11.2004   2
   2  -2  -2 465.250 11.2068   3
  -2  -2   2 480.928 11.2483   2
  -2  -2   2 467.135 11.2703   3
   2   2  -2 457.449 11.2778   1
   2   2  -2 443.106 11.4737   3
   2   2  -2 470.732 11.2812   3
  -2   2   2 464.536 11.1896   3
  -2   2   2 468.494 11.1927   3
  -2   2   2 467.607 11.1696   1
   2   2  -2 458.826 11.2522   2
   2   2  -2 459.227 11.2652   2
   2   2  -2 478.033 11.2841   1
  -2   2   2 470.861 11.1523   2
  -2   2   2 465.650 11.1628   2
  -2   2   2 460.229 11.1700   1
   1  -2  -2 439.400 10.4541   2
   1  -2  -2 437.919 10.4673   1
  -1  -2   2 447.759 10.5017   3
   1  -2  -2 407.944 10.4522   2
   1  -2  -2 419.468 10.4705   1
   1  -2  -2 426.756 10.4681   3
  -1  -2   2 451.174 10.4850   2
   1  -2  -2 426.244 10.4706   3
  -1  -2   2 425.475 10.4894   2
  -1  -2   2 427.516 10.4971   3
  -1  -2   2 432.936 10.4955   1
  -1   2   2 431.495 10.4549   1
   1   2  -2 426.526 10.4965   1
  -1   2   2 424.849 10.4482   2
  -1   2   2 450.309 10.4508   2
   1   2  -2 460.543 10.5079   1
   1   2  -2 412.385 10.4755   2
   1   2  -2 451.787 10.4929   2
   1   2  -2 442.921 10.4968   3
   1   2  -2 426.669 10.4983   3
  -1   2   2 450.581 10.4657   3
  -1   2   2 441.954 10.4601   1
  -1   2   2 428.867 10.4637   3
   0  -2   2 1432.12 34.6362   3
   0  -2   2 1474.86 34.6301   2
   0  -2   2 1434.70 34.6366   1
   0  -2  -2 1447.43 34.6603   3
   0  -2   2 1451.35 34.6787   3
   0  -2   2 1420.02 34.7130   1
   0  -2  -2 1518.06 34.7678   2
   0  -2   2 1457.61 34.6726   2
   0  -2  -2 1475.37 34.8115   3
   0  -2  -2 1446.21 34.8425   2
   0  -2  -2 1423.75 34.6686   1
   0   2   2 1410.96 34.6602   3
   0   2  -2 1455.01 34.6262   1
   0   2  -2 1442.89 34.6318   3
   0   2  -2 1475.28 34.6238   2
   0   2  -2 1481.07 34.7725   2
   0   2   2 1409.38 34.7663   2
   0   2  -2 1459.03 34.7508   3
   0   2   2 1500.33 34.6595   2
   0   2   2 1419.21 34.6630   1
   0   2   2 1469.88 34.6664   1
   0   2   2 1467.05 34.6651   3
  -1  -2  -2 83.9091 2.24558   2
   1  -2   2 87.4893 2.13238   3
  -1  -2  -2 86.2135 2.25835   1
   1  -2   2 85.5183 2.12380   1
   1  -2   2 84.8430 2.12428   1
  -1  -2  -2 89.5945 2.24659   2
   1  -2   2 88.5784 2.13769   3
  -1  -2  -2 87.1428 2.26393   3
  -1  -2  -2 86.8059 2.26164   3
  -1  -2  -2 89.9404 2.26685   1
   1   2   2 85.5679 2.25116   2
   1   2   2 85.6311 2.27870   1
   1   2   2 87.3113 2.28512   1
   1   2   2 88.9670 2.28497   3
   1   2   2 88.9497 2.26979   2
   1   2   2 84.2548 2.26879   3
  -2  -2  -2 5071.99 118.374   2
   2  -2   2 4963.27 118.494   1
   2  -2   2 5066.40 118.488   3
   2  -2   2 4991.42 118.477   3
  -2  -2  -2 4932.75 118.940   3
  -2  -2  -2 4952.65 118.787   2
   2  -2   2 4959.25 118.520   1
  -2  -2  -2 5024.39 118.391   1
  -2  -2  -2 5034.03 118.406   3
   2   2   2 5000.53 118.410   2
   2   2   2 4467.88 119.131   1
   2   2   2 4987.51 118.700   2
   2   2   2 4937.95 118.422   1
   2   2   2 5230.35 118.589   3
   3  -2   2 528.692 12.8423   1
   3  -2   2 530.885 12.8145   2
  -3  -2  -2 532.193 12.8708   1
   3  -2   2 526.772 12.8219   3
  -3  -2  -2 519.174 12.8622   2
  -3  -2  -2 534.316 12.9190   3
   3  -2   2 531.588 12.8350   2
  -3  -2  -2 544.353 12.8636   2
   3  -2   2 529.054 12.8124   3
   3  -2   2 537.255 12.8305   1
   3   2   2 544.945 13.0089   3
   3   2   2 539.885 12.9984   1
   3   2   2 533.784 12.9829   3
   3   2   2 524.351 12.9976   1
   3   2   2 526.774 12.9767   2
   4  -2   2 250.341 6.31849   1
  -4  -2  -2 250.622 6.35925   3
   4  -2   2 245.410 6.30644   3
   4  -2   2 253.713 6.30619   2
   4  -2   2 249.685 6.33875   1
   4  -2   2 247.108 6.28779   3
   4   2   2 252.017 6.53142   1
   4   2   2 251.128 6.67335   1
   4   2   2 253.283 6.52371   3
   4   2   2 256.719 6.47727   2
   5  -2   2 156.261 4.34864   3
   5  -2   2 157.749 4.46799   1
   5  -2   2 153.307 4.56628   2
   5   2   2 156.885 4.73923   1
   5   2   2 159.291 4.69683   3
   5   2   2 153.638 4.71181   2
   6  -2   2 27.1989 2.07520   1
   6  -2   2 27.3470 2.02686   3
   6   2   2 31.5660 2.42404   1
   6   2   2 26.5029 2.26607   3
   6  -3  -2 3.89159 1.90403   3
   6  -3  -2 4.03415 1.98391   1
   6   3  -2 6.04293 2.29018   3
   6   3  -2 2.33812 2.39353   2
   6   3  -2 5.31010 2.34225   1
   5  -3  -2 1.71687 1.19509   3
   5  -3  -2 -0.7030 1.23064   1
   5  -3  -2 0.66393 1.36989   2
  -5  -3   2 -0.1337 1.61739   3
  -5  -3   2 1.92577 1.24357   2
   5   3  -2 -0.6135 1.49089   2
   5   3  -2 0.23062 1.39753   3
   5   3  -2 -0.0974 1.39112   1
   4  -3  -2 68.3407 2.37532   2
  -4  -3   2 67.2861 2.55154   1
   4  -3  -2 70.7712 2.40826   3
   4  -3  -2 67.8714 2.45163   1
  -4  -3   2 70.6908 2.40782   2
   4  -3  -2 71.8882 2.56921   1
  -4  -3   2 68.0015 2.58652   3
  -4   3   2 70.6086 2.19083   3
   4   3  -2 70.4472 2.56633   2
   4   3  -2 67.4628 2.69451   1
   4   3  -2 65.5075 2.70430   3
   3  -3  -2 19.8850 1.08585   2
   3  -3  -2 18.0784 1.22269   3
  -3  -3   2 18.0778 1.24961   2
   3  -3  -2 18.9637 1.21653   1
  -3  -3   2 18.1355 1.31758   1
   3  -3  -2 16.7271 1.24706   1
   3  -3  -2 16.3768 1.37214   3
  -3  -3   2 16.0952 1.36112   3
  -3   3   2 19.2136 0.96841   1
   3   3  -2 16.8467 1.41636   1
   3   3  -2 13.0845 1.02651   3
   3   3  -2 16.9815 1.30581   1
   3   3  -2 18.3050 1.28580   2
  -3   3   2 18.2117 1.06521   3
  -2  -3   2 593.732 14.1874   3
  -2  -3   2 584.076 14.1775   1
  -2  -3   2 575.647 14.1587   2
   2  -3  -2 584.866 14.1023   1
  -2  -3   2 586.923 14.1626   2
  -2  -3   2 573.401 14.1890   1
   2  -3  -2 598.146 14.1032   3
   2  -3  -2 560.631 14.1100   1
   2  -3  -2 576.517 14.0878   2
   2  -3  -2 567.360 14.1033   3
   2  -3  -2 578.063 14.0924   2
  -2   3   2 576.545 14.0375   2
  -2   3   2 645.565 14.1347   1
   2   3  -2 586.052 14.1848   1
   2   3  -2 591.941 14.2035   1
  -2   3   2 596.374 14.0344   2
  -2   3   2 583.131 14.0443   1
   2   3  -2 569.326 14.1903   3
  -2   3   2 581.807 14.0776   3
   2   3  -2 582.495 14.1641   2
  -2   3   2 577.128 14.0814   3
   2   3  -2 579.702 14.1954   3
  -1  -3   2 244.033 5.95622   2
   1  -3  -2 239.403 5.92025   2
  -1  -3   2 238.780 5.97591   1
   1  -3  -2 249.971 5.91990   2
  -1  -3   2 243.661 5.97752   3
  -1  -3   2 244.482 5.98317   3
  -1  -3   2 233.450 5.95657   2
   1  -3  -2 236.324 5.93515   3
   1  -3  -2 242.095 5.92880   3
  -1  -3   2 248.381 5.98052   1
   1  -3  -2 244.384 5.93103   1
  -1   3   2 239.028 5.90452   2
   1   3  -2 236.682 5.96520   3
   1   3  -2 230.296 5.94086   2
   1   3  -2 239.017 5.97434   3
   1   3  -2 245.394 5.96858   2
   1   3  -2 247.956 5.98539   1
   1   3  -2 235.214 5.96207   1
  -1   3   2 244.722 5.91761   1
  -1   3   2 239.498 5.92340   3
  -1   3   2 243.378 5.93213   3
  -1   3   2 248.179 5.90835   2
  -1   3   2 238.954 5.92174   1
   0  -3   2 2565.99 60.7627   3
   0  -3   2 2645.88 60.6977   2
   0  -3  -2 2645.08 60.7863   3
   0  -3  -2 2489.17 60.6948   1
   0  -3   2 2497.73 60.8005   1
   0  -3   2 2527.39 60.7518   2
   0  -3  -2 2555.96 61.1042   3
   0  -3  -2 2488.87 60.5821   1
   0  -3   2 2583.54 60.8162   1
   0  -3  -2 2517.88 60.8721   2
   0  -3  -2 2603.57 60.6371   2
   0  -3   2 2531.95 60.8343   3
   0   3  -2 2484.49 60.7556   2
   0   3  -2 2551.03 60.5408   1
   0   3  -2 2513.61 60.5341   2
   0   3   2 2527.25 60.9705   1
   0   3  -2 2500.18 60.8336   3
   0   3   2 2468.47 60.8974   2
   0   3   2 2602.14 60.5851   3
   0   3   2 2558.64 60.5835   1
   0   3   2 2513.16 60.6816   3
   0   3   2 2581.15 60.5728   2
   0   3  -2 2505.78 60.5476   3
  -1  -3  -2 1803.41 43.0744   3
   1  -3   2 1786.18 42.9694   2
  -1  -3  -2 1760.64 43.0714   1
  -1  -3  -2 1743.68 43.0687   3
   1  -3   2 1822.21 42.9632   2
  -1  -3  -2 1829.09 43.0768   1
   1  -3   2 1811.91 43.0440   1
   1  -3   2 1786.16 43.0345   1
  -1  -3  -2 1774.85 43.0611   2
  -1  -3  -2 1849.62 43.0609   2
   1  -3   2 1784.93 42.9725   3
   1  -3   2 1847.47 43.1256   3
   1   3   2 1764.79 43.0783   3
  -1   3  -2 1843.31 42.9466   3
   1   3   2 1693.54 43.0557   2
   1   3   2 1871.89 43.0729   2
   1   3   2 1876.11 43.0864   1
   1   3   2 1761.22 43.0811   1
   1   3   2 1858.73 43.0831   3
   2  -3   2 66.2967 1.77669   1
  -2  -3  -2 66.5794 1.97995   3
  -2  -3  -2 65.3412 1.94352   2
  -2  -3  -2 69.0211 1.98550   1
   2  -3   2 68.5234 1.76472   2
   2  -3   2 68.7969 1.77138   3
   2  -3   2 67.4334 1.78112   3
   2   3   2 65.5031 2.02984   3
   2   3   2 68.0245 2.12559   3
   2   3   2 66.8366 2.05099   1
   2   3   2 68.8462 2.09560   1
  -3  -3  -2 387.628 9.37547   2
  -3  -3  -2 386.184 9.39991   3
  -3  -3  -2 386.190 9.34464   2
   3  -3   2 371.972 9.25102   2
   3  -3   2 380.981 9.22912   3
   3  -3   2 388.981 9.24455   1
   3  -3   2 376.589 9.25371   1
   3  -3   2 386.606 9.22894   2
   3  -3   2 387.573 9.22028   3
   3   3   2 366.220 9.51507   3
   3   3   2 381.426 9.49789   1
   3   3   2 376.141 9.42041   2
   3   3   2 382.444 9.46081   3
   3   3   2 367.450 9.45378   1
   4  -3   2 709.147 17.2459   1
  -4  -3  -2 723.927 17.2394   2
   4  -3   2 696.899 17.2028   3
  -4  -3  -2 702.029 17.3455   3
   4  -3   2 709.066 17.2034   3
   4  -3   2 714.807 17.2320   2
   4  -3   2 719.171 17.2694   1
   4   3   2 703.686 17.4933   1
   4   3   2 728.217 17.4889   3
   4   3   2 726.500 17.4570   2
   5  -3   2 79.0705 2.94159   1
   5  -3   2 82.9528 2.78544   3
   5   3   2 85.2861 3.49961   3
   5   3   2 83.2217 3.45066   2
   5   3   2 85.2986 3.56126   1
   6  -3   2 1.83782 1.71056   1
   6   3   2 5.64531 2.62162   2
   6   3   2 -0.0632 2.19410   3
   6   3   2 -0.3155 2.26236   1
   6  -4  -2 33.0576 2.50555   1
   6  -4  -2 30.8074 2.36332   3
   6   4  -2 27.9324 2.87979   1
   6   4  -2 27.6675 2.86550   3
   6   4  -2 26.9909 3.09738   2
  -5  -4   2 6.93403 1.43033   2
   5  -4  -2 4.59888 1.64305   2
   5  -4  -2 8.00843 1.42859   3
  -5  -4   2 5.53565 1.81293   3
   5  -4  -2 5.07743 2.32385   1
   5   4  -2 6.44776 2.02523   3
   5   4  -2 7.71197 1.73117   1
   5   4  -2 5.14262 1.65211   2
   4  -4  -2 78.8816 2.73434   3
   4  -4  -2 80.2174 2.73048   2
  -4  -4   2 82.6282 2.75581   2
  -4  -4   2 76.6100 2.93201   1
   4  -4  -2 80.8250 2.73781   1
  -4  -4   2 78.7787 2.94463   3
   4   4  -2 84.4017 3.05739   3
   4   4  -2 82.2197 3.08393   1
   4   4  -2 82.4833 2.89639   2
   3  -4  -2 446.924 11.0394   1
   3  -4  -2 446.241 11.0426   3
  -3  -4   2 449.716 11.1615   3
   3  -4  -2 440.978 11.0285   2
   3  -4  -2 451.241 11.0436   3
  -3  -4   2 444.174 11.1045   2
  -3  -4   2 457.438 11.1504   1
   3  -4  -2 453.392 11.0672   1
  -3   4   2 450.888 10.8179   1
  -3   4   2 451.834 10.9383   3
   3   4  -2 457.282 11.2067   1
   3   4  -2 444.632 11.1422   2
   3   4  -2 449.664 11.1921   3
   2  -4  -2 73.3100 2.21381   1
  -2  -4   2 74.5103 2.32670   3
   2  -4  -2 78.5196 2.15312   2
   2  -4  -2 75.9847 2.20467   1
  -2  -4   2 76.9824 2.31750   1
   2  -4  -2 77.9476 2.22774   3
   2  -4  -2 74.1690 2.19827   3
  -2   4   2 77.1824 2.06577   2
  -2   4   2 77.8627 2.10001   2
   2   4  -2 77.0501 2.60520   1
   2   4  -2 69.5193 2.24231   2
  -2   4   2 75.2450 2.09356   1
  -2   4   2 76.8648 2.14704   3
   1  -4  -2 1259.57 32.1174   3
   1  -4  -2 1414.08 32.1113   3
   1  -4  -2 1390.39 32.0950   2
  -1  -4   2 1303.82 32.1425   1
  -1  -4   2 1392.47 32.1568   3
  -1  -4   2 1391.36 32.1301   2
   1  -4  -2 1269.34 32.2879   1
  -1  -4   2 1390.55 32.1549   1
   1  -4  -2 1303.08 32.0902   2
  -1  -4   2 1165.30 32.2213   3
   1   4  -2 1369.64 32.1467   3
   1   4  -2 1403.15 32.1495   1
  -1   4   2 1354.28 32.0839   1
  -1   4   2 1395.11 32.1016   3
   1   4  -2 1296.63 32.1350   3
   1   4  -2 1339.56 32.1334   1
  -1   4   2 1393.44 32.0710   2
  -1   4   2 1309.85 32.0646   2
  -1   4   2 1364.94 32.0831   1
   1   4  -2 1256.46 32.1206   2
  -1   4   2 1326.77 32.0874   3
   1   4  -2 1417.84 32.1381   2
   0  -4   2 319.511 7.75737   2
   0  -4   2 326.127 7.77700   1
   0  -4  -2 317.469 7.78878   2
   0  -4   2 320.357 7.78272   3
   0  -4  -2 321.998 7.80433   3
   0  -4  -2 316.367 7.78094   2
   0  -4   2 321.675 7.76849   2
   0  -4   2 326.543 7.77344   3
   0  -4   2 313.084 7.77658   1
   0  -4  -2 325.878 7.80732   1
   0  -4  -2 311.486 7.80098   3
   0  -4  -2 310.747 7.80485   1
   0   4   2 315.742 7.81375   3
   0   4  -2 317.787 7.72676   2
   0   4   2 318.584 7.81595   1
   0   4   2 318.394 7.80094   3
   0   4  -2 312.331 7.75152   3
   0   4  -2 314.341 7.73259   1
   0   4   2 315.491 7.79462   1
   0   4  -2 316.202 7.75733   1
   0   4   2 322.897 7.79558   2
   0   4  -2 317.288 7.77159   3
   0   4   2 309.550 7.77183   2
  -1  -4  -2 84.2019 2.45015   1
   1  -4   2 87.6672 2.24898   2
   1  -4   2 84.1687 2.23570   1
  -1  -4  -2 81.2809 2.35873   2
   1  -4   2 85.8171 2.25925   3
   1  -4   2 81.3916 2.25363   1
   1  -4   2 83.6722 2.24418   2
  -1  -4  -2 87.0429 2.41506   2
  -1  -4  -2 84.3182 2.45892   3
  -1  -4  -2 80.6030 2.36858   3
   1  -4   2 85.2576 2.24174   3
  -1  -4  -2 84.8936 2.38818   1
   1   4   2 85.9493 2.51178   3
  -1   4  -2 82.6443 2.19708   3
   1   4   2 93.9785 2.49629   2
   1   4   2 79.0282 2.33940   2
  -1   4  -2 94.5385 2.13959   1
  -1   4  -2 88.1978 2.24151   3
  -1   4  -2 82.5307 2.15038   1
   1   4   2 83.6941 2.39316   1
   1   4   2 93.1871 2.49872   1
   2  -4   2 195.271 4.87998   3
   2  -4   2 197.405 4.90729   1
   2  -4   2 199.496 4.90231   2
  -2  -4  -2 198.937 5.08248   1
   2  -4   2 199.377 4.88742   2
  -2  -4  -2 197.980 5.12818   2
  -2  -4  -2 199.712 5.05306   2
   2  -4   2 186.803 4.98481   3
   2  -4   2 203.606 4.90248   1
   2   4   2 202.451 5.19917   1
   2   4   2 194.042 5.12165   1
   2   4   2 192.559 5.10587   3
   2   4   2 199.149 5.08634   2
   2   4   2 206.216 5.26070   3
   3  -4   2 125.892 3.34966   1
  -3  -4  -2 127.277 3.58855   3
   3  -4   2 126.593 3.29967   2
   3  -4   2 122.779 3.29531   3
   3  -4   2 129.279 3.31997   1
  -3  -4  -2 127.855 3.54634   1
  -3  -4  -2 129.115 3.50112   2
   3  -4   2 126.615 3.28429   3
   3   4   2 126.827 3.63595   3
   3   4   2 128.058 3.57355   2
   3   4   2 128.108 3.67721   1
   3   4   2 125.227 3.87358   1
  -4  -4  -2 137.727 3.83716   2
   4  -4   2 134.383 3.65249   3
   4  -4   2 137.682 3.76399   1
  -4  -4  -2 134.199 4.04116   3
   4  -4   2 131.159 3.76298   1
   4  -4   2 131.220 3.70649   2
   4   4   2 138.276 4.21063   1
   4   4   2 143.089 4.16720   3
   4   4   2 144.536 4.11273   2
   5  -4   2 37.4924 2.02630   3
   5   4   2 43.4977 2.92516   2
   5   4   2 36.8184 3.09251   1
   5   4   2 35.0908 2.28984   3
   6  -4   2 7.40082 1.99851   1
   6   4   2 6.97115 3.12548   2
   6   4   2 10.0365 2.65618   1
   6   4   2 7.73605 2.52894   3
   6  -5  -2 16.2536 2.59152   1
   6  -5  -2 16.8643 2.45865   3
   6   5  -2 12.3563 2.96324   2
   6   5  -2 9.36399 3.07220   1
   6   5  -2 16.6756 3.03014   3
  -5  -5   2 103.248 4.58853   3
  -5  -5   2 99.2354 3.69138   2
   5  -5  -2 102.612 3.88402   1
   5  -5  -2 106.349 3.88838   3
   5  -5  -2 106.127 4.02084   2
   5   5  -2 93.2161 4.04158   2
   5   5  -2 104.074 4.67859   1
   5   5  -2 110.240 4.48816   3
   4  -5  -2 3.79723 1.05880   1
  -4  -5   2 3.15044 1.10853   2
   4  -5  -2 1.15231 1.07606   2
  -4  -5   2 3.05906 1.22748   3
   4  -5  -2 3.75957 1.03561   3
  -4  -5   2 5.06004 1.27753   1
   4   5  -2 3.70384 1.34605   2
   4   5  -2 2.59052 1.30241   3
   4   5  -2 3.66241 1.35671   1
   3  -5  -2 111.849 3.26911   1
   3  -5  -2 107.435 3.30852   1
   3  -5  -2 114.105 3.21535   2
  -3  -5   2 114.090 3.45044   1
  -3  -5   2 112.905 3.33434   2
  -3  -5   2 118.735 3.46630   3
   3  -5  -2 114.288 3.42226   3
   3  -5  -2 112.574 3.25149   3
  -3   5   2 106.858 3.06565   3
   3   5  -2 110.514 3.46516   3
   3   5  -2 114.876 3.38659   2
   3   5  -2 112.979 3.52346   1
  -2  -5   2 987.579 24.4963   3
   2  -5  -2 998.487 24.4282   1
   2  -5  -2 1016.99 24.3962   2
   2  -5  -2 1047.05 24.4151   1
   2  -5  -2 1010.36 24.4138   3
  -2  -5   2 1013.60 24.5271   1
  -2  -5   2 986.183 24.4711   2
   2  -5  -2 1036.90 24.4060   3
  -2   5   2 1036.68 24.2921   2
  -2   5   2 1025.46 24.3033   1
  -2   5   2 1025.55 24.3548   3
  -2   5   2 996.504 24.3072   2
   2   5  -2 995.601 24.4653   2
   2   5  -2 994.917 24.5051   3
   2   5  -2 1033.06 24.5161   1
   1  -5  -2 804.602 19.6441   3
  -1  -5   2 841.306 19.7755   3
  -1  -5   2 813.348 19.6900   3
   1  -5  -2 763.743 19.6295   2
  -1  -5   2 804.068 19.6911   1
   1  -5  -2 824.072 19.6378   1
  -1  -5   2 797.358 19.6595   2
   1  -5  -2 812.551 19.6635   1
   1  -5  -2 834.026 19.6449   3
  -1  -5   2 842.300 19.7047   1
   1   5  -2 789.305 19.6357   2
  -1   5   2 830.675 19.5959   2
  -1   5   2 820.818 19.6204   3
  -1   5   2 801.721 19.5830   2
   1   5  -2 797.807 20.0528   3
  -1   5   2 835.170 19.6034   1
   1   5  -2 827.087 19.6702   1
   0  -5   2 575.277 13.8570   2
   0  -5   2 581.549 13.8691   3
   0  -5  -2 565.168 13.8784   2
   0  -5  -2 556.352 13.8994   1
   0  -5   2 597.550 13.8756   1
   0  -5  -2 561.714 13.8967   3
   0  -5   2 567.314 13.8699   3
   0  -5  -2 588.156 13.9056   1
   0  -5   2 569.685 13.8776   1
   0  -5  -2 566.822 13.9012   3
   0   5   2 574.567 13.8804   1
   0   5  -2 582.287 13.8433   3
   0   5  -2 580.359 13.8230   1
   0   5   2 584.457 13.9038   2
   0   5   2 575.661 13.8611   2
   0   5   2 572.206 13.8880   3
   0   5  -2 520.749 13.8683   2
   1  -5   2 88.7968 2.41979   1
   1  -5   2 90.8518 2.41469   2
   1  -5   2 88.3370 2.46134   2
  -1  -5  -2 86.5192 2.59477   3
  -1  -5  -2 87.9342 2.53391   2
   1  -5   2 87.0462 2.43136   1
  -1  -5  -2 97.8184 2.92151   1
   1  -5   2 88.8168 2.42547   3
  -1  -5  -2 88.9679 2.58133   1
   1  -5   2 88.6842 2.43207   3
  -1   5  -2 89.2932 2.36739   3
   1   5   2 89.8614 2.57507   1
  -1   5  -2 89.7010 2.30718   1
   1   5   2 85.3565 2.50983   2
  -1   5  -2 86.5053 2.47466   3
   1   5   2 87.2863 2.59951   3
   2  -5   2 191.179 4.76759   1
  -2  -5  -2 186.769 4.92866   2
  -2  -5  -2 187.201 4.97181   3
   2  -5   2 192.471 4.75382   2
  -2  -5  -2 191.151 4.97609   1
   2  -5   2 190.261 4.77866   1
   2  -5   2 188.657 4.75490   3
   2   5   2 187.996 4.94051   2
  -2   5  -2 182.219 4.60863   3
   2   5   2 188.326 5.02670   1
   2   5   2 203.038 5.44515   1
  -2   5  -2 185.477 4.59456   3
   2   5   2 184.749 5.00822   3
   3  -5   2 30.5448 1.42625   1
  -3  -5  -2 27.7535 1.74914   3
   3  -5   2 28.4112 1.34770   2
   3  -5   2 27.2822 1.35445   3
   3  -5   2 27.1704 1.35251   3
  -3  -5  -2 27.9155 1.57975   2
  -3  -5  -2 29.0481 1.72227   1
   3  -5   2 28.2323 1.36441   1
   3   5   2 33.2015 1.97783   1
   3   5   2 28.7913 1.72254   2
   3   5   2 28.0999 1.84604   3
   4  -5   2 30.6913 1.82726   1
   4  -5   2 26.5034 1.73430   1
   4  -5   2 29.1368 1.58229   3
   4  -5   2 30.2417 1.77662   2
  -4  -5  -2 27.2710 2.22112   3
  -4  -5  -2 28.0425 1.91913   2
   4   5   2 28.6939 2.39288   3
   4   5   2 26.0468 2.44962   1
   4   5   2 28.0789 2.18051   2
  -5  -5  -2 11.6534 1.56956   2
   5  -5   2 10.1162 1.39782   1
   5  -5   2 10.4253 1.26486   3
   5   5   2 10.3722 1.92320   3
   5   5   2 11.8704 3.74622   2
   5   5   2 10.4429 2.05849   1
   6  -5   2 52.6019 3.61365   1
   6   5   2 58.0605 4.01533   2
   6   5   2 69.4440 5.51114   1
   6   5   2 46.6667 3.58898   3
   5  -6  -2 2.04181 1.60320   3
  -5  -6   2 -1.2551 1.67769   2
   5  -6  -2 1.73086 1.62786   1
  -5  -6   2 3.40724 2.40929   3
   5   6  -2 1.85933 2.18223   1
   5   6  -2 1.51175 1.96875   2
   5   6  -2 2.62096 2.14981   3
   4  -6  -2 53.0228 2.53513   2
   4  -6  -2 54.0317 2.55953   1
  -4  -6   2 51.6240 2.95924   3
  -4  -6   2 54.1270 3.39125   1
   4  -6  -2 49.9056 2.44678   3
  -4  -6   2 51.3346 2.57536   2
   4   6  -2 50.4122 3.10922   1
   4   6  -2 48.4845 3.05849   3
   4   6  -2 46.0598 2.79983   2
  -3  -6   2 56.9351 2.28464   2
   3  -6  -2 53.5084 2.21416   1
  -3  -6   2 51.7496 2.57208   1
   3  -6  -2 51.4162 2.21092   3
  -3  -6   2 53.1662 2.43996   3
   3  -6  -2 54.6271 2.11524   2
   3   6  -2 52.9886 2.54115   3
   3   6  -2 52.1381 2.31854   2
   3   6  -2 57.1808 2.57209   1
  -3   6   2 53.3714 1.98256   3
   2  -6  -2 100.784 2.95237   1
  -2  -6   2 96.7482 3.13968   1
  -2  -6   2 96.2785 3.07650   3
   2  -6  -2 102.724 2.94652   3
   2  -6  -2 99.1635 2.88296   2
   2  -6  -2 97.4194 2.97833   1
  -2  -6   2 97.9082 2.98562   2
   2  -6  -2 96.6091 3.13631   3
  -2   6   2 98.6364 2.71192   2
  -2   6   2 101.683 2.84757   2
  -2   6   2 98.8473 2.84287   3
   2   6  -2 98.3247 3.10401   1
   1  -6  -2 1496.81 36.4727   3
  -1  -6   2 1531.09 36.5331   1
   1  -6  -2 1523.02 36.4732   3
  -1  -6   2 1504.34 36.4970   2
   1  -6  -2 1482.37 36.4890   1
   1  -6  -2 1470.40 36.4464   2
  -1  -6   2 1534.12 36.5312   1
   1  -6  -2 1555.67 36.4791   1
  -1  -6   2 1492.70 36.5132   3
   1   6  -2 1494.55 36.4502   2
  -1   6   2 1554.82 36.4091   2
   1   6  -2 1537.58 36.4975   3
  -1   6   2 1559.46 36.4161   1
   1   6  -2 1555.60 36.4891   1
  -1   6   2 1529.97 36.4360   3
  -1   6   2 1488.86 36.3886   2
   0  -6   2 773.201 19.1377   3
   0  -6  -2 784.198 19.1885   1
   0  -6  -2 790.509 19.1554   2
   0  -6   2 823.267 19.1618   1
   0  -6   2 787.029 19.1527   1
   0  -6  -2 779.562 19.1745   3
   0  -6  -2 773.493 19.1758   1
   0  -6   2 795.475 19.1613   3
   0  -6   2 780.101 19.1246   2
   0   6  -2 792.557 19.0546   2
   0   6  -2 796.928 19.1001   3
   0   6   2 792.147 19.1564   3
   0   6   2 769.969 19.1109   2
   0   6   2 798.833 19.1495   1
   0   6  -2 796.929 19.0839   2
   0   6  -2 816.034 19.0839   1
  -1  -6  -2 147.657 4.12253   1
   1  -6   2 149.301 3.95497   3
   1  -6   2 154.149 3.99087   1
   1  -6   2 154.126 3.98904   1
  -1  -6  -2 149.892 4.06107   2
  -1  -6  -2 147.343 4.09999   3
   1  -6   2 148.660 4.00719   3
  -1   6  -2 152.523 3.89322   3
  -1   6  -2 151.194 3.82906   1
  -1   6  -2 154.402 3.79062   2
   1   6   2 151.992 4.14052   3
   1   6   2 147.953 4.04995   2
  -2  -6  -2 41.4051 1.90946   3
   2  -6   2 39.7478 1.58482   1
   2  -6   2 41.8934 1.56751   1
  -2  -6  -2 38.8289 1.76005   2
   2  -6   2 37.9549 1.49562   2
   2  -6   2 40.1458 1.61752   3
   2   6   2 42.4521 1.99058   3
   2   6   2 39.4358 1.78119   2
  -2   6  -2 40.4539 1.31544   3
   2   6   2 39.3937 1.97422   1
   3  -6   2 53.4523 2.03874   1
   3  -6   2 51.9535 1.92760   2
  -3  -6  -2 55.5174 2.38716   3
  -3  -6  -2 55.7383 2.22323   2
   3  -6   2 55.0725 2.02757   3
   3  -6   2 53.8694 2.03904   1
  -3  -6  -2 52.7873 2.37658   1
   3   6   2 55.7408 2.62774   1
   3   6   2 53.6493 2.57592   3
   3   6   2 56.1212 2.38428   2
   4  -6   2 204.176 5.40316   1
  -4  -6  -2 200.690 5.80476   3
   4  -6   2 196.067 5.26838   3
  -4  -6  -2 197.492 5.55880   2
   4   6   2 203.626 5.83488   2
   4   6   2 206.207 5.96858   3
   4   6   2 201.433 6.03557   1
   5  -6   2 20.9345 1.67754   1
   5   6   2 18.8986 2.47227   3
   5   6   2 20.7394 2.52403   1
   5   6   2 14.6423 2.39072   2
  -5  -7   2 15.7310 4.05624   3
   5  -7  -2 7.57191 1.92912   3
  -5  -7   2 9.17057 2.10791   2
   5  -7  -2 8.36812 2.02439   1
   5   7  -2 7.67216 2.63134   2
   5   7  -2 6.48437 3.05977   1
   5   7  -2 14.0446 2.67187   3
   4  -7  -2 17.7103 1.61328   3
  -4  -7   2 13.9981 1.87086   3
   4  -7  -2 16.4053 1.66740   2
   4  -7  -2 15.7893 1.65269   1
   4   7  -2 10.7395 2.41836   3
   4   7  -2 17.9996 2.27045   2
   4   7  -2 17.3014 2.09939   1
  -3  -7   2 58.3282 2.88016   3
   3  -7  -2 65.1472 2.51825   2
  -3  -7   2 66.0450 2.69442   2
  -3  -7   2 65.3170 3.13480   1
   3  -7  -2 68.1631 2.64158   1
   3  -7  -2 69.6107 2.64751   3
   3   7  -2 66.0762 3.14885   1
   3   7  -2 62.1315 2.72343   2
   3   7  -2 63.8130 3.00374   3
  -2  -7   2 26.4353 1.91056   3
   2  -7  -2 28.5620 2.53069   1
   2  -7  -2 26.0389 1.66046   2
   2  -7  -2 27.8492 1.76019   1
  -2  -7   2 26.4715 1.80278   2
  -2  -7   2 28.0321 1.93272   1
   2  -7  -2 27.0681 1.71777   3
  -2   7   2 29.9175 1.65959   3
   2   7  -2 21.5489 2.03722   1
  -2   7   2 26.1530 1.80207   1
  -2   7   2 25.7269 1.38000   2
   2   7  -2 25.2408 1.71793   2
   2   7  -2 26.7073 1.95896   3
   1  -7  -2 97.8463 2.95766   3
   1  -7  -2 90.9589 3.15033   1
  -1  -7   2 97.8904 3.03259   1
   1  -7  -2 99.5461 2.99727   1
   1  -7  -2 99.5610 2.91932   2
  -1  -7   2 100.324 3.02873   2
  -1  -7   2 98.1912 3.04217   3
  -1   7   2 89.4397 3.03187   3
  -1   7   2 95.8944 2.80939   2
   1   7  -2 97.3082 3.02236   1
   1   7  -2 95.9450 2.89358   2
  -1   7   2 99.0898 2.91693   1
   1   7  -2 98.3532 3.08923   3
   0  -7  -2 320.477 8.13739   3
   0  -7  -2 310.596 8.14065   1
   0  -7   2 312.306 8.07901   3
   0  -7   2 322.187 8.08216   2
   0  -7   2 322.572 8.12413   1
   0  -7  -2 323.953 8.11557   2
   0  -7   2 324.029 8.17595   1
   0   7  -2 323.134 7.97165   2
   0   7  -2 324.806 8.01304   1
   0   7  -2 329.816 8.12182   2
   0   7   2 325.583 8.10973   1
   0   7   2 324.108 8.15346   3
   0   7  -2 302.978 8.20502   3
   0   7   2 322.847 8.04805   2
  -1  -7  -2 130.995 3.76508   2
  -1  -7  -2 131.602 3.83714   3
  -1  -7  -2 132.239 3.87972   1
   1  -7   2 130.534 3.88399   3
   1  -7   2 133.463 3.66316   3
   1  -7   2 131.975 3.68762   1
   1  -7   2 136.444 3.67582   2
  -1   7  -2 131.616 3.52579   2
  -1   7  -2 133.719 3.43244   2
   1   7   2 132.361 3.88769   3
  -1   7  -2 135.664 3.59605   3
  -1   7  -2 131.748 3.51766   1
   1   7   2 129.563 3.88821   1
   1   7   2 129.032 3.74792   2
  -2  -7  -2 43.0704 2.21773   1
   2  -7   2 41.9067 1.77197   1
  -2  -7  -2 43.6677 2.17615   3
  -2  -7  -2 40.2569 1.97510   2
   2  -7   2 44.2977 1.76570   2
   2  -7   2 41.3263 1.89314   1
   2   7   2 41.6043 2.31441   1
  -2   7  -2 39.9474 1.54376   3
   2   7   2 42.6295 2.32613   3
   2   7   2 43.5575 2.04426   2
   3  -7   2 241.646 6.21247   2
  -3  -7  -2 236.340 6.39891   2
  -3  -7  -2 231.840 6.54122   1
   3  -7   2 236.789 6.23596   1
   3  -7   2 239.978 6.18452   3
  -3  -7  -2 238.660 6.55024   3
   3   7   2 239.646 6.65752   3
   3   7   2 241.759 6.51914   2
   3   7   2 240.825 6.70489   1
   4  -7   2 91.5704 3.73197   1
  -4  -7  -2 92.2110 3.54273   2
  -4  -7  -2 92.4569 3.82088   3
   4  -7   2 93.2018 3.09802   3
   4   7   2 89.8998 4.14429   1
   4   7   2 91.6561 4.78177   2
   4   7   2 98.8641 4.21291   3
  -5  -7  -2 24.8863 2.41477   2
   5  -7   2 20.7154 1.98262   1
   5   7   2 20.9388 2.82274   3
   5   7   2 23.4917 2.93935   1
   5   7   2 23.9606 3.04855   2
   5  -8  -2 36.9693 2.76231   3
  -5  -8   2 52.7366 4.43816   2
   5  -8  -2 40.1899 2.86319   1
   5   8  -2 44.8175 3.35749   2
   5   8  -2 51.4950 3.94114   1
   5   8  -2 46.5706 3.69675   3
   4  -8  -2 12.3417 1.72651   3
  -4  -8   2 14.8859 3.91367   3
   4  -8  -2 6.48977 1.72006   1
   4  -8  -2 12.0003 1.96398   2
  -4  -8   2 10.1939 1.73298   2
   4   8  -2 11.7489 2.16620   2
   4   8  -2 10.4105 2.43624   1
   4   8  -2 12.4111 2.28966   3
  -3  -8   2 20.8234 1.59866   2
   3  -8  -2 20.9491 1.60723   1
   3  -8  -2 21.6576 1.58791   3
   3  -8  -2 19.1119 1.57134   2
  -3  -8   2 25.1111 1.92998   1
  -3  -8   2 18.2416 1.82177   3
   3   8  -2 17.7340 1.60338   2
   3   8  -2 17.9022 2.04044   1
   3   8  -2 21.6703 1.99363   3
  -2  -8   2 14.6146 1.43752   2
   2  -8  -2 18.2942 1.39740   1
  -2  -8   2 14.7306 1.43868   1
  -2  -8   2 13.7649 1.34209   3
   2  -8  -2 14.7148 1.24730   2
   2  -8  -2 15.0412 1.29538   3
   2   8  -2 14.2756 1.53816   3
   2   8  -2 12.5047 1.27784   2
   2   8  -2 12.0208 1.55121   1
  -2   8   2 17.1985 1.27365   3
  -2   8   2 16.5733 1.11358   2
  -1  -8   2 67.5861 2.68498   1
   1  -8  -2 71.7729 2.49030   2
   1  -8  -2 67.0817 2.53601   3
   1  -8  -2 69.1590 2.58643   1
  -1  -8   2 74.0320 2.66666   3
  -1  -8   2 69.8459 2.58819   2
  -1   8   2 71.5204 2.44318   2
   1   8  -2 68.4492 2.71347   3
   1   8  -2 66.1043 2.46571   2
  -1   8   2 68.1260 2.74982   3
   1   8  -2 64.5413 2.73725   1
  -1   8   2 65.5094 2.60876   1
   0  -8  -2 295.565 7.58833   3
   0  -8   2 296.297 7.56982   1
   0  -8  -2 293.796 7.54939   2
   0  -8   2 297.677 7.50531   2
   0  -8  -2 287.068 7.60852   1
   0  -8   2 289.599 7.53848   3
   0   8  -2 294.699 7.46739   1
   0   8  -2 291.662 7.53634   3
   0   8   2 287.483 7.57675   3
   0   8  -2 294.311 7.37874   2
   0   8   2 287.163 7.46277   2
   0   8   2 288.534 7.54716   1
  -1  -8  -2 26.1971 1.81588   2
  -1  -8  -2 23.7727 1.93989   3
   1  -8   2 27.3024 1.71176   2
   1  -8   2 26.2291 1.68378   3
  -1  -8  -2 24.8329 2.00239   1
   1  -8   2 25.8677 1.71929   1
   1   8   2 25.0949 2.33730   1
   1   8   2 28.0417 2.22490   3
   1   8   2 26.7957 1.83050   2
  -1   8  -2 26.5115 1.71271   3
  -1   8  -2 27.7621 1.42501   2
  -2  -8  -2 150.086 4.39726   2
   2  -8   2 150.019 4.25096   1
   2  -8   2 150.856 4.23275   2
  -2  -8  -2 150.949 4.54291   3
  -2  -8  -2 146.617 4.65638   1
   2   8   2 150.948 4.77361   1
   2   8   2 152.823 4.66738   3
   2   8   2 143.938 4.44437   2
  -3  -8  -2 35.1538 3.23710   1
   3  -8   2 29.4329 2.10015   3
   3  -8   2 33.1815 2.36421   2
   3  -8   2 29.7517 2.17207   1
  -3  -8  -2 30.6585 2.65958   3
  -3  -8  -2 30.6139 2.35689   2
   3   8   2 28.6771 2.16745   1
   3   8   2 28.2434 2.08268   3
   3   8   2 29.0026 2.58269   2
   4  -8   2 22.0918 1.78432   1
   4  -8   2 21.0457 1.65433   3
  -4  -8  -2 23.8835 2.34835   3
  -4  -8  -2 19.0270 2.04447   2
   4   8   2 22.0878 2.49214   3
   4   8   2 21.0100 2.70347   1
   4   8   2 22.4288 2.33369   2
   5  -8   2 23.6752 2.35739   1
  -5  -8  -2 29.0340 2.98854   2
   5   8   2 18.4267 3.42047   3
   5   8   2 22.1390 3.56963   2
   5   8   2 29.9517 4.16996   1
  -4  -9   2 174.792 5.93945   2
   4  -9  -2 173.611 5.95385   1
  -4  -9   2 189.306 6.83556   3
   4  -9  -2 179.540 5.86478   3
   4   9  -2 187.950 7.10277   3
   4   9  -2 184.112 6.25444   2
   4   9  -2 180.325 7.86905   1
   3  -9  -2 80.5617 3.55963   3
  -3  -9   2 80.5901 4.18800   1
  -3  -9   2 77.9571 4.10562   3
  -3  -9   2 81.8787 3.52065   2
   3  -9  -2 82.8007 3.59649   1
   3  -9  -2 79.1403 3.48101   2
   3   9  -2 85.4606 4.73875   1
   3   9  -2 81.2961 3.69618   2
   2  -9  -2 22.4239 1.68638   1
   2  -9  -2 21.3021 1.66720   3
  -2  -9   2 19.1391 1.70717   3
  -2  -9   2 18.5580 1.71000   2
   2  -9  -2 19.2518 1.53829   2
  -2  -9   2 17.7878 1.76191   1
   2   9  -2 17.5253 2.04014   1
   2   9  -2 20.0516 1.97292   3
   2   9  -2 19.8373 1.69283   2
  -1  -9   2 56.0277 2.51512   2
   1  -9  -2 53.9715 2.65441   1
   1  -9  -2 50.8802 2.43048   2
  -1  -9   2 52.4368 2.64802   3
  -1  -9   2 54.5592 2.77051   1
   1  -9  -2 54.6697 2.54934   3
   1   9  -2 55.0807 2.87411   1
  -1   9   2 51.2677 2.75207   3
  -1   9   2 51.0247 2.29698   2
   1   9  -2 52.5237 3.01455   3
   1   9  -2 53.9935 2.42844   2
   0  -9   2 5.50297 1.22052   2
   0  -9  -2 6.83966 1.21088   3
   0  -9   2 3.91512 1.14193   1
   0  -9   2 3.51535 1.04034   3
   0  -9  -2 5.10954 1.11799   2
   0  -9  -2 5.35093 1.24522   1
   0   9  -2 4.42764 1.29534   3
   0   9   2 4.88733 1.14620   2
   0   9   2 4.14903 1.37114   3
   0   9  -2 4.89261 1.03934   2
   0   9   2 5.82986 1.42091   1
  -1  -9  -2 100.868 3.48902   2
   1  -9   2 107.875 3.42768   3
  -1  -9  -2 105.727 3.63269   3
  -1  -9  -2 100.492 3.69182   1
   1  -9   2 107.466 3.45472   1
   1  -9   2 101.435 3.39863   2
   1   9   2 107.101 3.89342   3
   1   9   2 101.764 3.46958   2
   1   9   2 98.2856 3.89766   1
  -1   9  -2 106.350 3.35835   3
  -2  -9  -2 19.7030 1.88820   1
   2  -9   2 24.9141 2.11895   2
   2  -9   2 22.3402 1.99058   1
  -2  -9  -2 21.2550 1.72202   2
  -2  -9  -2 24.1717 1.79913   3
   2   9   2 19.6827 1.68807   2
   2   9   2 18.1744 1.98905   1
   2   9   2 21.4233 2.04476   3
  -3  -9  -2 46.9199 2.97348   2
   3  -9   2 40.6146 3.30782   3
  -3  -9  -2 47.4693 3.93278   3
   3  -9   2 42.4386 2.79818   1
   3   9   2 47.6020 3.87770   3
   3   9   2 48.1153 3.28421   2
   3   9   2 47.3127 2.92727   1
  -4  -9  -2 3.84017 2.73579   3
  -4  -9  -2 9.17086 2.15677   2
   4  -9   2 6.54762 1.86644   1
   4  -9   2 5.85927 1.89478   3
   4   9   2 8.83919 3.02261   1
   4   9   2 0.72726 2.71542   3
   4   9   2 5.70733 2.91589   2
  -4 -10   2 36.1308 3.32813   3
   4 -10  -2 43.1701 3.03182   1
   4 -10  -2 37.5770 2.95930   3
  -4 -10   2 44.8907 3.26433   2
   4  10  -2 46.9760 4.06958   3
   4  10  -2 40.9805 3.41545   2
  -3 -10   2 71.9604 3.76064   2
  -3 -10   2 70.2356 5.97042   1
   3 -10  -2 62.3710 3.86555   1
   3 -10  -2 62.6676 4.01860   2
   3 -10  -2 58.2370 3.87406   3
  -3 -10   2 73.2586 4.19633   3
   3  10  -2 64.1214 5.05369   3
   3  10  -2 65.4377 4.01990   2
  -2 -10   2 58.9827 3.97296   1
   2 -10  -2 59.9247 3.43355   3
  -2 -10   2 59.9720 3.47244   3
   2 -10  -2 59.9356 3.20460   2
   2 -10  -2 62.0341 3.47021   1
  -2 -10   2 63.2850 3.28853   2
   2  10  -2 59.3916 3.28054   2
   2  10  -2 59.2610 4.46771   3
  -1 -10   2 32.8926 2.84683   1
   1 -10  -2 31.0685 2.04058   2
  -1 -10   2 29.3229 2.59268   2
  -1 -10   2 38.4940 3.44229   3
  -1  10   2 29.9397 2.36516   3
   1  10  -2 31.0075 2.51447   2
  -1  10   2 31.2609 2.47894   2
   1  10  -2 32.2683 2.24703   3
   0 -10   2 240.232 7.50308   3
   0 -10  -2 261.531 6.97369   2
   0 -10   2 249.011 6.95049   2
   0 -10  -2 261.202 7.17231   1
   0 -10   2 260.358 7.02197   1
   0 -10  -2 228.446 7.55005   3
   0  10   2 261.986 6.84704   2
   0  10  -2 245.753 7.09762   3
   0  10  -2 263.133 6.73941   2
   0  10   2 238.776 7.07180   3
   1 -10   2 46.8893 2.65339   2
  -1 -10  -2 44.5216 3.19246   1
   1 -10   2 45.1856 3.66182   1
  -1 -10  -2 44.3779 3.48493   2
   1  10   2 42.5587 3.69126   3
   2 -10   2 17.6827 1.69368   3
  -2 -10  -2 14.9003 2.02130   3
   2 -10   2 15.5709 1.66508   1
   2 -10   2 15.5206 1.76841   2
  -2 -10  -2 14.2223 1.79552   2
  -2 -10  -2 13.1330 2.24551   1
   2  10   2 13.6666 2.88331   1
   2  10   2 18.6127 2.07215   2
   2  10   2 14.5834 2.81989   3
   3 -10   2 -0.8210 1.75978   1
  -3 -10  -2 -1.8759 2.35996   3
  -3 -10  -2 1.22887 1.90376   2
   3 -10   2 -1.9346 1.76493   3
   3  10   2 3.09474 2.71061   3
   3  10   2 3.10006 6.18269   1
   3  10   2 1.26552 2.14535   2
  -4 -10  -2 2.73953 2.71659   2
  -4 -10  -2 -2.9806 5.01264   3
   4 -10   2 2.35538 2.32551   1
   4  10   2 5.16490 2.97429   2
   4  10   2 -0.6365 3.54731   3
  -3 -11   2 18.5680 2.64913   2
   3 -11  -2 20.6491 2.80178   3
  -3 -11   2 17.9262 2.86796   3
   3 -11  -2 16.0686 2.63161   1
   3  11  -2 14.1601 3.55709   3
   3  11  -2 15.4319 2.83398   2
   2 -11  -2 71.9107 4.16892   3
   2 -11  -2 69.6024 4.11373   1
   2 -11  -2 68.6221 4.04592   2
  -2 -11   2 66.1856 4.26233   3
  -2 -11   2 72.9605 4.65898   1
  -2 -11   2 67.9701 3.99153   2
   2  11  -2 74.6803 5.38050   3
   2  11  -2 74.3076 4.18746   2
  -1 -11   2 48.9140 3.68175   1
  -1 -11   2 48.1699 3.57346   3
  -1 -11   2 50.1289 3.32736   2
   1 -11  -2 48.6264 3.22532   2
   1 -11  -2 43.5456 3.53418   3
   1  11  -2 46.2608 3.24842   2
  -1  11   2 43.4829 3.03367   2
   1  11  -2 41.8603 3.32840   3
   0 -11  -2 12.6456 2.04655   1
   0 -11   2 10.0379 1.72480   3
   0 -11  -2 11.6634 1.78930   2
   0 -11   2 14.2023 1.96722   2
   0 -11  -2 8.16186 1.83469   3
   0 -11   2 6.93055 1.77518   1
   0  11   2 7.82300 1.81424   2
   0  11  -2 12.8016 1.70730   2
   0  11   2 8.48414 2.73769   3
  -1 -11  -2 152.563 5.19841   2
   1 -11   2 153.705 5.05415   2
  -1 -11  -2 155.057 5.82527   1
   1 -11   2 146.516 5.07494   1
  -1 -11  -2 149.846 5.29876   3
   1 -11   2 154.257 5.05272   3
   1  11   2 123.890 7.97647   3
   1  11   2 144.114 5.09926   2
  -2 -11  -2 10.5370 2.03873   2
  -2 -11  -2 13.0632 3.17379   1
   2 -11   2 9.47513 2.27604   2
   2 -11   2 11.7118 2.16870   3
  -2 -11  -2 12.3945 2.42714   3
   2  11   2 7.09838 3.13574   3
   2  11   2 12.0822 2.31313   2
   3 -11   2 4.38848 2.28456   1
  -3 -11  -2 0.07097 3.10925   3
   3 -11   2 2.41230 2.37244   3
  -3 -11  -2 -3.0685 2.44640   2
   3  11   2 -2.6232 2.89058   2
   3  11   2 7.84693 3.45665   3
  -2 -12   2 7.00316 3.57876   1
  -2 -12   2 3.69375 2.72492   3
   2 -12  -2 7.83663 2.92255   2
  -2 -12   2 7.53502 2.92768   2
   2 -12  -2 7.09799 2.77445   1
   2 -12  -2 2.98136 2.60329   3
   2  12  -2 12.0039 2.99095   2
  -1 -12   2 61.3591 4.47205   3
  -1 -12   2 56.5204 5.21486   1
   1 -12  -2 72.5456 4.63065   3
   1 -12  -2 62.7193 4.25932   2
  -1 -12   2 62.1990 4.23152   2
   1 -12  -2 64.0715 5.01387   1
   1  12  -2 65.1984 4.44336   2
   0 -12   2 22.3138 2.60077   2
   0 -12   2 15.5367 2.52798   1
   0 -12   2 18.2356 2.30026   3
   0 -12  -2 17.7973 2.34312   2
   0 -12  -2 14.9183 2.42145   3
   0  12   2 20.8479 2.48105   2
  -1 -12  -2 14.7618 2.59960   3
  -1 -12  -2 18.3310 3.09305   1
   1 -12   2 14.8414 2.27316   3
   1 -12   2 14.9671 2.62462   2
  -1 -12  -2 15.0547 2.73388   2
   1 -12   2 11.7390 2.30692   1
   1  12   2 17.7413 2.74766   2
  -2 -12  -2 3.66852 2.89451   2
   2 -12   2 9.22024 2.60502   3
   2 -12   2 10.9509 2.71073   1
  -2 -12  -2 11.4334 2.86570   3
   2  12   2 4.02657 3.88616   3
   2  12   2 13.9752 3.20620   2
   6   0  -3 56.9953 3.79442   3
   6   0  -3 60.1682 3.77537   1
   5   0  -3 6.95412 1.35137   1
   5   0  -3 5.08039 1.33031   2
   5   0  -3 7.24779 1.34930   3
  -4   0   3 257.901 6.49737   2
  -4   0   3 252.165 6.50533   3
   4   0  -3 253.479 6.63862   1
   4   0  -3 261.497 6.57852   2
  -4   0   3 260.011 6.40942   2
   4   0  -3 255.666 6.62090   3
  -4   0   3 250.775 6.45999   1
   4   0  -3 250.511 6.75386   1
  -3   0   3 53.8014 1.75261   2
  -3   0   3 54.6886 1.74766   1
   3   0  -3 56.8074 2.02219   3
  -3   0   3 58.9545 1.83059   2
   3   0  -3 51.6871 1.85446   3
   3   0  -3 56.2319 1.94206   1
   3   0  -3 55.0193 1.87729   1
   3   0  -3 52.2534 1.79723   2
  -3   0   3 54.4349 1.82249   3
   2   0  -3 231.947 5.87048   1
   2   0  -3 238.215 5.85942   2
   2   0  -3 229.190 5.86335   3
  -2   0   3 236.995 5.86274   1
  -2   0   3 239.772 5.84889   1
  -2   0   3 236.883 5.86985   3
  -2   0   3 237.333 5.83542   2
   2   0  -3 243.756 5.87517   3
  -2   0   3 245.126 5.83274   2
   2   0  -3 225.067 5.93581   1
   2   0  -3 237.529 5.84522   2
  -2   0   3 238.069 5.86048   3
  -1   0   3 0.07247 0.31776   3
  -1   0   3 0.59571 0.29429   2
  -1   0   3 0.34017 0.28816   2
   1   0  -3 0.09793 0.31426   2
  -1   0   3 0.03486 0.30358   1
   1   0  -3 0.71996 0.29035   2
   1   0  -3 0.64072 0.32286   3
   1   0  -3 0.54900 0.32423   1
  -1   0   3 -0.2607 0.31143   3
  -1   0   3 0.21874 0.29733   1
   1   0  -3 1.49448 0.33255   3
   1   0  -3 0.48581 0.34959   1
   0   0  -3 7041.62 165.339   3
   0   0   3 7018.70 165.264   2
   0   0   3 6935.45 165.304   2
   0   0   3 7056.93 165.316   3
   0   0  -3 6933.80 165.320   3
   0   0   3 6981.13 165.332   3
   0   0   3 6894.43 165.328   1
   0   0  -3 6624.26 165.242   2
  -1   0  -3 3306.46 72.8700   3
   1   0   3 3087.97 72.7494   2
   1   0   3 3025.47 72.8210   3
   1   0   3 3029.11 72.7947   1
   1   0   3 3074.17 72.7769   1
   1   0   3 3062.34 72.8287   3
  -1   0  -3 2784.09 72.7164   3
  -2   0  -3 432.479 10.2219   3
   2   0   3 442.255 10.2716   2
   2   0   3 430.453 10.2772   3
   2   0   3 427.998 10.2628   2
  -2   0  -3 427.677 10.2189   3
   2   0   3 418.439 10.2726   3
   2   0   3 424.834 10.2750   1
   2   0   3 413.152 10.2740   1
   3   0   3 4.77371 0.58276   3
   3   0   3 2.46126 0.51216   3
  -3   0  -3 2.76327 0.37117   3
  -3   0  -3 4.81372 0.46422   3
   3   0   3 5.42004 0.55317   2
   3   0   3 3.25397 0.52059   1
   3   0   3 2.32638 0.52214   1
   4   0   3 47.5455 1.75664   3
   4   0   3 43.2820 1.94144   2
   4   0   3 45.4180 1.79183   1
   4   0   3 42.6039 2.06613   3
   4   0   3 45.5245 1.86597   1
   5   0   3 103.131 3.28171   3
   5   0   3 99.5765 3.33187   1
   5   0   3 99.6211 3.49067   2
   6   0   3 36.7412 3.17316   3
   6   0   3 36.7566 3.42700   1
   6  -1  -3 6.42587 1.89967   3
   6  -1  -3 1.86367 1.95560   1
   6  -1  -3 8.68698 2.87743   2
   6   1  -3 5.40869 1.97490   3
   6   1  -3 5.69706 2.09983   1
   6   1  -3 2.65166 2.18120   2
   5  -1  -3 0.27635 1.26556   2
   5  -1  -3 0.67438 1.22744   1
   5  -1  -3 -0.1811 1.18365   3
   5   1  -3 0.92940 1.26504   3
   5   1  -3 -0.2237 1.27761   1
   5   1  -3 1.25422 1.26229   2
   4  -1  -3 2.26319 0.89086   3
  -4  -1   3 3.44259 0.93029   1
   4  -1  -3 2.21616 1.15469   1
   4  -1  -3 2.47294 0.92648   2
  -4  -1   3 1.93728 0.79846   2
  -4  -1   3 2.76280 1.15190   2
   4  -1  -3 2.44951 0.89854   1
  -4  -1   3 2.01732 0.83572   3
   4  -1  -3 -0.9573 1.30832   3
   4   1  -3 1.51975 0.89092   2
  -4   1   3 2.53837 0.83658   1
  -4   1   3 2.61725 0.83038   2
   4   1  -3 3.06521 0.93915   3
   4   1  -3 2.70065 0.94473   1
  -4   1   3 2.40743 0.79554   3
  -4   1   3 2.95677 0.69386   2
   4   1  -3 4.18229 1.39756   1
   3  -1  -3 993.924 24.1182   1
   3  -1  -3 976.731 24.1011   3
   3  -1  -3 1015.80 24.1005   3
   3  -1  -3 960.834 24.4520   2
  -3  -1   3 998.102 24.0792   1
  -3  -1   3 1018.32 24.0678   2
  -3  -1   3 985.007 24.1063   3
  -3  -1   3 984.317 24.0707   2
  -3   1   3 1040.57 24.0110   2
   3   1  -3 1003.48 24.1436   3
   3   1  -3 1002.48 24.1117   2
   3   1  -3 985.230 24.1365   3
   3   1  -3 983.852 24.1456   1
  -3   1   3 1003.93 24.0590   3
  -3   1   3 1028.47 24.0331   1
   3   1  -3 1036.32 24.1534   1
   2  -1  -3 698.191 16.6014   3
   2  -1  -3 677.624 16.5885   2
   2  -1  -3 705.608 16.6083   1
  -2  -1   3 699.839 16.6312   3
  -2  -1   3 714.965 16.5996   2
  -2  -1   3 666.311 16.6165   3
   2  -1  -3 675.168 16.6112   1
  -2  -1   3 685.527 16.6203   1
  -2  -1   3 691.617 16.6256   1
   2  -1  -3 660.750 16.6007   3
   2  -1  -3 706.814 16.5967   2
   2   1  -3 706.790 16.6339   3
  -2   1   3 697.968 16.5978   3
  -2   1   3 728.245 16.5696   2
  -2   1   3 669.643 16.5672   2
   2   1  -3 691.001 16.6136   2
   2   1  -3 698.062 16.6221   2
  -2   1   3 677.350 16.5892   3
   2   1  -3 653.628 16.6223   3
  -2   1   3 677.867 16.5753   1
   2   1  -3 718.700 16.6395   1
   2   1  -3 674.327 16.6350   1
  -2   1   3 687.643 16.5839   1
   1  -1  -3 330.051 8.37810   1
   1  -1  -3 333.670 8.36050   2
  -1  -1   3 341.972 8.38614   1
   1  -1  -3 332.730 8.37347   3
  -1  -1   3 343.714 8.37866   2
  -1  -1   3 351.456 8.38936   1
   1  -1  -3 353.487 8.36364   2
   1  -1  -3 350.688 8.37498   3
  -1  -1   3 343.451 8.39042   3
  -1  -1   3 358.172 8.37259   2
  -1  -1   3 360.204 8.39458   3
   1  -1  -3 346.884 8.37214   1
   1   1  -3 362.077 8.38050   2
   1   1  -3 336.001 8.38640   3
  -1   1   3 352.943 8.37602   3
   1   1  -3 338.031 8.36992   2
   1   1  -3 339.176 8.38706   1
  -1   1   3 329.992 8.35816   2
  -1   1   3 355.276 8.37977   1
  -1   1   3 340.152 8.37101   1
  -1   1   3 335.801 8.37147   3
   1   1  -3 355.793 8.38700   1
   1   1  -3 356.834 8.38812   3
  -1   1   3 359.789 8.36430   2
   0  -1  -3 162.648 4.02566   2
   0  -1  -3 164.916 4.04139   1
   0  -1  -3 165.902 4.02990   3
   0  -1   3 163.746 4.00817   3
   0  -1   3 158.875 4.00094   1
   0  -1   3 165.315 4.00722   1
   0  -1   3 167.384 4.00228   2
   0  -1  -3 166.413 4.03394   1
   0  -1  -3 164.884 4.04002   3
   0  -1   3 164.433 4.01090   3
   0  -1   3 165.221 4.00170   2
   0   1   3 165.831 4.04490   1
   0   1  -3 161.326 4.00122   3
   0   1   3 166.498 4.04079   1
   0   1  -3 167.127 3.99267   1
   0   1   3 165.031 4.03975   3
   0   1   3 160.808 4.02515   2
   0   1  -3 165.484 3.98797   2
   0   1   3 169.751 4.04036   3
   0   1  -3 167.207 3.98811   2
  -1  -1  -3 1036.28 25.3241   3
  -1  -1  -3 1079.73 25.3178   1
  -1  -1  -3 1015.23 25.3063   2
  -1  -1  -3 1075.99 25.3294   3
  -1  -1  -3 1105.60 25.3124   2
   1   1   3 1035.68 25.3353   1
   1   1   3 1065.40 25.3369   1
   1   1   3 1036.48 25.3345   3
   1   1   3 1091.28 25.3301   2
   1   1   3 1064.06 25.3280   2
   1   1   3 1068.37 25.3354   3
  -2  -1  -3 291.060 6.80970   1
   2  -1   3 279.323 6.78043   3
   2  -1   3 277.048 6.77840   3
  -2  -1  -3 286.178 6.84720   3
   2  -1   3 281.658 6.77630   1
  -2  -1  -3 278.562 6.79412   2
   2  -1   3 274.393 6.77491   1
  -2  -1  -3 279.820 6.81565   1
  -2  -1  -3 286.354 6.86323   3
   2   1   3 280.117 6.88180   1
   2   1   3 274.043 6.87738   3
   2   1   3 286.622 6.86976   2
   2   1   3 282.968 6.88285   3
   2   1   3 287.255 6.88215   2
   3  -1   3 341.801 8.29210   1
   3  -1   3 330.272 8.27311   3
   3  -1   3 341.641 8.27473   2
   3  -1   3 341.418 8.30115   2
  -3  -1  -3 350.473 8.29598   3
   3  -1   3 342.015 8.29999   1
   3  -1   3 336.810 8.27446   3
   3   1   3 345.833 8.39563   3
   3   1   3 339.810 8.38113   3
   3   1   3 333.247 8.38463   1
   3   1   3 343.635 8.39060   1
   3   1   3 343.091 8.36601   2
   4  -1   3 33.7024 1.51867   2
   4  -1   3 35.7356 1.58399   1
   4  -1   3 34.8464 1.50996   3
   4  -1   3 32.7018 1.68072   3
   4  -1   3 34.4598 1.57634   1
   4   1   3 33.1223 1.67596   2
   4   1   3 35.0897 1.91167   1
   4   1   3 36.2388 2.39360   3
   4   1   3 36.6163 1.67791   3
   4   1   3 37.2769 1.73150   1
   5  -1   3 36.6622 2.19855   1
   5  -1   3 37.3658 2.33327   2
   5  -1   3 34.2457 2.03298   3
   5   1   3 36.2940 2.31327   1
   5   1   3 34.0782 2.39004   2
   5   1   3 39.2064 2.34621   3
   6  -1   3 36.9628 3.09979   1
   6  -1   3 34.2059 2.10210   3
   6   1   3 35.6392 2.32910   3
   6   1   3 33.4878 2.36779   1
   6  -2  -3 10.7830 2.78603   2
   6  -2  -3 9.96465 2.01691   3
   6  -2  -3 11.8132 2.01230   1
   6   2  -3 11.6378 2.29760   2
   6   2  -3 8.53149 2.21134   1
   6   2  -3 10.8722 2.20208   3
   5  -2  -3 39.1165 2.46844   2
   5  -2  -3 34.5783 2.38302   1
  -5  -2   3 34.2920 2.72129   3
   5  -2  -3 34.9034 2.42804   3
  -5  -2   3 35.7790 2.22795   2
   5   2  -3 35.8869 2.71475   3
   5   2  -3 34.0737 2.63653   1
   5   2  -3 37.2341 2.51506   2
   4  -2  -3 46.7220 1.93456   2
   4  -2  -3 45.6277 2.02926   3
  -4  -2   3 48.1033 1.90604   2
   4  -2  -3 45.3675 1.98010   1
  -4  -2   3 43.4198 2.06543   3
  -4  -2   3 42.4050 2.01232   1
   4   2  -3 42.1397 2.10814   3
   4   2  -3 43.4720 1.96892   2
  -4   2   3 45.0902 1.82797   3
   4   2  -3 43.0623 2.13158   1
  -4   2   3 37.0469 2.06392   1
  -3  -2   3 28.1190 1.35413   2
   3  -2  -3 27.4509 1.37425   3
   3  -2  -3 29.8686 1.46338   3
   3  -2  -3 28.9362 1.38014   1
  -3  -2   3 28.8010 1.39051   1
   3  -2  -3 27.8160 1.42116   1
  -3  -2   3 29.5344 1.85442   2
   3  -2  -3 26.6633 1.94618   2
  -3   2   3 29.6126 1.29472   3
   3   2  -3 29.2010 1.48064   3
   3   2  -3 29.1740 1.49604   1
  -3   2   3 28.4361 1.22289   2
   3   2  -3 29.2273 1.41203   2
   3   2  -3 27.9559 1.75686   1
  -3   2   3 28.2883 1.21709   1
  -3   2   3 26.6606 1.31709   2
  -2  -2   3 882.237 20.8212   1
   2  -2  -3 900.295 20.7691   3
  -2  -2   3 913.234 20.7951   2
   2  -2  -3 887.087 20.7577   2
  -2  -2   3 821.984 20.8006   3
  -2  -2   3 870.142 20.8085   1
  -2  -2   3 771.747 20.8744   2
  -2  -2   3 871.599 20.8183   3
   2  -2  -3 888.643 20.7705   1
   2  -2  -3 845.585 20.7492   2
   2   2  -3 882.971 20.8171   3
  -2   2   3 829.196 20.7202   2
   2   2  -3 861.758 20.8206   1
   2   2  -3 900.508 20.8210   1
  -2   2   3 878.893 20.7532   3
  -2   2   3 859.031 20.7483   3
  -2   2   3 906.080 20.7233   2
   2   2  -3 874.583 20.8064   2
   2   2  -3 778.612 20.8827   2
  -1  -2   3 1006.25 23.6209   1
   1  -2  -3 965.719 23.6005   1
   1  -2  -3 1003.08 23.5960   3
  -1  -2   3 1037.03 23.6251   3
   1  -2  -3 949.343 23.5971   3
   1  -2  -3 960.311 23.5885   2
  -1  -2   3 981.698 23.6201   1
  -1  -2   3 936.901 23.6106   3
   1  -2  -3 956.960 23.6062   1
   1  -2  -3 1005.82 23.5856   2
   1   2  -3 926.589 23.5889   2
   1   2  -3 942.914 23.6070   1
   1   2  -3 1012.25 23.6119   1
  -1   2   3 1014.17 23.5964   3
   1   2  -3 1023.27 23.6164   3
  -1   2   3 997.324 23.5933   1
  -1   2   3 982.452 23.5926   1
   1   2  -3 961.186 23.6157   3
  -1   2   3 985.572 23.5978   3
  -1   2   3 961.666 23.5808   2
  -1   2   3 1027.92 23.5819   2
   1   2  -3 1054.55 23.6112   2
   0  -2  -3 2089.69 49.7446   3
   0  -2  -3 2155.79 49.9359   2
   0  -2  -3 2125.35 50.0023   1
   0  -2  -3 2033.99 49.8749   2
   0  -2   3 2190.54 49.8124   2
   0  -2   3 2069.93 49.8783   1
   0  -2   3 2054.33 49.8855   3
   0  -2  -3 2061.53 49.9055   3
   0  -2   3 2093.00 49.9232   1
   0  -2   3 2113.84 49.8366   2
   0  -2   3 2096.92 49.8711   3
   0   2   3 2083.98 49.7384   2
   0   2  -3 2077.45 49.9189   3
   0   2  -3 2101.21 49.9044   2
   0   2  -3 2091.19 49.6907   2
   0   2   3 2101.79 49.9726   1
   0   2   3 2003.01 49.7444   3
   0   2   3 2067.79 49.9119   2
   0   2  -3 2069.94 49.6927   1
   0   2   3 2121.73 49.7494   3
   0   2  -3 2027.48 49.7001   3
  -1  -2  -3 5238.15 118.437   2
  -1  -2  -3 4877.62 118.561   3
  -1  -2  -3 5110.44 118.479   3
  -1  -2  -3 4896.94 118.572   2
  -1  -2  -3 5067.23 118.381   1
   1  -2   3 4757.29 118.141   3
   1  -2   3 4908.84 118.131   3
  -1  -2  -3 4996.10 118.546   1
   1   2   3 4959.20 118.628   2
   1   2   3 5008.32 118.581   1
   1   2   3 4667.89 118.661   1
   1   2   3 4788.23 118.621   3
   1   2   3 5053.22 118.317   3
   1   2   3 5128.58 118.270   2
  -2  -2  -3 1209.07 29.4820   1
  -2  -2  -3 1284.47 29.2387   2
   2  -2   3 1197.17 29.1301   3
  -2  -2  -3 1249.95 29.2784   3
   2  -2   3 1208.13 29.1279   3
  -2  -2  -3 1191.25 29.2295   2
  -2  -2  -3 1241.35 29.2550   1
  -2  -2  -3 1197.44 29.2625   3
   2   2   3 1201.53 29.2758   2
   2   2   3 1241.27 29.2976   1
   2   2   3 1242.72 29.2889   2
   2   2   3 1206.05 29.2976   1
   2   2   3 1258.87 29.2956   3
   2   2   3 1194.63 29.2973   3
   3  -2   3 486.546 12.5947   3
  -3  -2  -3 525.710 12.6523   3
   3  -2   3 530.246 12.5305   3
  -3  -2  -3 502.585 12.6747   2
   3  -2   3 531.725 12.5523   1
  -3  -2  -3 545.178 12.5849   2
  -3  -2  -3 503.772 12.7054   1
   3  -2   3 532.436 12.5574   2
   3  -2   3 525.211 12.5620   1
   3   2   3 532.497 12.7457   3
   3   2   3 530.647 12.7276   3
   3   2   3 537.567 12.7487   1
   3   2   3 518.665 12.7366   1
   3   2   3 497.271 12.8976   2
   4  -2   3 39.0851 1.61439   1
   4  -2   3 41.1181 1.63753   1
   4  -2   3 40.6175 1.53098   3
  -4  -2  -3 40.7176 1.65550   3
   4  -2   3 41.0737 1.63394   2
   4  -2   3 36.7909 1.60008   3
   4   2   3 37.9178 2.31886   1
   4   2   3 45.7894 1.92374   2
   4   2   3 43.0971 1.96506   3
   4   2   3 40.4445 1.93406   1
   5  -2   3 58.2187 2.29760   3
   5  -2   3 57.3981 2.41349   1
   5   2   3 56.0429 2.89872   1
   5   2   3 59.0731 2.87805   2
   5   2   3 59.9043 2.81016   3
   6  -2   3 6.09380 1.74121   1
   6   2   3 5.36623 2.14722   1
   6   2   3 11.1101 2.05446   3
   6  -3  -3 0.94201 1.86485   3
   6  -3  -3 0.99415 2.00595   1
   6   3  -3 1.41379 2.34692   1
   6   3  -3 -1.7170 2.29568   3
   6   3  -3 1.70609 2.36714   2
   5  -3  -3 7.51127 1.38524   1
  -5  -3   3 5.52431 1.55005   3
   5  -3  -3 5.94419 1.33927   3
  -5  -3   3 6.04191 1.31005   2
   5  -3  -3 5.96960 1.46378   2
   5   3  -3 8.21367 1.67196   2
   5   3  -3 3.90027 1.53812   1
   5   3  -3 7.46018 1.51387   3
   4  -3  -3 1.65371 0.90851   3
   4  -3  -3 1.96709 0.90972   2
   4  -3  -3 1.24586 1.39222   1
   4  -3  -3 1.72602 0.93022   1
  -4  -3   3 2.43509 0.89052   2
  -4  -3   3 3.33619 0.97373   3
  -4  -3   3 1.58467 1.01167   1
   4   3  -3 3.73515 1.08986   2
  -4   3   3 2.59891 0.82821   3
   4   3  -3 2.47173 1.06826   1
   4   3  -3 3.25469 1.07795   3
   3  -3  -3 370.406 9.14114   1
  -3  -3   3 372.859 9.17321   2
   3  -3  -3 366.825 9.14530   1
   3  -3  -3 364.542 9.12411   3
   3  -3  -3 369.516 9.10870   2
   3  -3  -3 371.025 9.16406   3
  -3  -3   3 379.855 9.20394   1
  -3  -3   3 376.871 9.23035   3
   3   3  -3 368.600 9.24337   3
   3   3  -3 370.530 9.19383   2
   3   3  -3 360.485 9.34216   1
   3   3  -3 371.866 9.25293   1
  -3   3   3 336.384 9.25797   2
  -3   3   3 381.167 8.98149   2
  -3   3   3 373.137 9.06239   3
   2  -3  -3 810.713 19.6266   2
   2  -3  -3 803.333 19.6567   1
   2  -3  -3 812.366 19.6309   2
   2  -3  -3 796.678 19.6439   3
  -2  -3   3 826.747 19.7180   1
   2  -3  -3 850.384 19.6556   1
   2  -3  -3 840.719 19.6453   3
  -2  -3   3 781.547 19.6750   2
  -2  -3   3 814.432 19.6984   1
   2   3  -3 801.317 19.6770   2
  -2   3   3 840.613 19.6407   3
  -2   3   3 817.337 19.6196   3
  -2   3   3 813.387 19.5890   2
   2   3  -3 802.728 19.7036   1
   2   3  -3 827.657 19.7203   1
  -2   3   3 842.358 19.5851   2
   2   3  -3 810.112 19.7131   3
   2   3  -3 796.520 19.7036   3
  -1  -3   3 330.604 7.83902   3
   1  -3  -3 317.191 7.80800   3
  -1  -3   3 319.453 7.83101   3
   1  -3  -3 308.903 7.81913   1
   1  -3  -3 318.432 7.79156   2
  -1  -3   3 312.425 7.82368   1
   1  -3  -3 309.799 7.80908   1
  -1  -3   3 313.297 7.81449   2
  -1  -3   3 328.549 7.83182   1
   1  -3  -3 324.144 7.78682   2
   1  -3  -3 332.879 7.80856   3
  -1  -3   3 334.841 7.82102   2
  -1   3   3 325.756 7.80438   3
   1   3  -3 314.003 7.82241   3
   1   3  -3 329.937 7.81863   2
   1   3  -3 298.578 7.78631   2
  -1   3   3 315.521 7.77638   2
  -1   3   3 315.395 7.79194   1
   1   3  -3 317.107 7.81573   1
   1   3  -3 319.787 7.82587   1
  -1   3   3 322.298 7.79182   1
   1   3  -3 307.300 7.81857   3
  -1   3   3 317.383 7.79755   3
  -1   3   3 328.489 7.78124   2
   0  -3  -3 2283.60 56.1442   2
   0  -3   3 2272.16 55.8741   2
   0  -3   3 2427.79 56.1316   1
   0  -3  -3 2351.77 56.2349   3
   0  -3   3 2295.13 56.0327   1
   0  -3  -3 2329.83 55.9163   1
   0  -3   3 2306.18 55.9996   3
   0  -3  -3 2377.63 55.9167   3
   0  -3   3 2397.47 55.8704   2
   0  -3  -3 2281.92 55.9245   1
   0  -3  -3 2373.26 55.9052   2
   0   3  -3 2376.77 55.8559   1
   0   3  -3 2350.76 56.0955   2
   0   3   3 2292.69 55.9064   2
   0   3   3 2301.61 55.9179   3
   0   3  -3 2326.72 55.8652   3
   0   3   3 2353.43 55.9056   2
   0   3  -3 2394.41 56.0629   3
   0   3   3 2396.32 55.9210   3
   0   3   3 2394.53 56.1483   1
   0   3   3 2356.36 55.9186   1
  -1  -3  -3 399.237 10.0392   3
  -1  -3  -3 416.753 10.0508   3
   1  -3   3 412.425 9.92463   3
  -1  -3  -3 414.355 10.0451   1
   1  -3   3 408.899 9.92716   3
  -1  -3  -3 416.836 10.0504   1
  -1  -3  -3 400.915 10.0247   2
   1  -3   3 403.213 9.92594   1
  -1  -3  -3 426.201 10.0362   2
   1  -3   3 406.874 9.91882   2
   1  -3   3 430.402 9.91650   2
   1  -3   3 406.852 9.91968   1
   1   3   3 416.747 10.0398   2
   1   3   3 399.606 10.0474   3
   1   3   3 400.853 10.0537   1
   1   3   3 425.259 10.0551   2
   1   3   3 428.094 10.0676   1
  -1   3  -3 413.947 9.87194   3
   1   3   3 428.745 10.0697   3
  -1   3  -3 410.551 9.87226   3
  -2  -3  -3 522.105 12.6758   3
  -2  -3  -3 529.074 12.6576   1
  -2  -3  -3 538.714 12.6555   2
   2  -3   3 511.705 12.4958   3
   2  -3   3 529.057 12.5015   1
  -2  -3  -3 518.750 12.6420   2
   2  -3   3 494.755 12.5098   1
   2  -3   3 526.776 12.4931   3
   2   3   3 543.060 12.7198   1
   2   3   3 525.064 12.7125   3
   2   3   3 515.079 12.7086   1
   2   3   3 510.960 12.6959   3
   3  -3   3 822.010 19.7664   1
  -3  -3  -3 840.971 19.8802   2
   3  -3   3 836.539 19.7609   1
   3  -3   3 798.884 19.7360   3
  -3  -3  -3 829.656 19.8826   1
   3  -3   3 825.746 19.7285   3
  -3  -3  -3 830.300 19.8629   2
  -3  -3  -3 820.451 19.9212   3
   3   3   3 811.576 20.0245   3
   3   3   3 828.187 20.0071   1
   3   3   3 826.428 19.9589   2
   3   3   3 835.047 20.0177   1
   3   3   3 817.810 19.9824   3
   4  -3   3 107.715 3.00024   3
  -4  -3  -3 112.509 3.24896   3
   4  -3   3 109.720 3.08798   1
   4  -3   3 108.202 3.04922   1
   4  -3   3 110.414 2.96764   3
   4   3   3 113.022 3.48272   3
   4   3   3 115.047 3.53529   1
   4   3   3 112.289 3.41904   2
   5  -3   3 93.3413 3.13055   1
   5  -3   3 98.3164 2.93540   3
   5   3   3 101.760 3.70538   2
   5   3   3 97.2549 3.66777   3
   6  -3   3 5.66596 1.83130   1
   6   3   3 3.44796 2.32758   3
   6   3   3 -0.1851 2.31455   1
   6  -4  -3 5.22395 2.20284   1
   6  -4  -3 5.41940 2.19742   3
   6   4  -3 4.23862 2.59896   2
   6   4  -3 3.49013 2.54905   3
   6   4  -3 0.35513 2.75261   1
   5  -4  -3 81.8390 3.35604   2
  -5  -4   3 77.7764 3.14229   2
  -5  -4   3 78.2304 3.66735   3
   5  -4  -3 74.4510 3.24272   3
   5  -4  -3 72.9496 3.71835   1
   5   4  -3 82.4017 3.50208   2
   5   4  -3 82.8622 4.26549   3
   5   4  -3 85.0717 3.81815   1
   4  -4  -3 111.584 3.42011   1
  -4  -4   3 108.592 3.56498   3
   4  -4  -3 111.449 3.39188   3
  -4  -4   3 110.043 3.40607   2
   4  -4  -3 112.895 3.37605   2
  -4  -4   3 104.276 3.56524   1
   4   4  -3 113.616 3.53251   2
  -4   4   3 106.266 3.18201   3
   4   4  -3 109.026 3.69629   1
   4   4  -3 112.556 3.66879   3
   3  -4  -3 59.1189 2.23861   3
  -3  -4   3 56.2450 2.13751   1
  -3  -4   3 54.6225 2.07123   2
   3  -4  -3 57.7620 1.98497   2
   3  -4  -3 54.7019 2.04038   1
  -3  -4   3 55.4288 2.16358   3
   3  -4  -3 56.5522 2.07612   1
   3  -4  -3 59.6335 2.05864   3
  -3   4   3 56.1474 1.82662   2
   3   4  -3 53.5601 2.05317   2
  -3   4   3 58.0272 1.89771   3
  -3   4   3 56.0161 1.83935   1
   3   4  -3 57.4880 2.21662   3
   3   4  -3 54.1302 2.23671   1
  -3   4   3 53.8646 1.78158   2
  -2  -4   3 63.2468 2.07993   1
   2  -4  -3 65.4587 2.01621   3
   2  -4  -3 59.6403 2.44159   2
   2  -4  -3 65.3301 2.05438   3
  -2  -4   3 61.7656 2.03986   2
  -2  -4   3 62.7387 2.09623   3
   2  -4  -3 63.2002 2.01091   1
  -2   4   3 64.9504 1.94914   3
   2   4  -3 61.7820 1.99659   2
  -2   4   3 66.8767 2.34236   1
  -2   4   3 66.3408 1.88604   2
  -2   4   3 65.3311 1.92728   2
   1  -4  -3 511.985 11.9008   1
   1  -4  -3 484.202 11.8749   2
  -1  -4   3 514.071 11.9342   1
  -1  -4   3 474.669 11.9099   3
  -1  -4   3 497.500 11.9284   3
  -1  -4   3 494.820 11.9248   1
   1  -4  -3 502.111 11.8921   3
  -1  -4   3 507.902 11.9247   2
  -1  -4   3 439.750 12.2610   2
   1  -4  -3 474.723 11.8665   2
  -1   4   3 472.373 11.8766   1
  -1   4   3 498.184 11.8744   1
   1   4  -3 471.384 11.8729   2
  -1   4   3 491.630 11.8986   3
   1   4  -3 502.580 11.9088   2
   1   4  -3 473.155 11.9095   3
  -1   4   3 493.625 11.8812   3
   1   4  -3 489.841 11.9015   1
   1   4  -3 493.650 11.9261   1
   1   4  -3 484.453 11.9027   3
  -1   4   3 503.148 11.8660   2
   0  -4   3 68.4502 1.96502   3
   0  -4  -3 70.1937 2.00014   2
   0  -4   3 71.4667 1.95390   2
   0  -4  -3 70.6877 2.02271   1
   0  -4  -3 66.6796 2.02082   3
   0  -4   3 71.3145 1.95680   3
   0  -4  -3 70.3167 2.04778   3
   0  -4   3 69.6500 1.94731   2
   0  -4  -3 73.2050 2.03468   1
   0  -4   3 71.3686 1.95499   1
   0   4   3 70.3655 2.13913   3
   0   4  -3 68.5315 1.97729   1
   0   4  -3 71.4896 1.92857   2
   0   4  -3 67.6460 1.90726   3
   0   4   3 69.2675 2.04524   2
   0   4  -3 69.0991 1.87528   2
   0   4   3 68.2270 2.07283   1
   0   4  -3 72.8425 1.99425   3
   0   4   3 69.5890 2.02010   3
   0   4   3 68.3720 2.00351   1
  -1  -4  -3 292.090 7.28024   1
  -1  -4  -3 296.440 7.25036   2
  -1  -4  -3 329.134 7.44178   3
   1  -4   3 288.686 7.11978   3
   1  -4   3 294.326 7.12550   1
   1  -4   3 285.638 7.12181   3
  -1  -4  -3 279.841 7.24308   1
  -1  -4  -3 284.258 7.24812   3
   1  -4   3 287.060 7.13369   1
   1  -4   3 291.332 7.12062   2
  -1  -4  -3 274.971 7.21958   2
   1  -4   3 306.804 7.12619   2
   1   4   3 329.866 7.72234   2
  -1   4  -3 286.940 7.07923   3
   1   4   3 281.030 7.23501   2
   1   4   3 285.957 7.26682   3
   1   4   3 293.066 7.29711   1
   1   4   3 284.905 7.30388   3
   1   4   3 294.571 7.27011   1
   2  -4   3 137.506 3.43600   2
   2  -4   3 128.372 3.48052   3
   2  -4   3 138.176 3.41387   3
  -2  -4  -3 136.825 3.69930   2
  -2  -4  -3 137.228 3.64225   1
   2  -4   3 139.706 3.42789   1
  -2  -4  -3 134.236 3.61285   2
  -2  -4  -3 140.371 3.69431   3
   2  -4   3 136.493 3.44325   1
   2   4   3 137.949 3.82652   1
   2   4   3 132.830 3.69416   3
   2   4   3 138.542 3.73200   1
   2   4   3 139.765 3.81022   3
   2   4   3 133.742 3.66346   2
  -3  -4  -3 0.71139 0.74056   1
   3  -4   3 0.67614 0.52783   1
  -3  -4  -3 0.51647 0.89887   3
   3  -4   3 1.45365 0.46164   3
  -3  -4  -3 1.87265 0.70699   2
   3  -4   3 0.80323 0.51530   3
   3  -4   3 1.24089 0.52131   1
   3   4   3 1.32905 0.83682   1
   3   4   3 0.65548 1.22964   1
   3   4   3 2.20180 0.84098   2
   3   4   3 0.79284 0.79066   3
  -4  -4  -3 163.208 4.54630   3
  -4  -4  -3 161.586 4.33397   2
   4  -4   3 159.998 4.21475   1
   4  -4   3 159.462 4.24448   1
   4  -4   3 156.108 4.35092   3
   4  -4   3 157.413 4.10714   3
   4  -4   3 156.197 4.22877   2
   4   4   3 165.970 4.75887   1
   4   4   3 166.041 4.68707   2
   4   4   3 165.701 4.71513   3
   5  -4   3 132.880 3.85051   3
   5   4   3 149.500 4.94485   1
   5   4   3 154.236 4.89420   3
   5   4   3 144.849 4.80218   2
   6  -4   3 70.2540 3.52218   1
   6   4   3 76.7874 5.12111   3
   6   4   3 70.0601 5.53873   2
   6   4   3 79.7972 4.98479   1
   6  -5  -3 43.7354 2.86326   3
   6  -5  -3 40.3447 2.92496   1
   6   5  -3 46.5533 3.64170   2
   6   5  -3 40.0283 3.41677   3
   6   5  -3 43.0899 3.54593   1
   5  -5  -3 4.52918 2.13810   3
  -5  -5   3 1.76424 1.63257   2
   5  -5  -3 1.11568 1.83003   2
   5  -5  -3 -1.7833 1.46331   1
  -5  -5   3 5.07749 1.88885   3
   5   5  -3 2.56073 2.35725   1
   5   5  -3 4.28751 1.90550   2
   5   5  -3 1.36427 1.84408   3
  -4  -5   3 30.2208 2.06363   2
  -4  -5   3 28.3771 2.38318   1
   4  -5  -3 34.0110 2.07937   1
   4  -5  -3 32.2924 2.04562   3
  -4  -5   3 31.1289 2.39673   3
   4  -5  -3 32.4155 2.09866   2
   4   5  -3 32.0645 2.44535   3
   4   5  -3 29.0077 2.63456   1
   4   5  -3 30.7869 2.30667   2
  -3  -5   3 38.8222 2.03759   3
   3  -5  -3 38.3797 1.86114   1
   3  -5  -3 41.2073 1.90620   3
  -3  -5   3 42.9136 2.14016   1
  -3  -5   3 42.2375 1.88581   2
   3  -5  -3 42.1316 1.81254   2
   3  -5  -3 37.1609 2.38043   3
  -3   5   3 41.4081 1.68000   3
   3   5  -3 42.8497 2.17641   1
  -3   5   3 42.2813 1.70849   1
   3   5  -3 40.9355 1.94271   2
   3   5  -3 39.7472 2.09371   3
   2  -5  -3 740.618 17.9441   1
   2  -5  -3 723.898 17.9151   3
  -2  -5   3 733.629 17.9970   1
   2  -5  -3 743.550 17.9055   2
  -2  -5   3 739.379 17.9847   2
   2  -5  -3 733.191 17.9235   3
   2  -5  -3 768.790 17.9367   1
  -2  -5   3 743.014 18.0130   3
   2   5  -3 702.828 18.2248   1
   2   5  -3 734.717 17.9540   2
  -2   5   3 736.987 17.8694   3
  -2   5   3 740.542 17.8187   2
  -2   5   3 761.155 17.8415   1
   2   5  -3 734.400 17.9942   3
  -2   5   3 751.628 17.8249   2
   1  -5  -3 117.776 3.19233   3
   1  -5  -3 110.148 3.11370   1
   1  -5  -3 110.307 3.09334   3
  -1  -5   3 112.949 3.12167   2
   1  -5  -3 110.654 3.08303   2
  -1  -5   3 114.584 3.18977   1
  -1  -5   3 111.781 3.14602   3
  -1  -5   3 112.913 3.25138   3
  -1  -5   3 110.570 3.14969   1
   1  -5  -3 118.221 3.12111   1
   1   5  -3 112.284 3.06087   2
  -1   5   3 116.174 3.09627   3
  -1   5   3 116.499 3.08288   1
  -1   5   3 116.639 3.04450   2
   1   5  -3 114.551 3.11651   1
  -1   5   3 115.641 3.13132   2
   1   5  -3 106.534 3.31067   3
   1   5  -3 113.028 3.25037   2
   0  -5  -3 152.584 4.02623   1
   0  -5  -3 145.508 4.02494   1
   0  -5   3 157.398 3.96805   3
   0  -5   3 148.038 3.94952   1
   0  -5  -3 148.122 3.99357   3
   0  -5   3 153.709 3.93386   2
   0  -5  -3 150.975 4.06027   3
   0  -5   3 150.783 3.95466   3
   0   5   3 159.803 4.21282   2
   0   5  -3 155.785 3.91654   2
   0   5  -3 150.995 3.91197   3
   0   5   3 152.371 3.98676   1
   1  -5   3 59.2529 1.79764   3
  -1  -5  -3 63.4805 2.00836   3
   1  -5   3 62.5209 1.82349   3
   1  -5   3 60.8607 1.79926   2
   1  -5   3 58.7537 1.81359   1
  -1  -5  -3 59.6895 1.96610   1
   1  -5   3 64.0787 1.80893   1
   1  -5   3 60.6090 1.86313   2
  -1   5  -3 59.4537 1.85522   3
  -1   5  -3 65.2387 1.59861   1
   1   5   3 62.3910 2.03195   3
   1   5   3 61.6638 1.94536   2
  -1   5  -3 61.4734 1.71533   3
   1   5   3 58.8843 2.26132   1
  -2  -5  -3 123.775 3.42884   2
   2  -5   3 123.491 3.27594   2
   2  -5   3 123.912 3.24101   1
  -2  -5  -3 126.157 3.47292   1
  -2  -5  -3 120.553 3.49572   3
   2  -5   3 125.204 3.20446   3
   2  -5   3 122.972 3.22856   1
   2  -5   3 122.933 3.21099   3
   2  -5   3 126.835 3.21895   2
   2   5   3 124.079 3.54057   1
   2   5   3 124.401 3.53537   3
   2   5   3 125.784 3.46249   2
   2   5   3 120.723 3.80736   1
  -3  -5  -3 49.8976 2.02117   1
   3  -5   3 45.1156 1.65323   1
  -3  -5  -3 47.8863 1.92804   2
   3  -5   3 46.2746 1.59201   3
   3  -5   3 45.7489 1.56106   3
  -3  -5  -3 44.4149 2.05788   3
   3  -5   3 45.7717 1.61862   1
   3  -5   3 45.7728 1.61284   2
   3   5   3 47.4659 2.21183   3
   3   5   3 47.0285 2.27957   1
   3   5   3 45.0294 2.06251   2
  -4  -5  -3 12.6066 1.24003   2
  -4  -5  -3 9.02868 1.27322   3
   4  -5   3 7.92307 1.18454   1
   4  -5   3 7.45549 0.96276   1
   4  -5   3 8.20567 0.81833   3
   4   5   3 8.97698 1.46687   1
   4   5   3 10.2525 1.42482   2
   4   5   3 7.82745 1.38282   3
   5  -5   3 176.931 5.09321   1
   5   5   3 183.789 6.01774   1
   5   5   3 190.990 6.07583   3
   6  -5   3 12.7593 1.95881   1
   6   5   3 11.3560 3.54972   2
   6   5   3 10.3327 3.09804   1
   6   5   3 6.74016 2.92688   3
  -5  -6   3 17.2866 2.38237   3
   5  -6  -3 11.3701 1.89263   1
   5  -6  -3 14.2588 1.82708   3
  -5  -6   3 14.5142 1.91023   2
   5   6  -3 9.90106 2.35544   1
   5   6  -3 17.4280 2.33801   3
   5   6  -3 15.2232 2.35147   2
   4  -6  -3 104.596 3.48855   3
  -4  -6   3 107.020 3.80437   3
   4  -6  -3 101.557 3.49717   2
  -4  -6   3 103.556 3.57281   2
  -4  -6   3 100.677 4.15800   1
   4  -6  -3 105.393 3.57667   1
   4   6  -3 98.2526 3.69320   2
   4   6  -3 103.811 4.10378   1
   4   6  -3 103.515 3.96984   3
  -3  -6   3 72.4458 2.65076   2
  -3  -6   3 73.0966 2.82000   3
   3  -6  -3 75.1126 2.64991   3
   3  -6  -3 73.7482 2.54363   2
  -3  -6   3 73.3370 2.93910   1
   3  -6  -3 73.4479 2.63999   1
   3   6  -3 71.6589 2.86982   3
  -3   6   3 69.2801 2.43786   3
   3   6  -3 71.1878 2.66709   2
   3   6  -3 66.6947 2.89268   1
   2  -6  -3 26.9395 1.41355   2
   2  -6  -3 26.1348 1.56539   1
  -2  -6   3 24.1705 1.68533   3
  -2  -6   3 24.9545 1.56324   2
   2  -6  -3 30.9789 2.12109   3
   2  -6  -3 25.5216 1.55866   3
   2  -6  -3 24.5662 1.71934   1
  -2  -6   3 26.3089 1.77566   1
   2   6  -3 26.9571 1.77571   1
   2   6  -3 27.3182 1.54866   2
  -2   6   3 28.1749 1.49942   3
  -2   6   3 23.3976 1.72953   2
   2   6  -3 28.0898 1.78723   3
  -2   6   3 25.7590 1.35492   2
  -2   6   3 24.2783 1.47934   1
  -1  -6   3 1023.86 24.4127   1
   1  -6  -3 992.921 24.3365   2
  -1  -6   3 1001.67 24.4159   1
  -1  -6   3 999.455 24.3731   2
   1  -6  -3 989.524 24.3717   1
   1  -6  -3 1019.49 24.3745   1
  -1  -6   3 1032.91 24.4107   3
   1  -6  -3 997.208 24.3625   3
   1   6  -3 1043.18 24.3572   1
  -1   6   3 1029.68 24.3136   1
   1   6  -3 1024.89 24.3711   3
  -1   6   3 1003.59 24.2892   2
  -1   6   3 936.349 24.6995   3
   1   6  -3 1002.74 24.3198   2
  -1   6   3 1035.61 24.3362   2
   0  -6  -3 695.133 17.1289   3
   0  -6   3 688.445 17.0813   3
   0  -6  -3 696.604 17.1594   1
   0  -6   3 712.152 17.0768   2
   0  -6   3 724.421 17.1026   1
   0  -6   3 687.227 17.0895   3
   0  -6  -3 696.653 17.1500   1
   0  -6  -3 697.953 17.1134   2
   0  -6   3 694.166 17.0969   1
   0   6  -3 724.167 17.0220   2
   0   6   3 716.443 17.1315   3
   0   6  -3 713.864 16.9890   2
   0   6   3 709.248 17.1126   1
   0   6   3 703.354 17.0808   2
   0   6  -3 701.236 17.0348   3
   1  -6   3 78.8127 2.31303   1
  -1  -6  -3 76.6907 2.47956   3
   1  -6   3 76.4360 2.30845   2
   1  -6   3 77.2110 2.35574   3
  -1  -6  -3 80.3306 2.43713   2
  -1  -6  -3 78.2711 2.53194   1
   1  -6   3 80.6773 2.34142   1
   1  -6   3 78.2291 2.30808   3
   1   6   3 74.0200 2.42127   2
  -1   6  -3 77.5316 2.19492   3
   1   6   3 76.9436 2.53285   3
  -1   6  -3 76.9120 2.09826   1
   1   6   3 78.8320 2.60294   1
  -2  -6  -3 48.1653 2.01799   3
  -2  -6  -3 44.9845 1.98712   1
   2  -6   3 46.5661 1.61375   3
   2  -6   3 48.3854 1.68245   1
   2  -6   3 49.1648 1.65406   2
   2  -6   3 46.3542 1.66461   1
  -2  -6  -3 46.2754 1.90337   2
   2   6   3 49.7221 2.14352   3
   2   6   3 48.6679 1.97007   2
   2   6   3 48.0363 2.13745   1
  -3  -6  -3 18.7665 1.67257   2
  -3  -6  -3 20.6690 1.84071   3
   3  -6   3 17.5066 1.31603   2
   3  -6   3 18.4146 1.35389   3
  -3  -6  -3 22.5219 1.90950   1
   3  -6   3 18.7875 1.43150   1
   3  -6   3 18.3627 1.40034   1
   3   6   3 16.7804 1.34362   2
   3   6   3 19.5771 1.50958   1
   3   6   3 20.1160 1.50434   3
   4  -6   3 53.7231 2.01478   3
   4  -6   3 51.9893 2.23793   1
  -4  -6  -3 50.4078 2.93368   3
  -4  -6  -3 56.6545 2.57063   2
   4   6   3 55.1625 3.17912   3
   4   6   3 58.0734 3.14151   1
   4   6   3 53.0277 2.82453   2
  -5  -6  -3 48.7353 3.51587   2
   5  -6   3 41.0780 2.72558   1
   5   6   3 46.6403 3.83999   2
   5   6   3 40.4793 2.88943   1
   5   6   3 50.5571 4.19410   3
   5  -7  -3 5.33971 1.98658   1
  -5  -7   3 3.66104 2.04191   2
  -5  -7   3 -1.0875 2.89445   3
   5  -7  -3 9.04533 1.95638   3
   5   7  -3 5.08994 2.55595   2
   5   7  -3 -0.8533 3.04221   1
   5   7  -3 5.80431 2.62141   3
  -4  -7   3 5.74793 1.94292   2
   4  -7  -3 6.90545 1.53741   2
   4  -7  -3 6.07507 1.40188   3
   4  -7  -3 6.50186 1.49341   1
  -4  -7   3 5.67812 1.61330   3
   4   7  -3 4.72194 2.08473   1
   4   7  -3 8.02645 3.02195   3
   4   7  -3 8.01147 1.73914   2
  -3  -7   3 39.8116 2.48847   3
   3  -7  -3 46.3898 2.32109   3
  -3  -7   3 40.1651 2.29670   2
  -3  -7   3 40.4859 2.76267   1
   3  -7  -3 40.6650 2.15422   2
   3  -7  -3 39.7474 2.28703   1
   3   7  -3 38.6169 2.28394   2
   3   7  -3 41.4017 2.88689   1
   3   7  -3 40.6515 2.68900   3
  -3   7   3 38.8310 2.27096   3
   2  -7  -3 8.90302 1.03295   3
   2  -7  -3 7.89254 1.06837   1
   2  -7  -3 9.57961 1.08739   2
  -2  -7   3 11.2397 1.22422   3
  -2  -7   3 8.28411 1.12124   2
  -2  -7   3 9.62181 1.19637   1
  -2   7   3 10.5535 0.92318   2
   2   7  -3 10.4746 1.34545   1
   2   7  -3 9.04577 1.15062   3
  -2   7   3 9.27443 1.05880   1
  -2   7   3 10.0952 1.04139   3
   2   7  -3 9.53630 1.09652   2
  -1  -7   3 87.6855 2.88991   1
  -1  -7   3 89.8797 2.84830   3
  -1  -7   3 88.0275 2.83307   2
   1  -7  -3 91.6414 2.82560   1
   1  -7  -3 84.7645 2.69632   2
   1  -7  -3 89.5319 3.19049   1
   1  -7  -3 83.5373 2.75164   3
  -1   7   3 88.6537 2.82626   3
  -1   7   3 85.2235 2.64674   2
   1   7  -3 83.9638 2.82871   3
  -1   7   3 88.5863 2.77918   1
   1   7  -3 89.4267 2.82644   1
   1   7  -3 83.6756 2.66916   2
   0  -7  -3 233.470 6.17529   3
   0  -7   3 236.071 6.10016   2
   0  -7  -3 237.272 6.14642   2
   0  -7   3 234.498 6.13547   1
   0  -7   3 238.155 6.22428   1
   0  -7   3 236.881 6.11766   3
   0  -7  -3 238.026 6.20595   1
   0   7  -3 239.418 5.97136   2
   0   7   3 237.090 6.17049   1
   0   7   3 236.115 6.10653   2
   0   7  -3 226.922 6.13474   2
   0   7  -3 238.924 6.06071   3
   0   7   3 238.757 6.21280   3
  -1  -7  -3 1018.17 24.7851   2
   1  -7   3 1017.33 24.7046   1
   1  -7   3 1023.41 24.7055   3
   1  -7   3 1024.86 24.6666   2
  -1  -7  -3 1015.27 24.8266   1
   1  -7   3 1013.94 24.6776   3
  -1  -7  -3 1012.23 24.8226   3
   1  -7   3 1003.30 24.6862   1
   1   7   3 1041.71 24.8235   3
   1   7   3 1020.26 24.7700   2
   1   7   3 1029.60 24.8189   1
  -1   7  -3 1023.59 24.5756   3
  -1   7  -3 1050.53 24.4793   1
  -2  -7  -3 196.274 5.56056   3
  -2  -7  -3 202.515 5.63441   1
   2  -7   3 204.637 5.30043   2
   2  -7   3 208.053 5.26706   3
   2  -7   3 204.463 5.32825   1
   2  -7   3 196.178 5.32463   1
  -2  -7  -3 201.997 5.49245   2
   2   7   3 205.120 5.54877   2
   2   7   3 210.707 5.66706   3
   2   7   3 206.548 5.65337   1
  -3  -7  -3 35.3355 2.14104   2
   3  -7   3 33.6997 1.96781   1
  -3  -7  -3 35.0039 2.40634   3
   3  -7   3 37.9361 2.14264   2
   3  -7   3 32.3467 1.82615   3
   3   7   3 33.1204 2.62507   3
   3   7   3 34.8936 2.65852   1
   3   7   3 35.4426 2.42230   2
   4  -7   3 -0.0733 1.05301   3
   4  -7   3 0.47879 1.28146   1
  -4  -7  -3 2.38108 1.76121   3
  -4  -7  -3 0.74149 1.42754   2
   4   7   3 3.54429 1.69872   2
   4   7   3 2.67276 2.58521   1
   4   7   3 2.31069 1.86231   3
   5  -7   3 0.75589 1.64250   1
  -5  -7  -3 2.79801 2.72024   2
   5   7   3 -1.7046 2.56664   3
   5   7   3 -0.5463 2.78252   2
   5   7   3 0.99154 2.69131   1
   5  -8  -3 76.0866 4.74402   1
   5  -8  -3 75.8636 4.56015   3
  -5  -8   3 85.4256 4.72134   2
   5   8  -3 66.3109 4.49738   1
   5   8  -3 77.8624 5.74608   2
   5   8  -3 95.8308 6.29332   3
   4  -8  -3 13.7404 2.16844   2
  -4  -8   3 15.7047 2.05870   2
  -4  -8   3 14.8149 2.29203   3
   4  -8  -3 16.3860 1.92813   3
   4  -8  -3 15.5993 1.87722   1
   4   8  -3 12.7042 2.26875   3
   4   8  -3 14.1241 2.18838   2
   4   8  -3 19.4358 2.60024   1
  -3  -8   3 73.9966 3.51926   1
   3  -8  -3 70.3720 3.11688   1
   3  -8  -3 68.4640 3.08163   3
   3  -8  -3 67.8903 2.99402   2
  -3  -8   3 71.4895 3.07429   2
  -3  -8   3 74.8242 3.35730   3
   3   8  -3 75.2951 3.63199   3
   3   8  -3 75.0098 3.14175   2
   3   8  -3 72.2488 3.66523   1
   2  -8  -3 166.917 4.73854   2
  -2  -8   3 160.985 4.89098   3
  -2  -8   3 166.733 4.80552   2
   2  -8  -3 168.082 4.77312   3
   2  -8  -3 166.599 4.83279   1
  -2  -8   3 163.484 4.91415   1
   2   8  -3 165.454 4.96372   1
  -2   8   3 161.581 4.78334   3
   2   8  -3 170.367 4.99936   3
  -2   8   3 164.027 4.45753   2
   2   8  -3 166.747 4.74165   2
   1  -8  -3 107.484 3.42001   3
  -1  -8   3 110.043 3.54672   1
   1  -8  -3 112.300 3.48323   1
   1  -8  -3 110.713 3.37986   2
  -1  -8   3 113.270 3.50203   3
  -1  -8   3 116.365 3.48991   2
   1   8  -3 107.300 3.53567   3
   1   8  -3 115.053 3.34639   2
  -1   8   3 102.362 3.48372   1
  -1   8   3 102.888 3.28350   2
   1   8  -3 108.810 3.54768   1
  -1   8   3 110.820 3.56118   3
   0  -8  -3 33.4892 1.98756   1
   0  -8   3 31.7083 1.87845   1
   0  -8   3 34.0172 1.77466   2
   0  -8   3 29.7596 1.82225   3
   0  -8  -3 28.1527 1.84433   2
   0  -8  -3 30.3002 1.91892   3
   0   8  -3 35.7205 2.20624   1
   0   8  -3 30.1004 2.16197   3
   0   8  -3 31.7088 1.62118   2
   0   8   3 31.0472 2.12230   3
   0   8   3 30.8421 1.76212   2
   0   8   3 31.0873 2.06007   1
   1  -8   3 107.541 3.22586   3
  -1  -8  -3 106.329 3.49540   1
  -1  -8  -3 104.160 3.34920   2
   1  -8   3 103.935 3.25490   1
  -1  -8  -3 103.896 3.46487   3
   1  -8   3 104.674 3.22935   2
   1   8   3 105.235 3.71047   1
  -1   8  -3 104.789 3.14794   3
   1   8   3 108.099 3.63790   3
   1   8   3 109.997 3.38066   2
   2  -8   3 317.082 7.99623   3
   2  -8   3 315.695 8.03258   2
  -2  -8  -3 319.367 8.35417   3
  -2  -8  -3 311.917 8.38199   1
  -2  -8  -3 320.633 8.24728   2
   2  -8   3 311.879 8.05981   1
   2   8   3 300.953 8.23761   2
   2   8   3 324.675 8.46728   1
   2   8   3 320.633 8.41794   3
  -3  -8  -3 48.5308 2.65498   2
   3  -8   3 48.6911 2.50234   1
  -3  -8  -3 53.2249 3.39699   1
   3  -8   3 49.4769 2.60268   2
   3  -8   3 52.2242 2.34646   3
  -3  -8  -3 47.1089 3.06557   3
   3   8   3 45.5762 2.91332   2
   3   8   3 49.6511 3.38984   1
   3   8   3 56.7402 3.33833   3
  -4  -8  -3 18.3057 2.00104   2
   4  -8   3 13.5087 1.60574   1
  -4  -8  -3 12.1609 2.37729   3
   4  -8   3 14.2046 1.48273   3
   4   8   3 18.4996 2.45452   3
   4   8   3 15.2397 2.16163   2
   4   8   3 21.5670 2.63419   1
   5  -8   3 17.2943 2.06815   1
   5   8   3 15.1852 3.33055   2
   5   8   3 17.3718 3.41265   3
   5   8   3 18.0981 4.05998   1
   4  -9  -3 78.0951 4.21553   3
  -4  -9   3 83.3127 5.16148   3
  -4  -9   3 82.5983 4.19303   2
   4  -9  -3 75.2098 4.29628   1
   4   9  -3 77.2060 4.55648   2
   4   9  -3 85.0163 5.41508   3
  -3  -9   3 12.6098 1.79532   2
   3  -9  -3 12.8058 1.73618   3
  -3  -9   3 10.5929 1.90847   3
   3  -9  -3 14.0059 1.81814   1
   3  -9  -3 11.3895 1.73207   2
  -3  -9   3 11.9732 2.18441   1
   3   9  -3 11.6073 2.74825   1
   3   9  -3 13.4354 1.93975   2
   2  -9  -3 21.5995 1.69826   2
  -2  -9   3 18.8043 1.77332   1
   2  -9  -3 17.1496 1.58234   3
  -2  -9   3 15.3344 1.58243   3
   2  -9  -3 18.6323 1.62804   1
  -2  -9   3 18.2501 1.67533   2
  -2   9   3 17.0513 1.32804   2
   2   9  -3 17.8525 1.58413   2
   2   9  -3 17.2735 1.79338   3
   2   9  -3 17.2239 2.20690   1
   1  -9  -3 21.2344 1.61315   2
  -1  -9   3 18.5022 1.44490   2
  -1  -9   3 21.0083 1.64210   1
  -1  -9   3 17.4483 1.42603   3
   1   9  -3 20.2381 1.48853   2
  -1   9   3 22.1715 1.90068   2
   1   9  -3 18.9355 1.81939   3
  -1   9   3 20.7936 1.63502   3
   0  -9  -3 10.7114 1.44170   1
   0  -9   3 8.70724 1.25954   1
   0  -9  -3 8.82507 1.25208   2
   0  -9   3 9.72066 1.27692   2
   0  -9   3 8.08558 1.17261   3
   0  -9  -3 9.97610 1.31122   3
   0   9   3 10.7468 1.49825   1
   0   9   3 7.58059 1.19853   2
   0   9   3 8.42108 1.40730   3
   0   9  -3 8.89464 1.35707   3
   0   9  -3 8.98691 1.11258   2
   1  -9   3 116.174 3.61251   3
   1  -9   3 116.584 3.69050   1
   1  -9   3 117.021 3.66358   2
  -1  -9  -3 117.361 4.02255   1
  -1  -9  -3 113.729 3.76837   2
  -1  -9  -3 115.158 3.90326   3
   1   9   3 109.130 4.17067   1
   1   9   3 119.739 3.81216   2
   1   9   3 117.855 4.11186   3
  -2  -9  -3 0.59947 1.62018   1
   2  -9   3 0.20919 1.21700   2
  -2  -9  -3 1.71358 1.29897   2
  -2  -9  -3 -1.7548 1.40420   3
   2  -9   3 -0.2694 1.07179   1
   2   9   3 0.96612 1.43852   2
   2   9   3 0.51702 1.67010   3
   2   9   3 1.11477 1.79262   1
   3  -9   3 11.1371 1.54806   3
   3  -9   3 10.0579 1.57397   1
  -3  -9  -3 11.1532 2.78321   3
  -3  -9  -3 9.64501 1.70058   2
   3   9   3 9.51586 1.98915   2
   3   9   3 8.91872 2.20943   3
   3   9   3 10.6864 2.41339   1
   4  -9   3 54.3298 3.44786   1
  -4  -9  -3 53.4293 3.74172   3
  -4  -9  -3 56.4099 3.81310   2
   4   9   3 48.4860 3.25815   2
   4   9   3 50.9851 3.61715   1
   4   9   3 45.6624 3.46160   3
  -4 -10   3 65.2921 5.84851   3
  -4 -10   3 71.2591 4.65738   2
   4 -10  -3 64.6360 4.82509   3
   4 -10  -3 64.9581 4.89055   1
   4  10  -3 60.1438 4.34678   3
   4  10  -3 63.7645 5.14677   2
   3 -10  -3 201.818 6.41010   3
   3 -10  -3 200.059 6.44497   1
   3 -10  -3 202.222 6.31632   2
  -3 -10   3 210.989 6.83761   3
  -3 -10   3 172.326 10.1891   1
  -3 -10   3 197.193 6.32644   2
   3  10  -3 203.826 7.50502   3
   3  10  -3 213.428 6.45899   2
   2 -10  -3 69.2531 3.60424   3
  -2 -10   3 68.8000 4.20012   1
   2 -10  -3 76.2715 3.65210   1
  -2 -10   3 73.2798 3.70738   3
   2 -10  -3 71.2371 4.01091   2
  -2 -10   3 71.2670 3.53512   2
   2  10  -3 75.3722 3.48354   2
   2  10  -3 76.8414 4.51793   3
   1 -10  -3 4.90865 1.71444   1
  -1 -10   3 1.55876 1.56385   2
   1 -10  -3 -0.2930 1.39207   3
   1 -10  -3 4.84587 1.47170   2
  -1 -10   3 2.87777 1.60357   1
  -1 -10   3 1.16100 1.37438   3
  -1  10   3 3.28679 1.91757   3
   1  10  -3 5.82639 1.84116   3
   1  10  -3 3.54536 1.41434   2
  -1  10   3 1.19440 1.37524   2
   0 -10  -3 30.8823 2.78756   1
   0 -10   3 27.3346 2.55920   1
   0 -10  -3 31.1114 2.47520   2
   0 -10   3 27.2717 2.44272   2
   0  10   3 27.6398 2.48673   2
   0  10  -3 30.1244 2.35330   2
   0  10   3 38.3744 3.37731   3
   0  10  -3 23.4062 2.27550   3
  -1 -10  -3 -0.0505 1.35023   2
   1 -10   3 -1.5325 1.95117   3
   1 -10   3 3.87243 1.35421   1
   1 -10   3 -0.3240 1.43777   2
  -1 -10  -3 -0.5440 2.41939   3
  -1 -10  -3 1.19843 1.83656   1
   1  10   3 0.43079 1.95058   2
   1  10   3 2.02056 1.88624   3
   2 -10   3 77.8039 3.60812   3
  -2 -10  -3 75.5868 3.56642   2
   2 -10   3 73.0148 3.62858   2
   2 -10   3 71.8978 3.32324   1
  -2 -10  -3 90.7575 4.10083   3
  -2 -10  -3 82.4884 4.34891   1
   2  10   3 79.4931 4.46828   3
   2  10   3 79.9657 3.78833   2
   2  10   3 85.8892 5.18603   1
   3 -10   3 12.1965 1.90205   3
   3 -10   3 14.6593 1.98868   1
  -3 -10  -3 16.8014 2.19409   2
  -3 -10  -3 9.84374 2.62604   3
   3  10   3 16.0996 3.80131   1
   3  10   3 16.3731 2.95305   3
   3  10   3 12.1065 2.37250   2
  -4 -10  -3 13.0138 2.85059   2
   4 -10   3 10.7828 2.38711   1
   4  10   3 8.17210 3.54217   3
   4  10   3 17.3284 4.53724   2
  -3 -11   3 45.6460 3.26474   2
   3 -11  -3 46.8849 3.10458   3
   3 -11  -3 46.8997 3.39016   2
  -3 -11   3 45.3626 3.27428   3
   3 -11  -3 48.7557 3.24602   1
   3  11  -3 47.4832 4.13571   3
   3  11  -3 55.4384 4.61975   2
  -2 -11   3 42.6064 2.95819   2
  -2 -11   3 50.7405 3.89852   3
   2 -11  -3 34.3071 2.61078   2
   2 -11  -3 47.9597 4.01715   1
  -2 -11   3 39.3503 3.05315   1
   2 -11  -3 46.3892 4.04486   3
   2  11  -3 45.8811 3.46776   3
   2  11  -3 46.3993 3.61232   2
   1 -11  -3 110.839 4.58917   3
  -1 -11   3 115.683 4.49151   3
   1 -11  -3 109.111 4.37226   2
  -1 -11   3 113.351 4.33762   2
   1 -11  -3 111.664 4.92496   1
  -1 -11   3 107.118 4.65782   1
   1  11  -3 109.473 4.41377   2
  -1  11   3 94.3738 4.54827   2
   0 -11   3 27.8149 2.08966   3
   0 -11  -3 31.0790 2.46528   1
   0 -11  -3 31.9233 2.32340   3
   0 -11  -3 25.6524 2.11647   2
   0 -11   3 28.8363 2.26877   2
   0 -11   3 26.6026 2.14153   1
   0  11   3 28.7833 2.84439   3
   0  11  -3 24.9005 1.95766   2
   0  11   3 28.9497 2.16852   2
   1 -11   3 66.6749 3.63797   2
   1 -11   3 68.2831 3.55554   1
  -1 -11  -3 60.3586 3.60042   2
   1 -11   3 60.2703 3.36448   3
  -1 -11  -3 67.8754 3.96697   3
  -1 -11  -3 68.9456 4.42529   1
   1  11   3 62.0631 3.71501   2
   1  11   3 62.7176 4.67642   3
  -2 -11  -3 42.3852 2.82446   3
   2 -11   3 49.0636 3.56108   3
  -2 -11  -3 44.7735 3.56552   2
   2  11   3 38.3302 2.79243   2
   2  11   3 39.7398 3.59668   3
  -3 -11  -3 34.8735 2.92501   2
   3 -11   3 32.7199 2.84774   3
  -3 -11  -3 28.9955 3.29648   3
   3 -11   3 28.9188 2.72066   1
   3  11   3 33.2016 3.21087   2
   3  11   3 35.7024 3.88807   3
  -2 -12   3 90.4382 5.54257   3
  -2 -12   3 100.793 6.19588   1
   2 -12  -3 87.3873 5.38965   3
   2 -12  -3 84.1519 5.13771   2
   2 -12  -3 78.9414 5.51485   1
  -2 -12   3 83.2721 4.96363   2
   2  12  -3 98.6597 5.60002   2
  -1 -12   3 22.0479 2.97696   2
  -1 -12   3 18.0913 2.74640   1
  -1 -12   3 18.7512 2.46093   3
   1 -12  -3 18.1779 2.69360   3
   1 -12  -3 19.8378 2.67676   2
   1 -12  -3 21.2004 2.95085   1
   1  12  -3 14.0241 2.76926   2
   0 -12  -3 106.479 6.16218   1
   0 -12   3 104.610 5.18029   1
   0 -12  -3 103.700 4.72118   2
   0 -12   3 103.950 4.80496   3
   0 -12   3 102.743 4.86157   2
   0  12   3 93.3181 4.84151   2
  -1 -12  -3 5.92531 3.11800   1
   1 -12   3 -0.5026 2.06665   3
   1 -12   3 2.10680 2.69489   2
  -1 -12  -3 -5.6901 2.43259   3
  -1 -12  -3 -0.3304 2.30660   2
   1 -12   3 1.99251 2.14545   1
   1  12   3 6.05312 3.96276   3
   1  12   3 0.82983 2.60331   2
  -2 -12  -3 75.0178 5.67564   2
  -2 -12  -3 53.6309 3.70709   3
   2  12   3 69.7737 5.18062   2
   2  12   3 59.6981 4.47074   3
   6   0  -4 3.16113 2.05397   1
   6   0  -4 2.30380 2.11899   2
   6   0  -4 4.53798 1.92761   3
   5   0  -4 9.14063 1.41807   2
   5   0  -4 8.64585 1.40160   1
   5   0  -4 9.10657 1.38681   3
  -5   0   4 8.14520 1.06079   2
  -4   0   4 18.6029 1.57497   3
   4   0  -4 20.9498 1.62798   1
   4   0  -4 20.9464 1.55972   2
  -4   0   4 21.5281 1.56109   1
  -4   0   4 19.0385 1.32960   2
   4   0  -4 19.4295 1.72154   3
  -4   0   4 20.1605 1.45521   2
   4   0  -4 20.2556 1.69634   1
   3   0  -4 -0.1536 0.89866   3
   3   0  -4 0.27897 0.64655   1
   3   0  -4 -0.0024 0.64802   2
  -3   0   4 -0.3765 0.61172   3
  -3   0   4 1.55209 0.59826   1
   3   0  -4 0.09701 0.62493   3
  -3   0   4 -0.1574 0.80064   2
   3   0  -4 -0.4086 0.74531   1
   2   0  -4 709.051 17.9784   3
  -2   0   4 767.288 17.9446   2
  -2   0   4 749.299 17.9663   1
  -2   0   4 750.549 17.9730   1
  -2   0   4 752.039 17.9758   3
  -2   0   4 737.827 17.9679   3
   2   0  -4 755.380 17.9666   2
   2   0  -4 772.697 17.9810   1
  -2   0   4 727.327 17.9504   2
   2   0  -4 737.512 17.9602   2
   2   0  -4 761.287 17.9796   3
   2   0  -4 734.512 17.9841   1
   1   0  -4 3148.38 73.5300   3
   1   0  -4 3026.28 73.7432   1
  -1   0   4 3003.87 73.6452   3
  -1   0   4 3120.63 73.5626   1
   1   0  -4 3175.31 73.5386   2
  -1   0   4 3049.75 73.6102   1
   1   0  -4 3155.88 73.5674   1
   1   0  -4 3002.41 73.5577   3
  -1   0   4 3011.36 73.3236   3
  -1   0   4 3138.68 73.4749   2
  -1   0   4 3031.68 73.7555   2
   0   0  -4 138.629 3.33202   1
   0   0   4 136.692 3.33816   2
   0   0   4 139.125 3.35406   3
   0   0   4 135.033 3.35359   1
   0   0  -4 142.129 3.32836   2
   0   0  -4 134.586 3.34678   3
   0   0   4 133.538 3.35111   3
   0   0  -4 132.591 3.32813   2
   0   0   4 133.267 3.34625   1
   0   0   4 133.667 3.33695   2
   0   0  -4 135.491 3.33743   3
   1   0   4 13.2941 0.45885   2
   1   0   4 11.9824 0.49288   3
  -1   0  -4 12.1267 0.43925   3
   1   0   4 12.4403 0.50801   1
   1   0   4 11.7161 0.53647   2
   1   0   4 12.3729 0.47860   1
   1   0   4 11.7461 0.48269   3
   2   0   4 261.550 6.37579   3
   2   0   4 265.555 6.37599   1
   2   0   4 275.968 6.37679   2
   2   0   4 246.881 6.38043   1
   2   0   4 258.736 6.37406   3
   2   0   4 268.843 6.36777   2
   3   0   4 386.360 9.56293   1
   3   0   4 394.895 9.59088   2
   3   0   4 387.270 9.54100   3
   3   0   4 394.991 9.56083   1
   3   0   4 402.538 9.54570   2
   3   0   4 391.456 9.54849   3
   4   0   4 190.142 4.84111   3
   4   0   4 182.730 4.88479   1
   4   0   4 194.182 4.86761   2
   4   0   4 184.762 4.98689   3
   4   0   4 183.648 4.87589   1
   5   0   4 23.1871 1.63780   2
   5   0   4 24.2871 1.97873   3
   5   0   4 26.6254 2.08455   1
   6   0   4 16.8358 1.94805   3
   6   0   4 11.9602 1.96409   1
   6  -1  -4 19.8340 2.24964   1
   6  -1  -4 15.6415 2.46991   2
   6  -1  -4 23.1022 2.21175   3
   6   1  -4 23.9605 2.39206   2
   6   1  -4 20.8680 2.40971   3
   6   1  -4 19.4075 2.38783   1
   5  -1  -4 80.8157 3.18768   3
   5  -1  -4 75.5042 3.14165   1
   5  -1  -4 73.7723 3.08295   2
  -5  -1   4 72.5573 3.14599   3
  -5  -1   4 77.1730 2.81734   2
   5   1  -4 81.2069 3.27432   3
   5   1  -4 74.7730 3.26926   1
   5   1  -4 75.7959 3.09914   2
  -4  -1   4 85.2327 2.81409   1
   4  -1  -4 90.9701 2.92509   1
   4  -1  -4 88.1074 3.27899   1
  -4  -1   4 89.3448 2.74150   2
   4  -1  -4 86.4871 2.87115   3
  -4  -1   4 85.8099 2.89631   3
   4  -1  -4 93.2833 2.83525   2
  -4   1   4 87.9455 2.76886   3
  -4   1   4 87.9561 2.61747   2
   4   1  -4 87.7004 2.84886   2
  -4   1   4 80.3511 2.78139   1
   4   1  -4 100.737 3.70270   1
   4   1  -4 86.0745 2.95311   1
  -4   1   4 88.2765 2.79485   2
   4   1  -4 89.2497 2.92347   3
   3  -1  -4 31.0873 1.55582   1
   3  -1  -4 26.9977 1.38661   1
  -3  -1   4 27.5811 1.59307   2
   3  -1  -4 29.4614 1.31779   2
  -3  -1   4 28.2847 1.36804   1
   3  -1  -4 25.4269 1.36508   3
   3  -1  -4 24.6559 1.55201   3
  -3  -1   4 26.6336 1.37446   3
  -3  -1   4 24.8559 1.30895   2
   3   1  -4 28.0346 1.69202   1
   3   1  -4 24.9728 1.34630   2
   3   1  -4 29.9143 1.81719   3
   3   1  -4 25.4133 1.44685   1
  -3   1   4 26.7738 1.25299   1
  -3   1   4 26.2518 1.36650   2
  -3   1   4 26.0427 1.36446   3
  -3   1   4 26.4714 1.22023   2
   3   1  -4 26.5217 1.40528   3
  -2  -1   4 617.182 14.6877   3
  -2  -1   4 611.979 14.6885   1
   2  -1  -4 608.267 14.6796   1
   2  -1  -4 602.239 14.6512   2
  -2  -1   4 615.991 14.6837   1
   2  -1  -4 624.970 14.6710   1
   2  -1  -4 630.706 14.6714   3
  -2  -1   4 599.199 14.6893   3
  -2  -1   4 621.706 14.6594   2
  -2  -1   4 577.726 14.7696   2
   2  -1  -4 619.884 14.6600   2
   2   1  -4 611.859 14.6895   3
   2   1  -4 535.850 14.7923   3
  -2   1   4 592.729 14.6526   1
  -2   1   4 628.706 14.6355   2
  -2   1   4 608.064 14.6678   3
  -2   1   4 620.735 14.6532   1
   2   1  -4 589.881 14.6611   2
  -2   1   4 599.234 14.6354   2
   2   1  -4 599.866 14.6922   1
   2   1  -4 608.963 14.6784   2
  -2   1   4 603.587 14.6563   3
   2   1  -4 630.107 14.6929   1
   1  -1  -4 424.493 9.97996   2
   1  -1  -4 425.822 9.99397   1
  -1  -1   4 421.993 9.99950   3
   1  -1  -4 393.125 9.97361   2
  -1  -1   4 407.421 9.98666   2
   1  -1  -4 394.888 9.99622   1
   1  -1  -4 419.072 9.98908   3
   1  -1  -4 404.652 9.99376   3
  -1  -1   4 429.905 9.98312   2
  -1  -1   4 413.004 9.99900   1
  -1  -1   4 399.348 9.99278   1
  -1  -1   4 407.529 9.99787   3
   1   1  -4 397.826 9.97360   2
  -1   1   4 421.233 9.99659   1
   1   1  -4 428.637 9.99364   1
  -1   1   4 414.066 9.99287   1
  -1   1   4 418.575 9.99234   3
   1   1  -4 423.709 9.98482   2
   1   1  -4 412.965 9.99761   1
   1   1  -4 395.438 9.99076   3
  -1   1   4 411.764 9.99306   3
  -1   1   4 395.184 9.97467   2
   1   1  -4 421.245 9.99519   3
  -1   1   4 433.004 9.98038   2
   0  -1  -4 433.075 10.1813   1
   0  -1   4 413.023 10.1502   2
   0  -1   4 414.840 10.1590   3
   0  -1  -4 421.008 10.1684   2
   0  -1  -4 424.361 10.1804   3
   0  -1   4 402.187 10.1529   1
   0  -1   4 415.024 10.1585   1
   0  -1  -4 417.379 10.1874   3
   0  -1  -4 425.250 10.1891   1
   0  -1   4 434.520 10.1508   2
   0  -1   4 427.585 10.1610   3
   0  -1  -4 420.467 10.1760   2
   0   1   4 436.761 10.1973   1
   0   1  -4 438.287 10.1417   1
   0   1   4 440.240 10.1836   2
   0   1   4 414.378 10.1866   3
   0   1  -4 424.216 10.1363   2
   0   1   4 402.826 10.1840   1
   0   1  -4 416.478 10.1528   3
   0   1  -4 428.985 10.1852   1
   0   1  -4 427.003 10.1341   2
   0   1  -4 432.439 10.1514   3
  -1  -1  -4 2189.71 51.4387   2
  -1  -1  -4 2131.35 51.4454   1
   1  -1   4 2178.84 51.4098   3
  -1  -1  -4 2168.66 51.4598   3
  -1  -1  -4 2199.67 51.4477   1
  -1  -1  -4 2169.58 51.5220   2
  -1  -1  -4 2108.18 51.4561   3
   1  -1   4 2140.18 51.4409   3
   1   1   4 2131.90 51.6230   1
   1   1   4 2187.18 51.4721   3
   1   1   4 2212.94 51.4633   2
   1   1   4 2194.42 51.6044   2
   1   1   4 2106.18 51.6783   3
   1   1   4 2125.45 51.4704   1
  -2  -1  -4 2389.69 55.5546   3
  -2  -1  -4 2388.42 55.5009   1
  -2  -1  -4 2307.83 55.5474   3
   2  -1   4 2240.13 55.4844   3
   2  -1   4 2280.42 55.4855   3
  -2  -1  -4 2392.36 55.5007   1
   2  -1   4 2358.43 55.5323   1
   2   1   4 2335.89 55.5786   2
   2   1   4 2368.07 55.5871   3
   2   1   4 2380.51 55.5804   2
   2   1   4 2300.33 55.5900   3
   2   1   4 2318.82 55.5902   1
   2   1   4 2251.22 55.5946   1
  -3  -1  -4 361.590 8.46658   3
   3  -1   4 333.852 8.28942   3
   3  -1   4 334.427 8.31350   1
   3  -1   4 340.588 8.29324   3
   3  -1   4 348.400 8.31444   1
   3   1   4 335.700 8.42173   1
   3   1   4 342.179 8.41756   3
   3   1   4 336.413 8.40751   3
   3   1   4 339.497 8.42159   1
   3   1   4 350.573 8.39852   2
   4  -1   4 116.198 3.23154   1
   4  -1   4 116.392 3.19166   2
   4  -1   4 115.746 3.16466   3
   4  -1   4 112.820 3.23090   3
  -4  -1  -4 120.838 3.18234   3
   4  -1   4 115.616 3.23113   1
   4   1   4 120.235 3.37749   1
   4   1   4 113.751 3.35123   2
   4   1   4 115.500 3.48384   1
   4   1   4 124.853 3.35519   3
   5  -1   4 8.28003 1.08683   3
   5  -1   4 8.16582 1.14258   1
   5   1   4 9.15776 1.49479   2
   5   1   4 7.74489 1.29326   3
   5   1   4 6.96438 1.27496   1
   6  -1   4 47.8104 3.14451   1
   6   1   4 46.3393 3.64393   1
   6   1   4 44.0753 3.64779   3
   6  -2  -4 3.85346 2.41541   2
   6  -2  -4 3.45396 2.02275   3
   6  -2  -4 1.87650 1.99809   1
   6   2  -4 1.66296 2.25700   3
   6   2  -4 6.94574 2.26521   1
   6   2  -4 2.59389 2.32575   2
  -5  -2   4 47.1916 2.34860   2
   5  -2  -4 44.0116 2.63092   3
   5  -2  -4 44.2369 2.59695   2
   5  -2  -4 43.4994 2.62086   1
  -5  -2   4 46.4082 2.73963   3
   5   2  -4 44.9099 2.86172   1
   5   2  -4 39.2860 2.71685   2
   5   2  -4 45.7326 2.85839   3
   4  -2  -4 24.6824 1.77924   1
   4  -2  -4 31.3307 2.48369   1
  -4  -2   4 25.4969 1.83471   1
  -4  -2   4 23.8431 1.85552   3
   4  -2  -4 24.2886 1.74789   2
  -4  -2   4 25.7056 1.64660   2
   4  -2  -4 25.4636 1.78596   3
  -4   2   4 24.2681 1.38643   2
  -4   2   4 26.1521 1.66247   3
   4   2  -4 26.7333 1.94632   1
  -4   2   4 27.1992 1.63601   2
   4   2  -4 28.6972 1.89018   3
  -4   2   4 26.1785 1.65320   1
   4   2  -4 23.5494 1.72954   2
   3  -2  -4 62.8897 2.12747   1
   3  -2  -4 63.9884 2.12144   3
  -3  -2   4 65.3229 2.12524   1
  -3  -2   4 64.8935 2.19440   3
   3  -2  -4 65.5842 2.21107   1
  -3  -2   4 64.2336 2.10852   2
   3  -2  -4 65.2135 2.07252   2
   3  -2  -4 63.7314 2.25218   3
   3   2  -4 65.7510 2.12743   2
   3   2  -4 62.5942 2.47272   1
  -3   2   4 63.9417 1.96635   2
  -3   2   4 63.9387 2.06207   3
   3   2  -4 61.7976 2.20959   1
  -3   2   4 69.9888 2.55804   1
   3   2  -4 63.1996 2.19516   3
  -3   2   4 67.4688 2.03719   2
  -2  -2   4 706.676 17.4524   2
   2  -2  -4 681.589 17.4720   1
   2  -2  -4 709.050 17.4397   3
  -2  -2   4 744.707 17.4516   2
   2  -2  -4 746.018 17.4376   3
   2  -2  -4 713.223 17.4174   2
  -2  -2   4 734.860 17.4913   3
   2  -2  -4 746.296 17.4459   1
  -2  -2   4 724.876 17.4707   1
   2  -2  -4 716.063 17.4204   2
  -2  -2   4 704.123 17.4651   3
  -2  -2   4 731.587 17.4828   1
   2   2  -4 730.998 17.4830   1
  -2   2   4 716.408 17.4220   3
   2   2  -4 739.824 17.4861   3
  -2   2   4 745.144 17.3955   2
   2   2  -4 749.395 17.4860   1
  -2   2   4 721.660 17.4329   3
   2   2  -4 668.079 17.4951   3
  -2   2   4 739.475 17.4138   1
   2   2  -4 709.806 17.4487   2
  -2   2   4 704.254 17.4199   2
  -2   2   4 746.245 17.4422   1
   1  -2  -4 4481.62 109.499   1
   1  -2  -4 4696.78 109.350   3
  -1  -2   4 4405.63 109.345   2
  -1  -2   4 4744.24 109.307   3
  -1  -2   4 4521.28 109.322   3
   1  -2  -4 4509.35 109.471   3
  -1  -2   4 4563.61 109.355   1
   1  -2  -4 4604.13 109.468   2
  -1  -2   4 4530.46 109.100   2
  -1  -2   4 4473.53 109.437   1
   1  -2  -4 4635.66 109.186   2
   1  -2  -4 4753.54 109.254   1
  -1   2   4 4620.80 109.416   3
  -1   2   4 4764.12 109.103   2
  -1   2   4 4564.77 109.457   2
   1   2  -4 4456.63 108.899   3
   1   2  -4 4544.24 109.508   1
   1   2  -4 4549.41 108.903   1
  -1   2   4 4611.37 109.447   1
   1   2  -4 4778.16 109.150   2
   1   2  -4 4446.56 109.484   3
   1   2  -4 4374.33 109.383   2
   0  -2  -4 54.1179 1.50961   3
   0  -2   4 53.4075 1.45440   2
   0  -2   4 53.0974 1.46218   1
   0  -2  -4 50.7789 1.48092   2
   0  -2   4 52.2625 1.44926   1
   0  -2   4 52.8224 1.46900   3
   0  -2  -4 52.8410 1.52117   3
   0  -2  -4 54.2256 1.48213   2
   0  -2   4 53.4307 1.46185   3
   0  -2   4 56.2854 1.44552   2
   0   2  -4 54.2405 1.41632   2
   0   2   4 51.5047 1.48819   2
   0   2  -4 52.2985 1.43448   3
   0   2   4 55.0178 1.50981   2
   0   2  -4 53.2601 1.40118   2
   0   2   4 55.0873 1.54570   3
   0   2  -4 55.0621 1.42822   1
   0   2  -4 53.8132 1.41026   1
   0   2  -4 54.4099 1.45551   3
   0   2   4 53.8029 1.53259   1
  -1  -2  -4 651.196 15.5379   3
  -1  -2  -4 643.262 15.5181   2
   1  -2   4 637.471 15.4187   3
  -1  -2  -4 644.302 15.5370   3
  -1  -2  -4 636.560 15.5261   1
   1  -2   4 647.091 15.4190   3
  -1  -2  -4 665.048 15.5189   2
  -1  -2  -4 667.815 15.5361   1
   1   2   4 662.344 15.5526   1
   1   2   4 662.134 15.5503   3
   1   2   4 664.951 15.5398   2
   1   2   4 620.285 15.5285   2
   1   2   4 615.868 15.5393   3
   1   2   4 633.782 15.5477   1
  -2  -2  -4 120.057 3.05157   2
  -2  -2  -4 124.142 3.06803   2
  -2  -2  -4 120.805 3.10307   3
  -2  -2  -4 122.020 3.19384   3
  -2  -2  -4 118.773 3.07662   1
   2   2   4 124.591 3.17345   3
   2   2   4 115.633 3.13447   3
   2   2   4 121.478 3.16003   1
   2   2   4 119.074 3.20556   2
   2   2   4 114.598 3.14634   1
   2   2   4 119.419 3.11656   2
   3  -2   4 132.947 3.37786   3
   3  -2   4 136.839 3.43243   1
   3  -2   4 137.409 3.42292   1
   3  -2   4 139.278 3.38692   3
  -3  -2  -4 138.407 3.56510   3
   3   2   4 123.862 4.22789   2
   3   2   4 137.552 3.72956   1
   3   2   4 138.301 3.67682   3
   3   2   4 139.551 3.70014   1
   3   2   4 141.283 3.76103   3
   4  -2   4 42.2233 1.63536   2
   4  -2   4 40.8844 1.54280   3
   4  -2   4 44.2647 1.60004   1
  -4  -2  -4 41.9395 1.75854   3
   4  -2   4 44.5231 1.63428   1
   4  -2   4 44.1267 1.48664   3
   4   2   4 44.3329 3.61141   1
   4   2   4 43.7359 1.96815   3
   4   2   4 43.8458 1.98620   2
   4   2   4 43.6607 2.01867   1
   5  -2   4 5.01422 0.92798   3
   5  -2   4 7.48940 1.06465   1
   5   2   4 4.57697 1.54094   2
   5   2   4 4.74811 1.29810   3
   5   2   4 5.21705 1.58681   1
   6  -2   4 5.80389 1.78090   1
   6   2   4 8.61673 2.09815   3
   6   2   4 5.84837 2.17220   1
   6  -3  -4 11.7664 2.15178   3
   6  -3  -4 9.99719 2.19198   1
   6   3  -4 7.33854 2.55125   1
   6   3  -4 8.31800 2.45853   3
   6   3  -4 13.9072 2.38107   2
   5  -3  -4 33.7003 2.58319   2
  -5  -3   4 35.2311 2.31908   2
  -5  -3   4 29.9128 1.99620   3
   5  -3  -4 34.1015 2.59608   1
   5  -3  -4 41.1233 2.55109   3
   5   3  -4 40.2231 3.02807   1
   5   3  -4 38.0258 2.94449   3
   5   3  -4 36.4393 2.65914   2
   4  -3  -4 126.176 3.78867   3
   4  -3  -4 124.909 3.78983   1
  -4  -3   4 127.148 3.82084   1
  -4  -3   4 125.188 3.70137   2
   4  -3  -4 128.718 3.68020   2
  -4  -3   4 129.384 3.82646   3
  -4   3   4 121.278 3.58722   3
   4   3  -4 126.757 3.93591   3
   4   3  -4 127.533 3.96001   1
   4   3  -4 126.654 3.78150   2
   3  -3  -4 126.954 3.74331   3
  -3  -3   4 129.686 3.69308   3
   3  -3  -4 129.046 3.53485   2
   3  -3  -4 129.853 3.58150   3
  -3  -3   4 129.490 3.65287   1
   3  -3  -4 130.327 3.60504   1
  -3  -3   4 125.586 3.60445   2
   3  -3  -4 130.088 3.63372   1
   3   3  -4 128.727 3.70713   1
   3   3  -4 126.761 3.59803   2
  -3   3   4 131.444 3.44046   2
  -3   3   4 130.721 3.52220   3
  -3   3   4 134.274 3.47091   2
   3   3  -4 126.385 3.69440   3
  -3   3   4 134.941 3.47615   1
   2  -3  -4 602.606 14.6286   1
   2  -3  -4 587.042 14.6314   2
   2  -3  -4 582.100 14.6058   3
   2  -3  -4 611.617 14.6133   3
  -2  -3   4 598.802 14.6614   3
  -2  -3   4 590.191 14.6362   2
   2  -3  -4 626.376 14.6188   1
  -2  -3   4 596.178 14.6781   1
  -2  -3   4 606.074 14.6568   1
  -2   3   4 610.902 14.5733   1
   2   3  -4 598.133 14.6267   2
  -2   3   4 615.974 14.5568   2
   2   3  -4 598.929 14.6629   3
   2   3  -4 605.435 14.6627   1
  -2   3   4 602.342 14.5645   2
   2   3  -4 614.568 14.6859   1
  -2   3   4 600.305 14.5863   3
   1  -3  -4 426.509 11.1967   2
   1  -3  -4 467.678 11.2065   2
   1  -3  -4 449.713 11.2211   3
  -1  -3   4 465.990 11.2417   3
   1  -3  -4 456.916 11.2347   1
  -1  -3   4 459.279 11.2408   1
   1  -3  -4 466.548 11.2198   1
  -1  -3   4 479.090 11.2223   2
  -1  -3   4 481.554 11.2498   3
  -1  -3   4 462.202 11.2285   2
   1  -3  -4 468.816 11.2208   3
  -1  -3   4 475.644 11.2418   1
  -1   3   4 477.402 11.2064   2
   1   3  -4 447.593 11.1960   2
  -1   3   4 443.893 11.2068   3
  -1   3   4 466.044 11.2170   1
   1   3  -4 460.096 11.2211   1
   1   3  -4 462.955 11.2289   3
   1   3  -4 476.398 11.2206   2
   1   3  -4 465.091 11.2291   1
  -1   3   4 459.791 11.2232   3
  -1   3   4 465.357 11.2228   1
  -1   3   4 450.410 11.1965   2
   1   3  -4 462.022 11.2307   3
   0  -3   4 1356.27 32.9449   3
   0  -3  -4 1415.71 32.9949   1
   0  -3  -4 1349.47 32.9936   3
   0  -3   4 1418.18 32.9308   2
   0  -3  -4 1414.08 32.9772   2
   0  -3  -4 1381.46 32.9854   3
   0  -3  -4 1320.97 32.9727   2
   0  -3   4 1364.09 32.9422   1
   0  -3   4 1336.74 32.9466   1
   0   3  -4 1406.48 32.9256   3
   0   3  -4 1422.64 32.9083   1
   0   3   4 1462.76 33.0017   3
   0   3   4 1323.58 32.9714   2
   0   3   4 1362.14 32.9918   3
   0   3  -4 1377.16 32.9007   2
   0   3   4 1421.86 32.9953   1
   0   3   4 1410.05 32.9807   2
   0   3   4 1347.75 32.9893   1
   0   3  -4 1344.53 32.9231   3
   0   3  -4 1349.67 32.9036   1
   1  -3   4 338.245 8.21468   3
  -1  -3  -4 339.860 8.32960   2
  -1  -3  -4 357.885 8.33818   2
  -1  -3  -4 350.846 8.35285   1
  -1  -3  -4 332.682 8.34472   1
  -1  -3  -4 339.877 8.34897   3
  -1  -3  -4 341.627 8.35858   3
   1  -3   4 331.734 8.21156   1
   1  -3   4 346.980 8.21193   1
   1  -3   4 337.343 8.21192   3
   1  -3   4 360.294 8.20524   2
   1   3   4 315.142 8.45532   3
   1   3   4 337.939 8.33941   2
   1   3   4 335.348 8.35971   1
   1   3   4 352.651 8.37630   3
  -2  -3  -4 450.782 10.7291   1
  -2  -3  -4 439.355 10.7385   3
  -2  -3  -4 448.561 10.7165   2
   2  -3   4 436.426 10.5289   3
  -2  -3  -4 427.204 10.6987   2
   2   3   4 434.852 10.7834   1
   2   3   4 432.370 10.7709   3
   2   3   4 445.296 10.7955   3
   2   3   4 449.264 10.7889   1
  -3  -3  -4 237.444 5.89354   1
   3  -3   4 228.386 5.71338   1
  -3  -3  -4 232.205 5.92646   3
  -3  -3  -4 238.705 5.86655   2
   3  -3   4 236.904 5.71098   1
  -3  -3  -4 238.980 5.90045   2
   3   3   4 234.385 6.01056   3
   3   3   4 233.226 6.04221   1
   3   3   4 222.810 6.10737   3
   3   3   4 233.946 6.10336   1
   3   3   4 237.855 5.98788   2
   4  -3   4 112.084 3.19380   1
   4  -3   4 111.923 2.94459   3
   4  -3   4 114.275 3.08480   1
   4  -3   4 110.565 2.93433   3
  -4  -3  -4 111.078 3.34781   3
   4   3   4 118.679 3.55544   3
   4   3   4 116.367 3.56713   1
   4   3   4 117.015 3.48623   2
   5  -3   4 17.6895 1.23753   1
   5   3   4 19.4689 1.81209   3
   5   3   4 16.1514 1.73851   1
   5   3   4 19.1266 1.83172   2
   6  -3   4 -0.7056 1.66311   1
   6   3   4 1.38652 2.28335   3
   6   3   4 5.31653 2.35052   1
   6  -4  -4 42.1273 2.85271   1
   6  -4  -4 39.8754 2.66585   3
   6   4  -4 38.6411 3.25465   1
   6   4  -4 38.1601 3.12853   2
   6   4  -4 41.9720 3.08707   3
   5  -4  -4 9.14133 1.65194   2
  -5  -4   4 8.81670 1.44899   2
   5  -4  -4 10.6978 1.60407   1
  -5  -4   4 11.6016 1.83957   3
   5  -4  -4 9.26219 1.54100   3
   5   4  -4 9.18275 1.75571   3
   5   4  -4 9.23872 1.92953   1
   5   4  -4 8.05631 1.69924   2
   4  -4  -4 70.0453 2.67775   3
  -4  -4   4 70.4658 2.62533   2
   4  -4  -4 69.4416 2.66225   1
  -4  -4   4 68.8546 2.79813   3
  -4  -4   4 66.1810 2.77520   1
   4  -4  -4 71.1133 2.60447   2
  -4   4   4 69.6219 2.50871   3
   4   4  -4 67.4179 2.94818   1
   4   4  -4 70.8368 2.88653   3
   4   4  -4 69.0407 2.72317   2
   3  -4  -4 130.363 3.64607   2
  -3  -4   4 134.239 3.79192   1
   3  -4  -4 132.425 3.76152   1
   3  -4  -4 134.726 3.70617   3
   3  -4  -4 130.037 3.90793   3
   3  -4  -4 132.239 3.73292   1
  -3  -4   4 132.835 3.81836   3
  -3  -4   4 132.728 3.73869   2
  -3   4   4 133.368 3.50869   2
   3   4  -4 135.100 3.86574   1
   3   4  -4 132.462 3.85918   3
  -3   4   4 132.118 3.60627   3
  -3   4   4 129.849 3.56470   1
  -3   4   4 130.676 3.56536   2
   3   4  -4 127.954 3.71985   2
   2  -4  -4 198.961 5.19688   3
   2  -4  -4 203.580 5.14364   2
   2  -4  -4 197.577 5.18132   1
   2  -4  -4 197.312 5.17487   3
  -2  -4   4 203.431 5.25168   3
  -2  -4   4 203.711 5.21210   2
   2  -4  -4 203.311 5.17886   1
   2   4  -4 202.418 5.25106   3
  -2   4   4 198.854 5.08182   2
  -2   4   4 202.111 5.10813   2
  -2   4   4 201.671 5.10829   1
   2   4  -4 203.727 5.22962   1
  -2   4   4 204.893 5.14226   3
   2   4  -4 198.784 5.17745   2
  -1  -4   4 662.845 17.5543   1
  -1  -4   4 758.511 17.4728   1
   1  -4  -4 752.217 17.4518   1
   1  -4  -4 657.520 17.5196   2
   1  -4  -4 710.434 17.4837   1
  -1  -4   4 742.754 17.4746   3
   1  -4  -4 708.129 17.4439   3
   1  -4  -4 725.008 17.4390   3
  -1  -4   4 704.659 17.4933   2
  -1  -4   4 726.859 17.4655   3
   1   4  -4 736.822 17.4353   1
  -1   4   4 728.160 17.4377   3
  -1   4   4 744.253 17.4231   2
  -1   4   4 746.595 17.4347   1
  -1   4   4 719.620 17.4132   2
   1   4  -4 731.760 17.4304   2
   1   4  -4 718.051 17.4144   2
   1   4  -4 725.969 17.4479   3
   0  -4  -4 126.328 3.35454   3
   0  -4  -4 126.953 3.31185   2
   0  -4  -4 124.976 3.29228   2
   0  -4   4 130.190 3.25511   2
   0  -4  -4 125.335 3.31931   1
   0  -4   4 132.051 3.26045   3
   0  -4   4 124.939 3.24427   2
   0  -4   4 123.843 3.25864   1
   0  -4   4 125.857 3.24307   1
   0   4  -4 124.820 3.21173   3
   0   4   4 123.050 3.39205   3
   0   4  -4 123.728 3.23629   1
   0   4   4 125.150 3.33149   3
   0   4  -4 124.285 3.26298   3
   0   4   4 126.481 3.36647   2
   0   4  -4 125.201 3.16716   2
   0   4  -4 127.647 3.20427   2
   0   4  -4 128.530 3.18653   1
   0   4   4 118.402 3.27291   2
   0   4   4 124.027 3.31419   1
  -1  -4  -4 362.447 8.92549   1
   1  -4   4 367.537 8.78111   3
   1  -4   4 372.272 8.77427   2
   1  -4   4 360.325 8.77871   3
   1  -4   4 348.894 8.78551   1
  -1  -4  -4 372.755 8.91977   2
   1  -4   4 362.546 8.77773   2
  -1  -4  -4 356.357 8.89926   2
   1  -4   4 364.679 8.78065   1
  -1  -4  -4 368.255 8.92932   3
   1   4   4 364.526 8.98115   3
  -1   4  -4 365.892 8.71304   3
   1   4   4 356.562 8.93379   3
  -1   4  -4 357.850 8.70354   3
   1   4   4 356.123 8.90976   2
   1   4   4 363.933 8.95564   1
  -2  -4  -4 198.801 5.14417   3
  -2  -4  -4 195.854 5.10014   2
   2  -4   4 198.973 4.90202   1
   2  -4   4 204.803 4.91724   1
  -2  -4  -4 205.224 5.14366   1
  -2  -4  -4 197.548 5.16877   2
   2  -4   4 199.742 4.88771   3
   2   4   4 200.133 5.20168   1
   2   4   4 193.078 5.14116   2
   2   4   4 211.781 5.46396   3
   2   4   4 195.482 5.18107   3
   2   4   4 200.494 5.27988   1
  -3  -4  -4 197.522 5.07184   2
  -3  -4  -4 199.973 5.25041   2
   3  -4   4 198.433 4.87928   1
   3  -4   4 196.396 4.86074   1
   3  -4   4 190.192 4.80648   3
  -3  -4  -4 190.389 5.31641   3
   3   4   4 195.966 5.27632   1
   3   4   4 197.724 5.50547   1
   3   4   4 201.205 5.20400   2
   3   4   4 198.137 5.26336   3
  -4  -4  -4 250.269 6.31427   2
   4  -4   4 236.305 6.17406   1
  -4  -4  -4 239.432 6.59617   3
   4  -4   4 245.626 6.17926   1
   4   4   4 250.366 6.61058   2
   4   4   4 253.414 6.65793   3
   4   4   4 254.522 6.69192   1
   5   4   4 97.3878 4.19777   1
   5   4   4 109.786 4.27554   3
   5   4   4 109.727 4.15916   2
   6  -4   4 23.0424 1.90446   1
   6   4   4 27.1074 2.98981   3
   6   4   4 29.4451 2.99557   1
   6  -5  -4 10.4546 2.57550   1
   6  -5  -4 2.85135 2.41698   3
   6   5  -4 6.59526 2.95884   2
   6   5  -4 -0.0062 3.09268   1
   6   5  -4 3.16292 2.98553   3
  -5  -5   4 40.2599 3.40517   2
   5  -5  -4 46.4815 3.05032   3
  -5  -5   4 45.4021 3.60700   3
   5  -5  -4 48.0303 3.14581   1
   5  -5  -4 46.3727 3.24371   2
   5   5  -4 47.8284 3.78461   1
   5   5  -4 44.7674 3.27182   2
   5   5  -4 43.4064 3.66141   3
   4  -5  -4 39.0710 2.31877   1
   4  -5  -4 44.1616 2.30939   3
  -4  -5   4 36.6602 2.51324   3
  -4  -5   4 41.6189 2.75387   1
  -4  -5   4 40.5020 2.25562   2
   4  -5  -4 43.3183 2.25165   2
   4   5  -4 43.7882 2.46261   2
   4   5  -4 40.6262 2.64375   3
   4   5  -4 38.9659 2.75780   1
  -3  -5   4 74.0400 2.62874   2
  -3  -5   4 77.2182 2.75170   3
   3  -5  -4 80.0006 2.66096   1
   3  -5  -4 75.1437 2.58794   3
  -3  -5   4 80.2121 2.78418   1
   3  -5  -4 75.3901 2.54039   2
   3  -5  -4 75.4671 2.88032   1
  -3   5   4 75.4306 2.48282   1
  -3   5   4 76.4426 2.48140   2
   3   5  -4 75.9148 2.77839   3
   3   5  -4 79.0404 2.65400   2
   3   5  -4 75.8482 2.83468   1
  -3   5   4 78.6829 2.49290   3
  -3   5   4 76.1649 2.31665   2
   2  -5  -4 110.286 3.19466   1
   2  -5  -4 106.364 3.11676   1
   2  -5  -4 105.705 3.08801   3
  -2  -5   4 104.075 3.17740   1
   2  -5  -4 104.700 3.24129   3
   2  -5  -4 111.822 3.04387   2
  -2  -5   4 103.378 3.11250   2
  -2  -5   4 107.420 3.18290   3
  -2   5   4 110.213 3.03981   3
  -2   5   4 110.545 2.96601   2
   2   5  -4 102.015 3.35740   1
  -2   5   4 111.928 3.11288   2
   2   5  -4 103.823 3.07835   2
  -2   5   4 109.830 3.01173   1
   2   5  -4 107.352 3.18293   3
  -1  -5   4 1.34305 0.67552   2
  -1  -5   4 2.16688 0.73536   1
  -1  -5   4 1.60978 0.90107   3
   1  -5  -4 0.48051 0.57026   1
  -1  -5   4 1.24316 0.60815   3
   1  -5  -4 1.29871 0.78867   3
   1  -5  -4 2.08032 0.60742   3
   1  -5  -4 0.83244 0.63141   1
  -1  -5   4 0.45955 0.60735   1
   1  -5  -4 1.23112 0.60641   2
  -1   5   4 1.82038 0.59402   3
   1   5  -4 0.63600 0.59299   2
  -1   5   4 2.21239 0.59921   2
   1   5  -4 -0.1732 0.92440   2
   1   5  -4 0.96253 0.59046   1
  -1   5   4 1.56357 0.86582   2
   1   5  -4 0.10337 0.56770   3
  -1   5   4 2.70301 0.64893   1
   0  -5  -4 589.131 14.1151   2
   0  -5   4 617.854 14.0819   1
   0  -5  -4 579.572 14.1349   3
   0  -5   4 567.586 14.0804   1
   0  -5   4 584.619 14.0743   3
   0  -5   4 595.189 14.0765   3
   0  -5  -4 542.563 14.2714   1
   0  -5  -4 591.840 14.1499   1
   0  -5   4 590.832 14.0646   2
   0   5  -4 504.434 14.2208   2
   0   5   4 584.924 14.1355   3
   0   5  -4 598.602 14.0124   1
   0   5  -4 585.963 14.0303   3
   0   5   4 559.191 14.0854   2
   0   5   4 582.704 14.1236   1
   0   5  -4 605.115 14.0063   2
  -1  -5  -4 1.24592 0.57845   3
   1  -5   4 1.75135 0.46284   3
   1  -5   4 1.07380 0.47249   1
  -1  -5  -4 2.55683 0.65772   1
  -1  -5  -4 0.75810 0.56302   2
   1  -5   4 1.14788 0.47042   2
   1  -5   4 1.71931 0.47294   1
   1  -5   4 1.80432 0.60074   2
   1   5   4 0.49919 0.65981   1
  -1   5  -4 2.04808 0.54903   3
   1   5   4 0.40402 0.58458   2
   1   5   4 0.27850 0.61955   3
   1   5   4 0.83079 0.93959   1
  -2  -5  -4 69.0583 2.22644   2
  -2  -5  -4 68.8887 2.29095   1
   2  -5   4 72.7213 1.96482   1
   2  -5   4 68.4316 1.97638   1
  -2  -5  -4 66.1539 2.30586   3
   2  -5   4 68.3525 2.06346   2
   2  -5   4 70.2170 1.92413   3
   2  -5   4 68.7199 1.94545   3
   2  -5   4 71.1356 1.96234   2
   2   5   4 67.2251 2.34880   1
   2   5   4 70.1417 2.28841   2
   2   5   4 63.9887 2.82982   1
   2   5   4 70.8865 2.38702   3
  -3  -5  -4 13.7717 1.10395   3
  -3  -5  -4 11.8175 1.11400   1
   3  -5   4 11.7117 1.06652   1
   3  -5   4 12.9716 1.00348   1
   3  -5   4 10.7806 0.65785   3
  -3  -5  -4 11.3813 1.02127   2
   3  -5   4 12.3715 0.95655   3
   3   5   4 12.1525 1.21039   2
   3   5   4 11.3811 1.13271   3
   3   5   4 10.9748 1.17118   1
   4  -5   4 4.75468 0.83226   1
  -4  -5  -4 3.85963 1.34555   3
  -4  -5  -4 6.04024 1.16389   2
   4  -5   4 3.37148 0.93710   1
   4   5   4 6.46532 1.45127   1
   4   5   4 3.55905 1.33452   3
   4   5   4 5.39806 1.41303   2
   5  -5   4 4.60932 1.18086   1
   5   5   4 7.30641 2.03970   1
   5   5   4 5.89266 2.17525   2
   5   5   4 8.70611 2.11288   3
   6   5   4 97.2794 8.48142   2
   6   5   4 114.007 6.10519   3
   6   5   4 108.811 6.61483   1
   5  -6  -4 28.0000 2.20210   3
   5  -6  -4 31.0329 2.38061   2
  -5  -6   4 33.6852 2.58165   3
   5  -6  -4 27.2679 2.20800   1
  -5  -6   4 28.9745 2.18055   2
   5   6  -4 30.1364 2.78254   1
   5   6  -4 32.4917 2.64986   3
   5   6  -4 30.1555 2.65513   2
  -4  -6   4 5.48653 1.76933   1
   4  -6  -4 7.51443 1.31866   3
   4  -6  -4 7.96798 1.37988   1
  -4  -6   4 6.05478 1.42336   3
   4  -6  -4 8.05343 1.37999   2
  -4  -6   4 7.54956 1.33492   2
   4   6  -4 5.41410 1.43207   2
   4   6  -4 8.72518 1.71148   1
   4   6  -4 8.12938 1.62884   3
  -3  -6   4 8.73799 1.11986   3
  -3  -6   4 9.86186 1.28117   2
   3  -6  -4 7.97634 1.11580   1
  -3  -6   4 9.61758 1.30034   1
   3  -6  -4 8.73384 1.11040   3
   3  -6  -4 8.19378 1.06253   2
   3   6  -4 8.39188 1.17916   2
   3   6  -4 10.2364 1.34486   1
  -3   6   4 7.20893 1.02929   3
  -3   6   4 9.08863 0.89169   2
   3   6  -4 8.52238 1.18901   3
  -2  -6   4 113.029 3.38568   2
  -2  -6   4 109.924 3.45661   1
   2  -6  -4 116.554 3.27002   2
  -2  -6   4 115.233 3.43549   3
   2  -6  -4 115.746 3.35163   3
   2  -6  -4 112.189 3.53199   1
   2  -6  -4 115.232 3.37634   1
   2   6  -4 112.030 3.45522   3
  -2   6   4 115.703 3.18437   2
   2   6  -4 112.239 3.84933   1
  -2   6   4 113.778 3.28315   3
   2   6  -4 111.372 3.30263   2
  -2   6   4 110.239 3.42986   2
  -1  -6   4 151.498 4.33049   1
  -1  -6   4 154.210 4.19762   3
  -1  -6   4 147.098 4.19637   1
  -1  -6   4 154.449 4.18242   2
   1  -6  -4 153.610 4.19970   1
   1  -6  -4 150.468 4.29126   1
   1  -6  -4 157.541 4.14100   2
  -1   6   4 158.462 4.16310   1
  -1   6   4 151.584 4.19006   3
  -1   6   4 153.779 4.09124   2
   1   6  -4 158.399 4.15042   1
   1   6  -4 154.041 4.08305   2
   1   6  -4 152.387 4.19220   3
   0  -6   4 151.039 3.89607   1
   0  -6  -4 144.455 3.90360   2
   0  -6  -4 144.340 3.93953   3
   0  -6   4 146.063 3.87522   3
   0  -6   4 138.921 3.93592   3
   0  -6   4 140.192 3.87169   1
   0  -6  -4 140.733 3.94859   1
   0  -6   4 140.545 3.83319   2
   0   6  -4 144.900 3.72415   2
   0   6   4 143.277 3.88259   2
   0   6  -4 143.943 3.82818   2
   0   6   4 145.317 3.98432   3
   0   6  -4 142.168 3.80146   3
   0   6   4 144.305 3.93757   1
   0   6  -4 142.508 3.75628   1
  -1  -6  -4 120.199 3.44726   1
   1  -6   4 117.715 3.18493   3
   1  -6   4 120.217 3.18396   2
   1  -6   4 116.038 3.21390   1
   1  -6   4 116.898 3.21754   1
  -1  -6  -4 117.970 3.40733   3
   1  -6   4 116.150 3.24748   3
  -1   6  -4 119.724 3.08086   3
   1   6   4 119.048 3.43419   3
   1   6   4 115.547 3.34387   2
   1   6   4 116.962 3.45891   1
   2  -6   4 117.421 3.11075   3
  -2  -6  -4 115.244 3.38961   2
   2  -6   4 114.988 3.16455   3
  -2  -6  -4 119.944 3.47631   1
  -2  -6  -4 116.544 3.49597   3
   2  -6   4 115.390 3.14780   2
   2  -6   4 117.727 3.15885   1
   2  -6   4 116.330 3.16601   1
   2   6   4 117.331 3.56132   3
   2   6   4 115.604 3.55794   1
   2   6   4 115.444 3.43694   2
   3  -6   4 58.1721 2.01558   1
  -3  -6  -4 59.9205 2.36844   2
   3  -6   4 59.9868 1.94562   3
  -3  -6  -4 60.4055 2.65447   1
   3  -6   4 60.1547 2.05676   2
   3  -6   4 59.0854 2.04603   1
   3  -6   4 59.2176 2.79599   3
  -3  -6  -4 59.1962 2.53649   3
   3   6   4 63.0617 2.70998   1
   3   6   4 59.5785 2.72862   3
   3   6   4 62.7681 2.54141   2
  -4  -6  -4 26.1380 2.19028   2
  -4  -6  -4 26.2523 1.95453   3
   4  -6   4 28.4559 1.75480   1
   4   6   4 32.0741 2.65293   2
   4   6   4 31.2092 2.18306   3
   4   6   4 23.3452 1.99297   1
   5  -6   4 -0.2265 1.28385   1
   5   6   4 4.09990 2.30695   1
   5   6   4 -2.5281 2.20853   3
   5   6   4 -0.5256 2.23662   2
   5  -7  -4 19.2712 2.27293   3
  -5  -7   4 20.2772 2.89868   3
   5  -7  -4 21.5090 2.31977   1
  -5  -7   4 24.0581 2.33562   2
   5   7  -4 21.8032 2.87978   3
   5   7  -4 25.6844 3.01083   2
   5   7  -4 22.9666 3.15451   1
  -4  -7   4 114.053 4.30698   3
   4  -7  -4 108.105 4.00213   2
   4  -7  -4 112.630 4.12057   1
  -4  -7   4 117.565 4.05546   2
  -4  -7   4 111.078 6.26597   1
   4   7  -4 124.049 7.09105   3
   4   7  -4 110.564 4.17671   2
   4   7  -4 107.923 4.94315   1
  -3  -7   4 186.183 5.42086   3
   3  -7  -4 186.692 5.30245   1
  -3  -7   4 183.297 5.57077   1
   3  -7  -4 190.452 5.33532   3
   3  -7  -4 184.920 5.19140   2
  -3  -7   4 182.923 5.28466   2
   3   7  -4 182.350 5.64383   1
   3   7  -4 190.056 5.50842   3
  -3   7   4 178.875 5.08301   3
   3   7  -4 188.628 5.29521   2
  -2  -7   4 240.097 6.33687   3
   2  -7  -4 231.516 6.22309   3
  -2  -7   4 244.112 6.39691   1
   2  -7  -4 236.962 6.16015   2
   2  -7  -4 237.562 6.26542   1
  -2  -7   4 226.392 6.22862   2
   2   7  -4 233.624 6.19406   2
   2   7  -4 231.355 6.33494   3
  -2   7   4 236.330 6.04416   2
  -2   7   4 229.038 6.23159   3
  -2   7   4 231.341 6.13762   1
   2   7  -4 235.875 6.41976   1
  -1  -7   4 37.3605 1.89812   1
  -1  -7   4 33.7603 1.84896   3
  -1  -7   4 35.3395 1.77641   2
   1  -7  -4 34.5496 1.71161   2
   1   7  -4 33.7127 1.88805   3
  -1   7   4 33.7251 1.89265   3
  -1   7   4 34.5025 1.67447   2
  -1   7   4 31.2455 1.85975   1
   1   7  -4 36.0383 1.65480   2
   1   7  -4 39.2704 1.83649   1
   0  -7   4 919.396 22.1622   2
   0  -7   4 905.247 22.1694   3
   0  -7  -4 907.700 22.2371   3
   0  -7  -4 916.385 22.2111   2
   0  -7   4 919.676 22.1970   1
   0  -7  -4 909.041 22.2629   1
   0  -7   4 908.212 22.1970   1
   0   7  -4 922.676 22.0246   2
   0   7  -4 913.113 22.0463   1
   0   7   4 939.190 22.2212   1
   0   7  -4 920.129 22.1004   3
   0   7  -4 928.005 22.0722   2
   0   7   4 889.286 22.1691   2
   0   7   4 909.145 22.2213   3
   1  -7   4 222.638 5.93055   3
   1  -7   4 232.333 5.80456   2
   1  -7   4 224.566 5.78789   3
   1  -7   4 218.421 5.84851   1
  -1  -7  -4 223.980 5.92490   2
  -1  -7  -4 223.651 6.00505   1
  -1  -7  -4 224.459 5.98509   3
   1  -7   4 226.398 5.81864   1
  -1   7  -4 224.252 5.66767   3
   1   7   4 231.264 6.06243   3
   1   7   4 220.892 5.92254   2
   1   7   4 225.922 6.02804   1
  -2  -7  -4 68.3424 2.76480   3
  -2  -7  -4 69.1756 2.86651   1
   2  -7   4 68.7567 2.26720   1
  -2  -7  -4 65.7457 2.51408   2
   2  -7   4 65.2332 2.32349   1
   2  -7   4 67.5263 2.28736   2
   2  -7   4 70.3312 2.19102   3
   2   7   4 66.1610 2.84845   1
   2   7   4 68.4594 2.61056   2
   2   7   4 67.8368 2.80582   3
  -3  -7  -4 75.3773 3.16134   3
  -3  -7  -4 73.0766 3.15927   1
   3  -7   4 74.9256 2.55594   1
  -3  -7  -4 71.5781 2.79937   2
   3  -7   4 70.5810 2.41840   3
   3   7   4 74.5546 3.26161   3
   3   7   4 72.6133 3.03214   2
   3   7   4 73.4551 3.39971   1
   4  -7   4 11.8083 1.27750   1
  -4  -7  -4 10.0082 1.64423   2
  -4  -7  -4 8.53151 2.00769   3
   4   7   4 10.2695 2.22533   1
   4   7   4 8.79458 1.98781   3
   4   7   4 8.49689 2.04954   2
   5  -7   4 -0.1984 1.54181   1
   5   7   4 2.04570 2.87457   1
   5   7   4 -0.3168 2.70750   3
   5   7   4 5.12685 2.64166   2
   5  -8  -4 63.7407 4.73572   3
  -5  -8   4 68.8703 4.51709   3
  -5  -8   4 69.8477 4.65229   2
   5  -8  -4 70.8807 4.77066   1
   5   8  -4 93.8400 7.81439   1
   5   8  -4 77.4076 5.57952   2
   5   8  -4 61.2195 4.09452   3
  -4  -8   4 68.6753 4.09749   3
   4  -8  -4 64.6078 3.56202   2
  -4  -8   4 69.9165 3.61228   2
   4  -8  -4 67.8967 3.73747   1
   4  -8  -4 67.3439 3.61764   3
   4   8  -4 67.0450 4.80253   1
   4   8  -4 72.9953 3.89650   2
   4   8  -4 75.1171 4.65178   3
  -3  -8   4 25.3773 1.87272   2
  -3  -8   4 23.7551 1.89092   3
   3  -8  -4 28.3353 2.31725   2
  -3  -8   4 20.5792 1.99277   1
   3  -8  -4 23.2153 1.78441   1
   3  -8  -4 25.4660 1.78892   3
   3   8  -4 27.5782 2.40084   2
   3   8  -4 24.3825 2.15470   1
   3   8  -4 20.4031 2.01164   3
  -2  -8   4 0.21200 1.13011   2
   2  -8  -4 1.31129 1.12653   1
   2  -8  -4 1.12056 1.12376   2
   2  -8  -4 3.08986 1.14281   3
  -2  -8   4 1.46421 1.17718   3
  -2  -8   4 1.13345 1.18233   1
   2   8  -4 -1.7594 1.39082   1
   2   8  -4 1.03160 1.31427   3
  -2   8   4 1.02530 1.24503   3
   2   8  -4 1.50084 1.14728   2
  -2   8   4 4.50934 1.06380   2
  -1  -8   4 72.5172 2.75789   3
   1  -8  -4 75.2226 2.81889   1
   1  -8  -4 72.0050 2.63919   2
  -1  -8   4 75.4069 2.71433   2
  -1  -8   4 71.5940 2.78615   1
   1   8  -4 76.9233 2.59056   2
  -1   8   4 73.3145 2.84692   1
  -1   8   4 71.4170 2.83101   3
   1   8  -4 69.7067 2.82210   3
   1   8  -4 77.2697 2.86359   1
  -1   8   4 69.1542 2.58731   2
   0  -8   4 22.7782 1.77673   1
   0  -8   4 25.3885 1.72350   2
   0  -8  -4 22.6259 1.73110   2
   0  -8  -4 21.5039 1.96118   1
   0  -8   4 24.6218 1.71697   3
   0  -8  -4 24.2373 1.85405   3
   0   8  -4 26.4535 1.49049   2
   0   8   4 24.4920 2.11341   3
   0   8   4 23.2781 1.73079   1
   0   8   4 22.2655 1.67616   2
  -1  -8  -4 66.7867 2.77312   1
   1  -8   4 68.4950 2.43234   2
   1  -8   4 67.2938 2.45279   1
  -1  -8  -4 65.3914 2.55115   2
   1  -8   4 67.5704 2.39987   3
  -1  -8  -4 66.8903 2.70706   3
  -1   8  -4 67.7348 2.37561   3
   1   8   4 71.3127 3.06712   1
   1   8   4 69.8844 2.91927   3
   1   8   4 64.8701 2.59431   2
  -2  -8  -4 285.966 7.55807   3
  -2  -8  -4 276.900 7.37771   2
   2  -8   4 270.948 7.16951   2
  -2  -8  -4 269.423 7.52839   1
   2  -8   4 278.480 7.12850   3
   2  -8   4 284.238 7.21364   1
   2   8   4 287.986 7.61292   3
   2   8   4 284.687 7.66065   1
   2   8   4 274.314 7.43262   2
   3  -8   4 141.825 4.18795   3
  -3  -8  -4 146.892 4.54584   2
   3  -8   4 152.677 4.40056   1
  -3  -8  -4 144.949 4.96302   3
   3   8   4 136.368 5.37439   2
   3   8   4 147.760 5.09482   1
   3   8   4 149.435 6.33516   3
   4  -8   4 37.3199 2.69687   1
  -4  -8  -4 39.9487 3.07890   3
  -4  -8  -4 42.4309 3.17335   2
   4   8   4 38.4737 2.92596   1
   4   8   4 39.0643 2.70367   2
   4   8   4 45.0778 2.96916   3
   5  -8   4 2.19735 1.89025   1
   5   8   4 -1.3529 3.22013   2
   5   8   4 1.18577 3.71086   1
   5   8   4 -2.2928 3.52908   3
   4  -9  -4 12.0721 2.50381   2
   4  -9  -4 10.3867 2.28386   1
   4  -9  -4 13.0885 2.31490   3
  -4  -9   4 10.2383 2.12456   2
  -4  -9   4 15.8394 2.79660   3
   4   9  -4 12.7036 2.45996   2
   4   9  -4 15.2006 2.94043   3
  -3  -9   4 21.4770 2.15713   3
   3  -9  -4 25.9717 2.00621   3
  -3  -9   4 17.6325 1.87511   2
   3  -9  -4 21.8638 1.90213   2
  -3  -9   4 26.8288 2.33595   1
   3  -9  -4 22.6459 2.05763   1
   3   9  -4 20.2979 2.05097   2
  -2  -9   4 22.5222 1.74008   3
  -2  -9   4 25.7963 1.94272   2
   2  -9  -4 22.3818 1.68099   2
   2  -9  -4 20.5360 1.70999   3
  -2  -9   4 21.4542 1.86918   1
   2  -9  -4 22.7425 1.79845   1
  -2   9   4 21.7383 1.61742   2
   2   9  -4 21.8440 2.06991   3
   2   9  -4 19.1159 1.62909   2
  -2   9   4 25.7127 2.06318   3
   1  -9  -4 77.8480 2.95591   2
  -1  -9   4 72.3423 3.02275   3
  -1  -9   4 74.5817 2.99384   2
  -1  -9   4 75.8625 3.14353   1
   1  -9  -4 80.2842 3.24789   1
   1  -9  -4 74.6662 3.08186   3
   1   9  -4 75.0094 2.89417   2
   1   9  -4 73.0411 3.34748   3
  -1   9   4 74.0026 3.32974   3
  -1   9   4 74.4506 2.90456   2
   0  -9  -4 34.8350 2.49563   1
   0  -9  -4 33.7483 2.25411   2
   0  -9   4 31.7406 2.17806   3
   0  -9  -4 35.0441 2.36265   3
   0  -9   4 34.2648 2.18791   2
   0  -9   4 28.3495 2.23454   1
   0   9  -4 31.7878 1.92697   2
   0   9  -4 32.6946 2.36066   3
   0   9   4 34.3892 2.60158   3
   0   9   4 38.6924 2.14718   2
  -1  -9  -4 24.9760 1.78328   3
   1  -9   4 23.5125 1.97261   1
   1  -9   4 23.4037 2.02410   2
  -1  -9  -4 22.0879 1.83946   1
   1  -9   4 25.5588 1.89681   3
  -1  -9  -4 21.1376 1.58291   2
   1   9   4 23.3118 1.89845   3
   1   9   4 24.3991 1.71027   2
   1   9   4 22.4209 1.93047   1
   2  -9   4 42.0223 2.42987   2
   2  -9   4 41.3008 2.27348   3
  -2  -9  -4 38.0310 3.03394   2
   2  -9   4 41.1832 3.24493   1
  -2  -9  -4 38.4923 2.89469   3
  -2  -9  -4 35.1845 3.14623   1
   2   9   4 33.2207 3.18525   2
   2   9   4 41.3217 3.56022   1
   2   9   4 50.4173 3.39823   3
  -3  -9  -4 201.378 5.94412   2
   3  -9   4 191.528 5.71594   1
   3  -9   4 191.038 5.59437   3
   3   9   4 200.531 6.20845   2
   3   9   4 204.218 6.97894   1
   3   9   4 207.161 6.54329   3
  -4  -9  -4 13.6773 2.43876   2
   4  -9   4 17.0468 2.05944   1
   4   9   4 23.0051 3.05894   3
   4   9   4 19.7635 2.99505   2
   4   9   4 16.9311 3.38245   1
  -4 -10   4 56.5932 4.65154   2
  -4 -10   4 61.5783 4.14906   3
   4 -10  -4 55.8978 4.98968   3
   4 -10  -4 53.4876 4.94955   1
   4  10  -4 66.8249 5.08289   2
   4  10  -4 63.5893 4.73145   3
  -3 -10   4 41.6250 3.44055   2
  -3 -10   4 37.6730 3.18995   1
  -3 -10   4 39.0708 2.83753   3
   3 -10  -4 50.6817 3.81276   3
   3 -10  -4 39.8970 2.73426   1
   3 -10  -4 45.6126 3.58377   2
   3  10  -4 35.5120 2.76161   2
   3  10  -4 37.9461 3.43917   3
   2 -10  -4 13.0284 1.89707   1
   2 -10  -4 14.0589 1.81559   3
  -2 -10   4 16.4242 1.99643   2
  -2 -10   4 14.1083 1.91419   3
   2 -10  -4 14.2110 2.06836   2
  -2  10   4 14.7626 1.64349   2
   2  10  -4 13.4001 2.27575   3
   2  10  -4 11.5647 1.91661   2
   1 -10  -4 17.9096 1.79912   3
  -1 -10   4 19.4843 1.93630   1
  -1 -10   4 18.1116 1.75477   3
   1 -10  -4 17.9860 2.09283   1
   1 -10  -4 19.2609 2.12210   2
  -1 -10   4 14.4137 1.92290   2
  -1  10   4 16.7149 1.64286   2
  -1  10   4 14.1847 1.99527   3
   1  10  -4 10.6511 2.01312   3
   1  10  -4 16.4108 1.61341   2
   0 -10   4 86.4138 4.13959   3
   0 -10  -4 98.4992 4.76553   3
   0 -10   4 91.9499 3.58974   2
   0  10   4 101.280 4.36782   3
   0  10  -4 91.1497 3.16994   2
   0  10   4 93.0246 3.57280   2
   1 -10   4 36.9017 2.61746   1
  -1 -10  -4 37.8671 2.57488   1
  -1 -10  -4 42.5392 2.81372   2
   1 -10   4 40.3680 2.67441   2
  -1 -10  -4 46.8066 3.11677   3
   1 -10   4 35.9141 2.58694   3
   1  10   4 43.0643 2.94085   2
   1  10   4 44.5849 3.61919   3
   2 -10   4 12.3720 1.58697   1
  -2 -10  -4 19.5933 2.78573   1
   2 -10   4 17.7389 1.88069   2
  -2 -10  -4 13.5363 1.82011   2
  -2 -10  -4 14.8933 2.05772   3
   2  10   4 15.9847 2.18637   2
   2  10   4 11.8769 2.90062   1
   2  10   4 13.8876 2.42494   3
  -3 -10  -4 3.97332 2.53513   3
  -3 -10  -4 7.44514 2.04882   2
   3 -10   4 3.03646 1.80372   3
   3 -10   4 6.04995 1.90514   1
   3  10   4 4.87764 2.84093   3
   3  10   4 7.39778 2.33448   2
   3  10   4 0.88186 3.53944   1
   3 -11  -4 25.2881 2.83048   3
  -3 -11   4 15.4221 2.63437   2
   3 -11  -4 21.4406 3.16546   2
   3 -11  -4 27.3439 2.94674   1
  -3 -11   4 19.8839 3.06909   3
   3  11  -4 19.0750 3.96723   3
   3  11  -4 28.6789 3.34372   2
  -2 -11   4 304.265 8.78386   3
   2 -11  -4 307.222 8.78103   3
  -2 -11   4 298.902 8.69879   2
  -2 -11   4 308.084 9.20448   1
   2 -11  -4 301.857 8.83176   1
   2 -11  -4 291.452 8.55175   2
   2  11  -4 307.420 9.69772   3
   2  11  -4 301.093 8.46639   2
  -1 -11   4 179.708 5.91332   2
  -1 -11   4 185.538 5.96586   3
   1 -11  -4 190.270 6.08353   3
   1 -11  -4 182.116 5.96108   2
   1 -11  -4 185.302 6.33473   1
  -1 -11   4 185.064 6.13792   1
  -1  11   4 183.298 5.73655   2
   1  11  -4 181.552 5.75540   2
   0 -11  -4 90.8928 4.01149   2
   0 -11   4 83.9119 3.91503   2
   0 -11   4 94.9906 4.06963   1
   0 -11   4 93.8495 3.94714   3
   0  11   4 93.6698 3.92680   2
   0  11   4 94.0242 5.06313   3
   1 -11   4 16.7128 1.97293   1
  -1 -11  -4 20.7656 2.62539   1
   1 -11   4 14.5490 1.75590   3
   1 -11   4 16.7178 2.13989   2
  -1 -11  -4 19.9590 2.29659   2
  -1 -11  -4 15.3767 2.18628   3
   1  11   4 15.7926 2.29676   2
   1  11   4 15.2959 2.74531   3
  -2 -11  -4 15.0132 2.48676   3
   2 -11   4 15.7602 1.98029   1
   2 -11   4 17.0447 2.07708   3
  -2 -11  -4 17.8403 2.36395   2
   2  11   4 15.1371 2.63020   2
   2  11   4 19.0873 3.24111   3
   3 -11   4 17.3926 3.38543   3
  -3 -11  -4 12.4836 2.72303   2
   3 -11   4 14.1469 2.53784   1
  -3 -11  -4 14.4107 3.31983   3
   3  11   4 14.2041 3.53502   3
   3  11   4 22.0752 3.28832   2
  -2 -12   4 19.3879 3.12451   2
  -2 -12   4 25.6338 3.17490   3
   2 -12  -4 20.4195 3.35229   1
   2 -12  -4 21.3944 3.38699   3
  -2 -12   4 16.4848 3.44272   1
   2 -12  -4 23.3783 2.92246   2
   2  12  -4 23.8690 3.02850   2
  -1 -12   4 146.297 6.03430   1
   1 -12  -4 138.223 5.92188   3
   1 -12  -4 137.087 5.67673   2
  -1 -12   4 132.117 5.68060   3
   1 -12  -4 147.427 6.33573   1
  -1 -12   4 144.813 5.64858   2
   0 -12   4 57.4457 4.33330   1
   0 -12  -4 65.4565 4.78364   3
   0 -12  -4 61.0303 4.26453   2
   0 -12  -4 67.2191 5.77849   1
   0 -12   4 58.1442 4.29871   2
   0 -12   4 58.2685 4.38633   3
   0  12   4 57.3295 4.67292   2
   1 -12   4 26.1197 2.43033   3
  -1 -12  -4 24.0039 2.73515   2
  -1 -12  -4 29.8709 2.99274   3
   1 -12   4 26.6622 3.07958   2
   1 -12   4 23.3903 2.55998   1
   1  12   4 29.9988 3.02553   2
   1  12   4 21.7290 4.34513   3
   6   0  -5 8.90080 2.10850   3
   6   0  -5 7.11252 2.19075   1
   6   0  -5 7.66643 2.13476   2
  -5   0   5 9.09889 1.25619   2
   5   0  -5 8.56275 1.45776   1
   5   0  -5 6.46426 1.40015   3
   5   0  -5 7.66484 1.37373   2
  -5   0   5 8.04718 1.57175   3
  -4   0   5 2.22105 0.96699   3
   4   0  -5 2.07707 0.93166   3
   4   0  -5 1.86473 2.20501   1
  -4   0   5 2.10760 0.87244   2
  -4   0   5 3.14018 0.92557   1
   4   0  -5 3.15940 0.93308   2
   4   0  -5 2.36747 0.96391   1
   3   0  -5 127.234 3.62853   1
   3   0  -5 148.475 4.35397   3
   3   0  -5 125.523 3.53892   3
  -3   0   5 125.730 3.43987   2
  -3   0   5 122.921 3.55747   2
   3   0  -5 125.145 3.55270   1
  -3   0   5 128.788 3.47316   1
  -3   0   5 124.503 3.53512   3
   3   0  -5 123.509 3.47428   2
  -2   0   5 26.3609 1.31237   1
   2   0  -5 25.5152 1.24404   2
   2   0  -5 24.6235 1.37215   3
  -2   0   5 23.2892 1.38053   3
   2   0  -5 29.5785 1.27897   3
   2   0  -5 27.1980 1.17850   1
  -2   0   5 28.6151 1.17191   1
   2   0  -5 28.3234 1.24918   1
  -2   0   5 28.6904 1.20151   3
   2   0  -5 26.4413 1.12582   2
  -2   0   5 27.0515 1.19745   2
  -2   0   5 24.4340 1.23345   2
  -1   0   5 0.54490 0.37109   2
  -1   0   5 1.68129 0.42515   2
  -1   0   5 2.59261 0.39868   1
   1   0  -5 0.65287 0.32279   2
   1   0  -5 1.10143 0.35308   2
   1   0  -5 0.46925 0.39278   1
  -1   0   5 1.86988 0.41884   3
  -1   0   5 0.23773 0.39941   3
   1   0  -5 1.11808 0.40902   3
  -1   0   5 0.18510 0.34799   1
   1   0  -5 0.41875 0.38093   3
   0   0   5 760.644 18.3602   2
   0   0   5 788.617 18.3765   3
   0   0  -5 744.402 18.4306   2
   0   0  -5 750.943 18.3468   2
   0   0  -5 743.899 18.3630   3
   0   0   5 770.997 18.3744   1
   0   0   5 810.669 18.3652   2
   0   0   5 753.748 18.3696   3
   0   0  -5 779.825 18.3526   1
   0   0   5 752.036 18.3692   1
   0   0  -5 787.179 18.3605   3
   1   0   5 700.203 16.9039   2
   1   0   5 719.120 16.9193   1
  -1   0  -5 706.957 16.8876   3
   1   0   5 717.601 16.9167   3
   1   0   5 685.196 16.9126   3
   1   0   5 674.333 16.9102   1
   1   0   5 749.905 16.9124   2
   2   0   5 302.161 7.25071   1
   2   0   5 312.902 7.25005   2
   2   0   5 303.380 7.23824   2
   2   0   5 303.868 7.25096   3
   2   0   5 278.288 7.25501   1
   2   0   5 295.634 7.24156   3
   3   0   5 570.264 13.7154   3
   3   0   5 580.062 13.7148   2
   3   0   5 566.117 13.7093   3
   3   0   5 556.631 13.7294   1
   3   0   5 564.248 13.7500   2
   3   0   5 575.161 13.7327   1
   4   0   5 253.934 6.34049   3
   4   0   5 251.747 6.52176   3
   4   0   5 250.567 6.38543   1
   4   0   5 248.252 6.38813   1
   4   0   5 254.333 6.35641   2
   5   0   5 125.055 3.87606   1
   5   0   5 124.526 3.67998   3
   6   0   5 5.91878 1.86007   1
   6   0   5 8.56806 1.92078   3
   6  -1  -5 67.5687 4.20132   1
   6  -1  -5 62.8372 4.26991   2
   6  -1  -5 75.7816 4.24967   3
   6   1  -5 75.4658 4.23093   2
   6   1  -5 81.5009 4.62669   3
   6   1  -5 74.1247 4.44557   1
   5  -1  -5 58.3807 2.91620   1
   5  -1  -5 58.7170 2.91652   3
  -5  -1   5 57.1712 2.51879   2
   5  -1  -5 56.8214 2.80462   2
  -5  -1   5 49.6669 2.91836   3
   5   1  -5 53.4557 2.89609   2
   5   1  -5 60.7218 3.01064   1
   5   1  -5 55.9125 2.98456   3
   4  -1  -5 14.5950 1.15779   3
  -4  -1   5 15.3446 1.19814   3
  -4  -1   5 14.7708 1.10839   2
   4  -1  -5 12.6033 1.08422   2
   4  -1  -5 14.2751 1.21661   1
  -4  -1   5 14.7528 1.14866   1
   4   1  -5 12.4276 1.19667   1
  -4   1   5 16.1047 1.15665   1
   4   1  -5 13.9961 1.17783   2
   4   1  -5 13.1080 1.20105   3
  -4   1   5 15.9361 1.07788   2
   3  -1  -5 6.45352 0.79847   1
  -3  -1   5 5.94375 0.80643   3
   3  -1  -5 6.20904 0.79163   3
   3  -1  -5 6.27728 1.03722   3
   3  -1  -5 6.73974 0.91176   1
  -3  -1   5 6.13124 0.78996   2
  -3  -1   5 7.60074 0.79454   1
   3  -1  -5 6.54334 0.74429   2
  -3   1   5 6.75690 0.91837   2
   3   1  -5 7.20432 0.86266   1
   3   1  -5 6.80786 0.83235   3
  -3   1   5 7.16600 0.73797   1
  -3   1   5 6.33641 0.72856   2
   3   1  -5 7.64741 1.06399   1
   3   1  -5 5.47839 0.76488   2
  -3   1   5 7.05204 0.76496   3
   2  -1  -5 91.5679 2.61302   2
   2  -1  -5 94.9850 2.63491   3
   2  -1  -5 92.6661 2.58235   2
  -2  -1   5 92.3306 2.58196   2
  -2  -1   5 92.0465 2.68675   1
   2  -1  -5 97.9499 2.62746   1
  -2  -1   5 90.5823 2.71553   3
  -2  -1   5 98.1757 2.65228   3
   2  -1  -5 92.2065 2.60775   3
  -2  -1   5 94.5675 2.62163   2
   2  -1  -5 91.1715 2.63115   1
  -2  -1   5 94.9797 2.61664   1
  -2   1   5 93.1698 2.68236   3
   2   1  -5 94.1915 2.71199   3
   2   1  -5 91.7487 2.60115   2
  -2   1   5 91.8808 2.66733   1
   2   1  -5 93.0605 2.69795   3
  -2   1   5 97.8161 2.59581   2
  -2   1   5 100.046 2.59682   1
  -2   1   5 88.0881 2.67655   2
  -2   1   5 99.4380 2.60689   3
   2   1  -5 96.5118 2.66086   1
   2   1  -5 93.2035 2.62345   1
   2   1  -5 95.7907 2.66094   2
   1  -1  -5 183.303 4.62059   3
  -1  -1   5 180.756 4.63173   1
  -1  -1   5 188.028 4.61172   2
   1  -1  -5 181.183 4.60796   2
   1  -1  -5 185.399 4.63662   1
  -1  -1   5 189.247 4.64241   3
  -1  -1   5 184.607 4.63555   3
  -1  -1   5 178.339 4.61225   2
   1  -1  -5 183.834 4.63297   3
   1  -1  -5 188.102 4.60984   2
  -1  -1   5 186.971 4.64554   1
   1  -1  -5 189.493 4.62857   1
  -1   1   5 183.555 4.63047   1
   1   1  -5 186.772 4.62926   1
   1   1  -5 181.606 4.60196   2
   1   1  -5 190.195 4.64098   3
  -1   1   5 181.132 4.61055   2
   1   1  -5 191.103 4.63268   1
  -1   1   5 187.503 4.64377   3
   1   1  -5 186.892 4.60856   2
  -1   1   5 184.674 4.63312   3
  -1   1   5 186.892 4.64267   1
   1   1  -5 178.671 4.62752   3
  -1   1   5 192.726 4.61951   2
   0  -1  -5 2484.64 57.8042   1
   0  -1   5 2412.64 57.6314   3
   0  -1  -5 2463.70 57.7352   2
   0  -1  -5 2421.10 57.7360   2
   0  -1   5 2407.32 57.5058   2
   0  -1  -5 2316.17 57.5380   1
   0  -1   5 2323.37 57.6618   1
   0  -1   5 2287.77 57.5147   1
   0  -1   5 2438.39 57.6650   2
   0  -1  -5 2427.38 57.6833   3
   0  -1   5 2392.49 57.6040   3
   0  -1  -5 2466.31 57.6571   3
   0   1  -5 2499.97 57.6893   2
   0   1  -5 2532.52 57.6340   1
   0   1   5 2382.39 57.8489   2
   0   1  -5 2421.19 57.6471   2
   0   1   5 2405.23 57.5434   3
   0   1   5 2362.86 57.6264   3
   0   1  -5 2363.53 57.6055   3
   0   1   5 2403.23 57.7713   1
   0   1  -5 2491.49 57.6188   3
   0   1   5 2384.07 57.5486   1
   0   1   5 2451.18 57.5375   2
   0   1  -5 2419.42 57.6325   1
   1  -1   5 145.599 3.60213   3
  -1  -1  -5 151.201 3.66115   1
  -1  -1  -5 149.682 3.67845   3
  -1  -1  -5 146.063 3.66117   1
  -1  -1  -5 154.824 3.64773   2
  -1  -1  -5 144.472 3.64306   2
   1  -1   5 150.028 3.60529   3
   1  -1   5 151.387 3.59421   1
   1  -1   5 150.809 3.60070   1
  -1  -1  -5 145.557 3.67848   3
   1   1   5 151.899 3.70075   3
   1   1   5 152.739 3.69444   2
   1   1   5 139.300 3.68535   1
   1   1   5 149.055 3.68180   2
   1   1   5 147.693 3.69885   3
   1   1   5 144.677 3.69910   1
   2  -1   5 140.876 3.45479   3
   2  -1   5 140.491 3.45222   3
   2  -1   5 141.933 3.45584   1
  -2  -1  -5 140.146 3.57007   3
   2   1   5 139.132 3.60461   1
   2   1   5 138.234 3.59646   1
   2   1   5 144.240 3.57809   2
   2   1   5 143.657 3.62517   2
   2   1   5 150.695 3.61850   3
   3  -1   5 25.8935 0.95242   3
  -3  -1  -5 24.1474 1.19912   3
  -3  -1  -5 24.3386 0.96881   3
   3  -1   5 24.8081 0.99428   1
   3  -1   5 24.1069 0.94859   3
   3  -1   5 25.2452 0.98337   1
   3   1   5 25.8401 1.16810   2
   3   1   5 25.2231 1.24482   1
   3   1   5 27.3017 1.19626   3
   3   1   5 27.4897 1.29570   3
   3   1   5 25.0152 1.22739   1
   4  -1   5 79.9170 2.41622   1
   4  -1   5 80.0777 2.41679   3
   4  -1   5 82.8726 2.44283   1
   4  -1   5 80.5012 2.32407   3
   4   1   5 80.8773 2.63542   1
   4   1   5 84.8925 2.57103   3
   4   1   5 83.2388 2.63730   2
   4   1   5 82.2724 2.73541   1
   5  -1   5 48.0520 2.03851   3
   5  -1   5 47.6443 2.21481   1
   5   1   5 44.2127 2.47593   3
   5   1   5 46.3861 2.77132   2
   5   1   5 46.5514 2.85097   1
   6  -1   5 16.3543 1.85730   1
   6   1   5 13.4427 2.18930   1
   6   1   5 12.2125 2.06540   3
   6  -2  -5 51.6048 3.81512   3
   6  -2  -5 46.0987 3.95800   1
   6  -2  -5 52.4627 4.18050   2
   6   2  -5 54.0616 4.32951   3
   6   2  -5 43.2650 3.92361   2
   6   2  -5 51.6018 4.32201   1
  -5  -2   5 10.7415 1.30939   2
   5  -2  -5 10.7738 1.54270   3
   5  -2  -5 10.3792 1.49402   2
   5  -2  -5 12.3848 1.54537   1
  -5  -2   5 9.07147 1.51659   3
   5   2  -5 9.16390 1.60798   3
   5   2  -5 11.5026 1.53403   2
   5   2  -5 12.2997 1.63944   1
   4  -2  -5 166.850 4.67475   3
  -4  -2   5 164.176 4.67344   1
  -4  -2   5 170.958 4.70053   3
  -4  -2   5 168.779 4.60804   2
   4  -2  -5 164.462 4.69249   1
   4  -2  -5 168.070 4.63449   2
   4   2  -5 165.401 4.67360   2
   4   2  -5 172.476 4.78682   3
  -4   2   5 160.522 4.57650   1
  -4   2   5 169.871 4.57178   3
  -4   2   5 170.221 4.44137   2
   4   2  -5 167.117 4.81380   1
  -3  -2   5 226.757 5.79373   1
   3  -2  -5 233.812 5.83169   1
   3  -2  -5 222.220 5.72938   2
   3  -2  -5 219.473 5.77989   1
   3  -2  -5 218.791 5.87908   3
  -3  -2   5 219.917 5.76089   2
  -3  -2   5 218.960 5.80065   3
   3  -2  -5 220.646 5.77130   3
  -3   2   5 229.550 5.69825   2
   3   2  -5 222.880 5.82238   3
   3   2  -5 219.814 5.76143   2
   3   2  -5 220.225 5.98260   1
  -3   2   5 223.907 5.66994   2
   3   2  -5 223.123 5.83349   1
  -3   2   5 232.073 5.70087   1
  -3   2   5 227.477 5.72920   3
   2  -2  -5 779.363 19.3825   1
  -2  -2   5 786.469 19.3798   2
  -2  -2   5 815.431 19.4194   1
   2  -2  -5 811.358 19.3691   3
  -2  -2   5 735.637 19.4728   3
   2  -2  -5 834.891 19.3808   1
  -2  -2   5 837.636 19.3956   2
  -2  -2   5 797.223 19.3963   1
   2  -2  -5 787.624 19.3761   3
  -2   2   5 821.131 19.3684   3
  -2   2   5 795.724 19.3400   2
   2   2  -5 791.568 19.4031   3
  -2   2   5 804.919 19.3472   1
   2   2  -5 798.275 19.3994   3
   2   2  -5 799.174 19.3792   2
   2   2  -5 818.646 19.4068   1
  -2   2   5 844.618 19.3473   2
   2   2  -5 799.538 19.4031   1
   1  -2  -5 969.574 23.2514   3
   1  -2  -5 997.990 23.2606   1
  -1  -2   5 993.904 23.2629   3
  -1  -2   5 951.264 23.2585   3
  -1  -2   5 936.498 23.2574   1
   1  -2  -5 942.978 23.2425   2
   1  -2  -5 928.914 23.2576   3
  -1  -2   5 949.383 23.2484   2
   1  -2  -5 991.829 23.2430   2
  -1  -2   5 992.519 23.2448   2
   1  -2  -5 936.643 23.2643   1
  -1  -2   5 982.633 23.2639   1
  -1   2   5 939.096 23.2558   3
  -1   2   5 987.430 23.2601   3
   1   2  -5 935.781 23.2280   2
  -1   2   5 1004.12 23.2685   1
   1   2  -5 952.175 23.2487   1
   1   2  -5 976.324 23.2486   3
  -1   2   5 951.361 23.2537   1
   1   2  -5 986.426 23.2442   1
  -1   2   5 964.325 23.2467   2
   1   2  -5 1022.63 23.2441   2
  -1   2   5 1019.82 23.2486   2
   1   2  -5 954.894 23.2547   3
   0  -2  -5 124.111 3.12742   1
   0  -2   5 117.354 3.05084   1
   0  -2   5 120.703 3.04484   2
   0  -2   5 125.127 3.04306   2
   0  -2   5 122.494 3.05858   3
   0  -2  -5 121.886 3.12298   3
   0  -2  -5 122.932 3.10591   1
   0  -2   5 119.641 3.05938   3
   0  -2   5 116.672 3.05295   1
   0  -2  -5 121.687 3.11033   3
   0  -2  -5 126.605 3.08449   2
   0  -2  -5 118.475 3.08690   2
   0   2   5 120.221 3.11810   3
   0   2  -5 121.953 3.00239   2
   0   2  -5 121.037 3.04021   3
   0   2  -5 120.723 3.01084   1
   0   2  -5 122.169 3.00091   2
   0   2  -5 122.595 3.01486   1
   0   2  -5 124.122 3.04705   3
   0   2   5 115.765 3.08657   2
   0   2   5 125.843 3.13621   1
   0   2   5 117.648 3.11577   1
  -1  -2  -5 275.165 6.72313   1
  -1  -2  -5 277.138 6.73357   3
  -1  -2  -5 280.012 6.73389   3
   1  -2   5 275.139 6.59733   1
  -1  -2  -5 272.018 6.70249   2
   1  -2   5 271.440 6.60446   3
  -1  -2  -5 273.246 6.71988   1
   1  -2   5 267.207 6.59452   1
   1  -2   5 273.440 6.60564   3
  -1  -2  -5 288.967 6.71040   2
   1   2   5 275.276 6.74804   1
   1   2   5 278.482 6.74309   2
   1   2   5 281.835 6.73394   2
   1   2   5 280.332 6.74978   3
   1   2   5 265.955 6.73542   3
   1   2   5 263.130 6.73722   1
  -2  -2  -5 275.340 6.86412   3
  -2  -2  -5 278.884 6.76796   2
  -2  -2  -5 287.172 6.77537   2
  -2  -2  -5 274.368 6.78488   1
  -2  -2  -5 271.889 6.81454   3
   2   2   5 272.970 6.86181   3
   2   2   5 285.640 6.88215   3
   2   2   5 275.646 6.86714   1
   2   2   5 280.071 6.84793   2
   2   2   5 278.945 6.88911   2
   2   2   5 273.383 6.87349   1
  -3  -2  -5 122.242 3.22611   3
   3  -2   5 121.598 3.05890   1
  -3  -2  -5 123.560 3.14043   1
   3  -2   5 125.214 3.05509   1
   3   2   5 126.368 3.37383   1
   3   2   5 120.841 3.40792   3
   3   2   5 111.995 3.58878   2
   3   2   5 125.571 3.42021   1
   3   2   5 119.901 3.33740   3
   4  -2   5 29.6103 1.36553   1
   4  -2   5 31.6225 1.15424   3
   4  -2   5 29.5558 1.19670   3
   4  -2   5 30.2351 1.33725   1
   4   2   5 28.7152 1.79200   2
   4   2   5 32.6497 1.84491   1
   4   2   5 34.5550 1.78906   3
   5  -2   5 15.7671 1.16820   1
   5   2   5 17.3977 1.73500   2
   5   2   5 15.5261 1.92512   1
   5   2   5 18.3513 1.65343   3
   6  -2   5 -0.1394 1.56271   1
   6   2   5 1.47392 2.09664   3
   6   2   5 -0.6839 2.11994   1
   6  -3  -5 44.6976 3.12724   2
   6  -3  -5 44.3614 2.90384   3
   6  -3  -5 51.4108 4.12081   1
   6   3  -5 53.4895 4.66175   3
   6   3  -5 55.7700 4.92930   1
   6   3  -5 47.8475 4.09444   2
  -5  -3   5 17.1644 1.81425   3
   5  -3  -5 15.2638 1.92374   1
   5  -3  -5 12.5476 1.56315   3
  -5  -3   5 15.2389 1.47641   2
   5  -3  -5 13.7258 1.66329   2
   5   3  -5 12.9743 1.61643   2
   5   3  -5 12.2479 1.78519   1
   5   3  -5 12.0694 2.06919   3
   4  -3  -5 139.323 4.12100   1
  -4  -3   5 139.187 4.01935   2
   4  -3  -5 139.327 4.08382   3
   4  -3  -5 140.769 4.03968   2
  -4  -3   5 134.092 4.16723   3
  -4  -3   5 136.943 4.14226   1
  -4   3   5 138.089 3.95055   3
   4   3  -5 135.533 4.23917   1
   4   3  -5 137.539 4.08432   2
   4   3  -5 140.072 4.24065   3
   3  -3  -5 142.447 3.97867   3
   3  -3  -5 143.416 4.15408   3
   3  -3  -5 144.639 4.04475   1
   3  -3  -5 145.753 3.93698   2
   3  -3  -5 143.484 4.00018   1
  -3  -3   5 147.346 4.07466   3
  -3  -3   5 144.481 3.99740   2
  -3  -3   5 147.593 4.04384   1
   3   3  -5 141.767 4.07872   1
  -3   3   5 146.893 3.93010   2
   3   3  -5 144.610 3.98657   2
  -3   3   5 146.021 3.85366   2
  -3   3   5 148.813 3.93400   3
   2  -3  -5 170.101 4.48799   3
   2  -3  -5 172.139 4.45828   3
  -2  -3   5 167.339 4.49263   3
  -2  -3   5 171.810 4.46881   2
   2  -3  -5 171.238 4.48057   1
  -2  -3   5 175.773 4.49262   1
   2  -3  -5 172.218 4.43246   2
   2  -3  -5 178.295 4.47104   1
  -2  -3   5 171.857 4.59121   1
   2   3  -5 168.507 4.50728   3
  -2   3   5 169.740 4.42706   3
   2   3  -5 169.533 4.43431   2
   2   3  -5 173.533 4.49299   1
  -2   3   5 174.472 4.42021   1
   2   3  -5 169.687 4.57121   1
  -2   3   5 170.673 4.41610   2
  -2   3   5 168.760 4.38694   2
  -1  -3   5 366.869 8.95248   1
   1  -3  -5 368.914 8.94252   3
   1  -3  -5 357.714 8.91551   2
   1  -3  -5 363.697 8.95829   1
   1  -3  -5 359.141 8.94039   2
   1  -3  -5 367.819 8.93716   1
  -1  -3   5 379.992 8.95895   1
  -1  -3   5 373.971 8.95887   3
   1   3  -5 367.032 8.93734   3
  -1   3   5 360.036 8.93797   3
   1   3  -5 371.675 8.92321   2
   1   3  -5 368.455 8.91916   1
  -1   3   5 361.164 8.95759   3
   1   3  -5 346.566 8.91101   2
  -1   3   5 364.818 8.93745   1
   1   3  -5 357.230 8.94486   3
   1   3  -5 370.195 8.94293   1
  -1   3   5 364.052 8.92093   2
   0  -3  -5 1290.42 30.9970   1
   0  -3  -5 1223.94 30.9843   2
   0  -3  -5 1295.94 31.0017   3
   0  -3  -5 1262.69 31.0063   1
   0  -3   5 1353.28 30.9415   2
   0  -3  -5 1302.30 30.9833   2
   0  -3   5 1280.16 30.9489   1
   0  -3   5 1256.07 30.9527   1
   0  -3   5 1307.11 30.9648   3
   0  -3   5 1261.78 30.9518   3
   0  -3   5 1285.08 30.9448   2
   0   3   5 1272.84 31.0076   3
   0   3   5 1370.23 31.0198   3
   0   3   5 1350.69 31.0194   1
   0   3   5 1275.98 31.0083   1
   0   3  -5 1271.32 30.9252   3
   0   3  -5 1281.39 30.8935   2
   0   3  -5 1319.22 30.9014   1
   0   3  -5 1248.78 30.9091   2
   0   3  -5 1320.71 30.9267   3
   0   3  -5 1283.38 30.9003   1
   0   3   5 1373.78 31.0056   2
  -1  -3  -5 487.528 11.4210   2
   1  -3   5 466.895 11.3023   3
   1  -3   5 473.204 11.3006   1
  -1  -3  -5 459.312 11.4469   3
   1  -3   5 474.744 11.3035   3
  -1  -3  -5 469.301 11.4417   3
   1  -3   5 481.345 11.3001   2
   1  -3   5 465.875 11.3033   1
  -1  -3  -5 455.010 11.4373   1
   1   3   5 479.734 11.4660   1
   1   3   5 462.409 11.4320   2
   1   3   5 479.652 11.4649   3
   1   3   5 468.141 11.4567   2
  -2  -3  -5 37.5763 1.42883   2
  -2  -3  -5 37.3945 1.37741   3
  -2  -3  -5 37.6834 1.32591   2
   2   3   5 38.7574 1.69602   3
   2   3   5 35.6089 1.47013   3
   2   3   5 38.1380 1.57780   1
   2   3   5 35.9282 1.46996   1
   2   3   5 36.2961 1.38532   2
  -3  -3  -5 69.9843 2.05069   2
  -3  -3  -5 70.4887 2.18304   3
  -3  -3  -5 70.7040 2.16052   2
   3   3   5 67.7732 2.63059   3
   3   3   5 69.5068 2.27058   2
   3   3   5 68.4367 2.34013   3
   3   3   5 70.9164 2.35299   1
   3   3   5 65.6277 2.48195   1
   4  -3   5 72.5556 2.15582   1
  -4  -3  -5 73.2939 2.54271   3
   4  -3   5 71.5744 2.11836   1
   4   3   5 74.6299 2.77425   3
   4   3   5 70.8103 2.76877   1
   4   3   5 74.3488 2.71265   2
   5  -3   5 32.4787 1.94974   1
   5   3   5 35.3035 2.90528   2
   5   3   5 36.6882 2.89641   1
   6  -3   5 0.95795 1.52787   1
   6   3   5 2.23313 2.46073   1
   6   3   5 0.28221 2.30703   3
   6  -4  -5 3.66232 2.42482   1
   6  -4  -5 4.55946 2.28655   3
  -6  -4   5 1.23704 2.79853   2
   6   4  -5 7.13264 2.85613   1
   6   4  -5 3.84586 2.67965   2
   6   4  -5 4.48766 2.65362   3
   5  -4  -5 31.0804 2.80076   2
  -5  -4   5 34.4484 2.28014   3
   5  -4  -5 32.0949 2.89737   1
  -5  -4   5 36.2982 2.61174   2
   5   4  -5 29.9406 2.32457   1
   5   4  -5 40.8055 3.32002   3
   4  -4  -5 6.31254 1.18080   2
   4  -4  -5 4.06157 1.11319   1
  -4  -4   5 4.33850 1.10281   2
   4  -4  -5 4.24688 1.16302   3
  -4  -4   5 5.33640 1.26717   1
  -4  -4   5 3.60980 1.18631   3
   4   4  -5 2.59072 1.33840   1
   4   4  -5 3.74201 1.25760   3
  -4   4   5 6.48588 1.09667   3
   4   4  -5 5.21405 1.26250   2
   3  -4  -5 26.1535 1.47947   2
  -3  -4   5 25.3567 1.79795   3
   3  -4  -5 24.4064 1.62694   3
  -3  -4   5 23.8321 1.76888   1
  -3  -4   5 23.7186 1.60744   2
   3  -4  -5 22.0935 1.91375   1
   3  -4  -5 25.3112 1.67134   1
  -3   4   5 25.5120 1.39186   2
  -3   4   5 24.9059 1.52665   3
  -3   4   5 25.9927 1.70135   2
   3   4  -5 25.7709 1.89493   3
  -3   4   5 24.0005 1.51457   1
   3   4  -5 24.7625 1.55921   2
   3   4  -5 24.3151 1.83165   1
  -2  -4   5 187.152 5.00444   1
   2  -4  -5 189.195 4.97194   1
  -2  -4   5 189.644 5.01165   3
   2  -4  -5 190.255 4.91990   2
   2  -4  -5 186.684 4.95288   3
  -2  -4   5 187.126 4.97262   2
   2  -4  -5 187.941 4.97355   1
   2  -4  -5 192.538 5.02832   3
  -2   4   5 197.309 4.93253   3
   2   4  -5 185.462 5.00094   3
  -2   4   5 197.348 4.91778   1
  -2   4   5 191.084 4.92541   2
   2   4  -5 190.096 4.92934   2
  -2   4   5 190.071 4.86377   2
   2   4  -5 191.811 4.99742   1
  -1  -4   5 262.737 6.79233   1
   1  -4  -5 262.708 6.75552   2
  -1  -4   5 274.745 6.79061   2
   1  -4  -5 271.302 6.81423   3
  -1  -4   5 270.300 6.79718   3
  -1  -4   5 272.388 6.83369   3
  -1  -4   5 278.470 6.80391   1
   1  -4  -5 266.132 6.79726   3
   1  -4  -5 270.467 6.79540   1
   1  -4  -5 272.027 6.81534   1
   1   4  -5 284.122 6.78979   2
  -1   4   5 275.106 6.79931   2
   1   4  -5 273.871 6.77204   3
  -1   4   5 272.136 6.78852   3
   1   4  -5 272.329 6.75263   1
  -1   4   5 269.949 6.75348   2
   1   4  -5 266.181 6.72560   2
  -1   4   5 275.253 6.78183   1
   0  -4   5 528.097 12.7219   2
   0  -4   5 529.922 12.7411   3
   0  -4   5 503.842 12.7352   1
   0  -4  -5 514.304 12.8037   1
   0  -4  -5 507.243 12.7735   2
   0  -4  -5 529.052 12.8190   3
   0  -4   5 524.224 12.7318   1
   0  -4  -5 509.421 12.8089   3
   0  -4   5 537.912 12.7401   3
   0  -4   5 528.146 12.7313   2
   0  -4  -5 519.534 12.7816   2
   0  -4  -5 526.511 12.8020   1
   0   4   5 517.371 12.7985   1
   0   4   5 519.747 12.8053   3
   0   4   5 568.560 12.9318   2
   0   4  -5 533.087 12.6702   1
   0   4   5 514.818 12.8144   1
   0   4  -5 520.984 12.6538   2
   0   4  -5 568.799 12.7505   1
   0   4   5 531.423 12.8337   3
   0   4  -5 509.908 12.7090   3
   0   4  -5 518.232 12.6963   3
   0   4  -5 539.718 12.6680   2
  -1  -4  -5 706.766 16.8791   2
  -1  -4  -5 689.650 16.9229   3
   1  -4   5 709.655 16.7521   2
  -1  -4  -5 697.026 16.8975   1
   1  -4   5 720.548 16.7475   2
   1  -4   5 674.687 16.7596   3
   1  -4   5 710.787 16.7547   3
   1  -4   5 686.036 16.7603   1
   1  -4   5 710.265 16.7579   1
  -1  -4  -5 694.145 16.8730   2
   1   4   5 691.665 16.9328   3
   1   4   5 685.743 16.8861   2
   1   4   5 679.145 16.9025   3
   1   4   5 703.954 16.9232   1
  -1   4  -5 711.920 16.6557   3
   2  -4   5 87.9082 2.26472   3
   2  -4   5 91.2937 2.26171   3
   2  -4   5 91.6446 2.29914   1
  -2  -4  -5 92.7308 2.73429   2
  -2  -4  -5 88.2469 2.61569   1
   2  -4   5 88.0550 2.29965   1
  -2  -4  -5 91.4971 2.62578   3
  -2  -4  -5 86.8360 2.54904   2
   2   4   5 90.6868 2.89179   1
   2   4   5 90.0674 2.69943   3
   2   4   5 86.3208 2.66282   1
  -3  -4  -5 8.53578 1.19471   2
  -3  -4  -5 12.8010 1.01046   1
  -3  -4  -5 12.4255 0.93850   2
  -3  -4  -5 12.8425 0.95501   3
   3   4   5 11.6877 1.00787   2
   3   4   5 12.4417 1.07923   3
   3   4   5 13.8325 1.50167   1
   3   4   5 10.5891 1.03895   1
   4  -4   5 20.3109 1.24251   1
   4  -4   5 17.4591 1.20529   1
  -4  -4  -5 22.3530 1.92465   3
   4   4   5 19.3779 1.54894   1
   4   4   5 20.2993 1.54752   3
   4   4   5 19.4440 1.50985   2
   5   4   5 17.9111 1.93249   3
   5   4   5 19.2497 2.05319   1
   5   4   5 16.5363 2.07582   2
   6   4   5 26.0861 2.95522   3
   6   4   5 23.2801 3.07226   1
  -6  -5   5 5.24338 3.03253   2
   6  -5  -5 2.70387 2.49154   3
   6  -5  -5 5.09064 2.62801   1
   6   5  -5 2.68518 3.35509   2
   6   5  -5 3.33109 3.06248   3
   6   5  -5 3.69765 3.47374   1
   5  -5  -5 4.34646 1.82739   2
  -5  -5   5 5.41459 1.98315   3
   5  -5  -5 5.27934 1.64216   3
  -5  -5   5 2.49605 1.59610   2
   5  -5  -5 3.74838 1.71456   1
   5   5  -5 5.22379 2.53002   1
   5   5  -5 3.70397 1.98711   3
   5   5  -5 3.27944 1.93963   2
   4  -5  -5 4.79310 1.23228   1
  -4  -5   5 3.75873 1.15978   2
   4  -5  -5 5.12212 1.24287   3
  -4  -5   5 4.77539 1.34732   3
   4  -5  -5 5.30230 1.28577   2
  -4  -5   5 4.31287 1.47395   1
   4   5  -5 4.95038 1.48608   1
   4   5  -5 5.77972 1.42712   3
  -4   5   5 5.31751 1.53232   3
   4   5  -5 3.00043 1.26362   2
  -3  -5   5 107.251 3.39792   3
   3  -5  -5 107.765 3.22559   2
   3  -5  -5 107.877 4.29727   1
   3  -5  -5 109.183 3.34655   1
  -3  -5   5 104.662 3.30712   2
   3  -5  -5 106.419 3.28408   3
  -3  -5   5 104.130 3.45035   1
   3   5  -5 102.704 3.27644   2
  -3   5   5 106.624 3.20334   3
  -3   5   5 108.999 3.21023   1
  -3   5   5 104.481 3.04394   2
   3   5  -5 111.326 3.46395   3
   3   5  -5 106.626 3.47456   1
  -2  -5   5 28.5059 1.66348   3
   2  -5  -5 27.4175 1.60777   1
  -2  -5   5 28.6131 1.64120   1
   2  -5  -5 31.2292 1.62093   3
   2  -5  -5 29.4925 1.82870   1
  -2  -5   5 28.4089 1.57025   2
   2  -5  -5 31.2629 1.47528   2
  -2   5   5 28.3555 1.74886   3
  -2   5   5 32.5561 1.54132   1
  -2   5   5 30.8462 1.41718   2
  -2   5   5 28.6733 1.72653   2
   2   5  -5 29.2540 1.66437   3
   2   5  -5 29.0676 1.50448   2
   2   5  -5 33.2356 1.70987   1
  -1  -5   5 287.283 7.41797   3
  -1  -5   5 301.869 7.42822   2
  -1  -5   5 313.810 7.60911   3
   1  -5  -5 294.514 7.43361   3
  -1  -5   5 300.001 7.46604   1
   1  -5  -5 290.414 7.44737   1
  -1  -5   5 285.858 7.42664   1
   1  -5  -5 290.157 7.44754   1
   1  -5  -5 291.533 7.39710   2
  -1   5   5 300.532 7.38366   2
  -1   5   5 298.943 7.41142   1
   1   5  -5 300.490 7.43846   2
  -1   5   5 295.599 7.42878   3
   1   5  -5 288.970 7.33705   2
   1   5  -5 287.723 7.39150   3
   1   5  -5 301.796 7.38716   1
   0  -5  -5 79.0249 2.51195   1
   0  -5  -5 74.6751 2.23487   2
   0  -5   5 73.0525 2.18458   1
   0  -5  -5 71.5056 2.27138   3
   0  -5   5 76.1672 2.16707   2
   0  -5   5 74.5121 2.22590   3
   0  -5   5 74.7508 2.18931   1
   0  -5   5 73.4478 2.16989   3
   0   5   5 73.3853 2.33039   3
   0   5  -5 67.8313 2.07456   2
   0   5   5 69.1997 2.20700   2
   0   5   5 72.9478 2.28902   1
   0   5  -5 73.5993 2.09949   3
   0   5  -5 73.7551 2.06132   1
   0   5  -5 76.1228 2.11099   2
   1  -5   5 24.9738 1.08385   3
   1  -5   5 27.6972 1.31667   2
   1  -5   5 26.1682 1.10905   2
  -1  -5  -5 26.8099 1.38091   1
   1  -5   5 26.3510 1.09466   1
  -1  -5  -5 26.7936 1.29252   2
   1  -5   5 24.8277 1.09703   1
   1  -5   5 26.7792 1.12961   3
   1   5   5 26.3900 1.42587   1
  -1   5  -5 26.9708 0.91374   3
   1   5   5 25.4436 1.46128   3
   1   5   5 25.1035 1.31765   2
  -1   5  -5 24.3979 1.05666   3
   1   5   5 23.9771 1.80281   1
  -2  -5  -5 17.3371 1.46770   3
   2  -5   5 17.9569 0.93613   3
   2  -5   5 19.2225 0.98136   1
  -2  -5  -5 20.5000 1.45497   1
  -2  -5  -5 20.5390 1.32449   2
   2  -5   5 19.6372 0.89012   3
   2  -5   5 18.0032 1.17737   2
   2  -5   5 20.1735 0.95461   1
   2   5   5 20.5899 1.49599   1
   2   5   5 16.7783 1.49667   1
   2   5   5 18.0512 1.51929   3
   2   5   5 21.4137 1.42315   2
  -3  -5  -5 306.145 7.96920   3
   3  -5   5 312.143 7.61506   1
  -3  -5  -5 308.778 7.85277   2
  -3  -5  -5 310.594 7.94039   1
   3   5   5 315.233 8.04289   3
   3   5   5 308.625 7.98329   2
   3   5   5 315.408 8.07289   1
   4  -5   5 32.1572 1.59998   1
   4  -5   5 33.2429 1.60021   1
  -4  -5  -5 32.6324 2.73381   3
  -4  -5  -5 35.8460 2.14769   2
   4   5   5 36.4773 2.50152   2
   4   5   5 32.8389 2.58186   3
   4   5   5 32.9430 2.60095   1
   5   5   5 77.8958 4.14501   2
   5   5   5 90.4857 4.24823   3
   5   5   5 78.4195 4.24092   1
  -5  -6   5 6.30607 1.91376   2
   5  -6  -5 6.07722 1.92925   3
   5  -6  -5 3.11993 1.87417   1
   5  -6  -5 5.01189 2.73449   2
   5   6  -5 6.34918 2.17659   2
   5   6  -5 6.11533 2.74194   1
   5   6  -5 6.24683 2.38943   3
   4  -6  -5 118.394 3.94544   3
  -4  -6   5 119.005 4.18778   3
  -4  -6   5 116.927 3.94000   2
  -4  -6   5 116.157 4.47697   1
   4  -6  -5 114.738 3.98917   1
   4  -6  -5 110.762 3.91268   2
   4   6  -5 121.755 4.10467   2
   4   6  -5 121.604 4.36526   3
   4   6  -5 115.028 4.49193   1
   3  -6  -5 378.938 9.76109   2
  -3  -6   5 383.343 9.93114   1
   3  -6  -5 389.203 9.85226   1
  -3  -6   5 394.727 9.93116   3
  -3  -6   5 390.205 9.86931   2
   3  -6  -5 391.742 9.80940   3
   3   6  -5 387.584 9.94118   3
  -3   6   5 384.669 9.56269   2
   3   6  -5 381.007 9.82105   2
  -3   6   5 378.601 9.72371   3
   3   6  -5 393.103 9.96089   1
   2  -6  -5 273.408 6.98946   2
  -2  -6   5 271.690 7.06027   2
   2  -6  -5 272.970 7.07410   1
  -2  -6   5 279.168 7.11904   3
   2  -6  -5 280.396 7.05843   3
  -2  -6   5 270.163 7.11337   1
   2  -6  -5 270.012 7.20145   1
  -2   6   5 270.959 7.00701   3
  -2   6   5 271.046 6.95050   1
   2   6  -5 259.974 7.26071   1
  -2   6   5 268.872 6.90978   2
   2   6  -5 278.984 7.01231   2
   2   6  -5 276.424 7.10343   3
   1  -6  -5 268.576 6.89387   1
   1  -6  -5 263.190 6.95150   1
  -1  -6   5 264.832 6.83707   2
   1  -6  -5 263.661 6.86159   3
  -1  -6   5 265.942 6.96466   1
  -1  -6   5 263.217 6.86629   1
  -1  -6   5 268.440 6.85636   3
   1  -6  -5 270.738 6.83941   2
  -1   6   5 266.548 6.78373   2
  -1   6   5 272.536 6.84464   1
   1   6  -5 266.453 6.73547   2
   1   6  -5 275.624 6.79815   1
  -1   6   5 269.901 6.87239   3
   1   6  -5 267.671 6.82425   3
   0  -6   5 3.73267 0.70190   1
   0  -6  -5 3.43126 0.73871   2
   0  -6   5 4.52485 0.72897   3
   0  -6  -5 3.84766 0.81293   1
   0  -6   5 3.54714 0.70767   2
   0  -6   5 3.89060 0.90456   3
   0  -6   5 4.37386 0.79442   1
   0  -6  -5 2.16711 0.70949   3
   0   6  -5 4.28812 0.62668   2
   0   6  -5 4.84087 0.66408   1
   0   6  -5 3.78865 0.65990   3
   0   6   5 5.27726 0.82292   2
   0   6   5 4.84497 0.82375   3
   0   6  -5 3.69478 0.77933   2
   0   6   5 5.60411 0.88010   1
  -1  -6  -5 380.546 9.56501   3
   1  -6   5 377.379 9.39285   3
   1  -6   5 393.258 9.38851   2
   1  -6   5 386.689 9.41236   1
  -1  -6  -5 370.133 9.51172   2
   1  -6   5 380.512 9.39833   1
  -1  -6  -5 383.519 9.58374   1
   1  -6   5 383.018 9.37882   3
   1   6   5 377.920 9.52733   2
   1   6   5 381.625 9.59322   1
   1   6   5 383.754 9.59371   3
   2  -6   5 6.38091 0.71781   1
   2  -6   5 6.55120 0.69914   1
  -2  -6  -5 5.81125 0.97101   1
   2  -6   5 5.62747 0.61974   3
  -2  -6  -5 5.15550 0.90612   2
   2  -6   5 6.52866 0.70558   2
  -2  -6  -5 4.50297 0.94290   3
   2  -6   5 4.51085 0.72287   3
   2   6   5 4.91254 1.01118   1
   2   6   5 5.01542 0.97681   2
   2   6   5 6.02481 1.02620   3
   3  -6   5 6.39963 0.78695   1
   3  -6   5 5.09905 0.68865   3
   3  -6   5 6.27662 0.83400   1
  -3  -6  -5 3.54722 1.05261   2
  -3  -6  -5 4.67042 1.21831   1
   3  -6   5 5.05518 0.73075   3
  -3  -6  -5 4.85633 1.27012   3
   3   6   5 4.42466 1.19763   2
   3   6   5 4.44561 1.25559   1
   3   6   5 3.66350 1.23632   3
   4  -6   5 67.1231 2.39439   1
  -4  -6  -5 70.1713 2.95312   2
  -4  -6  -5 73.3608 3.69373   3
   4  -6   5 66.1376 2.67900   1
   4   6   5 58.4870 4.72219   3
   4   6   5 70.7903 3.39651   2
   4   6   5 69.8498 3.48820   1
   5   6   5 -0.7339 2.35955   1
   5   6   5 -2.1924 2.39649   3
   5   6   5 -1.1671 2.47271   2
   5  -7  -5 61.4587 4.29620   1
   5  -7  -5 73.7942 4.25136   3
  -5  -7   5 70.3900 4.91570   3
  -5  -7   5 56.1104 4.14699   2
   5   7  -5 66.0151 4.65067   2
   5   7  -5 73.1461 5.35372   3
   5   7  -5 64.2995 5.75484   1
   4  -7  -5 196.487 5.74336   1
   4  -7  -5 188.095 5.64187   3
  -4  -7   5 183.917 5.67029   2
   4  -7  -5 187.807 5.57878   2
  -4  -7   5 184.536 6.36928   1
  -4  -7   5 182.721 5.85728   3
   4   7  -5 189.256 6.50733   3
   4   7  -5 185.470 6.25999   1
   4   7  -5 190.415 5.77471   2
  -3  -7   5 285.741 7.68352   1
  -3  -7   5 266.955 7.39252   2
   3  -7  -5 285.903 7.41926   3
   3  -7  -5 277.954 7.44352   1
   3  -7  -5 277.848 7.30875   2
  -3  -7   5 283.955 7.52260   3
   3   7  -5 282.664 7.67338   1
  -3   7   5 273.040 7.07186   2
   3   7  -5 283.444 7.62536   3
  -3   7   5 259.379 7.58187   3
   3   7  -5 274.246 7.38241   2
  -2  -7   5 134.192 4.01009   3
  -2  -7   5 132.369 4.11672   1
   2  -7  -5 132.483 3.95215   1
   2  -7  -5 128.981 3.93808   3
   2  -7  -5 138.151 3.84584   2
  -2   7   5 128.187 3.85229   1
   2   7  -5 127.441 4.00944   3
  -2   7   5 124.886 3.74594   2
  -2   7   5 130.178 3.99611   3
   2   7  -5 130.633 3.86257   2
   1  -7  -5 115.824 3.48105   3
   1  -7  -5 113.524 3.52334   1
  -1  -7   5 113.078 3.47438   3
   1  -7  -5 112.192 3.38013   2
  -1  -7   5 112.365 3.48061   1
  -1  -7   5 112.343 3.40036   2
  -1   7   5 115.156 3.51313   3
   1   7  -5 117.489 3.44174   3
   1   7  -5 113.863 3.40282   1
  -1   7   5 116.722 3.46860   1
  -1   7   5 114.756 3.36563   2
   1   7  -5 114.079 3.27814   2
   0  -7   5 21.0007 1.50315   3
   0  -7  -5 21.3112 1.76589   1
   0  -7   5 21.3755 1.56700   1
   0  -7  -5 22.7104 1.54983   2
   0  -7   5 20.5902 1.49627   2
   0  -7  -5 23.0101 1.65321   3
   0  -7   5 21.1922 1.88304   1
   0   7  -5 21.8721 1.24799   2
   0   7  -5 22.5394 1.46153   3
   0   7  -5 21.8988 1.35051   2
   0   7   5 23.5905 1.48969   2
   0   7   5 23.3212 2.16911   1
   0   7   5 25.9965 1.85810   3
   0   7  -5 21.1103 1.46803   1
  -1  -7  -5 38.8355 1.85150   2
   1  -7   5 39.4908 1.71802   3
   1  -7   5 39.1771 1.71400   1
  -1  -7  -5 42.0900 2.03478   3
   1  -7   5 39.7034 1.89484   1
   1  -7   5 41.7205 2.16962   3
  -1  -7  -5 40.9655 2.09099   1
   1  -7   5 40.4189 1.75306   2
   1   7   5 40.4934 2.17743   3
   1   7   5 39.2820 2.15745   1
  -1   7  -5 39.5759 1.56194   3
   1   7   5 38.8523 1.94160   2
   2  -7   5 127.310 3.51089   1
  -2  -7  -5 124.693 3.92365   3
  -2  -7  -5 124.301 4.03546   1
   2  -7   5 123.101 3.44380   3
  -2  -7  -5 127.009 3.78045   2
   2  -7   5 122.195 3.54707   1
   2   7   5 127.077 4.00077   3
   2   7   5 130.734 4.07885   1
   2   7   5 127.494 3.86088   2
   3  -7   5 2.30214 0.91481   1
  -3  -7  -5 -0.1496 1.14023   2
   3  -7   5 1.50528 0.83220   3
  -3  -7  -5 0.81177 1.45974   3
   3   7   5 2.29627 1.55735   1
   3   7   5 0.30847 1.44010   3
   3   7   5 0.52875 1.36680   2
   4  -7   5 23.7587 2.05112   1
  -4  -7  -5 22.2010 2.51450   3
  -4  -7  -5 22.8762 2.18225   2
   4   7   5 21.6905 2.22163   2
   4   7   5 20.1888 2.23938   3
   4   7   5 21.3535 2.42921   1
   5   7   5 -0.7029 2.85178   3
   5   7   5 -0.8197 3.10394   1
   5   7   5 6.34094 2.79002   2
   5  -8  -5 17.8345 2.70117   3
  -5  -8   5 17.1075 2.79050   2
  -5  -8   5 26.4367 3.76915   3
   5  -8  -5 19.4608 2.82026   1
   5   8  -5 21.0970 3.15046   2
   5   8  -5 19.5874 3.63249   3
   4  -8  -5 76.9193 3.84362   3
  -4  -8   5 72.7440 4.15872   3
   4  -8  -5 74.9595 3.93408   1
  -4  -8   5 74.5372 3.76163   2
   4   8  -5 68.8779 4.85329   3
   4   8  -5 76.6013 5.21463   1
   4   8  -5 79.6683 3.99767   2
  -3  -8   5 15.1032 1.68122   3
  -3  -8   5 19.1863 2.59480   2
   3  -8  -5 14.6865 1.68550   1
  -3  -8   5 18.1448 2.03097   1
   3  -8  -5 17.2730 1.62888   2
   3  -8  -5 16.7315 1.72704   3
   3   8  -5 17.3061 2.10099   1
   3   8  -5 17.9479 1.83674   2
   3   8  -5 18.2197 1.98584   3
  -2  -8   5 33.2670 2.26309   2
  -2  -8   5 26.5971 2.48497   1
   2  -8  -5 34.4058 2.33003   1
  -2  -8   5 31.3449 2.31846   3
   2  -8  -5 32.0131 2.06171   2
   2  -8  -5 32.9668 2.27749   3
   2   8  -5 34.3648 2.53547   3
   2   8  -5 28.8661 2.09174   2
  -2   8   5 34.0955 1.99421   2
  -2   8   5 29.7119 2.44077   3
   2   8  -5 35.0381 2.67471   1
   1  -8  -5 194.029 5.34962   2
  -1  -8   5 196.270 5.47634   1
  -1  -8   5 191.051 5.38794   3
  -1  -8   5 202.368 5.39571   2
   1  -8  -5 198.732 5.44389   3
   1  -8  -5 190.186 5.48871   1
  -1   8   5 190.820 5.44161   1
   1   8  -5 194.336 5.45217   3
  -1   8   5 192.327 5.45009   3
  -1   8   5 195.220 5.28673   2
   1   8  -5 193.816 5.23558   2
   1   8  -5 192.178 5.38759   1
   0  -8   5 145.936 4.13659   1
   0  -8   5 142.537 4.08443   3
   0  -8  -5 139.369 4.21438   3
   0  -8   5 141.199 4.08321   2
   0  -8  -5 141.520 4.30778   1
   0  -8  -5 139.370 4.11159   2
   0   8  -5 136.630 4.01615   3
   0   8   5 142.955 4.09319   2
   0   8   5 137.434 4.37770   1
   0   8   5 139.634 4.29990   3
   0   8  -5 142.895 3.79794   2
   1  -8   5 311.575 7.89600   2
  -1  -8  -5 307.415 8.12875   3
   1  -8   5 310.246 7.92179   1
  -1  -8  -5 307.917 8.16796   1
  -1  -8  -5 302.730 8.03540   2
   1  -8   5 311.846 7.87194   3
   1   8   5 307.202 8.05448   2
   1   8   5 318.521 8.20797   3
   1   8   5 307.952 8.24402   1
  -2  -8  -5 190.945 5.40507   2
  -2  -8  -5 190.762 5.54578   3
   2  -8   5 195.055 5.11496   3
   2  -8   5 186.509 5.17910   2
   2  -8   5 189.282 5.17945   1
  -2  -8  -5 188.437 5.62272   1
   2   8   5 195.444 5.51326   2
   2   8   5 200.099 5.82608   1
   2   8   5 195.297 5.74714   3
  -3  -8  -5 28.1032 2.16582   3
   3  -8   5 29.0778 2.00509   3
  -3  -8  -5 31.7027 2.38163   2
   3   8   5 28.4689 2.30516   1
   3   8   5 30.6735 2.30881   3
   3   8   5 24.5667 2.48198   2
   4  -8   5 10.3812 1.48681   1
  -4  -8  -5 6.33110 2.16268   2
   4   8   5 6.75530 2.49451   3
   4   8   5 12.6639 2.37649   2
   4   8   5 9.64701 2.59940   1
  -4  -9   5 22.3744 2.76491   3
   4  -9  -5 29.7216 2.47207   3
   4  -9  -5 21.5423 2.79982   2
  -4  -9   5 21.9059 2.35663   2
   4  -9  -5 26.6314 2.56016   1
   4   9  -5 25.7074 2.68346   2
   4   9  -5 30.7160 3.26659   3
   3  -9  -5 45.3512 3.29103   1
  -3  -9   5 40.7263 3.75102   1
   3  -9  -5 40.3648 3.72979   2
  -3  -9   5 45.4871 3.36213   3
  -3  -9   5 39.5836 3.10772   2
   3  -9  -5 46.9736 3.54919   3
   3   9  -5 47.5011 3.16239   2
   3   9  -5 35.8948 4.33533   3
   2  -9  -5 10.0389 1.53115   2
  -2  -9   5 12.6842 1.68864   1
   2  -9  -5 10.5327 1.89412   3
  -2  -9   5 12.1017 1.70148   3
   2  -9  -5 10.9874 1.59157   1
  -2  -9   5 11.0643 1.61370   2
  -2   9   5 13.2904 1.52848   2
   2   9  -5 12.7381 2.01207   3
  -2   9   5 8.20131 1.92681   3
   2   9  -5 11.0419 1.52472   2
   1  -9  -5 8.67363 1.48697   1
  -1  -9   5 6.66046 1.43315   2
   1  -9  -5 8.45531 1.35778   2
   1  -9  -5 7.18986 1.34746   3
  -1  -9   5 7.23189 1.34548   1
  -1  -9   5 6.88248 1.27603   3
   1   9  -5 8.90031 1.48748   3
   1   9  -5 8.00815 1.26523   2
  -1   9   5 7.40608 1.38539   2
  -1   9   5 8.58045 1.68842   3
   0  -9   5 7.36753 1.23660   2
   0  -9  -5 6.59694 1.36575   2
   0  -9   5 7.56458 1.26744   1
   0  -9  -5 9.28534 1.31590   3
   0  -9   5 8.77316 1.22309   3
   0   9   5 0.27661 1.65888   1
   0   9   5 6.58366 1.56780   3
   0   9  -5 7.83171 1.15094   2
   0   9   5 6.43346 1.29275   2
   0   9  -5 5.21883 1.51302   3
   1  -9   5 270.814 7.22737   1
  -1  -9  -5 270.302 7.32822   2
  -1  -9  -5 264.173 7.60568   1
  -1  -9  -5 282.981 7.49387   3
   1  -9   5 275.749 7.17620   3
   1  -9   5 272.931 7.21268   2
   1   9   5 264.812 7.59408   1
   1   9   5 275.712 7.36748   2
   1   9   5 280.972 7.64068   3
  -2  -9  -5 97.2583 4.18469   1
  -2  -9  -5 86.9558 3.77787   3
   2  -9   5 91.6811 3.06183   3
   2  -9   5 82.5952 3.91596   1
   2  -9   5 87.4724 3.39306   2
  -2  -9  -5 86.4719 4.16505   2
   2   9   5 95.6801 4.36751   1
   2   9   5 86.8760 3.67003   2
   2   9   5 101.457 4.08723   3
   3  -9   5 73.2751 3.08592   3
  -3  -9  -5 78.7512 3.54779   2
   3  -9   5 79.3974 3.26772   1
   3   9   5 77.2595 4.64012   3
   3   9   5 66.2703 4.91048   1
   3   9   5 77.0080 4.03113   2
  -4  -9  -5 83.9091 4.98820   2
   4  -9   5 88.4069 3.92037   1
   4   9   5 96.9582 5.32606   2
   4   9   5 90.0676 5.72256   3
   4   9   5 91.4846 6.63040   1
   4 -10  -5 10.1407 2.94679   3
  -4 -10   5 6.11100 2.66542   2
   4 -10  -5 7.79964 2.95888   1
  -4 -10   5 6.14281 3.33510   3
   4  10  -5 4.63841 3.82360   3
   4  10  -5 6.14806 2.95181   2
   3 -10  -5 13.6602 2.28430   1
  -3 -10   5 11.6999 2.37545   3
  -3 -10   5 11.5951 2.22038   2
   3 -10  -5 12.5796 2.28927   3
   3 -10  -5 15.7983 2.22658   2
  -3 -10   5 9.16199 2.78105   1
   3  10  -5 13.3910 2.93498   3
   3  10  -5 11.8578 2.28943   2
  -2 -10   5 17.2363 2.19757   1
  -2 -10   5 16.4642 1.91827   2
   2 -10  -5 19.8761 2.06504   1
   2 -10  -5 21.3462 2.05396   3
  -2 -10   5 18.4085 1.96670   3
   2 -10  -5 20.5338 1.95208   2
   2  10  -5 20.3062 2.05916   2
  -2  10   5 18.2341 1.75611   2
   2  10  -5 17.4389 2.37413   3
  -1 -10   5 70.1095 3.34753   3
  -1 -10   5 69.7741 4.58983   1
   1 -10  -5 69.7112 5.13560   1
   1 -10  -5 74.4504 3.57641   3
   1 -10  -5 73.2957 3.41439   2
   1  10  -5 72.0876 4.17505   3
  -1  10   5 70.9115 3.17621   2
   1  10  -5 68.6974 3.04982   2
  -1  10   5 65.5391 4.05957   3
   0 -10  -5 295.817 8.08461   2
   0 -10  -5 299.611 8.34902   1
   0 -10   5 297.060 7.92701   3
   0 -10   5 287.599 7.95164   2
   0 -10   5 290.259 8.04641   1
   0  10   5 302.141 8.46001   3
   1 -10   5 148.037 4.77955   2
   1 -10   5 145.845 4.74427   1
  -1 -10  -5 150.526 5.15956   3
  -1 -10  -5 153.755 4.90239   2
   1 -10   5 150.884 4.62055   3
  -1 -10  -5 154.827 5.37787   1
   1  10   5 153.970 5.37531   3
   1  10   5 156.153 7.21661   1
   1  10   5 154.524 4.96340   2
  -2 -10  -5 13.5648 2.04118   3
   2 -10   5 11.4895 1.58834   1
  -2 -10  -5 10.2570 1.80221   2
   2  10   5 9.11320 2.38890   3
   2  10   5 10.3724 2.17746   2
   2  10   5 4.96801 2.83522   1
   3 -10   5 25.9183 2.15365   1
  -3 -10  -5 26.8785 2.93020   3
   3 -10   5 27.9902 2.15612   3
  -3 -10  -5 30.5349 2.65280   2
   3  10   5 25.1703 2.73493   2
   3  10   5 25.9907 3.24567   3
   3  10   5 28.9290 3.59701   1
   3 -11  -5 76.3803 5.17727   2
  -3 -11   5 90.4063 4.95959   2
   3 -11  -5 76.8112 5.33555   3
   3 -11  -5 83.3459 5.47569   1
  -3 -11   5 81.9288 5.56853   3
   3  11  -5 91.4083 5.21306   2
   3  11  -5 98.2149 7.89485   3
   2 -11  -5 6.35198 2.21515   3
  -2 -11   5 5.21946 2.09690   2
  -2 -11   5 7.86079 2.27611   3
  -2 -11   5 6.36746 2.79824   1
   2 -11  -5 4.84618 2.03061   2
   2 -11  -5 4.04805 2.48677   1
   2  11  -5 5.62651 2.30298   2
  -1 -11   5 147.812 5.29841   2
  -1 -11   5 148.167 5.42580   1
  -1 -11   5 142.232 5.09876   3
   1 -11  -5 153.627 5.54365   1
   1 -11  -5 147.060 5.42718   3
   1 -11  -5 145.119 5.16958   2
   1  11  -5 143.222 4.89965   2
  -1  11   5 145.701 5.24799   2
   0 -11   5 72.0488 3.76340   1
   0 -11  -5 76.5751 4.16424   3
   0 -11   5 83.5693 3.84750   3
   0 -11   5 71.4015 3.81850   2
   0 -11  -5 73.5113 3.85762   2
   0 -11  -5 78.3053 5.09837   1
   0  11   5 73.2783 3.80418   2
  -1 -11  -5 19.9059 2.14977   2
   1 -11   5 19.4051 1.99495   1
   1 -11   5 17.7519 1.81059   3
  -1 -11  -5 20.9493 2.40388   3
   1 -11   5 15.9029 2.37484   2
   1  11   5 19.6656 2.50666   2
   1  11   5 24.4088 3.00321   3
   2 -11   5 -0.2472 1.78587   1
   2 -11   5 1.81641 2.04608   3
  -2 -11  -5 -0.4811 2.47579   3
  -2 -11  -5 2.24496 2.22815   2
   2  11   5 0.59073 2.93992   3
   2  11   5 1.28987 2.55581   2
  -1 -12   5 68.3352 4.61281   2
   1 -12  -5 67.3087 5.01018   3
  -1 -12   5 64.5694 4.98494   1
  -1 -12   5 67.8548 4.75114   3
   1 -12  -5 69.9780 4.78190   2
   1 -12  -5 66.5588 5.69190   1
  -1  12   5 57.8644 5.19922   2
   0 -12  -5 41.9516 3.15198   2
   0 -12   5 38.3242 2.72987   3
   0 -12   5 39.5275 2.89102   1
   0 -12  -5 41.1135 3.60346   1
   0 -12   5 37.8167 2.96096   2
   0 -12  -5 38.6699 3.14919   3
   0  12   5 35.0160 3.26206   2
   1 -12   5 35.9149 2.74048   1
   1 -12   5 34.1230 2.69944   3
  -1 -12  -5 35.9479 3.08756   2
   1  12   5 37.8242 3.35182   2
   1  12   5 39.3514 4.29875   3
   6   0  -6 -2.2750 2.27857   3
   6   0  -6 2.21785 2.06902   2
   6   0  -6 -2.4168 2.14396   1
  -5   0   6 123.038 3.86275   2
  -5   0   6 116.542 4.19813   3
   5   0  -6 131.126 4.27271   3
   5   0  -6 125.814 4.18197   2
   5   0  -6 125.803 4.25536   1
   4   0  -6 9.95644 1.07626   2
  -4   0   6 9.14362 1.08407   3
   4   0  -6 10.8306 1.17081   3
  -4   0   6 10.6983 1.06313   2
   4   0  -6 10.4736 1.20042   1
  -4   0   6 10.6520 1.07800   1
  -3   0   6 294.972 7.47504   2
  -3   0   6 301.011 7.54280   3
  -3   0   6 299.722 7.49869   1
   3   0  -6 303.637 7.63292   1
   3   0  -6 295.029 7.50107   2
   3   0  -6 297.229 7.55302   3
   3   0  -6 295.024 7.55790   1
   2   0  -6 166.781 4.20287   1
  -2   0   6 159.169 4.21619   1
  -2   0   6 159.622 4.15691   3
   2   0  -6 155.691 4.10942   2
   2   0  -6 157.519 4.18374   3
  -2   0   6 162.800 4.16610   2
  -2   0   6 156.844 4.11196   2
   2   0  -6 155.778 4.16180   3
   2   0  -6 157.934 4.15201   1
  -2   0   6 162.816 4.14722   1
  -1   0   6 2.34681 0.46681   1
   1   0  -6 2.14245 0.42472   2
  -1   0   6 1.75322 0.38079   2
   1   0  -6 1.95347 0.41856   2
  -1   0   6 2.28195 0.47267   2
  -1   0   6 1.84642 0.44249   3
   1   0  -6 2.09442 0.47864   3
   1   0  -6 1.89776 0.43136   1
  -1   0   6 1.71625 0.50521   3
   1   0  -6 2.39322 0.43905   3
  -1   0   6 1.67266 0.42392   1
   1   0  -6 1.72977 0.44646   1
   0   0   6 3238.68 79.3981   3
   0   0   6 3313.22 79.2043   1
   0   0  -6 3369.85 79.3641   3
   0   0  -6 3297.73 79.3832   3
   0   0  -6 3412.91 79.4092   1
   0   0   6 3321.13 79.4122   2
   0   0   6 3341.82 79.1069   2
   0   0   6 3345.49 79.2676   3
   0   0   6 3266.76 79.4962   1
   0   0  -6 3173.00 79.2915   2
   0   0  -6 3464.95 79.4148   2
   1   0   6 28.1842 0.88323   2
   1   0   6 25.2185 0.82272   2
   1   0   6 25.5194 0.85925   3
  -1   0  -6 26.5132 0.80047   3
   1   0   6 24.8658 0.85899   3
   1   0   6 24.5221 0.84323   1
   1   0   6 26.7191 0.89810   1
   2   0   6 48.1967 1.39675   1
   2   0   6 48.6243 1.43561   2
   2   0   6 50.2406 1.36951   2
   2   0   6 47.0520 1.36644   3
   2   0   6 49.0177 1.38733   3
   2   0   6 47.5972 1.39511   1
   3   0   6 91.8597 2.48695   3
   3   0   6 87.7225 2.50675   1
   3   0   6 94.1688 2.50889   1
   3   0   6 93.0392 2.47440   2
   3   0   6 89.6383 2.46002   3
   3   0   6 94.2492 2.64460   2
   4   0   6 8.03449 0.89543   1
   4   0   6 6.73395 0.85336   2
   4   0   6 8.83489 0.80804   3
   4   0   6 9.38869 0.92531   1
   5   0   6 20.5734 1.34076   3
   6   0   6 4.12238 1.83659   1
   6  -1  -6 18.3088 2.41006   1
   6  -1  -6 19.9399 2.38821   3
   6  -1  -6 16.8059 2.51183   2
   6   1  -6 21.3908 2.45118   3
   6   1  -6 16.8884 2.38141   2
   6   1  -6 23.5073 2.56386   1
   5  -1  -6 21.1791 1.77169   3
  -5  -1   6 24.2456 2.09145   2
  -5  -1   6 21.8855 1.74041   3
   5  -1  -6 19.5060 1.75049   1
   5  -1  -6 23.0634 1.73151   2
  -5   1   6 23.5742 2.06811   2
  -5   1   6 19.4924 1.83084   3
   5   1  -6 23.0214 1.88118   1
   5   1  -6 23.6112 1.82651   2
   5   1  -6 20.7399 1.77690   3
   4  -1  -6 88.4543 3.08010   1
  -4  -1   6 90.9853 2.91959   2
   4  -1  -6 90.5072 2.95598   2
  -4  -1   6 92.1245 3.08064   3
  -4  -1   6 88.7738 2.99662   1
   4  -1  -6 90.9753 3.07228   3
   4   1  -6 89.5632 3.14983   1
  -4   1   6 92.1420 2.87091   2
  -4   1   6 92.3269 3.11098   3
   4   1  -6 90.1160 3.11573   3
   4   1  -6 89.1215 2.98809   2
  -4   1   6 86.4727 2.93373   1
   3  -1  -6 40.6987 1.75606   3
  -3  -1   6 39.2956 1.82459   3
   3  -1  -6 39.8669 1.75505   1
   3  -1  -6 40.2078 2.02609   1
  -3  -1   6 40.7479 1.73882   1
   3  -1  -6 39.3928 1.65599   2
   3   1  -6 38.9417 1.76551   3
  -3   1   6 38.1006 1.60060   2
   3   1  -6 39.9519 2.23910   1
   3   1  -6 39.6381 1.65410   2
  -3   1   6 42.9293 1.71587   1
  -3   1   6 39.6869 1.80708   3
   3   1  -6 40.2976 1.80639   1
   2  -1  -6 171.042 4.40999   3
  -2  -1   6 171.576 4.37577   1
   2  -1  -6 164.680 4.36438   3
   2  -1  -6 165.757 4.32398   2
  -2  -1   6 152.340 4.50971   3
   2  -1  -6 174.625 4.39132   1
  -2  -1   6 167.673 4.43516   1
  -2  -1   6 167.924 4.34523   2
  -2   1   6 175.765 4.44716   1
   2   1  -6 171.608 4.37971   1
  -2   1   6 166.088 4.31905   2
  -2   1   6 169.542 4.35649   3
  -2   1   6 169.790 4.34242   1
  -2   1   6 175.174 4.36873   2
   2   1  -6 168.320 4.43776   3
   2   1  -6 167.385 4.40991   1
   2   1  -6 161.978 4.36828   3
   2   1  -6 169.137 4.34067   2
   1  -1  -6 1293.89 30.8951   1
   1  -1  -6 1294.81 30.8985   3
  -1  -1   6 1315.80 30.9109   1
  -1  -1   6 1319.37 30.8876   2
  -1  -1   6 1332.43 30.9060   3
   1  -1  -6 1253.95 30.9048   3
  -1  -1   6 1271.07 30.9058   1
   1  -1  -6 1332.52 30.8888   2
   1  -1  -6 1265.56 30.9077   1
  -1  -1   6 1243.33 30.8993   3
   1  -1  -6 1226.40 30.8821   2
  -1  -1   6 1239.45 30.8879   2
   1   1  -6 1273.84 30.8958   1
  -1   1   6 1238.46 30.9016   1
   1   1  -6 1324.39 30.8958   3
   1   1  -6 1239.59 30.8747   2
  -1   1   6 1360.22 30.9215   1
   1   1  -6 1335.58 30.8938   1
   1   1  -6 1332.22 30.8824   2
  -1   1   6 1261.30 30.9055   3
   1   1  -6 1264.01 30.8989   3
  -1   1   6 1329.94 30.8921   2
  -1   1   6 1267.83 30.8960   2
  -1   1   6 1370.53 30.9183   3
   0  -1  -6 1565.07 38.4910   2
   0  -1  -6 1641.19 38.4898   2
   0  -1   6 1567.60 38.5639   3
   0  -1   6 1550.30 38.4867   1
   0  -1   6 1595.08 38.4901   3
   0  -1   6 1632.88 38.4960   1
   0  -1  -6 1635.53 38.5009   1
   0  -1  -6 1588.13 38.5123   3
   0  -1  -6 1620.97 38.5037   3
   0  -1  -6 1603.24 38.5118   1
   0  -1   6 1676.46 38.4798   2
   0  -1   6 1600.46 38.4804   2
   0   1  -6 1643.59 38.4488   2
   0   1  -6 1628.54 38.4696   3
   0   1   6 1672.43 38.5199   3
   0   1  -6 1602.07 38.4777   3
   0   1  -6 1643.57 38.4560   1
   0   1   6 1562.67 38.5188   1
   0   1   6 1571.30 38.5155   3
   0   1   6 1690.71 38.5139   2
   0   1   6 1568.07 38.5018   2
   0   1  -6 1627.46 38.4632   1
   0   1   6 1648.18 38.5267   1
   0   1  -6 1581.09 38.4489   2
   1  -1   6 923.308 22.6125   1
  -1  -1  -6 955.449 22.6450   1
  -1  -1  -6 936.178 22.6339   2
   1  -1   6 929.160 22.6163   3
   1  -1   6 959.741 22.6185   1
  -1  -1  -6 978.617 22.6364   2
  -1  -1  -6 955.111 22.6676   3
   1  -1   6 954.170 22.6180   3
  -1  -1  -6 953.225 22.6714   3
  -1  -1  -6 962.696 22.6489   1
   1   1   6 936.851 22.6763   2
   1   1   6 930.878 22.6866   3
   1   1   6 948.772 22.6941   1
   1   1   6 985.662 22.6844   2
   1   1   6 906.173 22.6870   1
   2  -1   6 26.9418 0.82566   1
   2  -1   6 27.6677 0.80128   3
   2  -1   6 25.1739 0.81930   1
  -2  -1  -6 26.3361 1.05003   3
   2  -1   6 26.9135 0.80277   3
   2   1   6 24.8257 1.04838   3
   2   1   6 24.9864 1.18956   2
   2   1   6 28.4599 1.08344   3
   2   1   6 26.2218 1.05538   1
   2   1   6 25.7977 1.04029   1
   2   1   6 27.2684 0.99956   2
   3  -1   6 57.9723 1.70061   1
  -3  -1  -6 58.0941 1.75097   3
   3  -1   6 60.3299 1.71216   1
  -3  -1  -6 60.8469 1.66675   3
   3  -1   6 60.5588 1.65475   3
   3  -1   6 60.4901 1.67077   3
   3   1   6 61.4155 1.94226   1
   3   1   6 64.6746 1.87662   2
   3   1   6 59.4703 1.91426   1
   3   1   6 62.1550 1.90936   3
   4  -1   6 34.9718 1.34258   3
   4  -1   6 33.3749 1.45478   3
   4  -1   6 33.8819 1.47924   1
   4  -1   6 36.2659 1.47237   1
   4   1   6 34.3358 1.95932   1
   4   1   6 31.5107 1.81917   2
   4   1   6 37.5740 1.75913   3
   4   1   6 35.3212 1.74612   1
   5  -1   6 39.6680 2.14798   1
   5  -1   6 38.0997 1.77053   3
   5   1   6 34.9725 3.06179   1
   5   1   6 39.8572 2.35232   3
   5   1   6 42.5359 2.76208   2
   6  -1   6 9.57861 1.80385   1
   6   1   6 7.05147 2.03872   3
   6   1   6 12.1660 2.17508   1
   6  -2  -6 65.8767 4.37917   3
   6  -2  -6 57.6951 4.27487   2
   6  -2  -6 63.7695 4.28531   1
   6   2  -6 63.1924 4.74066   3
   6   2  -6 50.5671 4.15400   2
   6   2  -6 61.5941 4.79323   1
   5  -2  -6 459.809 11.4730   3
  -5  -2   6 427.772 11.4119   3
  -5  -2   6 445.162 11.2364   2
   5  -2  -6 443.605 11.3637   2
   5  -2  -6 448.188 11.4841   1
   5   2  -6 433.688 11.3836   2
   5   2  -6 448.629 11.5552   1
   5   2  -6 456.250 11.5230   3
   4  -2  -6 93.2542 3.19195   3
  -4  -2   6 91.4179 3.16889   1
   4  -2  -6 95.7725 3.07793   2
  -4  -2   6 95.8288 3.23276   3
  -4  -2   6 98.7982 3.08812   2
   4  -2  -6 96.5488 3.22784   1
  -4   2   6 95.0358 3.27212   3
   4   2  -6 95.9508 3.13866   2
   4   2  -6 94.1155 3.27082   3
   4   2  -6 97.6209 3.33991   1
  -4   2   6 91.4526 3.07121   1
   3  -2  -6 37.5408 1.63024   2
  -3  -2   6 35.3368 1.73927   1
  -3  -2   6 37.3950 1.79472   3
   3  -2  -6 38.4636 1.73784   3
   3  -2  -6 35.9846 1.98220   1
  -3  -2   6 36.0822 1.68727   2
   3  -2  -6 37.7354 1.75561   1
   3   2  -6 38.8381 1.82870   1
  -3   2   6 40.5645 1.66748   1
  -3   2   6 38.4417 2.06575   2
   3   2  -6 37.1430 1.67116   2
  -3   2   6 38.6075 1.57545   2
  -2  -2   6 229.375 5.77613   1
   2  -2  -6 227.411 5.72891   2
   2  -2  -6 233.919 5.78182   1
  -2  -2   6 226.972 5.87124   1
  -2  -2   6 228.288 5.79439   3
   2  -2  -6 224.073 5.77087   1
   2  -2  -6 226.018 5.80526   3
   2  -2  -6 226.270 5.76607   3
   2   2  -6 221.880 5.73278   2
  -2   2   6 223.895 5.71460   2
  -2   2   6 231.818 5.76391   3
   2   2  -6 225.078 5.84227   1
  -2   2   6 228.110 5.73195   1
  -2   2   6 227.303 5.74852   2
   2   2  -6 232.475 5.78454   1
   2   2  -6 221.927 5.77937   3
   1  -2  -6 186.384 4.76171   2
  -1  -2   6 191.932 4.78731   1
  -1  -2   6 187.823 4.78361   1
  -1  -2   6 194.486 4.81163   3
  -1  -2   6 190.357 4.76733   2
   1  -2  -6 195.388 4.77559   2
   1  -2  -6 188.817 4.78598   3
  -1  -2   6 192.982 4.77161   2
   1  -2  -6 195.755 4.79251   1
  -1  -2   6 182.842 4.80114   3
   1  -2  -6 184.313 4.79177   3
   1   2  -6 186.086 4.77160   3
  -1   2   6 192.361 4.82738   3
  -1   2   6 187.618 4.79139   3
   1   2  -6 186.194 4.79754   3
   1   2  -6 192.004 4.78036   1
   1   2  -6 194.683 4.76162   2
  -1   2   6 189.966 4.78401   2
  -1   2   6 186.766 4.77901   2
   1   2  -6 191.635 4.77071   1
   1   2  -6 183.458 4.73113   2
  -1   2   6 187.524 4.78480   1
  -1   2   6 188.629 4.81503   1
   0  -2  -6 146.132 3.70300   3
   0  -2   6 142.841 3.62624   2
   0  -2   6 151.645 3.62911   2
   0  -2  -6 143.443 3.68680   3
   0  -2   6 135.867 3.73065   3
   0  -2   6 145.291 3.63918   1
   0  -2  -6 145.901 3.67143   2
   0  -2  -6 147.339 3.68873   1
   0  -2  -6 148.196 3.71042   1
   0  -2   6 142.944 3.63541   1
   0  -2  -6 146.393 3.66056   2
   0  -2   6 141.002 3.64020   3
   0   2  -6 147.621 3.57269   2
   0   2   6 146.303 3.71698   1
   0   2  -6 142.445 3.61097   3
   0   2   6 145.293 3.70075   3
   0   2   6 133.366 3.65729   2
   0   2  -6 143.533 3.57961   1
   0   2  -6 147.492 3.57108   2
   0   2  -6 148.354 3.61856   3
   0   2   6 148.212 3.71750   3
   0   2   6 143.091 3.70448   1
   0   2   6 144.842 3.69373   2
   0   2  -6 149.696 3.59188   1
   1  -2   6 9.44380 0.51777   3
  -1  -2  -6 10.4613 0.69120   2
   1  -2   6 9.07370 0.49372   1
  -1  -2  -6 9.49947 0.61524   3
  -1  -2  -6 9.73535 0.76363   3
  -1  -2  -6 8.77336 0.67414   2
   1  -2   6 9.71854 0.48943   1
  -1  -2  -6 9.09944 0.81509   1
   1  -2   6 11.0924 0.52700   3
   1   2   6 10.8047 0.84213   1
   1   2   6 10.2644 0.88549   2
   1   2   6 10.2090 0.86940   3
   1   2   6 8.84301 0.70790   2
  -2  -2  -6 282.594 6.77225   3
  -2  -2  -6 280.535 6.70905   2
  -2  -2  -6 277.971 6.77195   1
   2   2   6 275.898 6.80024   2
   2   2   6 273.398 6.82927   1
   2   2   6 279.834 6.84069   3
   2   2   6 262.809 6.82033   1
   2   2   6 269.078 6.81653   3
  -3  -2  -6 37.3225 1.38215   3
   3   2   6 35.9492 1.68582   1
   3   2   6 36.8641 1.73797   3
   3   2   6 37.1674 1.55902   2
   3   2   6 38.3750 1.62252   1
   3   2   6 34.6009 1.60094   3
   4  -2   6 6.70242 0.73038   1
   4  -2   6 6.93237 0.67700   1
   4   2   6 7.82798 1.05903   1
   4   2   6 8.01344 1.02440   3
   4   2   6 8.64148 1.11384   2
   5  -2   6 0.89625 1.03344   1
   5   2   6 2.30021 1.68613   2
   5   2   6 3.16285 1.35260   3
   5   2   6 4.53030 1.45132   1
   6  -2   6 43.9083 2.80250   1
   6   2   6 45.5076 4.08589   1
   6   2   6 42.8221 3.84140   3
   6  -3  -6 84.1226 4.73671   3
   6  -3  -6 84.1244 5.21982   2
  -6  -3   6 88.7511 4.53805   2
   6  -3  -6 97.6811 4.89535   1
   6   3  -6 93.6236 4.82441   2
   6   3  -6 102.108 5.24042   3
   6   3  -6 107.233 5.46563   1
   5  -3  -6 11.6063 1.68380   2
   5  -3  -6 8.62724 1.86109   3
  -5  -3   6 8.70709 1.68000   3
  -5  -3   6 8.94311 1.46322   2
   5   3  -6 9.76652 1.91822   1
   5   3  -6 10.1229 1.80781   2
   4  -3  -6 91.3910 3.19561   3
  -4  -3   6 94.5604 3.11727   2
  -4  -3   6 93.6371 3.25731   3
   4  -3  -6 89.1998 3.09228   2
   4  -3  -6 89.8829 3.24008   1
  -4  -3   6 89.0056 3.21684   1
  -4   3   6 90.7690 3.73886   3
   4   3  -6 91.8131 3.39761   1
   4   3  -6 97.4158 3.35131   3
   4   3  -6 91.5653 3.18212   2
  -4   3   6 95.0366 2.84852   2
  -3  -3   6 439.985 10.7534   2
  -3  -3   6 432.371 10.7787   3
   3  -3  -6 431.506 10.6896   2
   3  -3  -6 427.338 10.7784   1
   3  -3  -6 433.445 10.7526   1
   3  -3  -6 427.732 10.7243   3
   3   3  -6 429.034 10.7918   1
  -3   3   6 444.669 10.6606   1
  -3   3   6 422.091 10.6544   2
   3   3  -6 437.881 10.8082   3
  -3   3   6 431.566 10.6263   2
   3   3  -6 424.372 10.7212   2
   2  -3  -6 142.202 3.73856   2
   2  -3  -6 138.632 3.77023   3
  -2  -3   6 138.369 3.80456   3
   2  -3  -6 139.212 3.79681   1
  -2  -3   6 143.643 3.78410   2
   2  -3  -6 137.829 3.84111   3
  -2  -3   6 127.036 3.93571   1
   2  -3  -6 145.263 3.82575   1
  -2  -3   6 137.472 3.89907   1
  -2   3   6 142.098 3.74894   3
   2   3  -6 141.408 3.81166   3
  -2   3   6 142.820 3.74492   1
  -2   3   6 141.618 3.70511   2
  -2   3   6 140.499 3.77822   2
   2   3  -6 141.546 3.79056   1
  -1  -3   6 1068.86 22.4607   2
   1  -3  -6 982.800 22.4112   2
   1  -3  -6 885.704 22.3281   3
  -1  -3   6 883.275 22.3142   3
  -1  -3   6 929.822 22.3278   3
  -1  -3   6 876.061 22.3530   2
   1  -3  -6 910.272 22.3145   2
   1  -3  -6 937.045 22.3277   1
  -1  -3   6 858.029 22.3264   1
  -1  -3   6 938.483 22.3299   1
   1  -3  -6 911.427 22.3218   3
   1  -3  -6 902.855 22.3417   1
   1   3  -6 907.915 22.3056   3
   1   3  -6 952.336 22.2905   2
   1   3  -6 968.635 22.3685   1
  -1   3   6 918.538 22.3415   1
  -1   3   6 962.562 22.3615   3
  -1   3   6 933.878 22.3131   2
   1   3  -6 917.689 22.2938   1
   1   3  -6 1061.52 22.4809   3
  -1   3   6 891.695 22.3033   2
   1   3  -6 847.981 22.2797   2
  -1   3   6 893.821 22.3221   1
   0  -3   6 77.3235 2.15857   1
   0  -3   6 81.3816 2.19232   3
   0  -3   6 82.3424 2.17539   2
   0  -3   6 74.8580 2.17738   1
   0  -3  -6 80.4309 2.27158   3
   0  -3   6 81.5621 2.17120   2
   0  -3  -6 82.6628 2.27692   1
   0  -3  -6 82.6137 2.24162   2
   0  -3   6 79.6090 2.17280   3
   0  -3  -6 81.6439 2.30975   3
   0  -3  -6 73.0988 2.20382   2
   0   3  -6 81.5924 2.09132   2
   0   3  -6 78.5248 2.11818   3
   0   3   6 78.9749 2.26635   1
   0   3  -6 80.4365 2.18508   3
   0   3  -6 78.9039 2.08264   1
   0   3  -6 79.3436 2.12388   1
   0   3   6 79.6677 2.31821   2
   0   3  -6 81.5679 2.07188   2
   0   3   6 82.4131 2.36660   3
   0   3   6 84.0738 2.32704   1
   1  -3   6 98.3557 2.50094   1
  -1  -3  -6 98.3623 2.66253   2
  -1  -3  -6 98.2490 2.64911   2
   1  -3   6 99.7030 2.50778   3
  -1  -3  -6 99.8384 2.68789   3
   1  -3   6 95.1984 2.50991   1
  -1  -3  -6 98.1211 2.69176   1
   1  -3   6 98.6764 2.50312   3
   1  -3   6 101.279 2.49481   2
   1  -3   6 99.4483 2.50343   2
   1   3   6 101.757 2.77928   3
   1   3   6 96.1722 2.71065   3
   1   3   6 95.2290 2.70760   1
   1   3   6 103.177 2.77002   1
  -2  -3  -6 1.28681 0.63810   2
  -2  -3  -6 0.55110 0.71654   1
  -2  -3  -6 -0.1187 0.50493   2
  -2  -3  -6 0.46680 0.51657   3
   2   3   6 -0.7034 0.65360   1
   2   3   6 0.48455 0.61681   2
   2   3   6 -0.0037 0.58584   3
   2   3   6 0.07362 0.79796   3
   2   3   6 0.51093 0.55354   1
  -3  -3  -6 16.7222 1.23979   3
  -3  -3  -6 17.5798 1.39732   1
  -3  -3  -6 16.5197 1.23815   2
  -3  -3  -6 17.7638 1.06057   2
   3   3   6 15.6273 1.08769   2
   3   3   6 18.5209 1.44338   3
   3   3   6 15.8487 1.43793   1
   3   3   6 15.6415 1.07721   3
   3   3   6 18.4755 1.46895   1
   4   3   6 59.0087 2.48327   3
   4   3   6 57.0876 2.54112   1
   4   3   6 54.8637 2.45542   2
   5  -3   6 25.2459 1.81634   1
   5   3   6 28.8829 2.15216   2
   5   3   6 25.2055 1.98164   1
   5   3   6 28.4945 1.97742   3
   6   3   6 2.65859 2.39372   3
   6   3   6 -0.5710 2.50224   1
   6  -4  -6 19.8801 4.81354   2
  -6  -4   6 14.5222 2.64788   2
   6  -4  -6 14.6698 2.61126   1
   6  -4  -6 11.4974 2.68654   3
   6   4  -6 17.9793 2.95158   2
   6   4  -6 22.2368 3.01447   3
   6   4  -6 22.6136 3.28891   1
   5  -4  -6 2.67784 1.64554   1
   5  -4  -6 1.94772 1.60320   3
  -5  -4   6 -0.0326 1.75195   3
   5  -4  -6 -1.0022 1.57600   2
  -5  -4   6 1.42107 2.42389   2
   5   4  -6 0.96901 1.78331   1
   5   4  -6 -0.4950 1.68320   2
   5   4  -6 -1.0119 1.72538   3
   4  -4  -6 23.1668 1.99655   2
   4  -4  -6 25.3898 2.15022   3
   4  -4  -6 24.4751 2.19445   1
  -4  -4   6 24.4686 2.00462   2
  -4  -4   6 24.7822 1.78667   1
  -4  -4   6 25.8067 2.27221   3
  -4   4   6 24.5311 1.77120   2
   4   4  -6 26.0650 2.10216   2
   4   4  -6 27.1465 1.79824   1
   4   4  -6 28.4392 2.47279   3
   3  -4  -6 47.1388 2.09679   3
   3  -4  -6 50.8342 2.15051   1
  -3  -4   6 48.9493 2.19109   1
  -3  -4   6 50.4780 2.24235   3
  -3  -4   6 51.1589 2.10932   2
   3  -4  -6 49.1738 2.00084   2
   3  -4  -6 51.3411 2.62919   1
  -3   4   6 51.2880 2.01115   1
   3   4  -6 51.5296 2.29124   3
   3   4  -6 49.6894 2.03071   2
   3   4  -6 48.9216 2.29246   1
  -3   4   6 47.7000 2.33795   3
  -3   4   6 55.0836 2.66997   2
  -3   4   6 51.3650 1.91803   2
   2  -4  -6 279.730 7.03558   1
   2  -4  -6 273.253 6.96952   2
   2  -4  -6 275.749 7.04575   1
  -2  -4   6 276.749 7.02169   2
   2  -4  -6 269.453 7.00695   3
  -2  -4   6 285.536 7.07206   3
  -2  -4   6 273.765 7.04399   1
   2   4  -6 277.305 7.04411   3
  -2   4   6 275.045 6.93287   2
   2   4  -6 283.232 7.03139   1
  -2   4   6 265.949 7.00765   3
   2   4  -6 273.968 6.97065   2
  -2   4   6 283.013 6.98176   1
  -1  -4   6 165.569 4.36102   3
  -1  -4   6 167.031 4.36151   2
  -1  -4   6 165.841 4.43973   3
   1  -4  -6 163.238 4.39107   1
   1  -4  -6 168.833 4.38497   3
  -1  -4   6 161.600 4.36095   1
  -1  -4   6 173.021 4.39971   1
   1  -4  -6 170.896 4.34501   2
   1  -4  -6 164.776 4.40118   1
   1   4  -6 164.766 4.27344   2
  -1   4   6 161.819 4.31983   2
   1   4  -6 171.887 4.31311   1
   1   4  -6 167.756 4.36777   2
  -1   4   6 178.333 4.37503   1
   1   4  -6 164.855 4.32875   3
  -1   4   6 161.312 4.36912   3
   0  -4  -6 12.6277 0.90848   2
   0  -4   6 13.2122 0.88700   2
   0  -4  -6 13.2017 1.08073   3
   0  -4   6 10.8896 0.93273   3
   0  -4   6 12.8206 0.98835   3
   0  -4   6 12.7900 0.88419   1
   0  -4   6 12.8841 1.04592   2
   0  -4  -6 12.5286 1.14123   1
   0  -4   6 12.8246 0.89566   1
   0  -4  -6 12.0021 1.05688   1
   0   4   6 12.2955 1.07986   1
   0   4  -6 12.7861 0.74399   1
   0   4  -6 12.5753 0.67448   2
   0   4  -6 14.1167 1.10578   3
   0   4   6 11.8535 0.98940   1
   0   4  -6 12.9705 0.79683   3
   0   4  -6 13.5299 0.81111   2
   0   4   6 13.1811 0.92274   2
   0   4   6 12.2636 1.09751   3
   1  -4   6 192.602 4.74130   2
  -1  -4  -6 193.365 4.92797   2
   1  -4   6 177.742 4.80604   3
   1  -4   6 188.443 4.74592   1
   1  -4   6 193.413 4.74544   3
   1  -4   6 192.982 4.74500   2
   1  -4   6 192.376 4.73938   1
  -1  -4  -6 191.889 4.92974   1
  -1  -4  -6 187.048 4.88151   2
   1   4   6 192.808 5.01217   1
   1   4   6 189.815 4.91041   2
   1   4   6 205.039 5.20716   3
   1   4   6 193.624 4.96545   3
   1   4   6 187.818 4.95009   1
   2  -4   6 210.651 5.12146   1
  -2  -4  -6 208.182 5.33608   2
  -2  -4  -6 214.886 5.40939   3
  -2  -4  -6 217.539 5.44478   2
   2  -4   6 210.267 5.11534   1
   2   4   6 208.291 5.57515   1
   2   4   6 206.104 5.45760   1
   2   4   6 210.674 5.46172   3
   2   4   6 202.246 5.40921   2
  -3  -4  -6 90.0054 2.68204   2
  -3  -4  -6 89.3348 2.91654   1
  -3  -4  -6 91.6684 2.86028   3
   3   4   6 94.7342 2.99754   1
   3   4   6 96.3783 4.43804   1
   3   4   6 94.5731 2.99712   3
   3   4   6 95.1135 2.92938   2
   4   4   6 89.5065 3.33542   3
   4   4   6 92.1095 3.34556   1
   4   4   6 91.7566 3.25247   2
   5   4   6 6.22008 1.79223   3
   5   4   6 4.02293 2.06497   2
   5   4   6 3.67523 1.82306   1
   6   4   6 13.0778 3.44447   1
   6   4   6 13.6266 2.79185   3
  -6  -5   6 1.55323 2.60000   2
   6  -5  -6 -1.6244 2.73408   1
   6  -5  -6 6.40882 2.76158   3
   6   5  -6 1.21330 3.81585   1
   6   5  -6 1.02069 3.16722   3
   6   5  -6 -3.3759 2.94190   2
   5  -5  -6 7.18369 1.83880   1
   5  -5  -6 7.06598 1.86168   2
  -5  -5   6 6.05384 2.05790   3
   5  -5  -6 11.9285 1.82534   3
  -5  -5   6 10.8052 1.89902   2
   5   5  -6 6.48240 2.49219   1
   5   5  -6 4.63867 2.09160   3
   5   5  -6 7.36869 1.95120   2
   4  -5  -6 5.78651 1.32323   2
   4  -5  -6 7.77089 1.37824   1
   4  -5  -6 6.32168 1.30224   3
  -4  -5   6 7.22225 1.55660   1
  -4  -5   6 8.41753 1.43370   2
  -4  -5   6 4.73784 1.43758   3
   4   5  -6 7.30041 1.46434   3
  -4   5   6 9.59382 1.11937   2
  -4   5   6 7.82173 1.51313   3
   4   5  -6 7.25310 1.59124   1
   4   5  -6 7.63593 1.45897   2
  -3  -5   6 137.451 4.08820   2
  -3  -5   6 137.074 4.19860   3
   3  -5  -6 139.269 4.01055   2
   3  -5  -6 136.774 4.13721   1
  -3  -5   6 145.590 4.22522   1
   3  -5  -6 142.583 4.09659   3
  -3   5   6 137.898 4.14680   3
   3   5  -6 142.839 4.06451   2
   3   5  -6 138.918 4.24409   1
  -3   5   6 145.384 3.90260   2
   3   5  -6 139.934 4.19252   3
   2  -5  -6 499.623 12.3159   1
  -2  -5   6 496.365 12.3266   3
  -2  -5   6 493.474 12.3132   1
  -2  -5   6 499.436 12.2957   2
   2  -5  -6 486.598 12.3265   1
   2  -5  -6 500.757 12.2933   3
   2  -5  -6 503.343 12.2533   2
   2   5  -6 489.043 12.2323   2
   2   5  -6 494.214 12.2779   1
   2   5  -6 504.359 12.3071   3
  -2   5   6 493.003 12.2445   3
  -2   5   6 495.717 12.1922   2
  -2   5   6 505.447 12.2268   1
   1  -5  -6 1061.45 25.9782   3
  -1  -5   6 1064.36 25.9617   3
   1  -5  -6 1076.36 25.9861   1
  -1  -5   6 1070.90 25.9735   1
   1  -5  -6 1032.46 25.9417   2
   1  -5  -6 1079.22 25.9952   1
  -1  -5   6 1097.78 25.9596   2
  -1  -5   6 1097.32 25.9790   1
   1   5  -6 1105.13 25.9143   2
   1   5  -6 1039.92 25.9166   3
  -1   5   6 1074.01 25.9625   3
   1   5  -6 1082.57 25.8840   2
  -1   5   6 1087.78 25.9563   1
   1   5  -6 1105.47 25.9059   1
  -1   5   6 1072.26 25.9300   2
   0  -5   6 265.918 6.66396   3
   0  -5   6 260.826 6.68052   1
   0  -5   6 268.770 6.67762   1
   0  -5   6 276.019 6.71863   3
   0  -5   6 258.572 6.76234   2
   0   5   6 254.474 6.70968   2
   0   5  -6 271.444 6.55487   1
   0   5  -6 268.499 6.60199   3
   0   5  -6 265.605 6.53478   2
   0   5  -6 278.714 6.56556   2
   0   5   6 262.801 6.77731   3
   1  -5   6 145.920 3.71652   3
  -1  -5  -6 142.896 3.84563   2
  -1  -5  -6 144.009 3.90577   3
   1  -5   6 146.852 3.69339   3
   1  -5   6 149.122 3.70116   2
   1  -5   6 141.341 3.70069   1
   1  -5   6 141.653 3.68595   1
   1   5   6 153.486 4.34420   1
   1   5   6 138.975 3.92900   1
  -1   5  -6 139.515 3.54169   3
   1   5   6 135.951 3.86201   2
  -1   5  -6 142.375 3.52006   3
   1   5   6 138.280 3.93750   3
   2  -5   6 322.344 7.74279   3
   2  -5   6 320.281 7.77258   1
   2  -5   6 319.856 7.77049   1
  -2  -5  -6 315.681 8.03000   1
  -2  -5  -6 314.894 7.98715   2
  -2  -5  -6 325.424 8.06630   3
   2  -5   6 315.469 7.72693   3
   2   5   6 312.798 8.09045   3
   2   5   6 323.221 8.07467   2
   2   5   6 325.126 8.11763   1
   2   5   6 307.344 8.29938   1
   3  -5   6 13.7082 0.93817   1
  -3  -5  -6 14.4454 1.12612   2
  -3  -5  -6 13.7015 1.31229   3
   3  -5   6 16.1406 0.97321   1
   3   5   6 14.6261 1.23537   2
   3   5   6 13.9096 1.30679   1
   3   5   6 12.1079 1.23788   3
  -4  -5  -6 50.3147 2.32058   2
   4   5   6 55.6707 2.96331   3
   4   5   6 51.9391 2.91787   1
   4   5   6 55.3537 2.87617   2
   5   5   6 0.27486 2.26497   2
   5   5   6 2.50083 2.02940   1
   5   5   6 2.16813 2.05089   3
   5  -6  -6 3.78792 2.09403   2
   5  -6  -6 1.63983 1.90441   3
  -5  -6   6 2.01556 1.98516   2
   5  -6  -6 4.00893 2.00001   1
  -5  -6   6 1.73808 2.17724   3
   5   6  -6 1.01526 2.38275   3
   5   6  -6 6.51560 2.69273   1
   5   6  -6 2.96633 2.47028   2
   4  -6  -6 53.5866 2.91961   1
  -4  -6   6 53.8278 2.77246   2
  -4  -6   6 56.9991 3.49971   1
  -4  -6   6 46.1767 3.05553   3
   4  -6  -6 50.8414 3.01711   3
   4  -6  -6 52.1536 2.79975   2
   4   6  -6 46.9650 3.27874   3
   4   6  -6 54.9643 3.74170   1
   4   6  -6 52.8854 2.88289   2
   3  -6  -6 235.617 6.39488   1
  -3  -6   6 237.008 6.38784   2
  -3  -6   6 233.825 6.50513   1
   3  -6  -6 237.916 6.30483   2
  -3  -6   6 232.632 6.47832   3
   3  -6  -6 238.676 6.36904   3
   3   6  -6 234.098 6.35508   2
  -3   6   6 235.143 6.11100   2
   3   6  -6 235.382 6.57201   1
  -3   6   6 237.316 6.30547   3
   3   6  -6 238.723 6.51848   3
   2  -6  -6 797.207 19.3993   3
  -2  -6   6 779.712 19.3981   2
   2  -6  -6 798.331 19.3514   2
   2  -6  -6 793.633 19.4209   1
   2  -6  -6 843.981 19.7078   1
  -2  -6   6 793.589 19.4361   3
  -2  -6   6 796.915 19.4428   1
  -2   6   6 772.148 19.2939   1
   2   6  -6 805.030 19.3858   1
  -2   6   6 796.664 19.3508   3
   2   6  -6 785.503 19.4124   3
  -2   6   6 784.325 19.2817   2
   2   6  -6 778.049 19.3289   2
   1  -6  -6 217.225 5.74579   1
   1  -6  -6 213.245 5.65651   2
  -1  -6   6 219.304 5.68496   2
  -1  -6   6 212.570 5.79962   1
   1  -6  -6 218.596 5.73559   3
  -1  -6   6 221.231 5.71197   3
  -1  -6   6 216.689 5.71423   1
  -1   6   6 218.927 5.70975   1
   1   6  -6 218.801 5.61599   1
  -1   6   6 213.069 5.72833   3
   1   6  -6 220.168 5.66474   3
   1   6  -6 211.916 5.55506   2
  -1   6   6 217.960 5.65011   2
   0  -6  -6 243.163 6.25890   2
   0  -6   6 248.727 6.31594   3
   0  -6   6 248.329 6.20280   3
   0  -6   6 252.367 6.20644   2
   0  -6   6 242.129 6.21908   1
   0  -6  -6 237.135 6.32824   1
   0  -6  -6 241.658 6.29826   3
   0  -6   6 234.955 6.48457   1
   0   6   6 240.676 6.32962   1
   0   6  -6 247.437 6.07010   2
   0   6  -6 242.383 6.11058   3
   0   6  -6 242.259 6.01758   2
   0   6   6 234.415 6.23130   2
   0   6   6 244.081 6.32689   3
  -1  -6  -6 30.3602 1.56128   2
   1  -6   6 27.0639 1.49332   3
  -1  -6  -6 27.6710 1.65631   3
   1  -6   6 29.3564 1.32164   2
  -1  -6  -6 23.9390 1.81562   1
   1  -6   6 28.6770 1.38460   1
   1  -6   6 29.0847 1.35967   1
   1  -6   6 30.7425 1.29295   3
   1   6   6 27.9642 1.80667   3
   1   6   6 29.6712 1.75815   1
   1   6   6 27.4669 1.59525   2
  -1   6  -6 27.3000 1.09189   3
  -2  -6  -6 26.5934 1.85837   1
   2  -6   6 29.0820 1.35953   2
   2  -6   6 30.1426 1.37667   3
   2  -6   6 28.1814 1.20267   3
  -2  -6  -6 27.4841 1.66366   2
   2  -6   6 28.0675 1.32513   1
   2  -6   6 28.1870 1.31092   1
  -2  -6  -6 27.6568 1.84863   3
   2   6   6 30.9731 1.89476   2
   2   6   6 28.0307 2.00205   1
   2   6   6 26.4066 1.93806   3
  -3  -6  -6 37.2645 2.54595   3
   3  -6   6 35.8708 1.55442   1
  -3  -6  -6 39.2516 2.09415   2
   3  -6   6 36.8317 1.56573   1
   3   6   6 35.9318 2.46673   3
   3   6   6 36.1699 2.50175   1
   3   6   6 37.8378 2.32507   2
  -4  -6  -6 48.5428 2.64500   2
   4   6   6 40.9401 3.04790   2
   4   6   6 41.9306 3.41708   1
   4   6   6 44.5414 3.26804   3
   5   6   6 32.7479 2.92412   3
   5   6   6 32.4211 3.00892   1
   5   6   6 39.3524 3.03417   2
   5  -7  -6 32.5660 2.76844   1
   5  -7  -6 33.8303 2.84168   2
   5  -7  -6 32.4358 2.76122   3
  -5  -7   6 35.8729 3.12180   3
  -5  -7   6 31.3169 2.82959   2
   5   7  -6 32.4480 3.53024   1
   5   7  -6 28.1635 2.91514   2
   5   7  -6 36.4849 3.30333   3
  -4  -7   6 104.580 5.04924   1
  -4  -7   6 101.247 5.19819   3
  -4  -7   6 100.490 4.00441   2
   4  -7  -6 104.624 4.18504   1
   4  -7  -6 103.422 4.16545   3
   4  -7  -6 100.941 3.95830   2
   4   7  -6 98.8364 4.76836   1
   4   7  -6 109.665 4.15322   2
   4   7  -6 111.508 4.64043   3
   3  -7  -6 112.933 3.79801   3
   3  -7  -6 107.630 3.68234   2
   3  -7  -6 112.942 3.85020   1
  -3  -7   6 118.752 4.20284   1
  -3  -7   6 113.256 3.92651   3
  -3  -7   6 113.813 3.75710   2
   3   7  -6 111.219 3.71945   2
  -3   7   6 110.738 3.82265   3
  -3   7   6 108.877 3.47801   2
   3   7  -6 118.836 4.18200   3
   3   7  -6 106.767 4.08220   1
  -2  -7   6 18.4516 1.50485   1
  -2  -7   6 21.6224 1.90606   2
  -2  -7   6 21.2058 1.48454   3
   2  -7  -6 18.4092 1.40067   3
   2  -7  -6 19.2006 1.31516   2
   2  -7  -6 20.2342 1.48561   1
  -2   7   6 20.9812 1.54385   3
  -2   7   6 19.5943 1.72457   2
   2   7  -6 19.4402 1.49037   1
   2   7  -6 19.5903 1.46892   3
   2   7  -6 17.3782 1.31409   2
  -2   7   6 20.5000 1.42128   1
  -1  -7   6 14.8993 1.17699   3
  -1  -7   6 15.5309 1.20479   1
  -1  -7   6 14.3347 1.17301   2
   1  -7  -6 14.9571 1.19388   3
   1  -7  -6 16.0310 1.26535   1
   1  -7  -6 16.3155 1.28865   2
  -1   7   6 15.5507 1.30250   3
  -1   7   6 14.8108 1.24272   1
   1   7  -6 14.3684 1.03696   2
   1   7  -6 16.0482 1.16781   1
  -1   7   6 14.4879 1.14255   2
   1   7  -6 15.5566 1.15700   3
   0  -7   6 98.6862 3.25617   1
   0  -7   6 98.0488 3.04382   1
   0  -7  -6 96.5979 3.06594   2
   0  -7  -6 98.7804 3.17785   3
   0  -7  -6 97.5370 3.23510   1
   0  -7   6 99.2977 3.04311   2
   0  -7   6 102.639 3.03722   3
   0   7  -6 100.834 2.99118   2
   0   7  -6 97.5725 2.73811   2
   0   7  -6 100.097 2.91149   3
   0   7  -6 96.9247 2.90355   1
   0   7   6 97.3583 3.27289   1
   0   7   6 101.067 3.28590   3
   1  -7   6 63.3452 2.19315   2
   1  -7   6 60.0358 2.28474   1
   1  -7   6 63.0439 2.17219   1
  -1  -7  -6 60.0645 2.34116   2
  -1  -7  -6 62.1709 2.50397   3
  -1  -7  -6 64.5376 2.57455   1
   1  -7   6 60.8840 2.09549   3
  -1   7  -6 60.7982 1.97916   3
   1   7   6 62.6962 2.61455   1
   1   7   6 66.0053 2.69325   3
  -2  -7  -6 123.135 3.96551   1
  -2  -7  -6 127.234 3.72645   2
   2  -7   6 122.673 3.46617   1
   2  -7   6 118.323 3.50017   1
   2  -7   6 124.240 3.35369   3
  -2  -7  -6 124.524 3.88169   3
   2  -7   6 112.266 3.65068   2
   2   7   6 127.327 4.06759   3
   2   7   6 124.306 3.84220   2
   2   7   6 124.962 4.07423   1
   3  -7   6 34.0395 1.53188   3
   3  -7   6 34.6774 1.76414   1
  -3  -7  -6 33.8113 2.29256   2
  -3  -7  -6 35.0082 2.82971   3
   3   7   6 32.4612 2.78961   3
   3   7   6 35.0078 3.06247   1
   3   7   6 31.6884 2.57690   2
   4  -7   6 14.6574 1.17212   1
  -4  -7  -6 15.5398 2.15288   2
   4   7   6 14.4312 2.34646   1
   4   7   6 20.8786 2.31920   3
   4   7   6 18.1972 2.51832   2
   5   7   6 12.6908 3.05925   3
   5   7   6 12.5900 3.34708   1
   5   7   6 17.7764 3.19736   2
  -5  -8   6 62.0111 5.02475   2
   5  -8  -6 57.7329 3.49630   3
   5  -8  -6 53.9308 4.99378   1
  -5  -8   6 59.7777 4.16055   3
   5   8  -6 64.6268 5.45357   2
   5   8  -6 56.4261 4.24606   3
   4  -8  -6 1.79848 1.88364   1
  -4  -8   6 3.19904 2.06738   3
   4  -8  -6 4.45837 1.98116   2
  -4  -8   6 0.80662 1.76083   2
   4  -8  -6 0.65582 1.79829   3
   4   8  -6 2.08187 2.34952   3
   4   8  -6 8.56154 3.14281   1
   4   8  -6 -0.3408 2.10425   2
  -3  -8   6 22.0584 2.37322   2
  -3  -8   6 23.0948 2.20325   1
   3  -8  -6 25.5766 1.77356   2
   3  -8  -6 21.8184 3.12556   1
  -3  -8   6 22.8520 1.95132   3
  -3   8   6 25.4645 2.14584   2
   3   8  -6 22.0240 2.47735   1
   3   8  -6 22.2817 2.07929   3
  -2  -8   6 149.469 4.51999   2
   2  -8  -6 143.801 4.53525   3
   2  -8  -6 141.846 4.54816   1
  -2  -8   6 145.787 4.57484   3
  -2  -8   6 149.952 4.71893   1
   2  -8  -6 146.061 4.38935   2
   2   8  -6 150.329 4.65379   3
  -2   8   6 149.818 4.27281   2
   2   8  -6 146.575 5.08819   1
   2   8  -6 146.810 4.33541   2
  -2   8   6 137.371 4.55472   3
  -1  -8   6 4.61002 1.07625   2
   1  -8  -6 5.38230 1.06298   2
  -1  -8   6 6.40347 1.13055   3
   1  -8  -6 5.76081 1.16127   3
   1  -8  -6 5.40855 1.26734   1
  -1  -8   6 3.80509 1.14278   1
  -1   8   6 3.36515 1.28244   3
  -1   8   6 3.77905 1.30517   1
   1   8  -6 2.97158 1.05248   2
  -1   8   6 5.46474 1.16419   2
   1   8  -6 2.86455 1.26937   3
   0  -8   6 79.9214 2.80603   3
   0  -8   6 84.2742 2.90633   1
   0  -8  -6 81.8122 3.13936   1
   0  -8  -6 81.7675 2.88231   2
   0  -8   6 83.8631 2.86708   2
   0   8   6 85.3834 3.36903   1
   0   8   6 77.0670 3.27886   3
   0   8  -6 80.8013 2.72868   3
   0   8   6 78.7004 2.82297   2
   0   8  -6 82.9915 2.51453   2
   1  -8   6 4.26144 0.89695   3
  -1  -8  -6 3.01768 1.23139   3
  -1  -8  -6 3.48390 1.10797   2
   1  -8   6 2.55190 0.92541   1
   1  -8   6 2.91151 1.05829   2
   1   8   6 2.71627 1.37336   3
   1   8   6 2.92712 1.10748   2
   1   8   6 6.81564 1.50508   1
  -2  -8  -6 127.468 4.05797   2
   2  -8   6 127.288 3.65633   3
   2  -8   6 128.856 3.78901   1
  -2  -8  -6 130.293 4.30026   3
  -2  -8  -6 129.540 4.44178   1
   2  -8   6 130.825 3.91021   2
   2   8   6 131.246 4.47180   3
   2   8   6 139.302 4.55561   1
   2   8   6 128.094 4.20302   2
  -3  -8  -6 226.595 6.58617   3
   3  -8   6 211.375 5.72192   3
   3  -8   6 206.309 6.16221   1
   3   8   6 225.538 6.79656   1
   3   8   6 235.784 6.81284   3
   3   8   6 230.715 6.55513   2
   4  -8   6 4.12452 1.36971   1
  -4  -8  -6 6.72768 2.15358   2
   4   8   6 7.05295 2.60699   1
   4   8   6 4.69514 2.38037   2
   4   8   6 4.30772 2.44444   3
   4  -9  -6 7.26343 2.37632   3
   4  -9  -6 7.70679 2.57828   2
  -4  -9   6 4.32815 2.47411   3
   4  -9  -6 9.88339 2.37785   1
  -4  -9   6 6.39798 2.20722   2
   4   9  -6 4.67815 2.61769   2
   4   9  -6 2.78420 2.94580   3
   3  -9  -6 15.7062 1.89469   2
  -3  -9   6 15.7963 1.93544   2
   3  -9  -6 17.3616 2.05038   1
  -3  -9   6 12.1688 1.92271   3
   3  -9  -6 14.1953 1.95784   3
  -3  -9   6 14.3906 2.24063   1
   3   9  -6 15.7275 3.32563   3
   3   9  -6 12.8157 1.92251   2
  -2  -9   6 35.0686 2.96445   1
  -2  -9   6 27.2804 2.35868   2
   2  -9  -6 28.1341 2.27752   3
   2  -9  -6 30.7579 2.78022   1
  -2  -9   6 32.6099 3.29412   3
   2  -9  -6 27.2544 2.45372   2
   2   9  -6 30.3184 2.49432   2
  -2   9   6 34.1400 2.40767   2
   2   9  -6 25.1151 2.16530   3
  -2   9   6 28.3320 2.17658   3
  -1  -9   6 15.2597 1.50525   3
  -1  -9   6 13.3393 1.50482   2
   1  -9  -6 14.8004 1.74078   1
  -1  -9   6 15.7359 1.53853   1
   1  -9  -6 14.4285 1.60343   3
   1  -9  -6 15.9976 1.56082   2
  -1   9   6 12.6449 1.87395   3
   1   9  -6 15.7757 1.40666   2
  -1   9   6 15.3595 1.52278   2
   1   9  -6 11.1079 1.63843   3
   0  -9   6 180.850 5.08791   3
   0  -9   6 178.671 5.11062   2
   0  -9  -6 176.280 5.14894   2
   0  -9  -6 177.607 5.43727   1
   0  -9   6 176.390 5.14696   1
   0   9   6 181.281 5.16810   2
   0   9   6 167.531 5.51764   1
   0   9   6 176.491 5.45177   3
   1  -9   6 136.204 4.20392   2
   1  -9   6 142.540 4.26072   1
  -1  -9  -6 135.963 4.60624   3
   1  -9   6 134.089 4.11459   3
  -1  -9  -6 136.933 4.37686   2
   1   9   6 137.364 4.84685   1
   1   9   6 149.267 4.87820   3
   1   9   6 145.005 4.51614   2
   2  -9   6 377.122 9.68411   3
   2  -9   6 380.726 9.71129   1
  -2  -9  -6 379.421 10.1292   3
  -2  -9  -6 381.123 9.95024   2
   2  -9   6 386.994 9.88201   2
   2   9   6 355.007 11.8906   3
   2   9   6 391.758 10.0665   2
   2   9   6 387.931 10.3885   1
   3  -9   6 18.0278 1.58505   3
  -3  -9  -6 13.1159 2.91107   3
  -3  -9  -6 19.8836 2.14817   2
   3  -9   6 19.5988 1.69386   1
   3   9   6 15.4634 2.92345   1
   3   9   6 18.6335 2.60306   3
   3   9   6 18.0645 2.33510   2
   4  -9   6 32.8090 2.14075   1
  -4  -9  -6 38.9806 3.00063   2
   4   9   6 29.7999 3.24930   2
   4   9   6 35.3933 3.52569   3
   4   9   6 36.3557 4.06766   1
  -3 -10   6 72.0515 5.26854   1
   3 -10  -6 77.4419 4.57465   1
   3 -10  -6 79.8438 4.67905   3
   3 -10  -6 71.1489 4.11636   2
  -3 -10   6 75.8277 4.20496   2
  -3 -10   6 69.6477 4.54509   3
   3  10  -6 78.6966 4.40517   2
   3  10  -6 78.7506 5.52193   3
  -2 -10   6 75.0939 3.85420   3
  -2 -10   6 73.3345 4.17565   1
   2 -10  -6 74.8429 3.97123   3
   2 -10  -6 66.6145 3.62643   2
  -2 -10   6 68.7415 3.66918   2
   2 -10  -6 68.7355 4.11751   1
  -2  10   6 75.0256 5.04015   2
   2  10  -6 75.6932 3.58454   2
   2  10  -6 67.0249 4.59032   3
   1 -10  -6 47.1639 3.26013   3
  -1 -10   6 43.0307 3.29375   1
  -1 -10   6 45.0273 3.48632   2
  -1 -10   6 48.3214 2.99935   3
   1 -10  -6 50.8331 2.97597   2
  -1  10   6 44.9723 3.95336   2
   1  10  -6 44.4323 2.91991   2
  -1  10   6 45.3246 3.92238   3
   0 -10   6 107.596 3.98159   3
   0 -10  -6 118.499 4.32021   3
   0 -10  -6 110.748 4.81086   1
   0 -10   6 104.197 3.90736   2
   0 -10  -6 107.433 4.01366   2
   0 -10   6 111.573 4.06736   1
   0  10   6 109.697 4.01877   2
   0  10   6 104.381 4.95046   3
  -1 -10  -6 179.098 6.23476   1
  -1 -10  -6 179.970 5.66145   2
   1 -10   6 181.134 5.46492   1
   1 -10   6 185.094 5.52322   2
   1 -10   6 186.885 5.36965   3
  -1 -10  -6 196.843 5.97967   3
   1  10   6 187.238 5.77491   2
   1  10   6 167.087 7.26487   3
   1  10   6 204.324 7.22564   1
   2 -10   6 42.4038 2.78476   1
  -2 -10  -6 42.8764 3.88399   3
  -2 -10  -6 48.1529 3.23426   2
   2  10   6 48.2481 3.64164   2
   2  10   6 41.2165 3.32901   1
   2  10   6 39.7667 3.06122   3
  -3 -10  -6 20.7170 2.65611   2
  -3 -10  -6 26.7301 3.03377   3
   3 -10   6 19.3864 2.06437   1
   3  10   6 19.8276 3.58472   1
   3  10   6 23.4514 3.06616   2
   3  10   6 18.5524 3.24641   3
   3 -11  -6 6.10757 2.72971   2
  -3 -11   6 8.89665 2.89979   2
   3 -11  -6 4.79595 2.95993   1
  -3 -11   6 0.58781 2.78111   3
   3 -11  -6 10.4045 2.95560   3
   3  11  -6 11.0657 3.12243   2
  -2 -11   6 54.1164 3.58129   1
   2 -11  -6 55.0090 4.60666   1
  -2 -11   6 47.3755 4.26401   3
   2 -11  -6 54.7216 4.44580   3
  -2 -11   6 51.8539 3.98453   2
   2 -11  -6 51.1988 4.01252   2
   2  11  -6 63.9926 4.39093   2
   1 -11  -6 79.6556 4.40659   3
  -1 -11   6 79.4934 4.14165   3
  -1 -11   6 86.1489 3.95934   2
  -1 -11   6 82.9303 4.60258   1
   1 -11  -6 83.0375 4.09716   2
   1 -11  -6 77.7636 4.75954   1
   1  11  -6 84.6753 3.99745   2
  -1  11   6 83.2301 4.41409   2
   0 -11  -6 -0.8952 2.41637   1
   0 -11   6 0.89003 1.91933   2
   0 -11  -6 2.35062 2.00051   2
   0 -11   6 2.62047 1.77648   1
   0 -11  -6 4.66782 1.98101   3
   0 -11   6 -0.4234 1.69346   3
   0  11   6 0.84435 2.72986   3
   0  11   6 4.51034 2.21464   2
  -1 -11  -6 29.9013 3.59226   1
  -1 -11  -6 33.4692 2.54452   2
   1 -11   6 30.3560 2.23064   1
   1 -11   6 30.5195 2.55815   2
   1 -11   6 32.7525 2.24148   3
   1  11   6 30.6377 3.39866   3
   1  11   6 35.7521 2.78493   2
   2 -11   6 7.98381 1.94922   1
  -2 -11  -6 8.21195 2.34084   2
   2 -11   6 13.3155 2.20590   3
  -2 -11  -6 8.50014 2.96842   3
   2  11   6 10.3288 2.87267   2
   2  11   6 15.3979 3.10224   3
   1 -12  -6 30.7033 3.08206   3
  -1 -12   6 26.9727 2.81171   3
   1 -12  -6 30.5996 3.06958   2
   1 -12  -6 27.6385 3.62447   1
  -1 -12   6 38.1958 3.12935   2
  -1 -12   6 28.8029 3.06647   1
  -1  12   6 33.2504 3.21314   2
   0 -12  -6 49.1430 3.89043   1
   0 -12  -6 43.2420 3.38039   3
   0 -12  -6 44.1014 3.12895   2
   0 -12   6 41.6803 3.16083   2
   0 -12   6 51.5166 4.03200   3
   0 -12   6 41.2692 2.92331   1
   0  12   6 43.5703 3.23792   2
   1 -12   6 5.15618 2.20433   3
  -1 -12  -6 3.66605 2.69940   2
   1 -12   6 4.94976 2.37247   1
  -1 -12  -6 0.41698 2.79839   3
   1  12   6 2.61469 3.91659   3
   1  12   6 -1.5624 3.09347   2
   6   0  -7 5.98725 2.26244   2
   6   0  -7 -1.2260 2.28966   3
   6   0  -7 -1.0227 2.30083   1
  -5   0   7 63.1024 3.22630   3
  -5   0   7 63.2817 2.76626   2
   5   0  -7 63.3405 3.05134   2
   5   0  -7 63.6938 3.26851   3
   5   0  -7 59.6967 3.27746   1
  -4   0   7 71.6297 2.71782   1
  -4   0   7 72.0160 2.84434   3
   4   0  -7 75.1355 2.85556   1
   4   0  -7 75.4019 2.69607   2
   4   0  -7 71.7494 2.83080   3
  -4   0   7 73.4471 2.62178   2
  -3   0   7 525.858 12.9266   2
   3   0  -7 532.101 13.0076   1
  -3   0   7 526.453 12.9747   3
   3   0  -7 524.999 12.9914   3
   3   0  -7 525.075 12.9457   2
  -3   0   7 535.679 12.9516   1
   3   0  -7 518.511 13.0390   1
  -2   0   7 210.486 5.28886   1
   2   0  -7 204.334 5.34091   1
  -2   0   7 202.361 5.35331   1
   2   0  -7 204.574 5.29644   3
  -2   0   7 205.492 5.29334   3
   2   0  -7 211.059 5.30189   1
   1   0  -7 67.7700 1.94740   3
   1   0  -7 64.9004 1.88296   2
  -1   0   7 64.7908 1.90549   2
   1   0  -7 68.6285 1.91578   2
   1   0  -7 68.4962 1.96911   1
   1   0  -7 63.6162 1.96657   3
  -1   0   7 66.0956 1.96780   2
  -1   0   7 68.1535 1.96032   3
   1   0  -7 66.5614 1.95020   1
  -1   0   7 67.6065 1.99153   1
   0   0   7 578.045 13.9935   2
   0   0  -7 587.398 13.9861   3
   0   0   7 534.788 13.9867   1
   0   0  -7 581.685 13.9699   1
   0   0   7 606.635 14.0013   2
   0   0  -7 600.934 13.9635   2
   0   0  -7 572.758 13.9675   2
   0   0   7 601.131 14.0118   3
   0   0   7 565.323 14.0049   3
   0   0   7 597.775 14.0203   1
   0   0  -7 569.093 13.9894   3
   1   0   7 2824.79 68.3444   1
   1   0   7 2874.62 68.3387   3
   1   0   7 2986.29 68.3348   2
   1   0   7 2893.85 68.4099   2
   1   0   7 2776.18 68.3386   3
  -1   0  -7 2858.89 68.2977   3
   2   0   7 207.093 6.12024   3
   2   0   7 249.439 5.89765   3
   2   0   7 235.650 5.89459   1
   2   0   7 248.315 5.91262   2
   2   0   7 255.016 5.89210   2
   2   0   7 247.780 5.90747   1
   3   0   7 78.8772 2.17585   2
   3   0   7 77.6783 2.22111   1
   3   0   7 76.6343 2.19885   1
   3   0   7 74.5404 2.14584   3
   3   0   7 78.6691 2.18506   3
   4   0   7 8.86189 0.96579   1
   4   0   7 9.29072 0.95586   2
   4   0   7 9.56767 0.82875   3
   4   0   7 9.53805 0.91067   1
   5   0   7 3.10771 1.06123   3
   5   0   7 1.73054 1.28583   1
   6   0   7 1.07720 1.96682   1
   6  -1  -7 12.4395 2.40689   2
   6  -1  -7 16.2343 2.52109   3
   6  -1  -7 13.4420 2.44969   1
   6   1  -7 14.7841 2.36850   2
   6   1  -7 11.3643 2.56350   1
   6   1  -7 15.6076 2.48990   3
   5  -1  -7 155.795 4.82731   3
  -5  -1   7 145.457 4.43768   2
   5  -1  -7 143.097 4.84305   1
  -5  -1   7 138.667 4.74697   3
   5  -1  -7 150.715 4.74066   2
  -5   1   7 149.051 4.43294   2
   5   1  -7 148.969 4.67155   2
  -5   1   7 142.594 4.99417   3
   5   1  -7 147.071 4.95017   1
   5   1  -7 152.539 4.90144   3
  -4  -1   7 1022.83 24.7194   3
  -4  -1   7 1010.29 24.6716   1
   4  -1  -7 1043.52 24.7599   3
   4  -1  -7 1009.85 24.6928   2
   4  -1  -7 1017.78 24.7638   1
  -4  -1   7 1014.82 24.6548   2
  -4   1   7 1001.76 24.6245   1
  -4   1   7 1012.14 24.6753   3
   4   1  -7 1009.31 24.7072   2
   4   1  -7 1026.85 24.7867   1
   4   1  -7 1014.87 24.7715   3
  -3  -1   7 182.593 4.92251   2
   3  -1  -7 185.079 5.00073   1
   3  -1  -7 190.151 5.00695   3
   3  -1  -7 191.466 4.94604   2
  -3  -1   7 191.101 4.97430   1
  -3  -1   7 186.370 5.00670   3
   3  -1  -7 185.825 5.16906   1
  -3   1   7 187.513 4.95089   1
   3   1  -7 183.199 5.01155   1
  -3   1   7 183.880 4.88747   2
   3   1  -7 187.862 5.01950   3
  -3   1   7 183.075 4.97492   3
   3   1  -7 184.036 4.93456   2
   2  -1  -7 204.745 5.24908   3
   2  -1  -7 174.555 5.73953   1
   2  -1  -7 200.276 5.19719   2
  -2  -1   7 203.581 5.33717   1
  -2  -1   7 211.783 5.25065   1
   2  -1  -7 203.714 5.27565   1
  -2  -1   7 208.715 5.26522   3
  -2  -1   7 206.828 5.22571   2
   2   1  -7 212.114 5.26274   1
   2   1  -7 206.172 5.25929   3
   2   1  -7 204.542 5.33804   1
   2   1  -7 206.076 5.21484   2
  -2   1   7 205.049 5.25148   3
  -2   1   7 203.986 5.20859   2
  -2   1   7 210.263 5.23712   1
   1  -1  -7 798.377 18.9669   3
  -1  -1   7 808.700 18.9783   1
  -1  -1   7 777.446 18.9539   2
  -1  -1   7 795.894 18.9681   3
   1  -1  -7 792.140 18.9399   2
   1  -1  -7 797.931 18.9790   1
  -1  -1   7 798.915 18.9517   2
   1  -1  -7 802.940 18.9659   1
  -1  -1   7 770.758 18.9638   1
   1  -1  -7 769.881 18.9697   3
   1   1  -7 763.619 18.9316   2
   1   1  -7 795.429 18.9552   3
  -1   1   7 765.195 18.9719   3
   1   1  -7 797.159 18.9517   1
  -1   1   7 748.034 18.9736   2
  -1   1   7 815.869 18.9895   1
   1   1  -7 771.122 18.9584   3
   1   1  -7 805.745 18.9340   2
   1   1  -7 777.692 18.9526   1
  -1   1   7 789.227 18.9547   2
  -1   1   7 811.347 18.9870   3
  -1   1   7 771.385 18.9704   1
   0  -1   7 43.6981 1.35722   3
   0  -1   7 42.3584 1.34264   3
   0  -1  -7 46.7126 1.31229   2
   0  -1  -7 43.4243 1.36596   1
   0  -1  -7 44.3603 1.36435   3
   0  -1   7 43.1973 1.31960   1
   0  -1  -7 42.8116 1.31929   2
   0  -1  -7 44.5488 1.35124   1
   0  -1  -7 43.0526 1.37317   3
   0  -1   7 43.6027 1.31052   2
   0  -1   7 42.9870 1.33988   1
   0  -1   7 43.2454 1.32881   2
   0   1  -7 42.3290 1.30940   3
   0   1   7 43.9251 1.43661   3
   0   1   7 44.0605 1.39369   1
   0   1   7 43.4830 1.37415   3
   0   1  -7 43.7217 1.24276   2
   0   1   7 44.5962 1.41282   2
   0   1  -7 42.4564 1.31882   3
   0   1  -7 40.5560 1.32337   2
   0   1   7 45.6541 1.34314   2
   0   1  -7 44.6093 1.28511   1
   0   1  -7 44.5662 1.27924   1
   1  -1   7 755.711 19.5918   1
   1  -1   7 871.238 19.5526   2
   1  -1   7 828.913 19.5552   3
   1  -1   7 816.162 19.5436   2
  -1  -1  -7 824.359 19.6000   3
  -1  -1  -7 825.853 19.5558   2
  -1  -1  -7 819.289 19.5551   2
  -1  -1  -7 830.742 19.5688   1
   1  -1   7 824.554 19.5613   1
   1  -1   7 797.635 19.5539   3
  -1  -1  -7 813.148 19.5929   3
  -1  -1  -7 821.742 19.5679   1
   1   1   7 818.337 19.6267   1
   1   1   7 779.102 19.6294   3
   1   1   7 835.387 19.6165   2
   1   1   7 858.152 19.6311   3
   1   1   7 782.122 19.6209   1
   1   1   7 815.282 19.6106   2
  -2  -1  -7 581.314 13.8329   3
   2  -1   7 586.558 13.7730   3
   2  -1   7 576.931 13.7835   1
   2  -1   7 557.623 13.7772   1
   2  -1   7 576.499 13.7698   3
   2   1   7 579.583 13.8925   3
   2   1   7 579.694 13.9054   2
   2   1   7 587.240 13.9071   1
   2   1   7 587.631 13.8834   2
   2   1   7 556.880 13.8941   1
   2   1   7 559.990 13.9759   3
   3  -1   7 8.03937 0.49983   3
   3  -1   7 8.59167 0.67064   3
   3  -1   7 8.52104 0.77695   1
   3  -1   7 8.36935 0.55469   1
   3   1   7 8.91234 0.74804   1
   3   1   7 8.48574 0.72455   2
   3   1   7 8.46812 0.71672   3
   3   1   7 9.39334 0.81065   1
   4  -1   7 13.7370 1.09651   3
   4  -1   7 14.0061 0.98095   3
   4  -1   7 13.6101 1.21310   1
   4   1   7 13.7772 1.40712   1
   4   1   7 15.5391 1.08601   3
   4   1   7 15.9581 1.20724   2
   4   1   7 17.3845 1.60000   1
   5   1   7 7.63681 1.46400   1
   5   1   7 3.63272 1.28499   3
   6  -1   7 24.6469 1.93104   1
   6   1   7 26.5059 2.33583   1
   6  -2  -7 93.9791 4.85864   2
  -6  -2   7 86.8766 4.50725   2
   6  -2  -7 92.2384 5.01758   3
   6  -2  -7 87.9362 4.90397   1
   6   2  -7 100.588 5.21499   3
   6   2  -7 95.0330 5.35644   1
   6   2  -7 99.4314 4.81242   2
   5  -2  -7 116.799 4.22449   1
   5  -2  -7 114.213 3.96687   2
  -5  -2   7 112.209 3.76894   2
   5  -2  -7 112.188 4.44929   3
  -5  -2   7 109.167 4.16429   3
   5   2  -7 112.959 3.97454   2
   5   2  -7 115.553 4.38631   1
  -5   2   7 107.219 3.55517   2
   5   2  -7 101.687 5.66640   3
  -4  -2   7 101.688 3.42703   1
  -4  -2   7 105.732 3.48975   3
  -4  -2   7 102.843 3.30666   2
   4  -2  -7 104.302 3.32504   2
   4  -2  -7 102.555 3.44010   3
   4  -2  -7 104.885 3.48352   1
  -4   2   7 105.711 3.21811   2
   4   2  -7 104.198 3.40299   2
  -4   2   7 99.7607 3.28417   1
   4   2  -7 101.000 3.61629   1
   4   2  -7 102.465 3.49351   3
  -4   2   7 102.520 3.54067   3
   3  -2  -7 28.3654 2.18002   1
   3  -2  -7 33.2470 1.73334   3
   3  -2  -7 33.2871 1.75983   1
  -3  -2   7 36.6348 1.78768   1
  -3  -2   7 33.0539 1.77350   3
   3  -2  -7 34.5536 1.60814   2
   3   2  -7 34.5097 1.65378   2
  -3   2   7 32.9411 1.74753   3
   3   2  -7 29.7836 1.78123   3
  -3   2   7 31.3359 1.66600   1
  -3   2   7 30.7872 1.57727   2
   3   2  -7 32.6144 1.84903   1
   2  -2  -7 462.157 11.4764   2
  -2  -2   7 465.759 11.5046   2
  -2  -2   7 468.583 11.5276   3
  -2  -2   7 469.801 11.5872   1
   2  -2  -7 463.093 11.5123   3
   2  -2  -7 471.517 11.5256   1
   2  -2  -7 474.694 11.5289   1
   2   2  -7 474.965 11.5195   1
   2   2  -7 458.866 11.5136   3
  -2   2   7 468.716 11.4762   2
  -2   2   7 480.610 11.4984   1
   2   2  -7 457.961 11.4754   2
  -2   2   7 480.945 11.5237   3
   1  -2  -7 721.920 17.6262   3
   1  -2  -7 729.360 17.6241   1
  -1  -2   7 723.612 17.6113   2
   1  -2  -7 726.436 17.6425   1
   1  -2  -7 744.223 17.6167   2
  -1  -2   7 753.063 17.6382   3
   1  -2  -7 634.122 17.7026   3
  -1  -2   7 734.431 17.6070   2
  -1  -2   7 727.362 17.6289   3
  -1  -2   7 748.484 17.6368   1
  -1   2   7 722.804 17.6176   2
   1   2  -7 729.833 17.6122   3
  -1   2   7 733.756 17.6487   3
   1   2  -7 730.683 17.6025   1
  -1   2   7 734.567 17.6403   1
  -1   2   7 743.675 17.6554   1
   1   2  -7 738.946 17.6093   1
  -1   2   7 747.037 17.6310   2
   1   2  -7 725.670 17.6139   3
   1   2  -7 753.980 17.5887   2
   0  -2  -7 926.023 23.3390   2
   0  -2  -7 974.862 23.3450   1
   0  -2   7 958.685 23.3077   3
   0  -2  -7 996.527 23.3286   2
   0  -2   7 967.799 23.3111   1
   0  -2   7 983.997 23.3098   3
   0  -2  -7 967.803 23.3545   1
   0  -2  -7 961.090 23.3452   3
   0  -2  -7 958.726 23.3556   3
   0  -2   7 965.998 23.2996   2
   0  -2   7 1009.88 23.2997   2
   0   2  -7 960.494 23.2483   1
   0   2   7 962.620 23.3670   1
   0   2  -7 986.115 23.2440   2
   0   2  -7 992.629 23.2801   3
   0   2   7 997.887 23.3568   2
   0   2  -7 982.747 23.2487   1
   0   2  -7 969.359 23.2814   3
   0   2  -7 970.049 23.2425   2
   0   2   7 930.112 23.3401   2
   0   2   7 1005.66 23.3700   3
  -1  -2  -7 238.543 5.68683   2
  -1  -2  -7 234.570 5.72998   3
  -1  -2  -7 233.226 5.68749   2
  -1  -2  -7 226.974 5.73425   3
   1  -2   7 204.393 5.64295   1
   1  -2   7 231.127 5.61405   1
   1  -2   7 241.806 5.60578   2
   1  -2   7 234.108 5.61157   3
   1  -2   7 230.603 5.61032   3
   1   2   7 239.329 5.76424   3
   1   2   7 225.599 5.76245   2
   1   2   7 234.302 5.77118   1
   1   2   7 227.830 5.75435   3
   1   2   7 220.997 5.74137   1
   1   2   7 235.497 5.72981   2
  -2  -2  -7 175.126 4.36595   3
  -2  -2  -7 172.484 4.27079   2
  -2  -2  -7 175.339 4.31655   1
   2   2   7 169.556 4.42418   1
   2   2   7 177.009 4.47226   3
   2   2   7 172.206 4.45045   1
   2   2   7 161.919 4.41025   3
   2   2   7 175.283 4.40240   2
  -3  -2  -7 160.502 4.18502   3
   3   2   7 165.051 4.34252   3
   3   2   7 163.395 4.39088   1
   3   2   7 167.464 4.37261   1
   3   2   7 164.908 4.33244   2
   3   2   7 161.382 4.45002   3
   4  -2   7 12.6057 1.10826   1
   4  -2   7 11.8747 1.01649   1
   4   2   7 12.5570 1.18547   1
   4   2   7 13.8528 1.13559   3
   4   2   7 13.5365 1.23617   2
   5   2   7 47.1875 2.87833   1
   5   2   7 46.4421 3.75053   2
   5   2   7 48.9323 2.74983   3
   6   2   7 3.43358 2.30203   3
   6   2   7 1.64395 2.38670   1
   6  -3  -7 14.8258 2.57606   3
   6  -3  -7 17.1212 2.78092   2
  -6  -3   7 17.5395 2.33702   2
   6  -3  -7 15.3379 2.64443   1
   6   3  -7 18.9247 3.01943   1
   6   3  -7 14.2506 2.73173   2
   6   3  -7 18.3691 2.83031   3
  -5  -3   7 23.5770 2.02133   3
   5  -3  -7 22.3788 2.30410   1
   5  -3  -7 25.1282 2.13888   3
   5  -3  -7 25.8958 1.94816   2
  -5  -3   7 24.3739 1.83437   2
   5   3  -7 22.5132 2.15175   1
   5   3  -7 24.9173 2.14515   3
   5   3  -7 26.4303 3.42493   2
  -4  -3   7 122.124 4.38047   1
   4  -3  -7 129.450 3.89405   2
   4  -3  -7 127.669 4.08891   1
   4  -3  -7 127.223 4.02539   3
  -4  -3   7 126.496 3.91067   2
  -4  -3   7 128.638 4.05569   3
   4   3  -7 134.011 4.25022   1
  -4   3   7 131.606 3.71446   2
   4   3  -7 130.276 4.14250   3
  -4   3   7 126.370 3.98442   3
   4   3  -7 127.116 3.94659   2
  -3  -3   7 297.325 7.58085   3
   3  -3  -7 290.141 7.53157   3
   3  -3  -7 296.834 7.56766   1
   3  -3  -7 294.363 7.49242   2
   3  -3  -7 279.307 7.69332   1
  -3  -3   7 293.983 7.52911   2
  -3  -3   7 297.668 7.57538   1
  -3   3   7 293.417 7.49755   3
   3   3  -7 292.940 7.59620   3
  -3   3   7 292.005 7.42588   2
  -3   3   7 302.263 7.47453   1
   3   3  -7 295.931 7.61409   1
   3   3  -7 296.967 7.51065   2
   2  -3  -7 51.4891 1.91489   3
  -2  -3   7 50.1783 1.91124   3
   2  -3  -7 54.5449 1.97065   1
  -2  -3   7 57.7895 2.45756   1
  -2  -3   7 52.2803 1.94886   1
  -2   3   7 54.6933 1.89979   1
  -2   3   7 50.6845 1.79292   2
  -2   3   7 50.1924 1.90332   3
   2   3  -7 50.8843 1.79895   2
   2   3  -7 54.9630 1.93685   3
   2   3  -7 54.3719 1.92642   1
   1  -3  -7 90.6633 2.57035   1
   1  -3  -7 88.7147 2.57587   3
  -1  -3   7 89.9421 2.61613   3
  -1  -3   7 91.9796 2.54639   1
   1  -3  -7 90.8177 2.62673   1
  -1  -3   7 82.2493 2.53283   2
  -1  -3   7 86.2880 2.52199   3
   1  -3  -7 87.8842 2.49092   2
  -1  -3   7 85.3475 2.52722   1
   1   3  -7 88.0175 2.42779   2
  -1   3   7 90.5698 2.52212   1
  -1   3   7 85.0996 2.48402   2
   1   3  -7 90.1932 2.48282   1
   1   3  -7 87.4455 2.49750   3
  -1   3   7 89.5437 2.69282   1
   1   3  -7 89.2640 2.52730   2
   0  -3   7 587.584 14.1606   3
   0  -3   7 598.523 14.1514   2
   0  -3  -7 598.418 14.2388   1
   0  -3   7 578.898 14.1648   1
   0  -3  -7 599.960 14.2070   2
   0  -3   7 596.616 14.1557   2
   0  -3   7 586.316 14.1611   1
   0  -3  -7 594.347 14.2363   3
   0  -3   7 608.492 14.1665   3
   0  -3  -7 589.651 14.2281   1
   0  -3  -7 569.805 14.1961   2
   0   3   7 517.870 14.3298   1
   0   3  -7 600.952 14.0816   1
   0   3  -7 594.104 14.0741   2
   0   3   7 591.595 14.2419   3
   0   3  -7 596.560 14.1234   3
   0   3  -7 593.926 14.0689   2
   0   3  -7 515.186 14.0621   1
   0   3   7 614.936 14.2723   1
   0   3   7 599.141 14.2563   3
   0   3  -7 584.182 14.1244   3
   1  -3   7 272.718 6.63374   3
   1  -3   7 267.711 6.63793   1
  -1  -3  -7 276.010 6.75874   2
   1  -3   7 285.819 6.63696   2
  -1  -3  -7 274.150 6.79275   3
  -1  -3  -7 275.599 6.78905   1
   1  -3   7 271.584 6.62971   3
   1  -3   7 277.510 6.63146   2
   1  -3   7 271.451 6.63750   1
  -1  -3  -7 259.678 6.73914   2
   1   3   7 277.775 6.84940   3
   1   3   7 270.438 6.81643   3
   1   3   7 278.059 6.84496   1
   1   3   7 266.570 6.80947   1
   1   3   7 266.962 6.78708   2
  -2  -3  -7 4.97303 0.69722   1
  -2  -3  -7 4.43356 0.60674   2
  -2  -3  -7 5.00107 0.65626   3
  -2  -3  -7 4.65771 0.73745   2
   2   3   7 3.86185 0.67558   3
   2   3   7 4.22208 0.69979   2
   2   3   7 5.46605 1.00084   3
   2   3   7 5.17458 0.82111   1
   2   3   7 3.90774 0.68080   1
  -3  -3  -7 24.2397 1.55307   1
   3   3   7 26.2216 1.59282   2
   3   3   7 24.0129 1.67602   3
   3   3   7 28.1905 1.60825   1
   3   3   7 29.4293 2.54791   3
   4   3   7 13.0962 1.32245   1
   4   3   7 14.6494 1.30717   3
   4   3   7 13.7107 1.39263   2
   5   3   7 28.0809 2.07436   1
   5   3   7 32.6865 2.95706   3
   5   3   7 35.2848 2.35834   2
   6   3   7 4.26160 2.61645   1
   6   3   7 8.01251 2.55062   3
   6  -4  -7 13.2840 2.81034   1
   6  -4  -7 2.66271 2.92751   2
   6  -4  -7 7.61051 2.57801   3
  -6  -4   7 10.0814 2.50177   2
   6   4  -7 17.7358 3.73796   1
   6   4  -7 -1.0410 3.62138   3
   6   4  -7 7.04272 2.80935   2
   5  -4  -7 45.7050 3.41855   3
   5  -4  -7 46.7563 3.36984   1
  -5  -4   7 45.2146 2.99901   2
   5  -4  -7 38.3189 3.09116   2
  -5  -4   7 41.3179 3.46963   3
   5   4  -7 45.9757 4.12837   1
   5   4  -7 43.2974 3.17831   2
   5   4  -7 42.6614 3.66492   3
  -4  -4   7 21.3866 1.64635   3
  -4  -4   7 19.5873 1.49660   2
   4  -4  -7 17.8535 1.53810   1
   4  -4  -7 19.0568 1.55649   2
  -4  -4   7 19.8614 1.69907   1
   4  -4  -7 19.9125 1.53726   3
   4   4  -7 20.6737 1.74019   1
   4   4  -7 19.4687 1.67619   3
  -4   4   7 17.8234 1.47374   3
   4   4  -7 16.6202 1.47046   2
  -4   4   7 19.8664 1.77480   2
  -3  -4   7 77.4253 2.78006   1
   3  -4  -7 77.6030 2.69835   3
  -3  -4   7 72.0169 2.81885   3
  -3  -4   7 75.0264 2.68675   2
   3  -4  -7 83.0665 3.36787   1
   3  -4  -7 79.4186 2.74431   1
   3  -4  -7 76.0652 2.59321   2
   3   4  -7 76.0550 2.81618   1
  -3   4   7 75.9538 2.60732   1
   3   4  -7 77.7246 2.83086   3
   3   4  -7 71.6494 2.56684   2
  -3   4   7 77.5956 2.67131   3
  -3   4   7 74.2841 2.50061   2
   2  -4  -7 352.270 9.12560   1
  -2  -4   7 360.474 9.08934   1
  -2  -4   7 360.781 9.06221   2
  -2  -4   7 369.045 9.10552   3
   2  -4  -7 364.667 9.09317   1
   2  -4  -7 367.764 9.03548   2
   2  -4  -7 354.728 9.06328   3
   2   4  -7 358.752 9.07285   3
  -2   4   7 362.064 9.05618   3
  -2   4   7 375.333 9.04786   1
   2   4  -7 364.890 9.05553   1
  -2   4   7 363.785 9.00252   2
   2   4  -7 352.172 9.00668   2
   1  -4  -7 1322.45 32.2408   2
  -1  -4   7 1340.82 32.2650   1
   1  -4  -7 1313.39 32.2667   3
  -1  -4   7 1375.01 32.2588   1
   1  -4  -7 1326.42 32.2776   1
  -1  -4   7 1376.30 32.2651   3
  -1  -4   7 1312.13 32.2477   3
   1  -4  -7 1354.88 32.2673   1
   1   4  -7 1330.33 32.1745   2
  -1   4   7 1327.51 32.2384   2
   1   4  -7 1379.02 32.1943   2
   1   4  -7 1367.85 32.2266   3
  -1   4   7 1308.30 32.2549   3
   1   4  -7 1366.35 32.2006   1
  -1   4   7 1337.71 32.2588   1
   0  -4   7 1580.12 38.3892   1
   0  -4  -7 1613.81 38.4642   1
   0  -4   7 1620.26 38.3849   3
   0  -4   7 1608.91 38.3808   1
   0  -4   7 1675.66 38.3835   3
   0  -4  -7 1607.09 38.4679   3
   0  -4  -7 1572.52 38.4341   2
   0   4   7 1549.41 38.4406   2
   0   4   7 1599.52 38.4657   3
   0   4   7 1656.30 38.4828   1
   0   4  -7 1621.62 38.3299   3
   0   4   7 1643.33 38.4764   1
   0   4  -7 1518.69 38.3446   1
   0   4  -7 1590.09 38.2647   2
   1  -4   7 272.564 6.52989   3
   1  -4   7 270.756 6.54369   1
   1  -4   7 267.777 6.52604   3
  -1  -4  -7 263.838 6.66717   2
   1  -4   7 269.053 6.53037   1
  -1  -4  -7 266.428 6.71371   1
   1  -4   7 263.606 6.53518   2
   1   4   7 263.420 6.74055   3
   1   4   7 264.808 6.70547   2
   1   4   7 261.198 6.73227   1
   1   4   7 262.975 6.80489   1
  -2  -4  -7 41.8979 1.93037   2
  -2  -4  -7 43.1262 1.73550   1
   2  -4   7 42.6556 1.23351   1
   2  -4   7 41.0946 1.22192   1
  -2  -4  -7 42.1044 1.59087   2
  -2  -4  -7 41.5818 1.71911   3
   2   4   7 41.5410 1.80644   1
   2   4   7 43.3204 1.78304   3
   2   4   7 38.8452 2.08228   1
   2   4   7 40.6823 1.71574   2
  -3  -4  -7 46.8955 1.75536   2
  -3  -4  -7 47.3063 1.97472   3
   3   4   7 44.9475 2.14506   1
   3   4   7 46.1106 2.13124   3
   3   4   7 44.6761 2.13038   2
   4   4   7 4.49605 1.34013   3
   4   4   7 6.15705 1.32169   1
   4   4   7 6.19523 1.37346   2
   5   4   7 40.9285 3.38600   1
   5   4   7 34.8679 2.31714   3
   5   4   7 28.0861 2.66194   2
   6  -5  -7 0.62976 2.99518   1
  -6  -5   7 3.59280 2.73907   2
   6  -5  -7 3.15300 2.96162   3
   6   5  -7 5.46403 3.11735   2
   6   5  -7 -7.0389 3.52625   1
   6   5  -7 -1.7645 3.18515   3
  -5  -5   7 54.2460 3.37264   2
   5  -5  -7 59.1778 3.63515   3
   5  -5  -7 52.2093 3.72412   1
   5  -5  -7 49.2591 4.11688   2
  -5  -5   7 49.4875 3.86802   3
   5   5  -7 51.8762 3.84155   2
   5   5  -7 57.8180 3.60439   1
   5   5  -7 61.0277 4.17585   3
  -4  -5   7 -0.3291 1.31818   3
  -4  -5   7 -0.0533 1.55598   1
  -4  -5   7 -0.7032 1.18923   2
   4  -5  -7 0.89353 1.25562   2
   4  -5  -7 0.37895 1.28119   3
   4  -5  -7 -1.3506 1.25658   1
   4   5  -7 -0.3828 1.34115   2
   4   5  -7 -0.7223 1.60382   1
  -4   5   7 0.03655 1.19435   2
  -4   5   7 -1.4132 1.52457   3
   4   5  -7 0.39905 1.36381   3
   3  -5  -7 27.9946 2.00225   3
  -3  -5   7 24.3607 2.08320   1
   3  -5  -7 27.8398 2.05649   1
  -3  -5   7 27.7301 1.92834   2
  -3  -5   7 27.1315 2.21162   3
   3  -5  -7 29.7812 1.80241   2
   3   5  -7 28.2747 2.26479   1
  -3   5   7 30.4850 1.77064   2
  -3   5   7 24.9782 2.16887   3
   3   5  -7 25.6985 1.85182   2
   3   5  -7 24.9047 2.13656   3
  -3   5   7 25.3713 1.96309   1
  -2  -5   7 906.879 21.6802   1
   2  -5  -7 890.819 21.6485   3
   2  -5  -7 891.255 21.6650   1
   2  -5  -7 892.826 21.6101   2
  -2  -5   7 875.382 21.6380   2
  -2  -5   7 896.614 21.6713   3
   2   5  -7 891.523 21.6206   1
  -2   5   7 891.719 21.5645   2
  -2   5   7 913.907 21.5934   1
  -2   5   7 885.087 21.6143   3
   2   5  -7 884.916 21.6334   3
   2   5  -7 862.592 21.5735   2
  -1  -5   7 515.263 12.7368   1
   1  -5  -7 519.234 12.7788   1
   1  -5  -7 518.770 12.7214   2
  -1  -5   7 515.461 12.7631   1
   1  -5  -7 517.285 12.7572   3
  -1  -5   7 525.304 12.7247   2
  -1  -5   7 523.014 12.7345   3
   1   5  -7 511.673 12.6834   3
   1   5  -7 533.923 12.6954   2
  -1   5   7 507.575 12.6986   2
  -1   5   7 516.986 12.7314   1
   1   5  -7 508.406 12.6152   2
  -1   5   7 518.453 12.7498   3
   1   5  -7 517.399 12.6444   1
   0  -5   7 424.673 10.3073   3
   0  -5  -7 415.784 10.3691   3
   0  -5  -7 394.465 10.3112   2
   0  -5   7 414.765 10.2728   1
   0  -5   7 414.166 10.2790   1
   0  -5   7 416.689 10.2700   3
   0   5  -7 432.524 10.1296   2
   0   5  -7 422.393 10.1926   3
   0   5   7 410.047 10.3728   3
   0   5   7 415.650 10.3830   1
   0   5  -7 431.164 10.1402   1
   0   5  -7 422.313 10.1105   2
  -1  -5  -7 162.126 4.36587   2
   1  -5   7 163.353 4.24721   3
   1  -5   7 168.045 4.22569   2
   1  -5   7 166.267 4.22512   1
   1  -5   7 165.934 4.22854   1
  -1  -5  -7 165.659 4.44849   3
   1  -5   7 164.722 4.20174   3
  -1  -5  -7 163.211 4.45455   1
   1   5   7 166.241 4.51065   3
   1   5   7 160.586 4.46499   1
   1   5   7 167.042 4.42210   2
  -2  -5  -7 87.6101 2.67957   2
   2  -5   7 85.5698 2.30195   3
   2  -5   7 88.5575 2.38658   1
   2  -5   7 88.6468 2.38477   1
   2  -5   7 90.2406 2.34668   3
  -2  -5  -7 88.6357 2.81115   3
  -2  -5  -7 88.8637 2.84449   1
   2   5   7 88.1487 2.91613   3
   2   5   7 87.9182 3.47008   1
   2   5   7 90.8592 2.82625   2
   2   5   7 86.9353 2.90632   1
  -3  -5  -7 63.6864 2.30779   2
  -3  -5  -7 61.1248 2.58153   3
   3   5   7 65.9195 2.69523   1
   3   5   7 64.1747 2.66134   3
   3   5   7 65.0501 2.60966   2
   4   5   7 40.9527 3.29378   1
   4   5   7 42.2174 2.83947   2
   4   5   7 42.0709 3.06427   3
   5   5   7 -0.2709 2.11965   3
   5   5   7 2.79742 2.24894   1
   5   5   7 3.90563 2.47221   2
  -5  -6   7 6.29105 2.05858   2
   5  -6  -7 5.45174 2.06998   3
   5  -6  -7 9.61130 2.33925   2
   5  -6  -7 5.00929 2.13603   1
  -5  -6   7 8.87416 2.45129   3
   5   6  -7 5.50759 2.67864   1
   5   6  -7 9.03236 2.49402   2
   5   6  -7 6.57125 2.45315   3
   4  -6  -7 57.4186 2.97712   2
   4  -6  -7 54.3710 3.87168   1
   4  -6  -7 54.2480 4.82072   3
  -4  -6   7 58.1430 3.57216   1
  -4  -6   7 57.3658 3.24323   3
   4   6  -7 47.9020 3.85706   1
   4   6  -7 48.0807 3.89451   2
   4   6  -7 64.8926 3.51962   3
  -4   6   7 57.1247 2.49461   2
   3  -6  -7 230.203 6.19716   2
  -3  -6   7 227.570 6.44178   1
  -3  -6   7 229.566 6.29093   2
   3  -6  -7 234.065 6.29093   3
   3  -6  -7 232.886 6.35864   1
  -3  -6   7 229.041 6.39346   3
  -3   6   7 221.091 6.26536   3
   3   6  -7 240.297 6.44876   3
   3   6  -7 230.416 6.48803   1
  -3   6   7 229.392 6.05228   2
   3   6  -7 228.003 6.24825   2
  -2  -6   7 84.4448 2.86506   2
  -2  -6   7 84.3293 2.89277   3
   2  -6  -7 82.8723 2.92407   3
   2  -6  -7 82.8064 2.95145   1
   2  -6  -7 80.7142 2.74915   2
  -2  -6   7 84.2582 2.93957   1
  -2   6   7 81.9865 2.82817   1
  -2   6   7 84.0311 2.88574   3
   2   6  -7 79.9283 2.69963   2
  -2   6   7 81.1561 2.71230   2
   2   6  -7 84.6228 2.91707   3
   2   6  -7 79.4981 2.86736   1
   1  -6  -7 43.9093 1.99516   3
  -1  -6   7 41.7111 1.91274   1
  -1  -6   7 40.7454 1.89797   3
  -1  -6   7 46.1445 2.47044   1
  -1  -6   7 42.9928 1.92368   2
   1  -6  -7 43.0830 2.02180   1
   1   6  -7 40.5734 1.81696   1
   1   6  -7 43.9245 1.89949   3
  -1   6   7 42.3534 2.09786   3
  -1   6   7 45.3001 2.05251   1
   1   6  -7 44.8986 1.71996   2
  -1   6   7 45.1299 1.88456   2
   0  -6  -7 156.874 4.31160   3
   0  -6   7 152.609 4.16555   1
   0  -6  -7 152.118 4.22318   2
   0  -6   7 154.940 4.16462   3
   0  -6   7 157.010 4.19260   2
   0  -6   7 152.108 4.36027   3
   0  -6  -7 153.423 4.33775   1
   0   6  -7 156.308 3.97965   2
   0   6  -7 152.468 4.04283   3
   0   6   7 152.596 4.21390   2
   0   6  -7 155.078 3.92717   2
   0   6   7 150.907 4.32467   1
   0   6  -7 155.163 3.98596   1
   0   6   7 156.176 4.35057   3
   1  -6   7 16.9842 1.26169   1
   1  -6   7 18.6617 1.20850   1
  -1  -6  -7 16.2921 1.42263   2
  -1  -6  -7 15.3377 1.13273   3
   1  -6   7 18.2219 1.15713   3
   1  -6   7 17.4511 1.52992   3
   1  -6   7 18.5007 1.22389   2
   1   6   7 16.5946 1.28077   3
   1   6   7 16.9380 1.49859   2
   1   6   7 17.0129 1.25692   1
   2  -6   7 13.5401 0.96952   3
   2  -6   7 13.6999 1.12809   1
   2  -6   7 15.5184 1.10623   1
  -2  -6  -7 13.1373 1.17642   3
   2  -6   7 14.1390 0.90958   2
   2  -6   7 14.9941 1.27152   3
  -2  -6  -7 15.6164 1.18724   2
  -2  -6  -7 15.8482 1.32893   1
   2   6   7 13.9454 1.26135   2
   2   6   7 12.9659 1.30137   1
   2   6   7 14.9566 1.36671   3
  -3  -6  -7 92.2708 3.37734   3
  -3  -6  -7 94.1385 3.07478   2
   3  -6   7 88.8267 2.64050   1
   3   6   7 92.6452 3.49095   3
   3   6   7 96.0631 3.37348   2
   3   6   7 100.358 3.58089   1
  -4  -6  -7 36.9742 2.54904   2
   4   6   7 32.3374 2.44458   2
   4   6   7 38.4630 3.35224   1
   4   6   7 41.1194 3.22439   3
   5   6   7 51.1839 4.66328   1
   5   6   7 50.8425 3.20221   3
   5   6   7 42.7141 3.39544   2
  -5  -7   7 28.6500 3.08672   3
   5  -7  -7 23.9515 2.74159   1
   5  -7  -7 25.7665 3.08768   2
   5  -7  -7 21.5527 2.56043   3
  -5  -7   7 21.4388 2.66317   2
   5   7  -7 23.2044 4.13754   1
   5   7  -7 19.7122 2.81501   2
   5   7  -7 22.8776 3.28871   3
  -4  -7   7 38.1209 3.02251   1
   4  -7  -7 43.0517 3.45133   3
  -4  -7   7 46.9253 3.46453   3
   4  -7  -7 39.6927 3.09111   2
   4  -7  -7 45.7801 3.32230   1
  -4  -7   7 34.8852 2.98211   2
   4   7  -7 40.9935 3.18455   2
   4   7  -7 41.9972 2.87993   1
   4   7  -7 40.9875 2.75936   3
   3  -7  -7 16.5965 1.56185   3
  -3  -7   7 15.0259 1.51466   2
   3  -7  -7 18.0625 1.66862   2
   3  -7  -7 17.8222 1.62816   1
  -3  -7   7 14.7892 1.56694   3
  -3  -7   7 17.8683 1.82771   1
  -3   7   7 16.7525 1.63808   3
   3   7  -7 14.1355 1.80536   1
  -3   7   7 14.5105 1.37809   2
   3   7  -7 12.6199 1.69760   3
   3   7  -7 16.6141 1.50256   2
   2  -7  -7 51.1710 2.49523   3
   2  -7  -7 51.1900 2.56755   1
  -2  -7   7 53.7929 2.46624   2
   2  -7  -7 51.7091 2.27676   2
  -2  -7   7 52.7476 2.47032   3
  -2  -7   7 50.3570 2.60190   1
  -2   7   7 53.3241 2.27198   2
  -2   7   7 46.7094 2.64283   3
   2   7  -7 51.7392 2.23215   2
   2   7  -7 43.8569 2.57015   3
  -2   7   7 52.9166 2.51962   1
   2   7  -7 49.1815 2.51062   1
   1  -7  -7 92.7409 3.06669   2
  -1  -7   7 96.9597 3.11013   3
   1  -7  -7 97.2990 3.20834   3
  -1  -7   7 96.7963 3.16892   1
   1  -7  -7 96.9035 3.29085   1
  -1  -7   7 94.5161 3.09553   2
  -1   7   7 97.2878 3.30883   3
  -1   7   7 97.1947 3.08311   2
   1   7  -7 95.3794 3.14999   3
   1   7  -7 95.1304 2.90699   2
  -1   7   7 92.0710 3.21824   1
   1   7  -7 98.0877 3.10174   1
   0  -7   7 1.34360 0.85550   3
   0  -7   7 -0.5578 0.86757   2
   0  -7  -7 0.63175 0.94512   3
   0  -7  -7 -0.2434 0.87399   2
   0  -7  -7 0.86215 1.03567   1
   0  -7   7 1.11166 0.82372   1
   0  -7   7 1.52969 1.55056   1
   0   7   7 0.50363 0.86365   2
   0   7  -7 -0.1247 0.63267   2
   0   7  -7 0.92151 0.79859   3
   0   7  -7 -0.3237 0.86680   2
   0   7   7 0.12724 1.05198   3
   0   7   7 1.14650 1.10861   1
   1  -7   7 119.154 3.35094   1
  -1  -7  -7 114.896 3.66485   3
  -1  -7  -7 111.895 3.51148   2
  -1  -7  -7 112.866 3.82835   1
   1  -7   7 112.935 3.46435   1
   1  -7   7 117.115 3.36909   2
   1  -7   7 119.694 3.28236   3
   1   7   7 116.243 3.76577   3
   1   7   7 115.257 3.75769   1
   1   7   7 112.754 3.55946   2
   2  -7   7 3.41115 0.71849   3
   2  -7   7 4.16591 0.80719   1
  -2  -7  -7 3.38162 1.14960   2
  -2  -7  -7 2.67281 1.16633   3
   2  -7   7 3.72101 0.84386   2
   2  -7   7 2.57189 0.93890   1
   2   7   7 4.43692 1.38894   1
   2   7   7 2.13865 1.33853   3
   2   7   7 4.59218 1.30083   2
  -3  -7  -7 57.5029 2.63004   2
  -3  -7  -7 48.8262 3.06126   3
   3   7   7 58.3887 3.02043   2
   3   7   7 59.1939 3.34957   1
   3   7   7 54.9205 3.29643   3
   4   7   7 185.050 6.05197   3
   4   7   7 166.376 5.90418   2
   4   7   7 175.644 6.18957   1
   5   7   7 35.3251 3.55406   2
   5   7   7 26.8455 3.46893   3
   5   7   7 34.8144 3.71940   1
   5  -8  -7 19.4170 3.22893   3
   5  -8  -7 16.2025 3.52664   1
  -5  -8   7 16.1943 3.51331   3
  -5  -8   7 15.8842 2.98550   2
   5   8  -7 20.7520 4.07177   2
   5   8  -7 12.7629 3.72208   3
  -4  -8   7 7.66218 2.08801   2
  -4  -8   7 15.1107 2.31667   3
   4  -8  -7 13.9380 2.17528   1
   4  -8  -7 11.5930 2.10198   3
   4  -8  -7 13.0430 2.21896   2
   4   8  -7 10.7509 2.52704   3
   4   8  -7 9.23512 2.14664   2
   3  -8  -7 19.2899 1.83468   3
   3  -8  -7 18.6206 1.86582   2
  -3  -8   7 14.6131 2.28081   3
  -3  -8   7 13.5252 1.69221   2
  -3  -8   7 15.4272 2.16593   1
   3   8  -7 14.3883 1.87899   2
  -3   8   7 17.1852 1.66553   2
   3   8  -7 17.0056 2.09842   3
   2  -8  -7 25.3569 2.15737   2
  -2  -8   7 28.6900 2.31692   2
  -2  -8   7 29.1790 1.99156   1
   2  -8  -7 30.3534 2.48836   3
  -2  -8   7 32.3257 2.47571   3
   2  -8  -7 29.0531 2.56131   1
   2   8  -7 28.8023 2.13668   2
  -2   8   7 27.5681 1.93018   3
  -2   8   7 31.0847 2.26294   2
   2   8  -7 29.6020 2.05491   3
  -1  -8   7 32.3516 2.22149   3
  -1  -8   7 35.6040 2.16580   2
   1  -8  -7 39.5429 2.37945   3
   1  -8  -7 35.5790 2.17085   2
  -1  -8   7 35.0125 2.28238   1
   1  -8  -7 32.1843 2.49153   1
  -1   8   7 38.6046 2.18884   2
   1   8  -7 35.0364 2.34026   3
   1   8  -7 35.0919 1.91846   2
  -1   8   7 26.1134 2.95426   1
  -1   8   7 35.1200 2.62976   3
   0  -8  -7 13.6994 1.48244   1
   0  -8   7 10.1482 1.22060   2
   0  -8   7 11.8631 1.22902   1
   0  -8  -7 16.1344 1.43047   2
   0  -8   7 11.4125 1.18435   3
   0  -8  -7 11.7267 1.39528   3
   0   8  -7 11.6045 1.16454   3
   0   8   7 14.2292 1.58314   3
   0   8   7 12.8757 1.39836   2
   0   8   7 14.8492 1.66577   1
   1  -8   7 48.6110 2.08267   1
   1  -8   7 45.0463 2.03414   3
  -1  -8  -7 40.1123 2.55908   3
   1  -8   7 44.4408 2.20394   2
  -1  -8  -7 46.8935 2.30255   2
  -1  -8  -7 44.5416 2.90674   1
   1   8   7 45.9259 2.47413   2
   1   8   7 48.3176 2.76849   3
   1   8   7 43.6428 2.94050   1
  -2  -8  -7 72.5981 4.00719   1
   2  -8   7 63.0727 2.63618   2
  -2  -8  -7 68.1420 3.21574   3
  -2  -8  -7 67.1710 2.85474   2
   2  -8   7 67.1036 2.53825   1
   2  -8   7 61.6244 2.30596   3
   2   8   7 73.5675 3.48266   3
   2   8   7 73.4819 3.10438   2
   2   8   7 66.3898 3.47088   1
  -3  -8  -7 261.586 7.21067   2
  -3  -8  -7 256.760 7.54209   3
   3   8   7 260.320 7.50063   2
   3   8   7 274.233 7.76920   3
  -4  -8  -7 12.7735 2.33860   2
   4   8   7 13.1353 3.01848   2
   4   8   7 13.1901 2.82715   1
   4   8   7 9.90731 2.69059   3
  -4  -9   7 14.1802 2.52807   2
   4  -9  -7 13.5123 2.62717   1
  -4  -9   7 17.8145 2.82835   3
   4  -9  -7 15.5773 2.49976   3
   4  -9  -7 10.7868 2.55799   2
   4   9  -7 10.0613 2.60059   2
   4   9  -7 14.5314 3.60514   3
   3  -9  -7 38.7169 2.55714   1
   3  -9  -7 37.4337 2.44948   2
  -3  -9   7 40.1542 3.28385   2
  -3  -9   7 45.8385 3.43538   3
   3  -9  -7 40.1131 3.46833   3
   3   9  -7 34.9624 3.00189   3
   3   9  -7 38.4540 3.20710   2
  -3   9   7 41.7428 3.13140   2
  -2  -9   7 49.1626 2.97331   3
   2  -9  -7 38.6410 3.37309   2
   2  -9  -7 44.6219 3.66686   1
  -2  -9   7 47.1661 3.50217   2
   2  -9  -7 50.6346 3.19889   3
  -2  -9   7 43.1551 3.27870   1
  -2   9   7 49.5846 2.74725   2
  -2   9   7 49.6437 3.55010   3
   2   9  -7 47.6083 3.43595   3
   2   9  -7 45.0852 2.82793   2
   1  -9  -7 123.015 4.23121   3
   1  -9  -7 116.290 4.31348   1
   1  -9  -7 120.784 4.03871   2
  -1  -9   7 122.296 4.10495   2
  -1  -9   7 117.876 4.14544   1
  -1  -9   7 121.313 4.06001   3
   1   9  -7 126.490 3.79475   2
  -1   9   7 119.404 4.00666   2
   1   9  -7 123.244 4.28110   3
  -1   9   7 117.542 4.70510   3
   0  -9   7 5.41513 1.29061   1
   0  -9   7 6.35504 1.26522   3
   0  -9  -7 8.02839 1.52641   3
   0  -9  -7 7.92376 1.69616   1
   0  -9   7 8.16722 1.42264   2
   0  -9  -7 8.75196 1.37035   2
   0   9   7 6.08255 1.82885   1
   0   9   7 6.04175 1.68712   3
   0   9   7 7.76921 1.54511   2
   1  -9   7 326.745 8.56680   2
  -1  -9  -7 326.512 8.97283   1
   1  -9   7 327.091 9.03170   1
  -1  -9  -7 307.510 9.13196   2
   1  -9   7 339.357 8.50607   3
  -1  -9  -7 341.372 8.95864   3
   1   9   7 340.881 9.09644   1
   1   9   7 343.202 9.04561   3
   1   9   7 319.613 9.16540   2
   2  -9   7 99.0892 3.49475   1
  -2  -9  -7 103.301 3.84802   2
  -2  -9  -7 103.159 4.24991   3
   2  -9   7 101.142 3.30139   3
   2   9   7 102.361 4.55764   3
   2   9   7 98.0531 4.10683   2
   2   9   7 97.4103 4.88858   1
   3  -9   7 16.0434 1.63508   1
  -3  -9  -7 10.1488 2.43783   3
  -3  -9  -7 16.5243 2.05511   2
   3   9   7 15.0188 2.34809   2
   3   9   7 17.5432 2.63270   3
   3   9   7 15.2635 2.97404   1
  -4  -9  -7 4.33285 2.91397   2
   4   9   7 7.06924 3.94211   1
   4   9   7 5.55272 3.32149   2
   4   9   7 1.90774 3.06779   3
  -3 -10   7 10.6567 2.93389   1
   3 -10  -7 14.9677 2.44803   2
   3 -10  -7 11.0247 2.57808   1
  -3 -10   7 11.3745 2.28323   2
  -3 -10   7 13.6767 2.36322   3
   3 -10  -7 16.0039 2.40710   3
   3  10  -7 15.4556 3.20585   3
   3  10  -7 12.1114 2.54074   2
   2 -10  -7 13.9239 2.08387   2
  -2 -10   7 13.7267 1.98915   2
   2 -10  -7 12.4621 2.03063   3
   2 -10  -7 14.4064 2.21300   1
  -2 -10   7 14.3113 2.22009   1
  -2 -10   7 9.48905 1.96612   3
   2  10  -7 11.3819 2.89969   3
  -2  10   7 12.6099 2.03867   2
   2  10  -7 14.3829 2.02652   2
  -1 -10   7 38.0046 3.17828   1
  -1 -10   7 37.1614 2.95783   3
   1 -10  -7 33.2920 2.86017   2
  -1 -10   7 30.7312 2.26667   2
   1 -10  -7 32.7600 2.72933   1
   1 -10  -7 36.4108 3.25317   3
   1  10  -7 29.1172 2.56547   2
  -1  10   7 32.2691 2.61864   3
  -1  10   7 38.3633 3.01045   2
   0 -10  -7 139.548 4.68622   2
   0 -10   7 134.404 4.56885   2
   0 -10  -7 133.354 5.38405   1
   0 -10   7 138.530 4.65686   1
   0 -10  -7 138.249 4.91402   3
   0 -10   7 139.441 4.55469   3
   0  10   7 137.137 5.57048   3
   0  10   7 139.135 4.71516   2
   1 -10   7 2.50528 1.40125   3
   1 -10   7 1.43165 1.87857   2
  -1 -10  -7 1.97219 2.25632   1
   1 -10   7 2.52474 1.41620   1
  -1 -10  -7 2.97204 1.64644   2
   1  10   7 4.03256 1.91207   2
   1  10   7 4.09930 2.19055   3
   1  10   7 1.07509 2.96185   1
  -2 -10  -7 6.67989 1.91816   2
  -2 -10  -7 10.3058 2.53546   3
   2 -10   7 10.8037 1.71870   1
   2  10   7 15.0833 4.34953   1
   2  10   7 10.2196 2.36581   2
   2  10   7 10.4233 2.64807   3
  -3 -10  -7 30.4930 3.66121   3
   3 -10   7 35.3514 2.33538   1
  -3 -10  -7 36.6176 2.88867   2
   3  10   7 31.5837 3.41910   3
   3  10   7 27.7572 3.13729   2
   3  10   7 27.1818 3.97757   1
   2 -11  -7 30.3369 2.86608   3
  -2 -11   7 34.4439 3.32050   1
   2 -11  -7 30.6802 3.04207   1
  -2 -11   7 28.9944 2.67293   3
   2 -11  -7 32.1652 2.78649   2
  -2 -11   7 23.3749 2.52268   2
   2  11  -7 32.3631 2.70214   2
  -2  11   7 32.0239 3.47446   2
  -1 -11   7 0.04298 1.89912   3
  -1 -11   7 3.59459 2.10141   2
   1 -11  -7 3.25194 2.17189   3
   1 -11  -7 7.05766 2.72044   1
   1 -11  -7 4.48445 1.96501   2
  -1 -11   7 1.72279 2.24099   1
  -1  11   7 3.11477 2.29886   2
   0 -11   7 5.63738 1.92528   1
   0 -11  -7 9.66182 2.16873   2
   0 -11  -7 6.42333 2.58469   1
   0 -11  -7 5.97699 2.30978   3
   0 -11   7 9.01829 2.20979   2
   0 -11   7 3.15200 1.77696   3
   0  11   7 5.75360 2.78865   3
   0  11   7 7.72441 2.29394   2
   1 -11   7 14.1756 1.84275   3
  -1 -11  -7 15.6347 2.26316   2
   1 -11   7 14.1580 1.91792   1
  -1 -11  -7 14.5632 2.39165   3
   1  11   7 17.4361 3.38532   3
   1  11   7 10.6384 2.50315   2
  -2 -11  -7 14.4911 2.62953   2
   2 -11   7 10.3828 2.10848   1
   2 -11   7 15.2101 2.29267   3
   2  11   7 18.4370 3.44785   3
   2  11   7 12.5295 3.18513   2
  -1 -12   7 -1.2668 2.65601   1
  -1 -12   7 -1.0598 2.67771   2
   1 -12  -7 -1.7775 3.25647   3
   1 -12  -7 0.64043 2.48210   2
  -1 -12   7 -4.9043 2.58087   3
   1 -12  -7 -3.4874 3.28642   1
  -1  12   7 -1.3427 2.95982   2
   0 -12  -7 4.33415 4.13786   1
   0 -12   7 5.18957 2.37687   1
   0 -12   7 -0.0023 2.86005   2
   0 -12  -7 1.29422 2.66642   2
   0 -12  -7 -0.3852 2.76139   3
   0 -12   7 -0.3249 2.18947   3
   0  12   7 6.79865 2.93377   2
   6   0  -8 -0.0198 2.54082   1
   6   0  -8 1.56348 2.42351   3
   6   0  -8 8.92542 2.31908   2
   5   0  -8 6.70949 2.70187   3
  -5   0   8 8.21525 1.73830   3
   5   0  -8 5.91369 1.69281   1
  -5   0   8 9.61994 1.45346   2
   5   0  -8 7.52528 1.68828   2
   4   0  -8 472.201 11.9125   3
  -4   0   8 475.593 11.8638   3
   4   0  -8 465.441 11.9189   1
   4   0  -8 477.805 11.8438   2
  -4   0   8 466.772 11.8103   1
  -3   0   8 2542.11 60.0659   1
  -3   0   8 2521.98 60.0846   3
  -3   0   8 2453.08 60.0444   2
   3   0  -8 2508.14 60.0656   2
   3   0  -8 2522.49 60.1142   1
   3   0  -8 2508.08 60.1070   3
  -2   0   8 1235.16 29.8669   3
   2   0  -8 1261.57 29.8799   1
   2   0  -8 1242.20 29.8748   3
  -2   0   8 1200.43 29.8382   2
  -2   0   8 1277.68 29.8750   1
   2   0  -8 1232.77 29.8351   2
   1   0  -8 7.52491 0.65823   3
   1   0  -8 6.92353 0.58045   2
  -1   0   8 8.39740 0.74498   1
   1   0  -8 9.78920 0.74421   1
  -1   0   8 7.15910 0.59995   1
  -1   0   8 7.70282 0.76588   3
   1   0  -8 8.40521 0.66433   3
  -1   0   8 7.66314 0.77604   2
  -1   0   8 7.89723 0.66895   3
   1   0  -8 9.68752 0.72052   2
   1   0  -8 9.22383 0.66678   1
   0   0   8 1235.33 28.3906   3
   0   0  -8 1221.54 28.3331   2
   0   0  -8 1191.30 28.3462   1
   0   0  -8 1156.57 28.3346   2
   0   0   8 1182.38 28.3752   2
   0   0   8 1245.98 28.3800   2
   0   0   8 1224.04 28.3992   1
   0   0  -8 1203.37 28.3614   3
   0   0  -8 1178.69 28.3677   3
   0   0   8 1013.16 28.4403   1
   1   0   8 84.8105 2.30883   1
  -1   0  -8 84.9074 2.23470   3
   1   0   8 88.4971 2.33273   2
   1   0   8 86.9718 2.26875   2
  -1   0  -8 84.8073 2.22950   3
   1   0   8 86.0969 2.29238   3
   1   0   8 84.9548 2.29182   1
   2   0   8 100.087 2.66457   3
   2   0   8 103.032 2.68632   1
   2   0   8 102.101 2.65536   3
   2   0   8 104.593 2.65682   2
   2   0   8 99.8201 2.65917   1
   2   0   8 100.119 2.74699   2
   3   0   8 111.444 2.97631   3
   3   0   8 111.634 3.00504   1
   3   0   8 111.283 3.01375   1
   3   0   8 115.478 2.98999   2
   3   0   8 110.537 2.96613   3
   4   0   8 47.0250 1.96270   1
   4   0   8 52.3155 2.04331   1
   4   0   8 50.2205 1.81724   3
   4   0   8 53.8882 2.03295   2
   5   0   8 2.47233 1.13708   3
   5   0   8 3.79429 1.20030   1
   6   0   8 1.13470 1.93067   1
   6  -1  -8 18.2654 2.63718   2
   6  -1  -8 11.6108 2.50885   3
   6  -1  -8 12.2654 2.57288   1
  -6  -1   8 12.5892 2.60010   2
   6   1  -8 15.8936 2.57391   3
   6   1  -8 17.4720 2.76895   1
   6   1  -8 15.1231 2.58697   2
   5  -1  -8 112.448 4.14641   1
   5  -1  -8 109.907 3.99702   2
  -5  -1   8 102.569 3.70930   2
  -5  -1   8 102.776 4.18178   3
  -5   1   8 110.361 3.71467   2
   5   1  -8 109.034 4.33312   1
  -5   1   8 104.175 4.29461   3
   5   1  -8 104.630 3.94412   2
  -4  -1   8 231.997 6.40306   1
   4  -1  -8 237.318 6.36369   2
  -4  -1   8 238.665 6.33029   2
   4  -1  -8 239.482 6.49518   1
  -4  -1   8 246.589 6.43858   3
   4  -1  -8 236.105 6.45659   3
   4   1  -8 236.662 6.49130   3
  -4   1   8 239.633 6.27130   2
   4   1  -8 235.379 6.39164   2
  -4   1   8 242.260 6.42012   3
  -4   1   8 228.191 6.31848   1
   4   1  -8 239.449 6.52519   1
  -3  -1   8 291.782 7.47364   2
  -3  -1   8 296.005 7.53138   3
   3  -1  -8 289.239 7.52870   3
  -3  -1   8 299.303 7.50693   1
   3  -1  -8 293.031 7.53929   1
   3  -1  -8 290.410 7.45445   2
  -3   1   8 289.277 7.46895   1
   3   1  -8 293.103 7.54578   1
   3   1  -8 292.803 7.54338   3
  -3   1   8 299.218 7.52066   3
  -3   1   8 285.553 7.43191   2
   3   1  -8 295.334 7.46960   2
   2  -1  -8 591.451 14.5958   1
   2  -1  -8 592.395 14.5907   3
  -2  -1   8 598.927 14.5923   3
  -2  -1   8 601.277 14.5679   2
   2  -1  -8 548.250 14.7637   1
   2  -1  -8 598.860 14.5526   2
  -2  -1   8 639.581 14.7836   1
   2   1  -8 599.747 14.5536   2
  -2   1   8 601.915 14.5837   3
   2   1  -8 599.064 14.5826   1
  -2   1   8 593.466 14.5554   2
   2   1  -8 597.077 14.5903   3
  -2   1   8 609.803 14.5813   1
   1  -1  -8 842.051 20.8557   2
  -1  -1   8 875.355 20.8848   3
   1  -1  -8 849.596 20.8813   3
   1  -1  -8 881.434 20.8568   2
  -1  -1   8 861.303 20.8818   3
   1  -1  -8 859.495 20.8840   1
   1  -1  -8 871.879 20.8772   1
  -1  -1   8 894.426 20.8946   1
  -1  -1   8 773.856 20.9644   1
   1   1  -8 852.277 20.8385   2
  -1   1   8 866.249 20.8932   1
   1   1  -8 945.661 20.9719   1
  -1   1   8 854.352 20.8894   3
  -1   1   8 852.067 20.8736   2
   1   1  -8 874.005 20.8352   2
   1   1  -8 868.496 20.8742   3
  -1   1   8 890.711 20.9080   1
   1   1  -8 862.738 20.8594   1
  -1   1   8 892.410 20.9117   3
   0  -1   8 195.267 4.84215   1
   0  -1  -8 198.867 4.85282   1
   0  -1  -8 192.749 4.85755   3
   0  -1  -8 190.923 4.83544   1
   0  -1   8 196.954 4.82222   2
   0  -1  -8 193.209 4.81789   2
   0  -1   8 188.504 4.83117   1
   0  -1  -8 189.886 4.85627   3
   0  -1   8 194.019 4.83439   2
   0  -1  -8 202.866 4.81642   2
   0  -1   8 195.454 4.83764   3
   0   1  -8 195.479 4.81018   3
   0   1   8 170.316 4.93885   1
   0   1   8 189.809 4.86932   3
   0   1  -8 195.976 4.78026   1
   0   1   8 188.207 4.91590   1
   0   1  -8 189.040 4.77638   1
   0   1   8 198.060 4.89166   3
   0   1  -8 193.154 4.75404   2
   0   1   8 190.851 4.88534   2
   0   1   8 195.638 4.85138   2
   0   1  -8 196.350 4.81578   3
   0   1  -8 201.546 4.75763   2
   1  -1   8 154.575 3.72191   2
   1  -1   8 147.929 3.70994   3
  -1  -1  -8 148.697 3.77715   3
   1  -1   8 149.247 3.72234   1
   1  -1   8 151.066 3.71641   3
  -1  -1  -8 134.919 3.75278   2
  -1  -1  -8 151.585 3.72446   1
   1  -1   8 148.503 3.69731   2
   1  -1   8 143.365 3.70844   1
  -1  -1  -8 150.450 3.76497   3
  -1  -1  -8 148.404 3.68816   2
   1   1   8 149.406 3.83518   2
   1   1   8 156.714 3.80881   3
  -1   1  -8 146.347 3.61629   3
   1   1   8 144.796 3.78869   3
   1   1   8 149.096 3.77323   2
  -1   1  -8 149.234 3.61216   3
   1   1   8 144.488 3.79272   1
   2  -1   8 551.507 13.2706   1
  -2  -1  -8 548.900 13.2947   3
   2  -1   8 556.941 13.2534   3
   2  -1   8 557.334 13.2521   3
   2   1   8 561.810 13.3618   2
   2   1   8 532.735 13.4691   3
   2   1   8 558.535 13.3754   3
   2   1   8 544.200 13.3799   1
   2   1   8 561.968 13.3867   1
   3  -1   8 199.663 4.97620   1
   3  -1   8 199.549 4.91689   3
   3  -1   8 202.541 4.91841   3
   3  -1   8 204.392 4.98866   1
   3   1   8 207.841 5.13024   2
   3   1   8 202.019 5.16858   1
   3   1   8 203.548 5.15100   1
   3   1   8 181.907 5.66457   3
   3   1   8 205.928 5.13115   3
   4  -1   8 4.87477 0.84510   1
   4  -1   8 3.65313 0.73087   1
   4   1   8 4.03744 0.89124   3
   4   1   8 4.71762 0.98739   1
   4   1   8 6.00769 1.11400   2
   5  -1   8 7.26537 1.19194   1
   5   1   8 8.47470 1.32083   3
   5   1   8 8.37850 1.45752   1
   6  -1   8 13.1992 1.74155   1
   6   1   8 10.4393 2.21547   1
  -6  -2   8 31.5686 2.54801   2
   6  -2  -8 28.9806 2.95004   3
   6  -2  -8 30.2689 2.85832   2
   6  -2  -8 33.2267 3.00939   1
   6   2  -8 37.6013 3.04005   3
   6   2  -8 39.9580 3.07269   2
   6   2  -8 35.1791 3.21087   1
  -5  -2   8 84.5764 3.36391   2
   5  -2  -8 82.5483 3.49926   2
   5  -2  -8 75.5590 5.89578   1
  -5  -2   8 76.4565 3.74297   3
   5  -2  -8 83.9695 4.04661   3
   5   2  -8 82.8705 4.00851   3
   5   2  -8 82.5912 4.12492   2
   5   2  -8 86.3619 4.00905   1
  -5   2   8 80.9385 3.25840   2
   4  -2  -8 8.58116 1.20483   2
   4  -2  -8 10.2859 1.30578   3
  -4  -2   8 12.5049 1.37754   3
  -4  -2   8 8.87839 1.31859   2
   4  -2  -8 10.3499 1.36391   1
   4   2  -8 10.3012 1.24024   2
  -4   2   8 11.4332 1.44001   3
   4   2  -8 12.8270 1.39677   3
  -4   2   8 12.4038 1.23726   2
  -4   2   8 12.4025 1.33357   1
   4   2  -8 12.5291 1.51570   1
  -3  -2   8 305.347 7.99869   1
   3  -2  -8 311.009 8.02775   1
   3  -2  -8 311.372 7.94656   2
   3  -2  -8 317.855 8.01040   3
  -3  -2   8 319.740 8.02979   3
   3   2  -8 309.903 8.04219   1
   3   2  -8 306.432 8.02118   3
   3   2  -8 313.628 7.96423   2
  -3   2   8 317.861 7.91217   2
  -3   2   8 306.441 7.97342   3
  -3   2   8 322.746 7.96438   1
  -2  -2   8 152.859 4.20670   3
   2  -2  -8 153.305 4.12210   2
   2  -2  -8 154.236 4.19591   1
  -2  -2   8 157.735 4.19787   1
  -2  -2   8 157.275 4.15204   2
   2  -2  -8 151.517 4.29413   1
   2  -2  -8 150.955 4.17437   3
  -2  -2   8 172.105 4.64059   1
   2   2  -8 150.779 4.09582   2
   2   2  -8 155.111 4.18572   3
  -2   2   8 154.379 4.16773   1
  -2   2   8 154.124 4.20318   3
  -2   2   8 152.960 4.11425   2
   2   2  -8 156.121 4.17101   1
  -1  -2   8 26.2775 1.22194   1
  -1  -2   8 27.4326 1.36549   1
  -1  -2   8 25.9843 1.25305   3
   1  -2  -8 25.0565 1.26198   1
  -1  -2   8 26.4859 1.40267   3
   1  -2  -8 23.5935 1.13345   2
   1  -2  -8 25.0915 1.27813   3
  -1  -2   8 24.0349 1.20118   2
  -1   2   8 27.6295 1.54963   1
  -1   2   8 27.0045 1.18496   2
   1   2  -8 25.0642 1.10095   2
  -1   2   8 25.4050 2.20424   3
  -1   2   8 27.4476 1.26173   1
   1   2  -8 27.2464 1.20076   3
   1   2  -8 27.0673 1.25530   2
   1   2  -8 27.7364 1.20154   1
   0  -2  -8 302.562 7.26747   1
   0  -2  -8 295.474 7.27059   3
   0  -2   8 297.696 7.21220   2
   0  -2   8 298.230 7.21571   3
   0  -2  -8 285.900 7.22328   2
   0  -2   8 289.649 7.21400   3
   0  -2   8 296.565 7.22147   1
   0  -2   8 295.776 7.20096   2
   0  -2   8 287.020 7.20982   1
   0  -2  -8 296.036 7.22364   2
   0   2  -8 291.983 7.16989   3
   0   2   8 288.477 7.27770   1
   0   2  -8 291.053 7.13225   1
   0   2   8 295.488 7.29745   3
   0   2  -8 297.140 7.11658   2
   0   2  -8 290.044 7.17854   3
   0   2  -8 295.938 7.12900   1
   0   2   8 285.945 7.27150   3
  -1  -2  -8 101.702 2.74964   3
   1  -2   8 99.8107 2.60884   3
   1  -2   8 97.8799 2.60803   1
   1  -2   8 102.600 2.63291   1
   1  -2   8 104.649 2.60395   2
  -1  -2  -8 102.110 2.67710   2
   1  -2   8 102.273 2.61705   2
   1  -2   8 100.544 2.60736   3
   1   2   8 101.028 2.85024   1
   1   2   8 101.896 2.73664   2
   1   2   8 99.8512 2.77319   1
   1   2   8 104.907 2.83377   3
   1   2   8 99.8450 2.78108   3
   2  -2   8 589.229 14.4377   1
  -2  -2  -8 603.934 14.5780   3
   2  -2   8 608.579 14.4450   1
  -2  -2  -8 613.450 14.5090   1
   2   2   8 606.227 14.6432   2
   2   2   8 606.824 14.6624   1
   2   2   8 596.864 14.6556   1
   2   2   8 596.733 14.6432   3
   2   2   8 610.388 14.6593   3
   3   2   8 159.254 4.29356   1
   3   2   8 163.362 4.27554   3
   3   2   8 163.923 4.28424   2
   3   2   8 156.479 4.45259   3
   3   2   8 156.194 4.36837   1
   4   2   8 25.4892 1.87813   3
   4   2   8 22.3416 1.96649   2
   4   2   8 26.7087 1.89766   1
   5   2   8 8.32126 1.58770   1
   5   2   8 5.09084 2.07409   3
   6   2   8 15.8924 2.51830   1
   6  -3  -8 56.8338 4.97645   3
   6  -3  -8 66.3955 4.94939   1
  -6  -3   8 59.4507 4.19361   2
   6  -3  -8 54.4368 4.73238   2
   6   3  -8 73.4824 5.47623   3
   6   3  -8 62.7990 3.87854   1
   6   3  -8 69.8609 4.87876   2
   5  -3  -8 14.3731 1.82198   2
  -5  -3   8 11.6587 1.91962   3
   5  -3  -8 14.5139 1.91557   1
   5  -3  -8 16.1787 1.90279   3
   5   3  -8 12.0947 1.81087   2
   5   3  -8 15.5673 2.10993   1
   5   3  -8 14.6913 2.03913   3
  -5   3   8 12.7601 1.51769   2
   4  -3  -8 53.9387 2.64698   3
  -4  -3   8 53.3802 2.72787   3
  -4  -3   8 50.6570 2.48815   2
  -4  -3   8 47.9721 2.73614   1
   4  -3  -8 52.0031 2.71407   1
   4  -3  -8 53.7138 2.45399   2
   4   3  -8 54.5980 2.51348   2
  -4   3   8 47.4539 2.27132   2
  -4   3   8 48.8301 2.71365   3
   4   3  -8 50.9695 2.76691   3
   4   3  -8 53.7824 2.82776   1
  -3  -3   8 5.50405 0.97255   2
   3  -3  -8 7.20702 1.02524   1
  -3  -3   8 6.55930 1.00799   3
   3  -3  -8 5.42944 0.97110   3
   3  -3  -8 7.24287 1.05687   2
  -3  -3   8 7.82606 1.08316   1
  -3   3   8 7.19747 0.99561   2
  -3   3   8 6.80838 1.00059   1
   3   3  -8 5.93512 0.95004   2
  -3   3   8 7.52589 1.04610   3
   3   3  -8 7.77944 1.10846   1
   3   3  -8 6.90619 1.08120   3
  -2  -3   8 20.1913 1.45968   3
   2  -3  -8 22.7564 1.92976   1
  -2  -3   8 17.6502 1.33416   2
   2  -3  -8 21.2086 1.48014   1
   2  -3  -8 21.2488 1.44579   3
   2  -3  -8 21.8388 1.29743   2
  -2  -3   8 17.5248 1.41724   1
  -2   3   8 18.9038 1.27504   2
  -2   3   8 22.6807 1.46004   1
   2   3  -8 20.2101 1.42212   3
  -2   3   8 18.3302 1.39306   3
   2   3  -8 18.5172 1.42064   1
   2   3  -8 18.7716 1.22350   2
  -1  -3   8 190.610 4.94686   1
  -1  -3   8 186.619 5.00155   3
  -1  -3   8 191.040 4.91555   2
   1  -3  -8 186.907 4.94941   3
   1  -3  -8 190.893 4.96186   1
   1  -3  -8 188.720 4.90619   2
  -1  -3   8 188.513 4.93663   1
  -1  -3   8 190.274 4.93669   3
  -1   3   8 187.479 4.93174   1
  -1   3   8 203.565 5.27504   1
  -1   3   8 192.129 4.96989   3
   1   3  -8 189.477 4.83291   2
   1   3  -8 192.488 4.87364   1
  -1   3   8 189.124 4.91483   2
   1   3  -8 188.847 4.88739   2
   1   3  -8 197.019 4.90544   3
   0  -3   8 491.520 11.5806   3
   0  -3   8 481.112 11.5781   1
   0  -3  -8 457.125 11.7849   3
   0  -3  -8 481.986 11.6187   2
   0  -3  -8 486.082 11.6528   1
   0  -3   8 478.281 11.5759   3
   0  -3   8 478.436 11.5624   2
   0  -3   8 452.526 11.5625   1
   0  -3   8 477.463 11.5667   2
   0  -3  -8 468.816 11.6115   2
   0   3   8 477.260 11.6652   1
   0   3  -8 494.715 11.4630   2
   0   3   8 462.247 11.6470   3
   0   3  -8 472.696 11.5319   3
   0   3  -8 477.509 11.5197   3
   0   3   8 475.202 11.6333   2
   0   3   8 467.621 11.6799   3
   0   3   8 482.304 11.6858   1
   0   3  -8 485.424 11.4566   2
   1  -3   8 1725.16 45.1177   3
  -1  -3  -8 1912.63 45.2055   3
  -1  -3  -8 1876.73 45.1537   2
   1  -3   8 1969.67 45.0686   2
   1  -3   8 1862.96 45.0758   1
   1  -3   8 1897.53 45.0761   1
   1  -3   8 1942.29 45.0599   2
   1  -3   8 1867.92 45.0560   3
  -1  -3  -8 1917.92 45.1846   1
  -1  -3  -8 1832.60 45.1531   2
   1   3   8 1969.00 45.2411   3
   1   3   8 1885.69 45.2068   2
   1   3   8 1963.91 45.2410   1
   1   3   8 1883.52 45.2270   3
   1   3   8 1834.45 45.2288   1
  -2  -3  -8 351.541 8.72799   3
  -2  -3  -8 367.091 8.68658   2
  -2  -3  -8 349.198 8.65497   2
  -2  -3  -8 355.411 8.69691   1
   2   3   8 351.727 8.80783   1
   2   3   8 356.395 8.79903   3
   2   3   8 343.875 8.87021   3
   2   3   8 352.199 8.82922   1
   2   3   8 353.605 8.77029   2
  -3  -3  -8 84.7824 2.64491   3
   3   3   8 89.0189 2.77026   2
   3   3   8 87.1728 2.78913   1
   3   3   8 87.3702 2.78877   3
   4   3   8 153.075 4.52585   2
   4   3   8 152.422 4.50654   1
   4   3   8 153.710 4.46112   3
   5   3   8 6.27209 1.70415   3
   5   3   8 2.40740 1.75659   1
  -6  -4   8 75.2508 4.77232   2
   6  -4  -8 75.4210 5.24236   3
   6  -4  -8 80.9206 5.35073   1
   6  -4  -8 66.7424 5.65310   2
   6   4  -8 74.0505 5.06521   2
   6   4  -8 83.0167 6.73373   1
   6   4  -8 71.2713 5.83517   3
  -5  -4   8 65.9129 3.87622   3
  -5  -4   8 71.2443 3.52370   2
   5  -4  -8 73.5651 3.91740   1
   5  -4  -8 65.2304 3.83160   3
   5   4  -8 65.4384 3.72267   2
   5   4  -8 70.0801 4.17097   3
   5   4  -8 64.6390 5.07481   1
  -4  -4   8 19.5383 1.67527   3
   4  -4  -8 20.2939 1.56989   2
  -4  -4   8 19.9458 1.55820   2
  -4  -4   8 15.2748 1.65782   1
   4  -4  -8 17.3727 1.59931   3
   4  -4  -8 19.4188 1.65189   1
   4   4  -8 21.5229 1.78556   3
   4   4  -8 14.0203 1.48216   2
  -4   4   8 20.6754 1.61601   3
  -4   4   8 21.5775 1.90801   2
   4   4  -8 15.3734 1.70293   1
   3  -4  -8 149.436 4.27471   3
   3  -4  -8 148.206 4.19323   2
  -3  -4   8 147.741 4.34143   1
  -3  -4   8 150.914 4.37286   3
   3  -4  -8 145.151 4.31764   1
  -3  -4   8 142.925 4.25300   2
  -3   4   8 146.408 4.12521   2
   3   4  -8 145.428 4.38033   1
  -3   4   8 143.593 4.19297   1
  -3   4   8 148.803 4.25252   3
   3   4  -8 148.263 4.19714   2
   3   4  -8 150.127 4.37299   3
  -2  -4   8 252.082 6.62404   3
  -2  -4   8 254.597 6.64661   1
   2  -4  -8 259.048 6.56648   2
   2  -4  -8 258.311 6.65184   1
   2  -4  -8 251.702 6.61547   3
  -2  -4   8 259.898 6.62246   2
   2   4  -8 252.682 6.62279   3
   2   4  -8 248.349 6.52974   2
  -2   4   8 255.361 6.54899   2
  -2   4   8 263.640 6.61089   1
  -2   4   8 254.973 6.61335   3
   2   4  -8 260.430 6.59858   1
   1  -4  -8 623.289 15.0331   1
  -1  -4   8 618.492 15.0021   1
   1  -4  -8 616.529 14.9799   2
   1  -4  -8 612.354 15.0156   3
  -1  -4   8 612.159 14.9856   3
  -1  -4   8 614.550 14.9910   1
  -1  -4   8 605.694 15.0115   3
  -1   4   8 606.051 14.9723   2
  -1   4   8 614.013 15.0054   3
   1   4  -8 632.259 14.9202   1
  -1   4   8 599.277 15.0182   1
   1   4  -8 618.451 14.9186   2
   1   4  -8 611.298 14.8858   2
   1   4  -8 615.280 14.9431   3
   0  -4   8 1340.04 32.8499   1
   0  -4  -8 1388.15 32.9366   1
   0  -4   8 1372.15 32.8424   1
   0  -4   8 1394.20 32.8392   2
   0  -4  -8 1333.18 32.8898   2
   0  -4  -8 1363.28 32.9256   3
   0  -4   8 1348.60 32.8393   3
   0  -4   8 1409.66 32.8420   3
   0   4   8 1355.62 32.9082   2
   0   4  -8 1404.01 32.7156   1
   0   4   8 1359.95 32.9383   1
   0   4   8 1350.53 32.9342   3
   0   4  -8 1366.91 32.7719   3
   0   4  -8 1408.00 32.7130   2
   0   4   8 1378.31 32.9570   1
   0   4  -8 1347.50 32.6968   2
  -1  -4  -8 190.821 5.10011   3
   1  -4   8 196.747 4.89013   1
   1  -4   8 194.890 4.87012   3
   1  -4   8 191.021 4.91794   2
   1  -4   8 198.069 4.88993   3
  -1  -4  -8 188.022 5.00902   2
   1  -4   8 194.025 4.89140   1
   1  -4   8 202.577 4.89502   2
  -1  -4  -8 200.475 5.09356   1
   1   4   8 195.159 5.12523   3
   1   4   8 198.102 5.08296   2
   1   4   8 192.781 5.10951   1
  -2  -4  -8 78.3164 2.37527   2
   2  -4   8 77.8701 2.08271   1
  -2  -4  -8 83.3068 2.70904   2
   2  -4   8 78.6800 2.08800   1
   2   4   8 79.1728 2.92406   1
   2   4   8 78.5352 2.59834   1
   2   4   8 80.2524 2.53796   2
   2   4   8 77.2761 2.60259   3
  -3  -4  -8 44.3696 1.79697   2
   3   4   8 46.0469 2.17266   1
   3   4   8 47.2902 2.21240   3
   3   4   8 44.5667 2.19554   2
   4   4   8 1.89586 1.47845   2
   4   4   8 2.88210 1.35449   1
   4   4   8 2.75027 1.33652   3
   5   4   8 0.15796 1.94460   1
   5   4   8 2.35127 1.95148   3
  -5  -5   8 -0.9295 1.74227   2
   5  -5  -8 1.14597 2.02801   3
  -5  -5   8 3.22938 2.22552   3
   5  -5  -8 1.51680 1.98327   1
   5  -5  -8 5.63719 2.16558   2
   5   5  -8 1.70788 2.11771   3
   5   5  -8 4.83604 2.24885   2
   5   5  -8 2.32341 2.58584   1
   4  -5  -8 126.968 4.34086   1
   4  -5  -8 128.145 4.21083   2
  -4  -5   8 127.542 4.53446   1
  -4  -5   8 128.877 4.41793   3
  -4  -5   8 124.844 4.16548   2
   4  -5  -8 130.605 4.32123   3
   4   5  -8 124.377 4.48365   3
   4   5  -8 128.171 4.92791   1
  -4   5   8 122.929 4.37786   3
  -4   5   8 121.930 3.93679   2
   4   5  -8 123.931 4.18834   2
  -3  -5   8 23.0933 1.58331   1
  -3  -5   8 20.6340 1.53809   2
   3  -5  -8 23.9363 1.85214   2
  -3  -5   8 21.7827 1.57284   3
   3  -5  -8 22.3584 2.07302   1
   3  -5  -8 20.6984 1.47357   3
   3   5  -8 21.2467 1.80885   2
  -3   5   8 18.1549 1.47331   1
  -3   5   8 20.9660 1.54904   3
  -3   5   8 20.1814 1.77707   2
   3   5  -8 20.1478 1.70258   1
   3   5  -8 23.2333 1.65011   3
   2  -5  -8 153.726 4.33064   1
  -2  -5   8 145.226 4.28927   2
  -2  -5   8 150.206 4.32387   1
   2  -5  -8 154.184 4.23536   2
  -2  -5   8 153.543 4.35235   3
   2  -5  -8 153.908 4.34662   3
   2   5  -8 151.875 4.27418   1
   2   5  -8 150.443 4.32866   3
  -2   5   8 155.177 4.27812   1
   2   5  -8 145.939 4.14482   2
  -2   5   8 149.886 4.19151   2
  -2   5   8 151.261 4.31441   3
  -1  -5   8 1166.60 27.8259   1
  -1  -5   8 1161.60 27.8086   3
  -1  -5   8 1166.31 27.7935   2
  -1  -5   8 1149.16 27.8107   1
   1  -5  -8 1162.13 27.8564   1
   1  -5  -8 1153.99 27.8430   3
   1  -5  -8 1126.28 27.7943   2
   1   5  -8 1154.63 27.7088   1
  -1   5   8 1139.19 27.7912   2
   1   5  -8 1153.66 27.6867   2
   1   5  -8 1171.67 27.7195   2
   1   5  -8 1125.50 27.7928   3
  -1   5   8 1146.52 27.8252   3
   0  -5   8 174.479 4.62769   1
   0  -5  -8 179.418 4.74832   3
   0  -5  -8 173.794 4.65238   2
   0  -5   8 179.716 4.61498   2
   0  -5   8 178.124 4.61607   3
   0  -5   8 178.228 4.69909   3
   0  -5   8 175.275 4.60606   1
   0   5  -8 178.199 4.41732   1
   0   5  -8 179.974 4.49441   3
   0   5   8 165.735 4.64398   2
   0   5   8 185.267 4.80046   1
   0   5  -8 167.904 4.51204   2
   0   5   8 173.423 4.75758   3
   1  -5   8 40.3991 1.51179   1
   1  -5   8 39.7253 1.58190   3
   1  -5   8 42.0208 1.50062   1
   1  -5   8 41.6026 1.53466   2
  -1  -5  -8 36.7124 1.87626   3
  -1  -5  -8 41.7538 1.88267   1
   1  -5   8 42.0615 1.45742   3
  -1  -5  -8 42.6850 1.69731   2
   1   5   8 39.9627 1.80213   2
   1   5   8 40.9705 1.93087   1
   1   5   8 40.9287 1.94928   3
   2  -5   8 2.20606 0.54935   1
  -2  -5  -8 1.26793 0.88327   3
   2  -5   8 1.78738 0.41019   3
   2  -5   8 1.45217 0.50318   3
   2  -5   8 2.11747 0.52207   1
  -2  -5  -8 2.55140 0.81946   2
  -2  -5  -8 2.35084 0.96461   1
   2   5   8 0.86859 0.92957   1
   2   5   8 2.58828 1.02408   3
   2   5   8 2.09678 0.97421   2
  -3  -5  -8 5.70614 1.18116   3
  -3  -5  -8 4.95957 1.01601   2
   3   5   8 4.03876 1.37669   2
   3   5   8 4.68411 1.23807   1
   3   5   8 2.46417 1.22841   3
   4   5   8 9.84023 1.74135   1
   4   5   8 9.03344 1.78106   3
   4   5   8 8.79741 1.74786   2
   5   5   8 13.8558 2.47115   1
   5   5   8 9.98259 2.26251   3
   5   5   8 12.0284 2.99899   2
   5  -6  -8 -1.7608 2.16974   1
   5  -6  -8 -2.2376 2.10452   3
  -5  -6   8 -0.9105 2.40470   3
   5  -6  -8 3.80889 2.24355   2
  -5  -6   8 -0.2980 2.05340   2
   5   6  -8 6.92179 2.98826   1
   5   6  -8 1.81920 2.34403   2
   5   6  -8 0.23180 2.50949   3
  -4  -6   8 38.0408 3.13128   3
  -4  -6   8 39.8337 2.80990   2
   4  -6  -8 35.7989 2.73458   1
   4  -6  -8 37.4018 2.95828   3
   4  -6  -8 37.5976 2.72933   2
  -4  -6   8 39.8353 2.54173   1
  -4   6   8 35.6453 2.44522   2
   4   6  -8 40.6188 3.50705   3
   4   6  -8 35.6210 2.89924   2
   4   6  -8 39.6609 3.69139   1
   3  -6  -8 88.9321 3.37036   3
   3  -6  -8 89.9559 3.18548   2
   3  -6  -8 95.9478 3.46479   1
  -3  -6   8 94.6389 3.57128   1
  -3  -6   8 90.2943 3.41603   3
  -3  -6   8 93.4868 3.35764   2
  -3   6   8 89.0800 3.10549   2
   3   6  -8 94.3743 3.59941   3
   3   6  -8 90.6201 3.67970   1
  -3   6   8 93.6568 3.52828   3
   3   6  -8 88.1580 3.23636   2
  -2  -6   8 26.3501 1.98329   2
  -2  -6   8 22.7622 1.98244   3
   2  -6  -8 27.8560 2.07794   3
   2  -6  -8 27.4612 2.07230   1
   2  -6  -8 25.5805 1.77613   2
  -2  -6   8 25.9178 1.98369   1
   2   6  -8 22.6970 1.67493   2
  -2   6   8 25.0890 1.96163   1
  -2   6   8 24.4297 2.01957   3
   2   6  -8 21.8110 1.44786   1
  -2   6   8 25.9037 1.76194   2
   2   6  -8 25.0528 1.98805   3
   1  -6  -8 315.143 8.01027   1
  -1  -6   8 313.078 7.90079   3
  -1  -6   8 302.835 8.08731   1
  -1  -6   8 309.002 7.90723   1
  -1  -6   8 313.795 7.89296   2
   1  -6  -8 317.738 7.90231   2
   1  -6  -8 301.094 7.93840   3
   1   6  -8 315.706 7.73754   2
  -1   6   8 304.836 7.93743   3
   1   6  -8 301.558 7.76476   1
   1   6  -8 305.501 7.82350   3
  -1   6   8 309.642 7.87177   2
  -1   6   8 300.478 7.96175   1
   0  -6   8 7.20380 0.87293   3
   0  -6   8 8.39192 1.33922   3
   0  -6   8 8.24802 1.15460   1
   0  -6  -8 7.57092 1.05031   1
   0  -6   8 7.77073 0.87335   1
   0  -6   8 7.31357 0.96278   2
   0  -6  -8 8.73876 1.06711   3
   0   6   8 6.39352 1.00706   3
   0   6   8 7.02904 1.09288   1
   0   6   8 7.56431 1.05069   2
   0   6  -8 8.25736 0.80259   1
   0   6  -8 7.99763 0.77971   3
   1  -6   8 36.1428 1.47009   3
   1  -6   8 34.7052 1.58245   1
   1  -6   8 34.5629 1.52995   2
  -1  -6  -8 32.2766 1.97074   1
  -1  -6  -8 32.6263 1.71861   2
   1  -6   8 35.3107 1.88798   3
   1  -6   8 34.3402 1.50611   1
   1   6   8 30.8425 1.79250   2
   1   6   8 34.3133 2.10685   1
   1   6   8 33.1295 2.05259   3
   2  -6   8 12.0254 1.07611   1
  -2  -6  -8 10.1448 1.10226   2
   2  -6   8 9.91805 0.81256   1
   2  -6   8 11.0269 0.93601   3
  -2  -6  -8 9.72619 1.18963   3
  -2  -6  -8 11.7541 1.31857   1
   2  -6   8 10.9268 0.87364   3
   2   6   8 11.9306 1.22706   2
   2   6   8 11.7655 1.38028   3
   2   6   8 10.9908 1.30705   1
  -3  -6  -8 13.5446 1.32956   2
  -3  -6  -8 15.6042 1.51224   3
   3   6   8 16.1305 1.66874   2
   3   6   8 13.7897 1.60623   1
   3   6   8 13.9731 1.58781   3
   4   6   8 78.2104 5.08949   2
   4   6   8 80.2780 4.08041   1
   4   6   8 81.2079 3.99236   3
   5   6   8 84.3108 5.80322   2
   5   6   8 77.1806 5.37858   1
   5   6   8 90.5863 5.21893   3
  -5  -7   8 9.33809 2.88659   3
  -5  -7   8 2.04812 2.45951   2
   5  -7  -8 10.8141 2.69365   2
   5  -7  -8 2.16514 2.54976   3
   5  -7  -8 4.62020 2.58462   1
   5   7  -8 4.11354 3.30008   3
   5   7  -8 2.71068 2.74988   2
   4  -7  -8 18.1203 2.02764   3
   4  -7  -8 18.9162 2.10624   1
  -4  -7   8 16.7753 1.94473   2
  -4  -7   8 17.3580 2.16332   3
   4  -7  -8 17.8160 1.96537   2
  -4  -7   8 21.5691 2.82164   1
  -4   7   8 13.0874 1.88945   2
   4   7  -8 17.6968 2.95214   1
   4   7  -8 13.9670 1.99488   2
   4   7  -8 23.1109 2.50600   3
   3  -7  -8 24.1441 1.83397   3
  -3  -7   8 24.3051 2.01406   1
   3  -7  -8 27.2522 1.95089   1
  -3  -7   8 27.2963 2.03597   2
   3  -7  -8 28.8241 2.31126   2
  -3  -7   8 29.6689 2.66736   3
   3   7  -8 25.3374 2.13200   1
   3   7  -8 26.5719 2.36686   2
  -3   7   8 23.7738 1.90141   3
  -3   7   8 25.3179 1.66375   2
   3   7  -8 25.6821 1.97744   3
  -2  -7   8 33.8994 2.32571   3
  -2  -7   8 31.7225 2.40279   1
   2  -7  -8 33.9132 2.07381   2
   2  -7  -8 31.9945 2.40632   1
   2  -7  -8 34.7022 2.39267   3
  -2  -7   8 33.1642 2.22122   2
  -2   7   8 33.6446 2.46458   3
   2   7  -8 33.4428 1.97726   2
  -2   7   8 30.0962 2.04427   2
   2   7  -8 30.9175 2.41721   3
  -2   7   8 29.2221 2.37850   1
   2   7  -8 32.0296 2.36594   1
  -1  -7   8 21.7983 1.86521   2
   1  -7  -8 26.7358 1.78076   2
  -1  -7   8 24.7338 1.90176   1
   1  -7  -8 28.2878 2.22041   1
   1  -7  -8 26.6896 2.03889   3
  -1  -7   8 26.0884 1.89408   3
  -1   7   8 27.5679 1.87297   2
  -1   7   8 27.3023 2.42095   1
   1   7  -8 25.8103 1.63122   2
   1   7  -8 26.0108 2.09398   3
  -1   7   8 30.2044 2.29923   3
   0  -7  -8 40.5868 1.99323   2
   0  -7   8 41.8839 2.00030   3
   0  -7   8 40.8661 1.96937   2
   0  -7   8 38.8855 1.96166   1
   0  -7  -8 42.3911 2.25714   3
   0  -7  -8 41.2772 2.28268   1
   0   7  -8 41.1083 1.82890   3
   0   7   8 39.5480 2.05318   2
   0   7   8 45.9268 2.40594   3
   0   7   8 41.6827 2.44911   1
   1  -7   8 100.180 4.15213   1
   1  -7   8 93.2212 2.93372   1
  -1  -7  -8 93.5863 3.51733   1
   1  -7   8 95.0712 2.96266   2
  -1  -7  -8 93.9214 3.13478   2
   1  -7   8 96.5760 2.84375   3
   1   7   8 96.5938 3.25804   2
   1   7   8 98.8481 3.45339   1
   1   7   8 93.1943 3.41234   3
   2  -7   8 5.77651 0.98818   2
  -2  -7  -8 2.56196 1.44739   1
   2  -7   8 2.86845 0.81897   1
  -2  -7  -8 3.15521 1.14865   2
  -2  -7  -8 4.02425 1.28551   3
   2  -7   8 3.47743 0.71491   3
   2  -7   8 4.49252 1.16633   1
   2   7   8 2.24729 1.42196   2
   2   7   8 3.54566 1.39870   3
   2   7   8 4.70268 1.46404   1
  -3  -7  -8 132.152 4.52261   3
  -3  -7  -8 130.383 4.12834   2
   3   7   8 134.645 4.89521   1
   3   7   8 128.321 4.48866   2
   3   7   8 127.950 4.76793   3
   4   7   8 125.757 5.54836   1
   4   7   8 131.239 5.39677   3
   4   7   8 123.126 5.18036   2
   4  -8  -8 14.1948 2.29641   1
  -4  -8   8 9.74018 2.17082   3
   4  -8  -8 11.7206 2.32337   3
  -4  -8   8 14.2738 2.17062   2
   4  -8  -8 9.09775 2.21312   2
   4   8  -8 11.0710 2.73913   3
   4   8  -8 16.2754 2.44604   2
   3  -8  -8 5.49346 1.66179   3
   3  -8  -8 1.47392 1.68712   1
  -3  -8   8 6.57312 2.16125   1
  -3  -8   8 3.55886 1.71588   3
  -3  -8   8 3.15945 1.69402   2
  -3   8   8 4.41911 3.06703   3
  -3   8   8 2.86833 1.62819   2
   3   8  -8 3.45645 1.63161   2
   3   8  -8 1.40545 2.06519   3
   2  -8  -8 48.4963 3.07845   1
  -2  -8   8 53.5956 2.85031   3
  -2  -8   8 49.4682 2.73248   2
   2  -8  -8 51.8722 2.97046   3
   2  -8  -8 50.4169 2.56400   2
  -2  -8   8 49.8007 3.07864   1
   2   8  -8 51.5310 3.27037   3
  -2   8   8 48.0936 2.65930   2
   2   8  -8 50.1398 2.54678   2
  -2   8   8 48.9637 3.24257   3
  -1  -8   8 184.426 5.25640   1
  -1  -8   8 181.342 5.22113   3
   1  -8  -8 186.009 5.37043   3
  -1  -8   8 181.756 5.20714   2
   1  -8  -8 181.326 5.39113   1
   1  -8  -8 179.751 5.17953   2
  -1   8   8 180.226 5.18128   2
   1   8  -8 182.653 4.92551   2
  -1   8   8 175.514 5.48458   1
  -1   8   8 184.094 5.42063   3
   1   8  -8 176.053 5.16418   3
   0  -8  -8 29.4731 2.31930   3
   0  -8  -8 25.9416 1.86531   1
   0  -8   8 28.6426 2.07339   2
   0  -8   8 27.7593 1.94682   3
   0  -8  -8 26.1988 2.02167   2
   0  -8   8 25.9784 2.00089   1
   0   8   8 27.4570 2.11932   2
   0   8   8 25.2691 1.88625   3
   0   8  -8 27.9024 2.08991   3
   0   8   8 28.1040 2.00056   1
  -1  -8  -8 18.2390 1.46878   2
   1  -8   8 17.8375 1.39007   2
   1  -8   8 18.4189 1.21769   3
   1  -8   8 18.7583 1.73227   1
  -1  -8  -8 18.3705 1.76115   1
   1   8   8 15.7096 1.48244   2
   1   8   8 18.0123 1.68984   3
   1   8   8 15.1145 1.78681   1
   2  -8   8 260.230 6.71245   1
  -2  -8  -8 259.972 7.00461   2
   2  -8   8 249.110 6.55071   3
  -2  -8  -8 249.750 7.22635   3
   2   8   8 251.121 7.15783   2
   2   8   8 266.770 7.35110   3
   2   8   8 265.976 7.39070   1
  -3  -8  -8 63.6867 3.89114   3
  -3  -8  -8 59.7776 3.24472   2
   3   8   8 54.7195 3.68096   2
   3   8   8 55.7984 4.11353   3
   3   8   8 62.8716 4.27388   1
  -4  -8  -8 19.5569 2.85722   2
   4   8   8 15.4894 3.13352   1
   4   8   8 17.5013 2.92256   3
   4   8   8 13.8552 2.93102   2
   4  -9  -8 44.2232 3.08056   2
  -4  -9   8 41.2380 3.12557   2
   4  -9  -8 59.3174 4.85942   3
  -4  -9   8 41.1089 3.26631   3
   4  -9  -8 46.4491 3.28084   1
   4   9  -8 44.5284 3.20528   2
   4   9  -8 52.4997 4.11523   3
  -3  -9   8 44.4195 3.44152   2
   3  -9  -8 47.0829 3.97685   1
   3  -9  -8 44.3172 3.35888   2
   3  -9  -8 48.7039 3.77694   3
  -3  -9   8 46.2439 3.61907   3
  -3  -9   8 44.0555 2.99865   1
   3   9  -8 38.5068 3.39260   2
   3   9  -8 44.0353 3.02301   3
   2  -9  -8 131.310 4.42057   2
  -2  -9   8 122.186 4.51162   2
   2  -9  -8 132.322 4.78910   3
  -2  -9   8 132.093 4.61453   3
   2   9  -8 131.668 4.96785   3
  -2   9   8 133.572 4.58789   2
   2   9  -8 128.895 5.52500   2
  -2   9   8 131.696 4.98872   3
  -1  -9   8 3.07831 1.44891   1
  -1  -9   8 2.49659 1.45875   2
   1  -9  -8 4.35414 1.93085   2
   1  -9  -8 3.05652 1.63290   1
  -1   9   8 3.85499 1.47846   2
   1   9  -8 3.47908 1.86300   3
   1   9  -8 1.92836 1.39102   2
  -1   9   8 4.77655 2.03088   3
   0  -9  -8 47.1633 3.26268   2
   0  -9   8 45.2203 2.56957   3
   0  -9   8 50.1600 2.70496   2
   0  -9  -8 48.1441 3.50603   1
   0  -9  -8 53.5203 3.00992   3
   0  -9   8 48.3483 2.92697   1
   0   9   8 42.7865 3.29515   3
   0   9   8 45.0751 2.79940   2
   0   9   8 43.5460 3.61150   1
   1  -9   8 50.7295 2.74249   2
   1  -9   8 53.9099 2.65160   1
   1  -9   8 49.5078 2.51511   3
  -1  -9  -8 50.6211 3.52498   1
  -1  -9  -8 48.9398 2.82650   2
  -1  -9  -8 52.3427 3.17727   3
   1   9   8 48.5460 2.99246   2
   1   9   8 52.3657 3.58512   3
   1   9   8 54.8941 3.79281   1
   2  -9   8 23.8297 1.60208   1
   2  -9   8 22.9732 2.01859   3
  -2  -9  -8 21.8362 1.98900   2
   2   9   8 22.7110 2.32678   2
   2   9   8 24.8309 2.40125   3
   2   9   8 21.8009 2.64614   1
   3  -9   8 2.81641 1.57145   1
  -3  -9  -8 5.18122 2.06046   2
   3   9   8 0.48762 3.05749   1
   3   9   8 2.46770 2.59014   3
   3   9   8 -1.7956 2.40505   2
   3 -10  -8 36.6091 2.77058   2
  -3 -10   8 48.9299 4.38571   3
   3 -10  -8 36.1309 2.93058   3
  -3 -10   8 37.9900 3.22466   2
   3 -10  -8 40.5057 3.26720   1
  -3 -10   8 47.0113 3.49020   1
   3  10  -8 40.5928 2.97153   2
   3  10  -8 36.5261 4.00586   3
   2 -10  -8 6.98828 2.09124   3
  -2 -10   8 7.22774 1.98736   3
   2 -10  -8 1.85064 2.18660   1
  -2 -10   8 4.04703 2.10260   1
  -2 -10   8 1.94942 1.84390   2
   2 -10  -8 5.40049 1.89271   2
   2  10  -8 3.80789 2.17621   2
  -2  10   8 3.57279 2.13818   2
  -1 -10   8 4.89762 1.73730   1
  -1 -10   8 3.44795 1.67858   3
  -1 -10   8 2.21925 1.80044   2
   1 -10  -8 4.08176 2.26882   1
   1 -10  -8 4.36662 1.67436   2
   1 -10  -8 4.81581 1.81769   3
   1  10  -8 3.64771 1.56951   2
  -1  10   8 2.77668 2.36605   3
  -1  10   8 6.39952 2.01712   2
   0 -10   8 17.2638 1.94485   2
   0 -10  -8 19.2308 2.04348   2
   0 -10   8 13.8349 1.68074   3
   0 -10   8 15.4752 1.79051   1
   0 -10  -8 14.8658 2.09726   3
   0 -10  -8 16.4968 2.30659   1
   0  10   8 19.0022 2.02908   2
   0  10   8 14.7549 3.43377   3
  -1 -10  -8 37.2182 3.19568   2
  -1 -10  -8 33.9364 3.59106   1
  -1 -10  -8 36.7541 2.57203   3
   1 -10   8 35.9945 2.35582   2
   1 -10   8 30.1533 2.60575   3
   1 -10   8 35.6560 2.77628   1
   1  10   8 33.8208 2.75969   3
   1  10   8 35.3693 3.83459   1
   1  10   8 30.3718 2.52900   2
   2 -10   8 55.6358 3.18511   1
  -2 -10  -8 55.3494 3.76127   2
   2  10   8 50.3205 3.73871   1
   2  10   8 63.7596 4.21324   2
   2  10   8 45.1364 3.31714   3
   3 -10   8 0.28140 1.95280   1
  -3 -10  -8 1.07593 2.67802   2
   3  10   8 1.59260 3.86209   1
   3  10   8 -2.9738 3.09970   2
   3  10   8 0.42779 3.21035   3
  -2 -11   8 12.4500 3.15566   1
   2 -11  -8 12.7829 3.06119   1
   2 -11  -8 13.0397 2.68496   2
  -2 -11   8 12.9575 2.81471   2
   2 -11  -8 14.5324 2.87836   3
  -2 -11   8 15.1723 2.53872   3
   2  11  -8 18.1790 2.67086   2
  -2  11   8 12.4069 2.94541   2
   1 -11  -8 15.2261 2.53067   3
   1 -11  -8 14.9823 2.35644   2
   1 -11  -8 14.6428 2.90803   1
  -1 -11   8 11.3784 2.37652   1
  -1 -11   8 8.62579 2.17613   3
  -1 -11   8 12.9286 2.24942   2
  -1  11   8 15.1189 2.54130   2
   0 -11   8 3.33208 1.84586   3
   0 -11   8 4.98703 2.17339   2
   0 -11   8 8.33505 2.04564   1
   0 -11  -8 3.70164 2.29173   3
   0 -11  -8 2.91604 2.82385   1
   0 -11  -8 4.28342 2.20290   2
   0  11   8 10.3100 3.02298   3
   0  11   8 7.27709 2.44863   2
  -1 -11  -8 3.78171 2.31402   2
  -1 -11  -8 1.93656 2.50380   3
   1 -11   8 5.32283 1.83120   1
   1 -11   8 3.24874 1.75850   3
   1  11   8 -2.2742 2.52637   2
   1  11   8 -0.2543 3.41641   3
   2 -11   8 43.4769 2.89827   3
  -2 -11  -8 47.8285 3.34118   2
  -2 -11  -8 54.6875 3.77846   3
   2 -11   8 45.9397 3.74869   1
   2  11   8 51.7292 3.97612   3
   2  11   8 44.5693 3.64241   2
   6   0  -9 32.8001 3.08224   2
   6   0  -9 27.5377 3.13102   1
   6   0  -9 28.0544 2.98097   3
   5   0  -9 -0.5445 1.68267   3
   5   0  -9 0.54442 1.52597   2
  -5   0   9 1.09048 1.75673   3
   5   0  -9 -0.9445 1.75045   1
  -5   0   9 0.91059 1.38258   2
   4   0  -9 365.237 9.23690   2
   4   0  -9 354.784 9.34107   1
  -4   0   9 365.580 9.28292   3
   4   0  -9 358.734 9.31435   3
  -4   0   9 347.238 9.18890   1
  -3   0   9 989.322 23.8450   2
   3   0  -9 962.419 23.8333   2
   3   0  -9 991.210 23.9020   3
   3   0  -9 980.613 23.9052   1
  -3   0   9 994.499 23.8798   3
  -2   0   9 992.943 23.9292   1
   2   0  -9 1001.42 23.9371   3
   2   0  -9 961.970 23.8807   2
  -2   0   9 975.689 23.9001   2
   2   0  -9 1030.30 23.9783   1
  -2   0   9 977.988 23.9206   3
  -1   0   9 1.02847 0.84236   3
   1   0  -9 0.60553 0.66768   2
  -1   0   9 0.46203 0.52430   2
   1   0  -9 -0.2548 0.48277   2
   1   0  -9 0.29198 0.53777   1
  -1   0   9 0.70096 0.55304   1
  -1   0   9 0.80291 0.58694   3
  -1   0   9 -0.1681 0.71983   1
   1   0  -9 0.80874 0.56524   3
   0   0   9 242.549 6.06691   2
   0   0   9 246.185 6.07128   3
   0   0   9 233.590 6.04924   3
   0   0  -9 237.592 6.02611   3
   0   0  -9 233.591 5.96903   2
   0   0  -9 264.718 6.14928   3
   0   0   9 247.308 6.07851   1
   0   0   9 243.496 6.03342   2
   0   0   9 233.278 6.04831   1
   0   0  -9 245.141 5.96776   2
   1   0   9 71.8663 1.97439   2
   1   0   9 68.8037 2.01448   3
   1   0   9 69.2400 2.04122   1
  -1   0  -9 73.4446 1.93483   3
   1   0   9 68.4783 2.14334   3
   1   0   9 72.8538 2.11837   2
   1   0   9 69.8891 1.99166   1
  -1   0  -9 69.7517 1.95529   3
   2   0   9 6.63229 0.58716   3
   2   0   9 5.38110 0.54021   1
   2   0   9 7.01399 0.58517   2
   2   0   9 6.30872 0.62947   1
   2   0   9 6.44044 0.56331   3
   2   0   9 6.02089 0.85357   2
   3   0   9 103.316 2.86688   3
   3   0   9 107.842 2.91091   1
   3   0   9 106.090 2.85782   3
   3   0   9 109.054 2.90093   2
   3   0   9 103.823 2.92121   1
   4   0   9 175.104 4.53457   3
   4   0   9 174.288 4.73547   1
   4   0   9 173.819 4.64396   1
   4   0   9 181.105 5.21873   2
   5   0   9 29.5624 2.20217   1
   6  -1  -9 4.54771 2.58755   3
   6  -1  -9 2.62575 2.77391   1
   6  -1  -9 0.43532 2.51798   2
  -6  -1   9 -2.4100 2.44796   2
   6   1  -9 1.70335 2.74321   1
   6   1  -9 4.84048 2.44341   2
   6   1  -9 5.82167 2.71368   3
   5  -1  -9 85.6258 3.64008   2
  -5  -1   9 87.8850 3.49943   2
   5  -1  -9 85.0255 4.37647   1
  -5  -1   9 86.8342 3.91249   3
   5  -1  -9 87.4552 3.88588   3
   5   1  -9 90.5147 3.97807   3
  -5   1   9 90.7990 3.43323   2
   5   1  -9 91.4986 4.11982   1
   5   1  -9 76.7506 5.29011   2
  -5   1   9 83.2774 4.04285   3
  -4  -1   9 49.0924 2.62807   3
  -4  -1   9 48.9459 2.36827   2
   4  -1  -9 49.4590 2.65477   1
   4  -1  -9 49.6160 2.62312   3
   4  -1  -9 45.7184 2.37771   2
   4   1  -9 49.4090 2.78946   1
  -4   1   9 47.1293 2.64090   3
   4   1  -9 48.4781 2.42985   2
  -4   1   9 49.0588 2.29485   2
   4   1  -9 50.3973 2.64470   3
  -4   1   9 45.0467 2.51441   1
  -3  -1   9 489.991 12.1111   3
  -3  -1   9 483.932 12.0902   1
  -3  -1   9 479.121 12.0526   2
   3  -1  -9 484.168 12.1254   1
   3  -1  -9 484.946 12.1229   3
   3  -1  -9 479.180 12.0511   2
   3   1  -9 490.842 12.1283   3
  -3   1   9 494.662 12.0783   1
  -3   1   9 487.184 12.0958   3
  -3   1   9 477.941 12.0321   2
   3   1  -9 489.370 12.0566   2
   3   1  -9 490.003 12.1373   1
  -2  -1   9 1072.99 25.5926   1
   2  -1  -9 1065.35 25.6029   1
   2  -1  -9 1029.91 25.5370   2
  -2  -1   9 1053.98 25.5660   2
   2  -1  -9 1054.56 25.5898   3
  -2  -1   9 1077.92 25.5908   3
  -2   1   9 1050.81 25.5582   2
  -2   1   9 1063.34 25.5859   3
   2   1  -9 1069.21 25.5800   1
   2   1  -9 1052.79 25.5822   3
   2   1  -9 1064.78 25.5447   2
  -1  -1   9 986.593 22.9591   1
   1  -1  -9 956.473 22.9120   2
  -1  -1   9 965.758 22.9567   3
  -1  -1   9 948.908 22.9505   1
  -1  -1   9 958.142 22.9358   2
   1  -1  -9 914.785 22.9066   2
  -1  -1   9 941.788 22.9431   3
   1  -1  -9 962.850 22.9521   1
   1   1  -9 963.731 22.8879   2
   1   1  -9 970.042 22.9209   1
  -1   1   9 927.131 22.9307   2
  -1   1   9 938.667 22.9512   3
   1   1  -9 939.579 22.8889   2
  -1   1   9 959.329 22.9729   1
  -1   1   9 930.021 22.9541   1
  -1   1   9 962.393 22.9758   3
   1   1  -9 960.831 22.9339   3
   0  -1   9 183.942 4.63260   2
   0  -1   9 180.065 4.67160   2
   0  -1  -9 180.990 4.63264   2
   0  -1   9 183.554 4.66160   3
   0  -1   9 180.371 4.65436   3
   0  -1   9 173.087 4.63976   1
   0  -1  -9 185.261 4.67564   3
   0  -1  -9 186.772 4.66311   1
   0  -1  -9 190.413 4.62169   2
   0  -1   9 184.912 4.66596   1
   0   1  -9 185.484 4.62196   3
   0   1   9 177.417 4.69034   3
   0   1  -9 189.649 4.58661   1
   0   1   9 184.430 4.73290   3
   0   1   9 182.056 4.69498   1
   0   1   9 189.668 4.73196   1
   0   1  -9 182.027 4.55077   2
   0   1  -9 179.473 4.62277   3
   0   1  -9 189.768 4.55352   2
   0   1   9 184.064 4.68500   2
   1  -1   9 304.350 7.58514   1
  -1  -1  -9 317.682 7.61176   3
   1  -1   9 305.623 7.58379   3
   1  -1   9 311.869 7.56896   2
  -1  -1  -9 311.020 7.53318   2
   1  -1   9 315.910 7.58672   3
   1  -1   9 315.542 7.59867   1
   1  -1   9 306.879 7.58705   2
  -1   1  -9 312.394 7.48507   3
   1   1   9 312.651 7.63328   2
   1   1   9 307.718 7.64941   3
   1   1   9 317.820 7.66526   3
  -1   1  -9 303.039 7.47969   3
   1   1   9 304.041 7.65213   1
  -2  -1  -9 66.3759 2.12389   3
   2  -1   9 62.4086 1.74502   3
   2  -1   9 61.6391 1.77625   1
  -2  -1  -9 66.6704 2.12218   3
   2  -1   9 62.0456 1.75936   3
   2   1   9 60.8512 1.94968   3
   2   1   9 63.3080 1.99193   1
   2   1   9 62.3028 1.96707   3
   2   1   9 63.5593 1.93676   1
   2   1   9 62.7728 1.90555   2
   3  -1   9 186.835 4.62266   1
   3  -1   9 184.789 4.53212   3
   3  -1   9 179.215 4.53111   3
   3  -1   9 183.260 4.61495   1
   3   1   9 188.715 4.77972   3
   3   1   9 190.173 4.77803   2
   3   1   9 179.547 4.81092   1
   3   1   9 183.880 4.79197   1
   4  -1   9 129.928 3.67140   1
   4  -1   9 130.867 3.55197   1
   4   1   9 139.414 3.88201   1
   4   1   9 132.865 3.97023   2
   4   1   9 135.529 3.78030   3
   5  -1   9 7.81182 1.15002   1
   5   1   9 4.36575 1.43991   1
   5   1   9 6.97292 1.37243   3
  -6  -2   9 8.55720 2.30472   2
   6  -2  -9 3.39225 2.75019   1
   6  -2  -9 8.00961 2.70657   3
   6  -2  -9 12.0267 2.76067   2
   6   2  -9 10.5983 3.00654   1
   6   2  -9 10.2442 2.77146   3
   6   2  -9 6.83913 2.86592   2
   5  -2  -9 8.13728 1.78102   3
   5  -2  -9 11.3210 1.96813   2
  -5  -2   9 8.19661 1.85524   3
   5  -2  -9 6.15350 2.17808   1
  -5   2   9 10.7143 1.68709   2
  -5   2   9 11.4990 2.33690   3
   5   2  -9 9.46223 2.04031   1
   5   2  -9 9.35928 1.83096   2
   5   2  -9 8.54977 1.94061   3
   4  -2  -9 14.6757 1.49151   1
   4  -2  -9 13.4336 1.48815   3
   4  -2  -9 14.0235 1.47547   2
  -4  -2   9 17.5068 1.48007   2
  -4  -2   9 13.4864 1.42164   3
  -4  -2   9 12.6250 1.46817   1
  -4   2   9 10.9443 1.53749   3
   4   2  -9 14.6091 1.46036   2
  -4   2   9 14.9145 1.35777   2
   4   2  -9 12.8612 1.54090   1
  -4   2   9 14.6366 1.41845   1
   4   2  -9 15.1202 1.51202   3
   3  -2  -9 73.7293 2.71144   1
   3  -2  -9 70.7380 2.53272   2
   3  -2  -9 72.4302 2.68953   3
  -3  -2   9 75.5088 2.72379   3
  -3  -2   9 72.1290 2.55211   2
  -3  -2   9 73.0651 2.64465   1
  -3   2   9 73.0034 2.68725   3
   3   2  -9 70.7798 2.69817   3
  -3   2   9 71.7512 2.48744   2
   3   2  -9 73.8648 2.53002   2
   3   2  -9 74.6596 2.72920   1
  -3   2   9 71.4988 2.62073   1
  -2  -2   9 149.950 4.11090   3
   2  -2  -9 149.811 4.09546   1
   2  -2  -9 145.071 4.06509   3
   2  -2  -9 145.246 4.00316   2
  -2  -2   9 146.960 4.02837   2
  -2  -2   9 149.339 4.08471   1
  -2   2   9 143.864 3.99541   2
   2   2  -9 145.681 3.96314   2
  -2   2   9 148.594 4.06301   1
   2   2  -9 147.770 4.06140   3
   2   2  -9 149.932 4.04685   1
  -2   2   9 147.700 4.09836   3
   1  -2  -9 586.077 14.4541   2
  -1  -2   9 588.339 14.4977   3
  -1  -2   9 587.999 14.4599   2
   1  -2  -9 588.719 14.4940   3
   1  -2  -9 607.710 14.5000   1
  -1  -2   9 582.998 14.4786   1
  -1  -2   9 623.921 14.5122   1
  -1  -2   9 593.449 14.4790   3
  -1   2   9 594.147 14.5026   1
  -1   2   9 596.885 14.5479   1
  -1   2   9 586.539 14.4988   3
  -1   2   9 589.688 14.4761   2
   1   2  -9 586.540 14.4046   2
   1   2  -9 593.180 14.4482   3
   1   2  -9 606.604 14.4376   1
   1   2  -9 604.720 14.4181   2
   0  -2  -9 708.378 17.5320   2
   0  -2   9 699.476 17.5150   3
   0  -2   9 703.823 17.5210   1
   0  -2  -9 725.540 17.5255   2
   0  -2  -9 733.717 17.5675   1
   0  -2   9 791.880 17.6188   2
   0  -2  -9 715.973 17.5662   3
   0  -2   9 737.248 17.5242   3
   0  -2   9 738.191 17.5374   1
   0  -2   9 725.684 17.5129   2
   0   2   9 710.179 17.5622   2
   0   2  -9 732.167 17.4313   1
   0   2   9 699.726 17.5737   3
   0   2   9 734.262 17.6012   3
   0   2  -9 715.333 17.4144   2
   0   2   9 707.553 17.5848   1
   0   2  -9 774.684 17.5758   3
   0   2  -9 727.758 17.4801   3
   1  -2   9 403.485 9.56225   2
   1  -2   9 391.527 9.56568   3
  -1  -2  -9 403.139 9.66733   3
   1  -2   9 392.193 9.56359   3
  -1  -2  -9 399.806 9.60214   2
  -1  -2  -9 404.788 9.63908   1
   1  -2   9 395.129 9.57182   2
   1  -2   9 400.610 9.58047   1
  -1  -2  -9 394.240 9.60183   2
   1  -2   9 384.494 9.56964   1
   1   2   9 406.840 9.72991   3
   1   2   9 383.301 9.68811   3
   1   2   9 369.095 9.79964   2
   1   2   9 394.809 9.70531   1
  -2  -2  -9 621.951 14.7034   1
   2  -2   9 623.428 14.6855   1
   2  -2   9 582.427 14.6512   3
   2  -2   9 621.578 14.6401   3
  -2  -2  -9 620.211 14.7921   3
   2  -2   9 589.588 14.6745   1
   2   2   9 619.204 14.8998   1
   2   2   9 614.393 14.8779   3
   2   2   9 615.261 14.8699   2
   2   2   9 619.253 14.8973   3
   2   2   9 605.836 14.8837   1
  -3  -2  -9 513.567 12.5379   3
   3   2   9 520.477 12.7498   1
   3   2   9 506.315 12.7772   1
   3   2   9 530.053 12.7286   3
   3   2   9 524.415 12.7213   2
   4   2   9 5.86511 1.12414   1
   4   2   9 6.78185 1.31862   2
   4   2   9 4.69992 1.18822   3
   5   2   9 29.8278 2.66036   3
   5   2   9 24.7895 2.02522   1
   6  -3  -9 14.5437 2.96289   1
   6  -3  -9 8.25047 2.89953   3
  -6  -3   9 6.75228 2.48412   2
   6  -3  -9 3.72478 2.77277   2
   6   3  -9 13.9379 3.10517   3
   6   3  -9 13.8261 2.82730   2
   6   3  -9 9.88754 3.67127   1
   5  -3  -9 7.42643 2.88974   2
  -5  -3   9 9.22822 2.00810   3
   5  -3  -9 11.4262 1.94528   3
   5  -3  -9 13.6445 2.00211   1
  -5  -3   9 8.39699 1.76119   2
   5   3  -9 9.41259 2.09940   3
  -5   3   9 9.41508 1.53675   2
   5   3  -9 8.36683 1.90695   2
   5   3  -9 11.9685 2.30736   1
  -4  -3   9 28.2326 2.59272   1
   4  -3  -9 24.5351 1.61735   2
   4  -3  -9 26.6547 2.37802   3
   4  -3  -9 23.0274 1.72730   1
  -4  -3   9 23.1067 1.65948   3
  -4  -3   9 25.2195 2.15849   2
   4   3  -9 23.8448 2.13818   2
   4   3  -9 24.8189 1.85714   1
  -4   3   9 25.0857 1.79876   3
  -4   3   9 24.5927 1.61370   2
   4   3  -9 22.1292 1.68958   3
   3  -3  -9 20.7251 1.88528   1
  -3  -3   9 19.9789 1.43678   3
  -3  -3   9 19.4292 1.39355   1
   3  -3  -9 17.8835 1.32065   3
  -3  -3   9 20.2289 1.72426   2
   3  -3  -9 19.5205 1.72906   2
  -3   3   9 21.1161 1.36543   1
  -3   3   9 21.5943 1.64467   2
   3   3  -9 22.3516 2.03719   1
   3   3  -9 19.8321 1.65815   2
   3   3  -9 18.4236 1.33766   3
  -3   3   9 20.7421 1.83329   3
  -2  -3   9 387.437 9.85699   3
   2  -3  -9 400.867 9.86869   3
  -2  -3   9 394.129 9.83469   2
   2  -3  -9 394.096 9.80268   2
  -2  -3   9 403.076 9.86884   1
   2  -3  -9 391.176 9.85895   1
  -2   3   9 392.388 9.83995   3
   2   3  -9 384.770 9.82565   3
  -2   3   9 398.424 9.83585   1
   2   3  -9 393.185 9.82321   1
   2   3  -9 392.979 9.76179   2
  -2   3   9 390.481 9.79265   2
  -1  -3   9 55.9713 1.95269   2
   1  -3  -9 58.4343 2.03275   1
  -1  -3   9 53.9371 2.29012   3
  -1  -3   9 59.0810 2.01162   3
   1  -3  -9 55.6740 1.91276   2
  -1  -3   9 55.4566 1.98762   1
  -1  -3   9 58.1858 2.08604   1
   1  -3  -9 56.9947 2.03556   3
   1   3  -9 55.7082 1.79477   2
  -1   3   9 55.2115 2.01256   1
  -1   3   9 58.9417 2.06497   3
  -1   3   9 56.5535 1.95775   2
   1   3  -9 56.7421 1.88546   1
   1   3  -9 58.9896 1.99709   2
   1   3  -9 55.4296 1.91024   3
   0  -3   9 955.530 22.3176   2
   0  -3  -9 933.955 22.3876   1
   0  -3  -9 897.832 22.4188   3
   0  -3   9 902.068 22.3214   1
   0  -3  -9 912.965 22.3504   2
   0  -3   9 928.967 22.3247   1
   0  -3   9 951.200 22.3229   3
   0  -3   9 921.509 22.3181   3
   0   3  -9 916.034 22.2531   3
   0   3  -9 929.327 22.1818   2
   0   3   9 907.782 22.3966   3
   0   3  -9 959.784 22.1834   2
   0   3   9 945.652 22.4336   1
   0   3   9 918.873 22.3763   2
   0   3   9 911.454 22.4071   1
   0   3  -9 949.281 22.1971   1
  -1  -3  -9 662.387 15.7508   1
  -1  -3  -9 662.147 15.7705   3
   1  -3   9 644.409 15.6384   1
   1  -3   9 645.139 15.6303   2
   1  -3   9 637.096 15.6195   3
   1  -3   9 650.088 15.6394   1
   1  -3   9 660.770 15.6256   3
  -1  -3  -9 635.680 15.7091   2
  -1  -3  -9 648.407 15.7181   2
   1  -3   9 674.005 15.6309   2
   1   3   9 652.328 15.8465   3
   1   3   9 655.701 15.8297   1
   1   3   9 637.435 15.7958   3
   1   3   9 642.699 15.8010   1
   1   3   9 632.617 15.7728   2
  -2  -3  -9 346.813 8.53468   3
   2  -3   9 346.966 8.31550   1
  -2  -3  -9 339.765 8.42784   2
  -2  -3  -9 354.935 8.46838   2
   2   3   9 344.089 8.58418   2
   2   3   9 340.136 8.61849   1
   2   3   9 346.953 8.66664   1
   2   3   9 334.852 8.68323   3
   2   3   9 341.954 8.61209   3
  -3  -3  -9 8.39228 0.99662   3
   3   3   9 5.84380 1.04729   3
   3   3   9 7.20564 1.05313   2
   3   3   9 6.76661 1.01515   1
   4   3   9 49.0745 2.54773   3
   4   3   9 50.6558 2.54630   1
   4   3   9 49.1003 2.72671   2
   5   3   9 13.6256 2.00169   1
   5   3   9 14.6765 1.82512   3
   6  -4  -9 106.319 5.96990   2
  -6  -4   9 104.408 5.30695   2
   6  -4  -9 100.203 6.01419   1
   6  -4  -9 117.208 6.00288   3
   6   4  -9 108.240 7.24802   1
   6   4  -9 101.673 5.73939   2
   6   4  -9 112.438 6.40442   3
  -5  -4   9 31.8529 2.75165   3
   5  -4  -9 31.0720 2.45008   2
   5  -4  -9 31.8239 2.46390   1
  -5  -4   9 29.1957 2.29942   2
   5  -4  -9 30.0330 2.39180   3
   5   4  -9 29.9509 2.33746   2
  -5   4   9 26.9325 2.02037   2
   5   4  -9 33.8386 2.66247   3
  -4  -4   9 148.557 4.83429   3
   4  -4  -9 153.529 4.90357   1
  -4  -4   9 153.320 4.69339   2
   4  -4  -9 160.553 4.83316   3
  -4  -4   9 148.515 4.90591   1
   4  -4  -9 151.978 4.59602   2
   4   4  -9 159.388 4.97330   3
  -4   4   9 145.635 4.73436   3
  -4   4   9 150.323 4.45891   2
   4   4  -9 149.837 4.66406   2
   4   4  -9 156.893 5.14400   1
  -3  -4   9 124.920 3.91166   1
  -3  -4   9 123.993 3.79758   2
   3  -4  -9 124.362 3.84957   3
   3  -4  -9 119.632 3.70208   2
   3  -4  -9 122.997 3.88201   1
  -3  -4   9 124.098 3.86467   3
   3   4  -9 124.828 3.92943   3
  -3   4   9 122.150 3.75261   1
  -3   4   9 123.666 3.65401   2
   3   4  -9 116.284 3.67750   2
  -3   4   9 121.995 3.81676   3
   3   4  -9 120.449 3.96242   1
  -2  -4   9 7.62491 1.02204   3
   2  -4  -9 8.10706 0.97048   3
  -2  -4   9 5.98554 0.98898   1
   2  -4  -9 8.69031 0.97407   2
   2  -4  -9 6.81194 1.00265   1
   2   4  -9 7.62738 0.99587   1
  -2   4   9 9.27309 1.02543   1
   2   4  -9 7.57558 1.07231   3
   2   4  -9 6.44070 0.85442   2
  -2   4   9 7.72221 0.95324   3
  -2   4   9 7.74845 0.99414   2
   1  -4  -9 51.9527 1.86745   2
  -1  -4   9 52.0097 1.92732   2
   1  -4  -9 50.9434 2.12585   1
   1  -4  -9 52.0756 2.06823   3
  -1  -4   9 50.6502 1.95515   3
  -1  -4   9 52.3367 1.95333   1
  -1  -4   9 46.4536 2.10114   1
  -1   4   9 55.8201 1.93315   2
   1   4  -9 49.6031 1.82575   1
  -1   4   9 52.4119 2.07780   1
   1   4  -9 50.0837 1.74232   2
   1   4  -9 52.2306 1.88756   3
   1   4  -9 51.4715 2.03303   2
   0  -4  -9 758.225 18.4717   3
   0  -4   9 755.679 18.3792   3
   0  -4   9 747.126 18.3759   1
   0  -4  -9 763.903 18.4731   1
   0  -4   9 752.445 18.3860   1
   0  -4  -9 737.021 18.4197   2
   0  -4   9 750.021 18.3693   3
   0  -4   9 750.724 18.4614   2
   0   4  -9 770.469 18.2116   1
   0   4   9 741.613 18.4409   2
   0   4   9 758.471 18.4812   3
   0   4   9 859.234 18.9677   1
   0   4  -9 763.048 18.2903   3
   0   4   9 734.548 18.4725   1
   1  -4   9 50.5036 1.58882   3
  -1  -4  -9 50.0637 1.98549   3
  -1  -4  -9 50.0330 1.97609   1
   1  -4   9 51.1958 1.64994   1
   1  -4   9 49.1118 1.68799   3
   1  -4   9 51.0100 1.64161   1
   1  -4   9 52.8477 1.65682   2
  -1  -4  -9 51.3639 1.81693   2
   1   4   9 47.9328 1.88400   2
   1   4   9 43.5150 2.35685   1
   1   4   9 51.3455 2.00288   1
   1   4   9 50.9845 2.00889   3
   2  -4   9 176.925 4.33184   1
   2  -4   9 170.825 4.34036   1
  -2  -4  -9 170.795 4.68768   3
  -2  -4  -9 177.733 4.68225   1
  -2  -4  -9 181.437 4.75873   2
  -2  -4  -9 172.026 4.56216   2
   2   4   9 171.423 5.01159   1
   2   4   9 170.947 4.74637   1
   2   4   9 175.839 4.78793   3
   2   4   9 173.428 4.69585   2
  -3  -4  -9 7.99087 1.14095   3
   3   4   9 8.45475 1.26875   2
   3   4   9 8.49735 1.20908   1
   3   4   9 9.04725 1.22506   3
   4   4   9 21.8732 1.93142   2
   4   4   9 20.0502 1.70083   3
   4   4   9 18.0499 2.31449   1
   5   4   9 36.0967 2.46792   3
   5   4   9 42.0184 3.75714   1
  -5  -5   9 289.156 8.46269   3
  -5  -5   9 267.895 7.97404   2
   5  -5  -9 274.608 8.21616   3
   5  -5  -9 273.408 8.08795   2
   5  -5  -9 285.338 8.38363   1
   5   5  -9 279.610 8.49059   3
   5   5  -9 281.624 8.75765   1
   5   5  -9 290.464 8.16983   2
  -4  -5   9 41.9863 3.16171   3
  -4  -5   9 43.9261 3.35965   1
   4  -5  -9 43.5466 2.69907   2
   4  -5  -9 45.8381 3.25100   3
   4  -5  -9 39.7867 3.05982   1
  -4  -5   9 40.7563 3.07433   2
   4   5  -9 40.5766 3.27822   2
   4   5  -9 46.4074 3.25080   3
  -4   5   9 42.2393 3.16571   3
   4   5  -9 42.8111 2.64422   1
  -4   5   9 42.1971 2.46165   2
   3  -5  -9 35.9644 2.37386   1
   3  -5  -9 35.7073 2.33229   3
  -3  -5   9 38.6200 2.48846   1
  -3  -5   9 35.7905 2.45522   3
   3  -5  -9 36.7110 2.10838   2
  -3  -5   9 31.6500 2.22427   2
   3   5  -9 35.6252 2.78122   1
  -3   5   9 33.6182 2.33603   1
   3   5  -9 32.1480 2.55775   3
  -3   5   9 31.9075 2.04177   2
  -3   5   9 36.3986 2.52352   3
   3   5  -9 32.3286 2.07849   2
  -2  -5   9 270.827 6.98340   2
   2  -5  -9 267.242 6.89749   2
  -2  -5   9 264.498 6.98601   1
   2  -5  -9 266.042 6.98829   3
  -2  -5   9 273.024 7.00483   3
   2  -5  -9 258.230 6.99439   1
  -2   5   9 263.016 6.86750   2
   2   5  -9 264.133 6.90877   1
  -2   5   9 269.072 6.93758   1
   2   5  -9 260.894 6.81808   2
   2   5  -9 263.268 6.94162   3
  -2   5   9 261.856 6.97880   3
  -1  -5   9 9.54015 1.18398   1
  -1  -5   9 7.77886 0.92993   1
   1  -5  -9 8.62806 1.06520   1
  -1  -5   9 7.37411 0.92337   3
   1  -5  -9 8.50242 0.96185   2
   1  -5  -9 6.69787 0.98718   3
  -1  -5   9 7.71027 0.96185   2
   1   5  -9 7.05635 1.06167   3
   1   5  -9 9.91949 1.14412   2
   1   5  -9 7.64144 0.84540   1
   1   5  -9 9.75898 0.81392   2
  -1   5   9 7.77848 1.06831   3
  -1   5   9 10.1550 0.95425   2
  -1   5   9 9.04550 1.06481   1
   0  -5   9 145.486 3.88253   2
   0  -5  -9 128.459 5.01330   1
   0  -5   9 144.014 3.86282   1
   0  -5  -9 137.638 4.00846   3
   0  -5   9 146.114 3.86670   3
   0  -5  -9 142.822 3.91988   2
   0  -5   9 136.260 3.87287   1
   0  -5   9 141.404 3.99058   3
   0   5  -9 144.323 3.60992   1
   0   5   9 143.241 4.06044   1
   0   5  -9 142.500 3.70479   3
   0   5   9 141.288 3.95347   2
   0   5   9 141.817 4.02168   3
   1  -5   9 187.279 4.97032   3
   1  -5   9 193.140 4.94727   1
  -1  -5  -9 198.491 5.20747   1
   1  -5   9 193.405 4.96548   1
  -1  -5  -9 196.409 5.10941   2
   1  -5   9 190.308 4.90181   3
  -1  -5  -9 195.086 5.21557   3
   1  -5   9 193.929 4.94754   2
   1   5   9 191.529 5.18320   2
   1   5   9 193.664 5.24754   1
   1   5   9 194.485 5.24819   3
  -2  -5  -9 18.7143 1.52882   2
   2  -5   9 18.1520 0.79907   3
  -2  -5  -9 15.5886 1.30029   3
  -2  -5  -9 17.9872 1.34883   1
   2  -5   9 17.3772 0.96093   3
   2  -5   9 18.0111 1.02855   1
   2  -5   9 17.6660 1.07523   1
   2   5   9 17.6050 1.37734   3
   2   5   9 19.6561 1.81720   1
   2   5   9 19.2912 1.35209   2
  -3  -5  -9 7.45360 1.35892   3
  -3  -5  -9 8.27874 1.19616   2
   3   5   9 6.69139 1.39868   2
   3   5   9 5.09089 1.32679   3
   3   5   9 4.35553 1.29619   1
   4   5   9 0.05715 1.69040   1
   4   5   9 -0.2672 1.67077   3
   4   5   9 -1.1510 1.87074   2
   5   5   9 32.1579 2.85103   3
   5   5   9 40.7812 4.00242   2
   5   5   9 35.3292 2.92204   1
  -5  -6   9 10.0871 2.22900   2
   5  -6  -9 8.36453 2.55497   3
   5  -6  -9 11.2856 2.52387   1
  -5  -6   9 7.62641 2.57348   3
   5  -6  -9 5.05685 2.34368   2
   5   6  -9 8.91305 2.50013   2
   5   6  -9 2.08147 3.78046   1
   5   6  -9 12.0048 3.05732   3
   4  -6  -9 47.9281 3.32113   3
   4  -6  -9 50.7343 3.37211   1
   4  -6  -9 52.7699 3.86450   2
  -4  -6   9 44.6683 3.08634   2
  -4  -6   9 51.8434 3.94602   1
  -4   6   9 53.4711 2.87598   2
   4   6  -9 50.9691 3.22435   2
   4   6  -9 50.2459 4.10951   1
   3  -6  -9 85.2707 3.48456   1
   3  -6  -9 88.9903 3.22532   2
  -3  -6   9 87.8420 3.54998   1
   3  -6  -9 83.5931 3.39247   3
  -3  -6   9 89.8520 3.50009   3
  -3  -6   9 87.5231 3.37015   2
  -3   6   9 87.8390 3.18561   2
   3   6  -9 85.3061 3.19227   2
  -3   6   9 89.6903 3.64418   3
   3   6  -9 84.3428 3.69142   1
   3   6  -9 90.4048 3.52816   3
   2  -6  -9 86.3239 3.27286   1
   2  -6  -9 87.7669 3.24321   3
  -2  -6   9 96.0642 3.26639   3
   2  -6  -9 89.0225 3.07966   2
  -2  -6   9 93.9286 3.18081   2
  -2  -6   9 86.4144 3.19309   1
  -2   6   9 91.2402 3.26462   3
  -2   6   9 90.3931 3.21318   1
  -2   6   9 91.9985 3.04626   2
   2   6  -9 87.8409 3.16660   3
   2   6  -9 87.9434 3.15727   1
   2   6  -9 91.6801 2.94685   2
   1  -6  -9 54.4187 2.39563   3
  -1  -6   9 54.5472 2.26303   1
  -1  -6   9 54.4652 2.29995   3
  -1  -6   9 58.2360 2.30506   2
   1  -6  -9 55.5919 2.47114   1
   1  -6  -9 53.6840 2.18664   2
  -1   6   9 52.9493 2.51478   1
  -1   6   9 52.2078 2.25071   2
   1   6  -9 52.7146 2.34995   3
  -1   6   9 59.2404 2.51255   3
   1   6  -9 55.7029 2.04130   2
   0  -6  -9 275.697 7.23109   3
   0  -6   9 285.614 7.06973   3
   0  -6  -9 276.104 7.26991   1
   0  -6   9 282.373 7.08853   2
   0  -6   9 274.933 7.20567   1
   0  -6   9 285.152 7.09778   1
   0  -6  -9 279.352 7.15147   2
   0   6   9 289.013 7.28718   3
   0   6  -9 243.331 7.13137   1
   0   6  -9 276.600 6.92875   3
   0   6   9 283.258 7.28384   1
   0   6   9 270.406 7.16167   2
   1  -6   9 250.373 6.21329   3
  -1  -6  -9 250.273 6.41874   2
  -1  -6  -9 240.190 6.50366   3
   1  -6   9 252.221 6.26431   1
   1  -6   9 233.251 6.26129   1
  -1  -6  -9 244.716 6.52266   1
   1   6   9 246.946 6.50480   2
   1   6   9 250.296 6.59368   3
   1   6   9 241.142 6.59181   1
   2  -6   9 16.9625 1.29382   1
   2  -6   9 19.1133 1.04111   3
   2  -6   9 17.7758 1.20438   1
  -2  -6  -9 18.6740 1.53321   1
  -2  -6  -9 16.6481 1.30334   2
  -2  -6  -9 15.3961 1.44750   3
   2   6   9 15.5799 1.37433   2
   2   6   9 17.8882 1.52685   3
   2   6   9 15.1893 1.46209   1
  -3  -6  -9 6.52488 1.57204   3
  -3  -6  -9 6.36726 1.31540   2
   3   6   9 6.88142 1.54365   3
   3   6   9 6.50128 1.58661   2
   3   6   9 7.97272 1.61669   1
   4   6   9 37.1845 2.56821   2
   4   6   9 42.5877 3.76222   1
   4   6   9 37.6913 2.60883   3
   5   6   9 77.0015 6.12994   2
   5   6   9 79.3373 5.35356   3
   5   6   9 93.5041 5.60405   1
  -5  -7   9 7.08776 2.75777   2
   5  -7  -9 9.18870 2.85801   3
   5  -7  -9 2.99925 2.82055   2
  -5  -7   9 8.36656 3.02273   3
   5  -7  -9 7.75490 2.78724   1
   5   7  -9 6.99288 3.32526   3
   5   7  -9 4.26459 2.82612   2
  -4  -7   9 17.7338 2.87889   1
   4  -7  -9 15.6463 2.17456   1
   4  -7  -9 17.7642 2.08537   2
   4  -7  -9 18.6798 2.15590   3
  -4  -7   9 13.6585 2.01955   2
  -4  -7   9 17.5912 2.16916   3
   4   7  -9 17.6921 2.12750   2
   4   7  -9 19.9662 2.51373   3
  -4   7   9 16.1963 1.81615   2
   3  -7  -9 43.8803 3.13957   1
   3  -7  -9 37.9400 2.58631   2
  -3  -7   9 37.7788 3.17078   2
   3  -7  -9 34.3201 2.85776   3
  -3  -7   9 39.7151 2.89399   3
  -3  -7   9 39.5678 3.22979   1
   3   7  -9 45.3613 3.30563   3
   3   7  -9 39.0788 2.67037   1
   3   7  -9 39.3993 2.57187   2
  -3   7   9 40.9638 2.48539   2
  -3   7   9 37.6953 3.12991   3
  -2  -7   9 18.2185 1.59396   1
   2  -7  -9 18.1916 1.60428   3
  -2  -7   9 14.8828 1.50699   3
   2  -7  -9 19.9564 1.48036   2
   2  -7  -9 15.5236 1.64711   1
  -2  -7   9 15.8387 1.53833   2
  -2   7   9 20.8468 1.67989   1
  -2   7   9 16.1904 1.43082   2
   2   7  -9 19.5381 1.71865   3
   2   7  -9 18.9302 1.39624   2
  -2   7   9 21.9698 1.70646   3
   2   7  -9 17.6989 1.77406   1
   1  -7  -9 130.186 3.90160   2
  -1  -7   9 129.023 3.93696   2
  -1  -7   9 134.688 3.95349   3
   1  -7  -9 122.540 4.05006   3
   1  -7  -9 129.629 4.13665   1
  -1  -7   9 132.063 3.94582   1
  -1   7   9 126.757 3.91598   2
   1   7  -9 129.355 3.63930   2
  -1   7   9 121.169 4.19642   1
   1   7  -9 124.223 3.84600   3
  -1   7   9 127.866 4.18829   3
   0  -7  -9 464.071 11.8006   1
   0  -7   9 471.504 11.5830   3
   0  -7   9 469.686 11.6225   1
   0  -7  -9 468.733 11.6915   2
   0  -7   9 467.642 11.6007   2
   0  -7  -9 465.869 11.7716   3
   0   7   9 457.535 11.6856   2
   0   7  -9 457.289 11.4290   3
   0   7   9 463.291 11.7851   3
   0   7   9 467.856 11.7994   1
   1  -7   9 28.3590 1.60860   3
  -1  -7  -9 26.3747 1.79046   1
   1  -7   9 28.1337 1.85947   2
  -1  -7  -9 27.5411 1.91502   2
   1  -7   9 28.3771 1.68498   1
  -1  -7  -9 27.1052 2.19869   3
   1   7   9 29.9212 2.09583   2
   1   7   9 28.3523 2.43718   3
   1   7   9 27.3451 2.45317   1
   2  -7   9 76.1557 2.43066   1
  -2  -7  -9 74.1682 3.36977   3
   2  -7   9 74.2548 2.27093   3
  -2  -7  -9 75.2343 2.87100   2
   2   7   9 75.4464 3.15683   2
   2   7   9 72.2689 3.34154   3
   2   7   9 70.7765 3.43961   1
  -3  -7  -9 64.6630 3.09202   2
  -3  -7  -9 65.4088 3.96124   3
   3   7   9 65.5708 4.68666   1
   3   7   9 72.9207 3.80358   3
   4   7   9 82.3164 5.11382   1
   4   7   9 72.3750 4.71144   3
   4   7   9 71.6254 4.41894   2
  -4  -8   9 0.80702 2.20708   3
   4  -8  -9 0.09769 2.19054   3
   4  -8  -9 2.31517 2.35203   1
   4  -8  -9 5.77927 2.22602   2
  -4  -8   9 -0.1755 2.11977   2
   4   8  -9 0.47491 2.24200   2
   4   8  -9 -0.7508 3.14414   3
  -3  -8   9 9.28309 2.29079   1
   3  -8  -9 6.45046 1.63258   2
  -3  -8   9 5.09771 1.78160   3
   3  -8  -9 6.01656 2.02078   1
   3  -8  -9 5.58982 1.79502   3
  -3  -8   9 7.32210 1.76875   2
   3   8  -9 8.17899 2.35937   3
   3   8  -9 5.96708 1.72059   2
  -3   8   9 4.74965 2.59602   3
  -3   8   9 7.12016 1.82568   2
  -2  -8   9 73.3455 3.51255   1
   2  -8  -9 75.0833 3.10913   2
   2  -8  -9 72.4973 3.46716   1
  -2  -8   9 70.8941 3.23480   2
   2  -8  -9 73.3636 3.53857   3
  -2  -8   9 72.4106 3.44014   3
  -2   8   9 72.3934 3.85745   3
  -2   8   9 72.3988 3.15517   2
   2   8  -9 76.0608 3.03168   2
   2   8  -9 74.7635 3.53507   3
   1  -8  -9 248.185 6.91018   3
   1  -8  -9 250.411 6.74859   2
  -1  -8   9 249.124 6.75196   3
  -1  -8   9 242.789 6.78109   2
   1  -8  -9 254.107 6.98921   1
  -1  -8   9 252.307 6.79275   1
  -1   8   9 239.346 7.04249   1
   1   8  -9 248.880 6.47112   2
   1   8  -9 243.726 6.71507   3
  -1   8   9 245.053 6.73359   2
  -1   8   9 247.587 6.98697   3
   0  -8  -9 76.8444 3.60889   1
   0  -8   9 80.2852 2.89700   3
   0  -8  -9 76.9769 2.96753   2
   0  -8   9 77.8665 2.99425   2
   0  -8  -9 77.9337 3.26898   3
   0  -8   9 77.9005 2.92750   1
   0   8   9 74.1907 3.03599   2
   0   8   9 78.8509 3.61782   1
   0   8   9 82.6322 3.51597   3
   1  -8   9 11.3845 1.14395   3
   1  -8   9 9.69073 1.33542   2
  -1  -8  -9 8.58610 1.46085   2
   1  -8   9 9.34517 1.18352   1
  -1  -8  -9 8.20468 1.52471   3
  -1  -8  -9 12.4353 1.76783   1
   1   8   9 9.01114 1.44173   2
   1   8   9 9.61908 1.68430   3
   1   8   9 11.1107 1.89191   1
  -2  -8  -9 139.326 4.83573   3
  -2  -8  -9 136.543 5.63962   2
   2  -8   9 131.399 3.78477   3
   2   8   9 140.813 4.91395   3
   2   8   9 142.150 5.02592   1
   2   8   9 132.186 4.83397   2
  -3  -8  -9 35.0808 3.04696   3
  -3  -8  -9 36.2108 3.20351   2
   3   8   9 32.9514 2.72454   1
   3   8   9 31.2358 2.44782   2
   3   8   9 30.5539 2.67541   3
   4   8   9 3.11346 2.95418   3
   4   8   9 5.43512 2.91017   2
   4   8   9 8.43993 3.07882   1
   4  -9  -9 72.3706 4.95789   2
  -4  -9   9 85.7863 5.36736   3
  -4  -9   9 80.1564 5.08184   2
   4  -9  -9 74.1303 5.63960   3
   4  -9  -9 92.1930 5.86938   1
   4   9  -9 82.7090 5.11731   2
   4   9  -9 88.0671 7.05112   3
   3  -9  -9 27.1651 2.47680   3
   3  -9  -9 29.1861 2.57248   2
  -3  -9   9 29.2218 2.84275   1
  -3  -9   9 25.9516 2.54670   2
  -3  -9   9 27.9091 2.49160   3
   3  -9  -9 31.3152 2.64411   1
  -3   9   9 28.6785 2.32641   2
   3   9  -9 31.3741 2.58509   2
   3   9  -9 31.9775 3.12513   3
   2  -9  -9 14.6176 1.99688   3
  -2  -9   9 15.0353 1.88812   3
   2  -9  -9 15.2884 1.96757   2
   2  -9  -9 10.9931 2.03411   1
  -2  -9   9 15.7454 1.99045   2
  -2  -9   9 14.1500 2.03013   1
   2   9  -9 11.1031 2.25814   2
   2   9  -9 14.5914 2.41364   3
  -2   9   9 12.9418 2.29826   3
  -2   9   9 13.3595 1.86944   2
   1  -9  -9 2.84040 1.83800   1
   1  -9  -9 2.80979 1.59692   3
  -1  -9   9 4.14796 1.43050   3
  -1  -9   9 2.71374 1.58447   1
   1  -9  -9 6.18085 1.46915   2
  -1  -9   9 3.99795 1.48665   2
   1   9  -9 3.52807 1.29748   2
  -1   9   9 4.89418 2.22967   3
  -1   9   9 1.95254 1.75845   2
   0  -9   9 1.21733 1.33401   1
   0  -9  -9 1.40239 1.72183   1
   0  -9  -9 2.96240 1.52174   2
   0  -9   9 -1.8343 1.45830   2
   0  -9  -9 -1.3974 1.58843   3
   0   9   9 -0.6170 1.75657   3
   0   9   9 -0.1297 2.06918   1
   0   9   9 1.34873 1.55953   2
  -1  -9  -9 33.4877 2.34476   3
   1  -9   9 36.1377 2.48162   1
   1  -9   9 36.5300 2.74888   2
   1  -9   9 32.2129 2.26289   3
  -1  -9  -9 37.3242 2.73271   2
  -1  -9  -9 34.0681 2.88222   1
   1   9   9 37.9183 2.62936   1
   1   9   9 31.8902 2.49045   3
   1   9   9 34.1204 2.97352   2
  -2  -9  -9 16.4295 1.94422   2
   2  -9   9 15.4292 1.44349   1
   2  -9   9 12.0944 1.28769   3
   2   9   9 11.6425 3.17702   1
   2   9   9 12.2390 2.21647   2
   2   9   9 11.7102 2.29799   3
  -3  -9  -9 16.3069 2.63817   2
   3  -9   9 15.7753 1.70747   1
   3   9   9 16.4690 2.60088   2
   3   9   9 23.5225 2.99787   3
   3   9   9 12.0467 3.29849   1
   3 -10  -9 78.5342 4.77890   2
  -3 -10   9 81.3948 4.87960   2
  -3 -10   9 85.1960 5.05739   3
   3 -10  -9 86.2435 5.50727   1
  -3 -10   9 90.0199 6.08162   1
   3 -10  -9 85.1950 5.25589   3
   3  10  -9 73.9672 4.83531   2
  -2 -10   9 17.5459 2.28998   3
   2 -10  -9 18.1556 2.63871   1
   2 -10  -9 19.9103 2.21220   2
  -2 -10   9 18.8972 2.45568   1
  -2 -10   9 18.1986 2.39732   2
   2 -10  -9 21.3398 2.51755   3
  -2  10   9 17.1194 2.49110   2
   2  10  -9 21.5397 2.33198   2
   1 -10  -9 14.3464 2.59187   1
  -1 -10   9 15.7800 1.89674   3
  -1 -10   9 11.7541 1.92065   2
   1 -10  -9 15.1518 2.03178   2
   1 -10  -9 12.2083 2.16317   3
  -1 -10   9 14.5849 2.00502   1
  -1  10   9 14.6954 2.23423   2
  -1  10   9 15.7939 3.07455   3
   0 -10   9 3.06228 1.54785   3
   0 -10   9 4.66888 1.65988   1
   0 -10  -9 5.38157 2.32970   1
   0 -10  -9 3.39831 1.95926   3
   0 -10  -9 5.30147 1.77554   2
   0  10   9 4.77657 2.11073   2
   0  10   9 1.96423 2.48394   3
  -1 -10  -9 3.40898 2.06687   3
   1 -10   9 3.23559 1.46520   3
   1 -10   9 1.81968 1.55256   1
  -1 -10  -9 3.38340 2.01520   2
   1  10   9 3.21466 2.42070   3
   1  10   9 4.86006 4.49742   1
   1  10   9 0.97186 2.27569   2
   2 -10   9 9.44954 1.70869   1
  -2 -10  -9 5.29781 2.58328   3
  -2 -10  -9 7.93499 2.37796   2
   2  10   9 10.4456 2.93852   3
   2  10   9 10.6532 2.81866   2
   2  10   9 10.2320 3.60703   1
  -3 -10  -9 12.2166 3.24947   2
   3  10   9 16.7973 3.96133   2
   3  10   9 10.1670 3.95766   3
   3  10   9 16.7271 4.27079   1
   2 -11  -9 7.56719 3.54326   1
   2 -11  -9 7.92088 2.52393   2
   2 -11  -9 9.85913 2.87545   3
  -2 -11   9 8.90669 2.58454   3
  -2 -11   9 7.85742 3.18689   1
  -2 -11   9 5.31984 2.92291   2
  -2  11   9 8.03806 2.86586   2
   1 -11  -9 11.4740 3.09437   1
   1 -11  -9 10.3169 2.53492   2
  -1 -11   9 10.8092 2.25533   3
   1 -11  -9 12.7662 2.62327   3
  -1 -11   9 10.5895 2.58934   2
  -1 -11   9 13.7167 2.50881   1
  -1  11   9 13.4164 2.70871   2
   0 -11   9 5.04389 1.86801   3
   0 -11   9 4.39901 2.58008   2
   0 -11  -9 0.55825 2.70204   3
   0 -11   9 4.05612 2.03757   1
   0 -11  -9 -2.1738 2.07707   2
   0  11   9 -1.0351 2.48241   2
   0  11   9 3.57046 3.16862   3
  -1 -11  -9 10.3651 3.04562   3
   1 -11   9 14.8800 2.04905   1
   1 -11   9 14.6019 2.03969   3
  -1 -11  -9 15.8788 2.67458   2
   1  11   9 15.6278 2.99408   2
   1  11   9 11.8637 3.83864   3
   6   0 -10 4.61393 2.98985   1
  -6   0  10 8.34487 3.26414   2
   6   0 -10 11.0294 2.60518   2
   6   0 -10 6.40100 2.71392   3
   5   0 -10 -0.3607 1.84732   3
   5   0 -10 -0.8140 1.72754   2
  -5   0  10 1.01261 1.59765   2
  -5   0  10 2.47770 1.84234   3
   5   0 -10 -0.5756 2.05551   1
  -4   0  10 111.111 3.59824   2
   4   0 -10 109.034 3.68397   2
   4   0 -10 111.056 3.92993   1
  -4   0  10 108.139 3.83957   3
   4   0 -10 110.855 3.86048   3
   3   0 -10 56.4214 2.39887   3
   3   0 -10 54.7320 2.22483   2
   3   0 -10 56.6722 2.49430   1
  -3   0  10 55.0264 2.23361   2
  -3   0  10 57.8549 2.41785   3
  -3   0  10 52.2655 2.40553   1
   2   0 -10 59.8408 2.24696   1
   2   0 -10 55.2020 2.01011   2
  -2   0  10 57.4217 2.17283   3
  -2   0  10 57.3697 2.18959   1
   2   0 -10 58.3682 2.15371   3
  -1   0  10 5.87029 0.93624   1
  -1   0  10 3.89068 0.73750   2
   1   0 -10 4.64990 0.63460   2
  -1   0  10 2.59565 0.68693   3
   1   0 -10 6.18543 0.79304   2
  -1   0  10 4.11790 0.67694   1
   1   0 -10 4.45066 0.70453   1
   1   0 -10 4.20264 0.82983   3
  -1   0  10 4.57399 1.07145   3
   0   0  10 24.2542 1.39149   3
   0   0  10 24.9029 1.23478   3
   0   0 -10 20.5978 1.10987   2
   0   0 -10 21.7723 1.16173   3
   0   0  10 22.8236 1.65130   1
   0   0 -10 25.9895 1.03167   2
   0   0  10 22.3855 1.16493   1
   0   0  10 21.7814 1.22578   2
  -1   0 -10 50.4200 1.54754   3
   1   0  10 53.2226 1.69762   3
   1   0  10 46.2345 1.65031   1
   1   0  10 49.3887 1.67018   3
   1   0  10 48.9787 1.60389   2
  -1   0 -10 56.4844 2.05762   3
   1   0  10 50.0361 1.71378   1
   2   0  10 34.5363 1.35496   3
   2   0  10 37.0887 1.37021   2
   2   0  10 35.0491 1.36121   3
   2   0  10 37.1547 1.43678   1
   2   0  10 31.9489 1.35599   1
   3   0  10 104.859 2.98301   3
   3   0  10 110.008 2.99844   1
   3   0  10 107.885 3.01093   2
   3   0  10 109.157 2.93661   3
   3   0  10 108.486 3.01736   1
   4   0  10 45.6714 1.79763   3
   4   0  10 46.0967 2.00422   1
   5   0  10 176.368 5.03009   1
   6  -1 -10 16.4338 3.02235   3
   6  -1 -10 16.5651 2.87238   2
  -6  -1  10 16.1890 2.53133   2
   6  -1 -10 11.8231 2.96825   1
   6   1 -10 16.5233 2.94886   3
   6   1 -10 16.7626 2.98307   2
   6   1 -10 21.4932 3.19687   1
  -5  -1  10 20.4296 2.18244   3
   5  -1 -10 21.9094 2.11332   2
   5  -1 -10 18.2815 2.04938   3
   5  -1 -10 15.6347 3.63569   1
   5   1 -10 24.0350 2.22652   3
  -5   1  10 24.4273 1.86764   2
   5   1 -10 21.2040 2.06226   2
   5   1 -10 23.3176 2.41971   1
  -5   1  10 24.6317 2.19733   3
   4  -1 -10 78.7495 3.40573   1
   4  -1 -10 77.1144 3.01160   2
   4  -1 -10 79.3952 3.24056   3
  -4  -1  10 82.0119 3.30695   3
  -4  -1  10 79.6906 3.30911   1
   4   1 -10 81.1572 3.30807   1
  -4   1  10 75.5159 3.16407   1
  -4   1  10 79.7865 3.31514   3
   4   1 -10 80.4323 2.99356   2
   4   1 -10 79.2025 3.28207   3
  -4   1  10 76.5900 2.94357   2
   3  -1 -10 210.041 5.65586   2
  -3  -1  10 215.782 5.77974   1
   3  -1 -10 215.157 5.82062   1
  -3  -1  10 213.811 5.80365   3
   3  -1 -10 214.314 5.78405   3
  -3  -1  10 210.495 5.67930   2
   3   1 -10 212.547 5.78693   3
  -3   1  10 208.130 5.77411   1
  -3   1  10 211.296 5.67628   2
   3   1 -10 210.249 5.66543   2
   3   1 -10 212.979 5.78314   1
  -3   1  10 214.775 5.77395   3
  -2  -1  10 1310.20 31.3139   1
  -2  -1  10 1275.19 31.2845   2
   2  -1 -10 1315.91 31.3167   1
   2  -1 -10 1306.15 31.3124   3
   2  -1 -10 1255.54 31.2524   2
  -2  -1  10 1320.34 31.3131   3
   2   1 -10 1304.71 31.3024   3
  -2   1  10 1298.32 31.3003   1
  -2   1  10 1311.75 31.3101   3
   2   1 -10 1313.30 31.2919   1
   2   1 -10 1296.29 31.2513   2
  -2   1  10 1278.35 31.2772   2
  -1  -1  10 287.298 7.24282   2
  -1  -1  10 292.595 7.30638   1
   1  -1 -10 288.021 7.26233   3
  -1  -1  10 279.742 7.31994   3
   1  -1 -10 281.837 7.19988   2
  -1  -1  10 288.792 7.26181   3
   1  -1 -10 300.210 7.27793   1
  -1  -1  10 287.616 7.26678   1
  -1   1  10 290.047 7.34952   1
  -1   1  10 290.294 7.27972   1
   1   1 -10 294.409 7.24157   3
   1   1 -10 279.315 7.17108   2
  -1   1  10 283.500 7.27317   3
  -1   1  10 291.081 7.24418   2
   1   1 -10 298.157 7.22579   1
   1   1 -10 286.113 7.19394   2
   0  -1 -10 279.896 6.81794   2
   0  -1  10 276.342 6.88131   1
   0  -1  10 258.199 6.84495   1
   0  -1 -10 275.220 6.87066   3
   0  -1 -10 271.892 6.81017   2
   0  -1  10 277.416 6.88082   3
   0  -1 -10 279.837 6.85867   1
   0  -1  10 276.651 6.83996   2
   0  -1  10 272.769 6.85986   3
   0   1  10 269.959 6.89429   3
   0   1  10 275.984 6.94016   1
   0   1  10 270.601 6.90173   1
   0   1 -10 278.010 6.81947   3
   0   1  10 276.962 6.87848   2
   0   1 -10 277.983 6.77282   1
   0   1 -10 290.979 6.74741   2
   0   1 -10 273.427 6.73715   2
   0   1  10 274.640 6.94250   3
  -1  -1 -10 266.327 6.40003   2
   1  -1  10 266.279 6.50979   1
  -1  -1 -10 268.449 6.50336   3
  -1  -1 -10 265.477 6.44289   1
   1  -1  10 251.141 6.47406   1
   1  -1  10 269.688 6.49774   3
   1  -1  10 252.381 6.47323   3
   1  -1  10 264.820 6.46891   2
   1  -1  10 268.917 6.54750   2
  -1   1 -10 261.260 6.36305   3
   1   1  10 266.129 6.58264   3
   1   1  10 257.533 6.55624   1
   1   1  10 260.025 6.54848   3
   1   1  10 260.228 6.52384   2
  -1   1 -10 252.162 6.36317   3
   2  -1  10 152.128 3.85386   3
   2  -1  10 151.313 3.84160   3
  -2  -1 -10 153.054 3.85407   3
   2  -1  10 151.706 3.88078   1
   2  -1  10 152.826 3.86892   2
   2  -1  10 146.710 3.95557   2
   2   1  10 154.464 4.02145   3
   2   1  10 155.082 4.00235   3
   2   1  10 151.804 4.01162   1
   2   1  10 152.688 4.04756   1
   2   1  10 154.890 3.98004   2
   3  -1  10 328.269 7.97860   1
   3  -1  10 324.628 7.86654   3
   3  -1  10 320.616 7.86175   3
   3  -1  10 327.989 7.95405   1
   3   1  10 313.919 8.13404   1
   3   1  10 328.165 8.12197   1
   3   1  10 330.469 8.08359   3
   4  -1  10 249.585 6.31298   1
   4  -1  10 244.909 6.35829   1
   4   1  10 256.037 6.69360   2
   4   1  10 255.596 6.47202   3
   4   1  10 254.154 6.56705   1
   5  -1  10 34.3675 1.99959   1
   5   1  10 33.2107 2.69723   1
   5   1  10 36.1723 2.82775   3
  -6  -2  10 6.49907 2.56344   2
   6  -2 -10 11.2519 3.12710   1
   6  -2 -10 9.22007 2.74586   2
   6  -2 -10 3.31290 2.85448   3
   6   2 -10 5.52998 2.96141   3
   6   2 -10 12.3128 3.68107   1
   6   2 -10 8.02892 2.76159   2
  -5  -2  10 19.2651 2.19874   3
   5  -2 -10 20.6754 1.93862   2
   5  -2 -10 22.6217 2.31851   1
  -5  -2  10 21.4392 2.03475   2
   5  -2 -10 24.6666 2.18185   3
  -5   2  10 24.4639 2.61134   3
   5   2 -10 21.6669 2.62785   1
   5   2 -10 20.4699 2.26473   3
   5   2 -10 23.0177 2.24112   2
  -5   2  10 20.1980 1.97703   2
  -4  -2  10 43.5037 2.83963   1
  -4  -2  10 44.3134 2.48073   2
  -4  -2  10 48.4832 2.78111   3
   4  -2 -10 44.2976 2.83261   1
   4  -2 -10 45.3990 2.43505   2
   4  -2 -10 44.7384 2.71470   3
   4   2 -10 46.0886 2.94644   1
   4   2 -10 42.0238 2.44477   2
   4   2 -10 50.0921 2.84619   3
  -4   2  10 45.2823 2.32328   2
  -4   2  10 41.2899 2.91381   3
  -4   2  10 43.9256 2.69983   1
   3  -2 -10 51.3096 2.42372   3
   3  -2 -10 55.9813 2.22711   2
   3  -2 -10 56.0472 2.50006   1
  -3  -2  10 56.1563 2.52265   3
  -3  -2  10 56.3912 2.42453   1
  -3  -2  10 51.9016 2.25257   2
  -3   2  10 52.2235 2.61823   1
  -3   2  10 53.1659 2.48861   3
  -3   2  10 52.4307 2.21297   2
   3   2 -10 54.2566 2.48637   1
   3   2 -10 55.1979 2.23204   2
   3   2 -10 52.7108 2.47378   3
  -2  -2  10 380.898 9.54976   2
   2  -2 -10 384.820 9.53681   2
   2  -2 -10 382.069 9.61314   1
   2  -2 -10 379.616 9.58299   3
  -2  -2  10 391.678 9.60911   3
  -2  -2  10 386.562 9.59638   1
   2   2 -10 381.419 9.55286   1
  -2   2  10 383.744 9.58717   1
  -2   2  10 372.852 9.53074   2
  -2   2  10 382.604 9.59717   3
   2   2 -10 378.350 9.56251   3
   2   2 -10 376.216 9.49325   2
   1  -2 -10 1355.36 33.4624   2
   1  -2 -10 1379.35 33.5043   3
  -1  -2  10 1394.78 33.4877   3
  -1  -2  10 1392.00 33.4748   2
  -1  -2  10 1440.24 33.5138   1
  -1  -2  10 1394.90 33.4995   3
   1  -2 -10 1395.56 33.5027   1
  -1  -2  10 1369.07 33.4955   1
   1   2 -10 1399.29 33.4561   3
   1   2 -10 1361.43 33.4034   2
  -1   2  10 1414.23 33.5513   1
  -1   2  10 1409.53 33.5242   3
   1   2 -10 1411.70 33.4349   1
  -1   2  10 1354.93 33.4858   2
  -1   2  10 1408.03 33.5191   1
   1   2 -10 1422.33 33.4125   2
   0  -2 -10 750.644 18.2671   3
   0  -2 -10 762.180 18.2258   2
   0  -2  10 773.574 18.2231   2
   0  -2  10 769.404 18.2469   1
   0  -2  10 745.183 18.2314   1
   0  -2 -10 756.599 18.2543   1
   0  -2 -10 737.357 18.2212   2
   0  -2  10 773.559 18.2390   3
   0  -2  10 745.576 18.2258   3
   0   2 -10 763.141 18.1737   3
   0   2 -10 703.339 18.1682   2
   0   2  10 740.134 18.2852   3
   0   2  10 773.070 18.3247   3
   0   2 -10 760.638 18.0970   2
   0   2  10 767.804 18.2780   2
   0   2  10 768.931 18.3287   1
   0   2  10 742.064 18.2968   1
  -1  -2 -10 164.556 4.05379   2
  -1  -2 -10 157.831 4.09660   1
   1  -2  10 155.699 4.03064   3
  -1  -2 -10 157.175 4.04896   2
   1  -2  10 158.804 4.02609   2
   1  -2  10 157.410 4.05039   1
   1  -2  10 158.933 4.04148   3
  -1  -2 -10 162.641 4.15443   3
   1  -2  10 153.620 4.08139   2
   1  -2  10 153.259 4.02859   1
   1   2  10 160.231 4.28515   1
   1   2  10 157.354 4.18188   3
   1   2  10 160.865 4.30250   3
   1   2  10 157.784 4.15746   2
   1   2  10 156.316 4.18741   1
  -2  -2 -10 652.612 15.7414   3
   2  -2  10 644.420 15.6097   3
   2  -2  10 660.998 15.6093   3
   2  -2  10 644.769 15.6521   1
   2  -2  10 671.521 15.6656   1
   2   2  10 647.611 15.8383   3
   2   2  10 647.749 15.8215   2
   2   2  10 651.747 15.8729   1
   2   2  10 657.109 15.8705   3
   2   2  10 635.971 15.8463   1
   3   2  10 168.444 4.55661   1
   3   2  10 167.438 4.53754   3
   3   2  10 169.022 4.58138   2
   3   2  10 164.369 5.39824   1
   4   2  10 45.0975 2.32347   3
   4   2  10 46.3394 2.73127   2
   4   2  10 43.5664 2.39202   1
   5   2  10 3.28047 1.67064   3
   5   2  10 5.30812 1.79805   1
   6  -3 -10 10.9388 2.96632   2
  -6  -3  10 6.40764 2.62651   2
   6  -3 -10 6.74121 3.12840   3
   6  -3 -10 9.01037 3.34401   1
   6   3 -10 4.56857 3.20843   3
   6   3 -10 2.88997 3.46833   1
   6   3 -10 6.44770 3.17567   2
  -5  -3  10 16.6575 2.27078   3
  -5  -3  10 22.4719 2.08447   2
   5  -3 -10 18.8233 2.29155   1
   5  -3 -10 25.1469 2.38001   2
   5  -3 -10 16.0756 2.17679   3
   5   3 -10 21.8655 2.31507   3
   5   3 -10 17.0446 2.14341   2
  -5   3  10 17.7926 1.92385   2
  -4  -3  10 34.2871 2.47560   2
   4  -3 -10 40.7596 2.84356   1
   4  -3 -10 42.7166 2.46438   2
  -4  -3  10 37.0198 2.84805   3
   4  -3 -10 41.9770 2.75628   3
  -4  -3  10 37.2308 2.94424   1
  -4   3  10 33.3594 2.36869   2
   4   3 -10 41.4444 3.05217   1
   4   3 -10 37.6975 2.44576   2
   4   3 -10 42.6613 2.85983   3
  -4   3  10 39.6357 2.92825   3
  -3  -3  10 220.046 6.05880   1
   3  -3 -10 220.853 6.04640   3
  -3  -3  10 223.330 6.05882   3
   3  -3 -10 217.801 6.07502   1
   3  -3 -10 220.235 5.94684   2
   3   3 -10 221.238 5.94159   2
  -3   3  10 220.599 5.91667   2
   3   3 -10 220.024 6.06233   3
   3   3 -10 226.828 6.12273   1
  -3   3  10 220.716 6.01631   3
  -3   3  10 225.167 5.99217   1
  -2  -3  10 206.123 5.44026   3
   2  -3 -10 202.832 5.33880   2
  -2  -3  10 201.401 5.38323   2
  -2  -3  10 203.869 5.42446   1
   2  -3 -10 196.139 5.41898   3
   2  -3 -10 204.204 5.46033   1
   2   3 -10 202.615 5.36886   1
  -2   3  10 196.813 5.41678   1
   2   3 -10 204.717 5.39822   3
  -2   3  10 199.392 5.34204   2
   2   3 -10 201.555 5.27704   2
  -2   3  10 199.801 5.42195   3
  -1  -3  10 111.936 3.24638   3
   1  -3 -10 109.556 3.17643   2
  -1  -3  10 109.511 3.19652   2
  -1  -3  10 127.497 3.86294   3
   1  -3 -10 107.981 3.27182   3
  -1  -3  10 113.643 3.24181   1
   1  -3 -10 116.406 3.29738   1
  -1  -3  10 116.872 3.42356   1
   1   3 -10 106.633 3.05349   2
  -1   3  10 109.555 3.27930   1
  -1   3  10 112.625 3.23366   2
  -1   3  10 108.895 3.28528   3
   1   3 -10 111.872 3.19846   2
   1   3 -10 113.737 3.17803   3
   1   3 -10 109.789 3.12922   1
   0  -3  10 288.089 7.24475   2
   0  -3  10 283.103 7.23442   1
   0  -3  10 293.420 7.26743   1
   0  -3  10 291.261 7.26893   3
   0  -3 -10 288.047 7.25681   2
   0  -3  10 290.652 7.24507   3
   0  -3 -10 294.874 7.33990   3
   0  -3 -10 293.834 7.31785   1
   0   3  10 281.770 7.32829   1
   0   3 -10 296.363 7.15011   3
   0   3 -10 294.868 7.06234   1
   0   3  10 293.783 7.45821   1
   0   3  10 282.401 7.29859   2
   0   3  10 284.697 7.32825   3
   1  -3  10 1147.93 27.6621   3
  -1  -3 -10 1152.09 27.7957   3
   1  -3  10 1145.78 27.6637   3
   1  -3  10 1192.64 27.6761   2
  -1  -3 -10 1143.88 27.7404   2
   1  -3  10 1150.53 27.6887   1
  -1  -3 -10 1176.91 27.7757   1
  -1  -3 -10 1143.63 27.7399   2
   1  -3  10 1191.39 27.6995   1
   1   3  10 1118.72 27.8302   3
   1   3  10 1152.71 27.8224   2
   1   3  10 1139.70 27.8464   1
   1   3  10 1161.42 27.8693   1
  -2  -3 -10 77.8114 2.51184   1
  -2  -3 -10 77.0326 2.25595   2
   2  -3  10 77.6678 2.11796   1
   2  -3  10 80.0673 2.15795   1
  -2  -3 -10 81.2359 2.40889   2
  -2  -3 -10 76.5692 2.45364   3
   2   3  10 76.4568 2.82501   1
   2   3  10 81.4370 2.56987   2
   2   3  10 76.7497 2.59316   3
   2   3  10 75.3200 2.99019   3
   2   3  10 77.9030 2.55755   1
   3   3  10 35.8841 2.02347   1
   3   3  10 37.5571 2.07692   3
   3   3  10 37.1122 2.05308   2
   4   3  10 24.9542 1.86116   2
   4   3  10 23.9322 1.71248   3
   5   3  10 5.03098 2.01301   1
   5   3  10 6.77843 1.94585   3
  -5  -4  10 81.8490 3.94721   2
   5  -4 -10 93.0371 4.52726   3
  -5  -4  10 78.2155 4.79377   3
   5  -4 -10 82.8238 4.67690   1
   5  -4 -10 82.9529 4.03862   2
   5   4 -10 75.7586 5.04341   1
   5   4 -10 85.2212 4.85789   3
   5   4 -10 81.7437 4.17658   2
  -4  -4  10 50.8449 2.86136   2
  -4  -4  10 42.7481 3.26095   1
  -4  -4  10 46.3831 3.14748   3
   4  -4 -10 48.1389 3.19454   1
   4  -4 -10 49.8496 3.04059   3
   4  -4 -10 46.3323 2.68310   2
   4   4 -10 50.9235 2.73778   2
   4   4 -10 51.1468 3.70275   1
   4   4 -10 44.3374 3.20131   3
  -4   4  10 47.9863 3.08034   3
  -4   4  10 51.2808 2.54306   2
   3  -4 -10 25.0015 2.16463   3
   3  -4 -10 24.6968 2.24259   1
  -3  -4  10 24.7711 1.67894   3
  -3  -4  10 20.1634 1.54587   1
   3  -4 -10 24.2057 1.93416   2
  -3  -4  10 23.8943 1.96579   2
  -3   4  10 21.3063 1.53104   3
   3   4 -10 23.4032 1.79115   1
  -3   4  10 24.0542 1.88981   2
  -3   4  10 22.8627 1.53063   1
   3   4 -10 22.1983 1.82578   2
   3   4 -10 16.6522 1.44306   3
  -2  -4  10 78.1659 2.75539   3
   2  -4 -10 78.7442 2.60567   2
  -2  -4  10 76.8448 2.75563   1
   2  -4 -10 78.9116 2.79271   3
   2  -4 -10 75.5222 2.81263   1
   2   4 -10 76.8525 2.71304   3
  -2   4  10 78.6964 2.83730   1
   2   4 -10 76.4301 2.52717   2
  -2   4  10 74.8391 2.59246   2
   2   4 -10 74.6921 2.71265   1
  -2   4  10 77.0201 2.77823   3
  -1  -4  10 496.978 12.4568   1
  -1  -4  10 511.084 12.4336   1
  -1  -4  10 513.032 12.4116   2
   1  -4 -10 503.592 12.4715   1
   1  -4 -10 502.755 12.4650   3
   1  -4 -10 497.206 12.4061   2
  -1  -4  10 503.817 12.4116   3
  -1   4  10 496.763 12.4212   2
   1   4 -10 502.073 12.3227   2
   1   4 -10 493.668 12.3004   1
  -1   4  10 505.518 12.4734   3
  -1   4  10 502.045 12.4617   1
   1   4 -10 509.237 12.3532   3
   1   4 -10 506.873 12.2777   2
   0  -4 -10 34.6421 1.78456   1
   0  -4 -10 34.0389 1.76954   3
   0  -4  10 33.3274 1.64789   1
   0  -4  10 34.6056 1.55202   1
   0  -4  10 35.2584 1.55041   3
   0  -4 -10 34.9993 1.57451   2
   0  -4  10 33.9443 1.63042   2
   0  -4  10 36.3786 1.83352   3
   0   4 -10 35.8774 1.23171   1
   0   4  10 35.6740 1.78758   3
   0   4 -10 36.2020 1.37249   3
   0   4  10 33.8760 1.64398   2
   0   4  10 34.1749 1.78833   1
   1  -4  10 340.536 8.10175   2
  -1  -4 -10 324.533 8.20568   2
   1  -4  10 324.883 8.09204   3
   1  -4  10 331.159 8.11781   1
  -1  -4 -10 332.547 8.28101   1
  -1  -4 -10 317.625 8.28045   3
   1  -4  10 328.181 8.10637   1
   1  -4  10 335.187 8.07476   3
   1   4  10 325.172 8.32947   3
   1   4  10 322.213 8.28266   2
   1   4  10 330.804 8.34708   1
   1   4  10 330.235 8.52003   1
  -2  -4 -10 21.0892 1.36519   2
   2  -4  10 22.3941 1.02055   1
   2  -4  10 19.4448 1.33643   1
  -2  -4 -10 21.0550 1.83874   1
  -2  -4 -10 19.5525 1.69795   3
   2   4  10 19.8414 1.69301   1
   2   4  10 18.8526 1.27766   3
   2   4  10 22.3442 1.67592   2
  -3  -4 -10 46.3702 2.33591   3
   3   4  10 49.2665 2.46544   1
   3   4  10 46.8640 2.43933   2
   3   4  10 48.8722 2.58443   3
   4   4  10 6.51147 1.85810   2
   4   4  10 6.33222 1.63067   1
   4   4  10 9.60155 1.77178   3
   5   4  10 14.3573 2.39212   1
   5   4  10 16.0109 2.32022   3
   5  -5 -10 107.610 5.38017   1
   5  -5 -10 105.800 4.68347   2
   5  -5 -10 121.571 5.12624   3
  -5  -5  10 100.494 5.38943   3
  -5  -5  10 102.708 4.65577   2
   5   5 -10 115.944 6.22863   1
   5   5 -10 112.527 5.56331   3
   5   5 -10 105.870 4.86016   2
   4  -5 -10 205.667 6.33769   1
   4  -5 -10 212.698 6.28746   3
  -4  -5  10 207.707 6.14653   2
   4  -5 -10 210.090 6.03859   2
  -4  -5  10 207.612 6.43421   3
  -4  -5  10 204.448 6.44913   1
   4   5 -10 209.511 6.57244   1
   4   5 -10 207.590 6.08213   2
  -4   5  10 208.515 5.84846   2
   4   5 -10 221.293 6.53897   3
  -4   5  10 197.742 6.27305   3
  -3  -5  10 44.9654 2.70905   1
   3  -5 -10 45.8424 2.38661   2
   3  -5 -10 51.9574 2.78442   1
  -3  -5  10 41.4833 2.50531   2
   3  -5 -10 46.4900 2.64537   3
  -3  -5  10 45.2045 2.62879   3
   3   5 -10 43.3347 2.32903   2
  -3   5  10 43.4221 2.73949   3
  -3   5  10 45.2090 2.34051   2
   3   5 -10 50.0372 2.85084   3
   3   5 -10 41.7323 2.87576   1
  -3   5  10 46.1685 2.63307   1
   2  -5 -10 2.09827 0.92907   2
  -2  -5  10 1.98283 1.05734   3
  -2  -5  10 0.06480 0.98287   1
   2  -5 -10 1.55914 1.11595   1
   2  -5 -10 1.24264 1.01127   3
  -2  -5  10 1.85132 1.06888   2
  -2   5  10 2.15113 1.14867   3
   2   5 -10 -0.7702 1.04405   1
   2   5 -10 -0.3276 1.02188   3
   2   5 -10 2.30676 0.95946   2
  -2   5  10 2.30768 0.95837   2
  -2   5  10 1.66348 1.29412   1
  -1  -5  10 109.884 3.65558   1
  -1  -5  10 109.189 3.28384   2
  -1  -5  10 106.319 3.31200   1
  -1  -5  10 110.274 3.29651   3
   1  -5 -10 108.600 3.44281   1
   1  -5 -10 109.301 3.42751   3
   1  -5 -10 109.663 3.24849   2
  -1   5  10 108.364 3.44603   3
   1   5 -10 104.026 3.31553   2
  -1   5  10 108.288 3.29460   2
   1   5 -10 109.476 3.06748   2
  -1   5  10 106.252 3.40944   1
   0  -5 -10 5.39159 0.96291   3
   0  -5  10 4.30933 0.80040   3
   0  -5 -10 5.20750 0.85490   2
   0  -5  10 6.40211 1.25477   3
   0  -5  10 5.76553 0.83630   1
   0  -5  10 5.56171 0.95384   1
   0   5  10 4.37029 0.92299   2
   0   5  10 5.98979 1.04490   3
   0   5  10 4.41502 1.00378   1
   0   5 -10 5.31554 0.69195   3
   1  -5  10 61.4819 1.91020   3
  -1  -5 -10 54.3700 2.35016   3
   1  -5  10 57.3819 2.00233   1
  -1  -5 -10 57.6305 2.35240   1
  -1  -5 -10 59.1618 2.17028   2
   1  -5  10 59.6969 2.01278   2
   1  -5  10 62.4824 1.98864   1
   1  -5  10 57.3564 2.17691   3
   1   5  10 55.7313 2.45361   1
   1   5  10 59.0684 2.43844   3
   1   5  10 60.9886 2.29402   2
  -2  -5 -10 44.0439 1.97998   2
   2  -5  10 45.0319 1.54011   1
  -2  -5 -10 45.2912 3.25220   1
  -2  -5 -10 42.4706 2.46365   3
   2   5  10 46.4612 2.33355   1
   2   5  10 40.0666 2.31255   3
   2   5  10 44.0997 2.20365   2
  -3  -5 -10 109.524 4.04153   3
  -3  -5 -10 109.909 3.32230   2
   3   5  10 114.053 3.86777   1
   3   5  10 109.513 3.76289   2
   3   5  10 109.786 3.88059   3
   4   5  10 0.10779 1.81454   1
   4   5  10 3.10168 1.80104   3
   4   5  10 -1.2530 1.97209   2
   5   5  10 5.16408 2.59959   3
   5   5  10 5.79330 2.74263   1
   5  -6 -10 14.6992 2.70347   2
   5  -6 -10 13.3179 2.70622   3
  -5  -6  10 16.3726 2.83808   3
  -5  -6  10 12.8090 2.42906   2
   5  -6 -10 16.3042 2.85260   1
   5   6 -10 13.8467 2.94416   2
   5   6 -10 17.5516 2.97611   3
  -4  -6  10 145.006 4.94672   2
   4  -6 -10 146.219 5.14555   3
   4  -6 -10 144.923 4.96207   2
  -4  -6  10 149.515 5.24141   3
  -4  -6  10 147.513 5.65838   1
   4  -6 -10 140.537 5.28003   1
   4   6 -10 138.032 6.08052   1
   4   6 -10 145.020 5.36060   3
   4   6 -10 145.029 4.96739   2
  -4   6  10 143.216 4.73320   2
   3  -6 -10 221.973 6.44407   1
   3  -6 -10 213.229 6.13601   2
  -3  -6  10 228.000 6.30448   2
   3  -6 -10 224.153 6.34269   3
  -3  -6  10 220.010 6.39300   3
  -3  -6  10 216.760 6.39222   1
  -3   6  10 222.678 6.09886   2
   3   6 -10 224.177 6.37643   3
   3   6 -10 210.494 6.48303   1
  -3   6  10 222.509 6.45894   3
   3   6 -10 222.282 6.12708   2
   2  -6 -10 44.6582 2.53411   3
   2  -6 -10 39.4350 2.48353   1
   2  -6 -10 41.6457 2.18847   2
  -2  -6  10 40.8530 2.40015   1
  -2  -6  10 45.1016 2.45130   3
  -2  -6  10 40.7907 2.35570   2
   2   6 -10 41.6994 2.44341   3
  -2   6  10 39.8705 2.63467   1
   2   6 -10 41.4211 2.50320   1
  -2   6  10 42.7319 2.26317   2
  -2   6  10 35.9586 2.53564   3
   2   6 -10 41.7977 2.07611   2
   1  -6 -10 96.7879 3.23542   3
   1  -6 -10 94.8379 3.30920   1
  -1  -6  10 92.9970 3.12031   1
  -1  -6  10 95.1798 3.14410   3
   1  -6 -10 93.8330 3.06919   2
  -1  -6  10 94.7461 3.13840   2
  -1   6  10 94.7882 3.31990   3
  -1   6  10 92.8379 3.37829   1
   1   6 -10 91.2539 3.14604   3
  -1   6  10 90.9354 3.10409   2
   1   6 -10 91.1138 2.94996   1
   1   6 -10 96.7681 2.82236   2
   0  -6  10 299.357 7.57864   2
   0  -6  10 294.525 7.57228   1
   0  -6  10 297.665 7.55587   3
   0  -6 -10 291.174 7.80424   1
   0  -6 -10 306.792 7.76547   3
   0  -6 -10 291.974 7.63883   2
   0   6  10 294.115 7.78528   1
   0   6  10 306.060 7.79767   3
   0   6  10 295.748 7.67479   2
   0   6 -10 287.174 7.38890   3
  -1  -6 -10 182.846 5.16149   3
   1  -6  10 183.994 4.82177   1
   1  -6  10 182.794 4.86607   2
  -1  -6 -10 185.803 5.19104   1
  -1  -6 -10 174.971 4.99264   2
   1  -6  10 174.443 4.87671   1
   1  -6  10 182.352 4.76275   3
   1   6  10 183.736 5.13326   2
   1   6  10 188.390 5.25004   3
   1   6  10 184.680 5.27481   1
  -2  -6 -10 148.555 4.61455   3
   2  -6  10 144.214 3.75132   3
  -2  -6 -10 151.898 4.32177   2
   2  -6  10 145.288 3.90958   1
   2   6  10 150.392 4.57657   3
   2   6  10 147.358 4.47761   2
   2   6  10 147.039 4.62778   1
  -3  -6 -10 6.12468 1.41354   2
  -3  -6 -10 10.9429 2.86862   3
   3   6  10 7.81133 1.77599   2
   3   6  10 8.22111 2.43558   3
   3   6  10 6.63672 1.90483   1
   4   6  10 41.9024 3.86272   1
   4   6  10 35.2136 2.69209   3
   4   6  10 34.1599 2.66590   2
  -5  -7  10 5.51170 2.75443   2
  -5  -7  10 10.4821 3.27576   3
   5  -7 -10 12.5750 2.95607   2
   5  -7 -10 7.30316 3.14232   3
   5  -7 -10 2.96880 3.16836   1
   5   7 -10 6.97227 3.63497   3
   5   7 -10 10.0249 3.06472   2
   4  -7 -10 21.8175 2.37202   3
  -4  -7  10 26.7343 3.27811   1
  -4  -7  10 22.2539 2.48868   2
   4  -7 -10 20.9535 2.57136   1
  -4  -7  10 25.4464 2.54385   3
   4  -7 -10 23.7483 2.26543   2
   4   7 -10 24.5753 2.81395   3
  -4   7  10 19.5543 2.05344   2
   4   7 -10 22.5937 2.34813   2
  -3  -7  10 49.1969 3.43435   3
   3  -7 -10 51.6140 3.51120   1
   3  -7 -10 48.8569 4.34065   2
  -3  -7  10 51.8213 3.46582   1
   3  -7 -10 48.8254 3.20232   3
  -3  -7  10 48.4208 3.06843   2
  -3   7  10 45.4494 3.51480   3
   3   7 -10 49.1134 3.93978   3
  -3   7  10 46.2903 2.79014   2
   2  -7 -10 150.471 4.81176   1
  -2  -7  10 155.548 4.74476   1
  -2  -7  10 154.852 4.66930   2
   2  -7 -10 150.237 4.82202   3
  -2  -7  10 145.243 4.66162   3
   2  -7 -10 149.767 4.57700   2
  -2   7  10 150.074 4.56348   2
  -2   7  10 144.598 5.11851   1
   2   7 -10 148.318 4.42608   2
  -2   7  10 154.172 4.90503   3
   2   7 -10 144.229 4.85177   3
   1  -7 -10 22.1245 1.72079   1
   1  -7 -10 21.5888 1.60116   3
  -1  -7  10 19.8146 1.45460   3
  -1  -7  10 22.9345 1.68665   2
  -1  -7  10 17.7598 1.47396   1
   1  -7 -10 19.4975 1.43195   2
  -1   7  10 14.0188 1.70814   1
  -1   7  10 21.4811 1.80354   3
   1   7 -10 24.5721 1.68249   2
  -1   7  10 20.1800 1.55683   2
   1   7 -10 20.1005 1.47100   3
   0  -7  10 146.540 4.15500   3
   0  -7 -10 145.482 4.27464   2
   0  -7  10 146.258 4.22698   2
   0  -7  10 141.610 4.20164   1
   0  -7 -10 142.956 4.68430   1
   0  -7 -10 143.961 4.49876   3
   0   7  10 140.617 4.31921   2
   0   7  10 147.418 4.56680   3
   0   7  10 143.915 4.63155   1
   1  -7  10 363.336 9.06181   3
  -1  -7 -10 356.108 9.42164   3
   1  -7  10 349.063 9.11725   2
  -1  -7 -10 362.638 9.28596   2
  -1  -7 -10 361.285 9.50911   1
   1  -7  10 363.702 9.11755   1
   1   7  10 379.468 9.56581   1
   1   7  10 356.818 9.37244   2
   1   7  10 365.855 9.49651   3
   2  -7  10 11.7105 1.02048   1
  -2  -7 -10 11.9570 1.45957   2
   2  -7  10 12.1187 0.85930   3
  -2  -7 -10 12.2585 1.67966   3
   2   7  10 10.8757 1.84491   1
   2   7  10 11.6461 1.77511   3
   2   7  10 11.8201 1.63468   2
  -3  -7 -10 75.4710 3.50259   2
   3   7  10 78.3784 4.12215   3
   3   7  10 76.2952 4.08142   1
   3   7  10 74.3734 3.83765   2
   4   7  10 22.9301 2.78946   3
   4   7  10 20.9805 2.87597   1
   4   7  10 16.5294 2.75382   2
   4  -8 -10 10.3283 2.51261   3
  -4  -8  10 3.24212 2.31481   2
  -4  -8  10 8.86072 2.53797   3
   4  -8 -10 6.73749 2.70406   1
   4  -8 -10 9.38660 2.27356   2
   4   8 -10 11.4258 2.65816   2
   4   8 -10 14.0962 3.39515   3
  -3  -8  10 39.5271 3.27914   1
   3  -8 -10 39.9199 3.06392   2
  -3  -8  10 44.6029 3.55921   3
  -3  -8  10 47.4834 3.51734   2
   3  -8 -10 40.9119 3.58583   3
   3  -8 -10 43.4716 3.81557   1
  -3   8  10 37.4098 3.14527   2
   3   8 -10 42.7694 3.21466   2
  -3   8  10 43.0664 3.11343   3
   3   8 -10 42.6102 2.87744   3
   2  -8 -10 37.9949 3.15532   1
   2  -8 -10 44.0073 3.26868   3
  -2  -8  10 42.4001 2.76143   2
  -2  -8  10 40.9739 2.85390   3
  -2  -8  10 42.4916 3.16301   1
   2   8 -10 39.8442 3.32825   3
  -2   8  10 41.7792 2.65182   3
   2   8 -10 40.8888 2.54873   2
  -2   8  10 42.8599 2.89786   2
  -1  -8  10 15.0637 1.56748   1
   1  -8 -10 15.7357 1.92754   1
   1  -8 -10 17.7093 1.76387   3
  -1  -8  10 17.8814 1.68629   2
  -1  -8  10 16.8163 1.52468   3
   1  -8 -10 16.2533 1.52003   2
  -1   8  10 16.3230 1.90617   3
  -1   8  10 13.8432 1.69362   2
   1   8 -10 17.9830 1.43221   2
   1   8 -10 20.3743 1.88081   3
  -1   8  10 11.7113 1.95843   1
   0  -8 -10 21.7818 1.65845   2
   0  -8  10 22.7533 1.50234   3
   0  -8 -10 22.0656 1.82056   3
   0  -8  10 20.6988 1.68500   2
   0  -8 -10 19.8059 1.92693   1
   0  -8  10 22.5133 2.10370   1
   0   8  10 22.0699 1.70762   2
   0   8  10 22.5906 1.97584   3
   0   8  10 22.1023 2.09724   1
  -1  -8 -10 17.9980 1.58652   2
   1  -8  10 20.2287 1.73999   3
  -1  -8 -10 16.8425 2.28540   1
   1  -8  10 18.6980 1.46766   1
  -1  -8 -10 17.5810 1.75086   3
   1  -8  10 17.6085 1.68776   2
   1   8  10 17.8342 2.15588   1
   1   8  10 16.7208 1.91786   3
   1   8  10 16.9679 1.78939   2
   2  -8  10 36.7432 1.86020   3
   2  -8  10 37.0461 2.07076   1
  -2  -8 -10 37.6678 2.80692   2
  -2  -8 -10 39.6248 3.26344   3
   2   8  10 38.8245 2.56322   3
   2   8  10 42.8097 3.26624   2
   2   8  10 37.9346 2.67219   1
  -3  -8 -10 60.8442 3.82831   2
   3   8  10 61.7114 4.64030   1
   3   8  10 59.5962 4.08316   2
   3   8  10 71.4328 4.52030   3
   4   8  10 -1.8317 3.31665   1
   4   8  10 -0.6734 2.95329   2
   4   8  10 -0.4139 3.07686   3
  -4  -9  10 10.1255 4.32774   2
   4  -9 -10 7.75998 3.04415   1
  -4  -9  10 6.02082 2.88038   3
   4  -9 -10 10.6796 3.57442   3
   4  -9 -10 6.30316 2.83867   2
   4   9 -10 8.08718 4.21391   3
   4   9 -10 9.37097 3.21201   2
   3  -9 -10 17.0240 2.62983   1
   3  -9 -10 11.8797 2.34297   3
  -3  -9  10 17.1363 2.49938   2
  -3  -9  10 15.1228 2.29907   3
   3  -9 -10 15.8082 2.40401   2
  -3  -9  10 13.9954 2.95166   1
  -3   9  10 13.5381 2.20984   2
   3   9 -10 14.8242 3.43058   3
   3   9 -10 14.3965 2.24139   2
  -2  -9  10 42.9660 3.32704   3
  -2  -9  10 43.4125 3.34233   2
   2  -9 -10 42.0546 3.91110   1
  -2  -9  10 40.3852 2.66206   1
   2  -9 -10 43.1501 3.70881   3
   2  -9 -10 46.0847 3.14015   2
  -2   9  10 41.0059 3.18189   2
  -2   9  10 51.8922 4.36210   3
   2   9 -10 43.1977 3.25598   2
  -1  -9  10 15.4578 2.09337   2
   1  -9 -10 15.6738 2.00492   3
   1  -9 -10 18.1063 2.37364   1
  -1  -9  10 14.6852 1.85474   1
  -1  -9  10 17.8424 1.77146   3
   1  -9 -10 14.3782 1.90903   2
  -1   9  10 16.9010 2.04120   2
  -1   9  10 10.5775 2.42517   3
   1   9 -10 19.4387 1.52019   2
   0  -9 -10 63.3341 4.02741   3
   0  -9  10 62.8319 2.90574   3
   0  -9  10 66.5121 3.10182   1
   0  -9  10 62.9584 3.20503   2
   0  -9 -10 57.0630 3.12851   2
   0  -9 -10 58.8977 3.93643   1
   0   9  10 61.5165 3.41597   2
   0   9  10 60.3880 4.44114   1
   1  -9  10 0.15025 2.21033   2
  -1  -9 -10 -0.3703 2.52038   3
   1  -9  10 1.43090 1.33054   3
  -1  -9 -10 0.38228 1.58720   2
   1  -9  10 2.71572 1.29559   1
   1   9  10 -0.8527 1.81089   2
   1   9  10 -1.6476 2.27088   1
   1   9  10 2.55871 2.08679   3
   2  -9  10 0.13837 1.29174   1
  -2  -9 -10 4.35687 2.37701   3
  -2  -9 -10 0.57246 1.95737   2
   2   9  10 -2.6084 2.69496   1
   2   9  10 4.59191 2.41058   3
   2   9  10 -0.0586 2.24229   2
  -3  -9 -10 43.0972 2.95099   2
   3  -9  10 34.7101 2.93240   1
   3   9  10 40.1261 3.92739   1
   3   9  10 34.4933 3.35312   2
   3   9  10 36.2696 3.37658   3
  -3 -10  10 36.3512 3.06809   2
  -3 -10  10 42.6537 3.68094   1
   3 -10 -10 32.5365 3.14627   3
   3 -10 -10 33.2143 3.00942   2
  -3 -10  10 32.7373 3.10780   3
   3 -10 -10 37.8011 3.58254   1
   3  10 -10 33.8242 3.34912   2
   2 -10 -10 42.1107 3.63961   2
  -2 -10  10 44.8440 3.19550   2
   2 -10 -10 47.6923 3.43341   1
   2 -10 -10 43.9822 2.96814   3
  -2 -10  10 41.2165 2.79679   3
  -2 -10  10 39.9338 2.99928   1
   2  10 -10 40.9019 2.64424   2
  -2  10  10 35.5669 2.89137   2
  -1 -10  10 18.1823 2.19564   1
   1 -10 -10 17.3657 2.69120   1
   1 -10 -10 15.0687 2.24951   2
  -1 -10  10 14.8172 2.01594   3
  -1 -10  10 16.0625 2.23261   2
   1 -10 -10 15.2538 2.33072   3
  -1  10  10 13.8451 2.92275   3
  -1  10  10 16.3204 2.35830   2
   0 -10 -10 1.57995 2.13848   3
   0 -10  10 2.02021 1.66196   1
   0 -10 -10 0.60865 3.53544   1
   0 -10  10 3.39176 1.54858   3
   0 -10 -10 2.10554 1.81125   2
   0 -10  10 3.18433 1.98576   2
   0  10  10 0.45764 2.07474   2
   0  10  10 4.61445 2.61130   3
  -1 -10 -10 6.90079 2.64234   3
   1 -10  10 5.64510 1.67508   1
  -1 -10 -10 6.51627 2.02727   2
   1 -10  10 8.93917 1.56691   3
   1  10  10 6.41063 2.29383   2
   1  10  10 1.10713 2.68902   3
  -2 -10 -10 5.91256 2.97728   3
   2 -10  10 1.46422 1.71809   1
  -2 -10 -10 1.77337 2.60694   2
   2  10  10 -4.9058 3.94397   1
   2  10  10 5.07569 2.93772   2
   2  10  10 1.55171 3.04986   3
   1 -11 -10 16.3675 2.87856   2
   1 -11 -10 17.8597 3.71970   1
  -1 -11  10 10.5426 2.70951   2
  -1 -11  10 17.2588 2.50573   3
   1 -11 -10 15.1796 2.87726   3
  -1 -11  10 14.7875 2.61776   1
  -1  11  10 10.3075 2.86529   2
   0 -11 -10 2.18437 2.52231   2
   0 -11  10 4.75897 2.17373   3
   0 -11 -10 4.15992 2.63768   3
   0 -11  10 4.26962 2.16777   1
   0 -11  10 3.81448 3.36523   2
   0  11  10 4.29390 3.68394   3
   0  11  10 4.35579 2.74290   2
  -1 -11 -10 2.99779 3.21466   3
   1 -11  10 6.11145 2.07319   1
  -1 -11 -10 0.45091 2.58382   2
   1 -11  10 5.39248 1.95463   3
   1  11  10 4.23221 3.88331   3
   1  11  10 1.63686 3.11861   2
   6   0 -11 34.2067 3.78157   1
  -6   0  11 31.4791 3.33261   2
   6   0 -11 36.5517 3.55041   2
   6   0 -11 25.9596 3.28081   3
   5   0 -11 5.52871 1.78625   2
  -5   0  11 6.69547 2.05943   3
  -5   0  11 8.11501 1.75516   2
   5   0 -11 13.7032 2.97983   1
   5   0 -11 9.64151 2.05344   3
   4   0 -11 4.37422 1.46681   1
  -4   0  11 5.11625 1.47174   1
   4   0 -11 2.77603 1.38540   3
  -4   0  11 2.04072 1.18751   2
  -4   0  11 2.45261 1.45977   3
   4   0 -11 4.13727 1.26567   2
   3   0 -11 308.901 7.92438   2
  -3   0  11 304.683 7.93341   2
  -3   0  11 310.966 8.03830   3
   3   0 -11 307.245 8.04647   1
   3   0 -11 308.402 8.03016   3
  -3   0  11 306.094 8.00829   1
   2   0 -11 293.790 7.53318   3
  -2   0  11 299.520 7.55435   1
  -2   0  11 286.342 7.49584   2
   2   0 -11 292.723 7.45870   2
  -2   0  11 297.486 7.55254   3
   2   0 -11 294.517 7.77742   1
  -1   0  11 635.526 15.4963   2
   1   0 -11 623.348 15.4345   2
   1   0 -11 645.862 15.4811   1
  -1   0  11 612.110 15.5016   1
   1   0 -11 642.962 15.5093   3
  -1   0  11 652.389 15.5867   1
  -1   0  11 638.290 15.5218   3
   0   0  11 1.05121 0.87632   3
   0   0 -11 0.60809 0.56295   2
   0   0 -11 0.51149 0.61142   1
   0   0  11 0.27658 0.66029   2
   0   0  11 -0.2756 0.79751   1
   0   0  11 1.09110 0.61802   1
   0   0  11 0.02007 0.60707   3
   0   0 -11 0.81299 0.53093   2
   0   0 -11 0.65167 0.61802   3
  -1   0 -11 1.39408 0.54661   3
   1   0  11 1.66553 0.73421   3
   1   0  11 1.48182 0.59783   1
   1   0  11 2.04934 0.72889   1
   1   0  11 0.80254 0.60571   2
   1   0  11 1.41720 0.59916   3
   2   0  11 259.944 6.56022   1
   2   0  11 262.601 6.53040   3
   2   0  11 262.099 6.55398   3
   2   0  11 258.130 6.57689   1
   2   0  11 267.992 6.54394   2
   3   0  11 109.680 3.09283   1
   3   0  11 107.442 3.14629   1
   3   0  11 110.864 3.01902   3
   3   0  11 108.277 3.09835   2
   4   0  11 411.711 9.85966   1
   4   0  11 382.233 9.68411   3
   5   0  11 146.523 4.40189   1
   6  -1 -11 23.8050 3.27432   3
  -6  -1  11 18.9505 2.68025   2
   6  -1 -11 15.9827 3.34110   1
   6  -1 -11 22.1525 2.96894   2
   6   1 -11 24.2394 3.92236   1
   6   1 -11 16.6924 3.14659   3
   6   1 -11 14.6466 2.92939   2
   5  -1 -11 39.2991 3.64546   1
  -5  -1  11 37.6959 2.58305   3
  -5  -1  11 37.2991 3.28866   2
   5  -1 -11 43.2180 3.64902   3
   5  -1 -11 37.9593 3.18209   2
   5   1 -11 38.7637 2.56445   2
  -5   1  11 40.7281 2.70903   3
  -5   1  11 39.4125 3.00055   2
   5   1 -11 37.8213 2.62615   3
   4  -1 -11 2.99085 1.43045   1
  -4  -1  11 5.15033 1.45923   3
  -4  -1  11 4.69635 1.48706   1
   4  -1 -11 4.34042 1.43485   3
   4  -1 -11 6.04558 1.48835   2
   4   1 -11 6.57018 1.38623   2
  -4   1  11 5.30379 1.66508   1
   4   1 -11 7.06170 1.57212   1
  -4   1  11 3.98548 1.25598   2
  -4   1  11 4.90790 1.48737   3
   4   1 -11 4.15835 1.48589   3
  -3  -1  11 16.4840 1.38206   3
  -3  -1  11 19.4359 1.41207   2
   3  -1 -11 17.6632 1.38696   3
   3  -1 -11 16.6720 1.29673   2
   3  -1 -11 18.2376 1.46136   1
  -3  -1  11 14.7973 1.34425   1
   3   1 -11 15.4933 1.36225   1
  -3   1  11 16.8165 1.41897   1
  -3   1  11 18.6815 1.41306   2
   3   1 -11 19.2904 1.67046   2
  -3   1  11 19.4691 1.40561   3
   3   1 -11 15.6615 1.34392   3
   2  -1 -11 179.960 4.86106   1
   2  -1 -11 174.399 4.73582   2
   2  -1 -11 177.612 4.85523   3
  -2  -1  11 175.404 4.85001   3
  -2  -1  11 174.185 4.82912   1
  -2  -1  11 177.734 4.78260   2
  -2   1  11 174.870 4.86209   3
   2   1 -11 180.457 4.81285   1
   2   1 -11 176.076 4.72112   2
  -2   1  11 175.066 4.78215   2
  -2   1  11 178.806 4.86421   1
   2   1 -11 176.542 4.82266   3
   1  -1 -11 107.102 3.12514   3
  -1  -1  11 106.229 3.30094   1
  -1  -1  11 106.537 3.10598   1
   1  -1 -11 105.074 3.00153   2
   1  -1 -11 113.277 3.11339   1
  -1  -1  11 106.112 3.07605   2
  -1  -1  11 106.567 3.11266   3
   1   1 -11 105.224 2.96386   2
  -1   1  11 104.355 3.06247   2
   1   1 -11 108.483 3.05037   1
  -1   1  11 105.286 3.13978   3
  -1   1  11 107.793 3.11922   1
   1   1 -11 109.464 3.07928   2
  -1   1  11 102.715 3.40463   1
   1   1 -11 99.1234 3.29553   3
   0  -1  11 20.2218 1.38680   1
   0  -1 -11 18.4421 1.26393   3
   0  -1  11 21.1410 1.26336   3
   0  -1 -11 21.0811 1.25620   1
   0  -1 -11 17.6314 1.15389   2
   0  -1  11 19.1127 1.22606   2
   0  -1  11 19.2895 1.18951   1
   0  -1  11 21.2592 1.50794   3
   0  -1 -11 19.4043 1.10906   2
   0   1 -11 19.7579 1.11038   1
   0   1  11 20.2703 1.24838   2
   0   1  11 21.7402 1.79461   3
   0   1  11 21.0058 1.58547   1
   0   1 -11 17.2391 1.16308   2
   0   1 -11 18.5765 1.17780   3
   0   1 -11 21.0442 0.99216   2
   0   1  11 19.1951 1.23226   1
   0   1  11 20.4851 1.26459   3
   1  -1  11 132.543 3.51770   1
   1  -1  11 138.284 3.49805   2
   1  -1  11 129.213 3.57245   3
  -1  -1 -11 134.561 3.45430   1
  -1  -1 -11 135.236 3.36920   2
   1  -1  11 130.515 3.51786   3
   1  -1  11 133.158 3.57064   1
  -1  -1 -11 133.274 3.51721   3
   1   1  11 131.907 3.56191   2
  -1   1 -11 132.197 3.34125   3
   1   1  11 132.682 3.69229   3
   1   1  11 129.549 3.57909   1
  -1   1 -11 131.844 3.36205   3
   1   1  11 129.099 3.57490   3
   2  -1  11 88.0938 2.45739   3
   2  -1  11 87.7800 2.48226   1
   2  -1  11 89.8410 2.48993   2
   2  -1  11 84.7915 2.40751   3
  -2  -1 -11 87.8612 2.41133   3
   2   1  11 88.6138 2.62430   3
   2   1  11 88.6475 2.63546   1
   2   1  11 87.3988 2.69154   1
   2   1  11 86.7862 2.70671   3
   3  -1  11 136.601 3.57113   3
   3  -1  11 140.948 3.70885   1
   3  -1  11 139.200 3.57598   3
   3   1  11 145.925 3.90636   3
   3   1  11 146.066 3.90906   1
   3   1  11 142.171 3.95974   2
   3   1  11 138.666 4.01365   1
   4  -1  11 76.9667 2.51156   1
   4  -1  11 81.0933 2.62901   1
   4   1  11 80.7163 2.80403   3
   4   1  11 84.4291 2.99233   1
   5   1  11 61.6745 3.09671   1
  -6  -2  11 2.11457 2.61645   2
   6  -2 -11 3.32317 3.17596   1
   6  -2 -11 9.57687 3.06932   3
   6  -2 -11 8.45655 2.99502   2
   6   2 -11 1.42635 3.49103   1
   6   2 -11 2.62174 3.01898   2
   6   2 -11 8.80616 3.20130   3
  -5  -2  11 30.3772 2.48767   3
  -5  -2  11 29.3616 2.22372   2
   5  -2 -11 26.9774 2.35193   3
   5  -2 -11 28.0005 2.28616   2
   5  -2 -11 21.6371 2.38995   1
   5   2 -11 26.5484 2.52657   2
  -5   2  11 24.9667 2.09224   2
  -5   2  11 24.7321 2.75196   3
   5   2 -11 22.5347 2.39149   3
   5   2 -11 20.7433 4.69178   1
   4  -2 -11 61.9512 3.22682   1
  -4  -2  11 61.1711 3.15335   3
  -4  -2  11 56.9967 3.25820   1
   4  -2 -11 58.7159 3.05166   3
   4  -2 -11 60.0717 2.83439   2
  -4  -2  11 56.6728 2.82022   2
   4   2 -11 58.6495 2.81766   2
  -4   2  11 58.9587 3.95889   1
   4   2 -11 64.6646 3.23838   3
   4   2 -11 57.4657 3.43857   1
  -4   2  11 58.7041 3.25448   3
  -4   2  11 59.0504 2.71422   2
   3  -2 -11 8.21263 1.25534   3
  -3  -2  11 7.35492 1.25307   3
  -3  -2  11 6.63292 1.09586   2
  -3  -2  11 6.93210 1.21103   1
   3  -2 -11 8.11914 1.06318   2
   3  -2 -11 5.83877 1.20760   1
  -3   2  11 5.17399 1.26743   3
  -3   2  11 6.42694 1.10234   2
  -3   2  11 5.00592 1.34277   1
   3   2 -11 6.57279 1.21560   3
   3   2 -11 5.77447 1.05091   2
   3   2 -11 5.20730 1.22462   1
   2  -2 -11 395.647 10.1300   3
  -2  -2  11 397.064 10.1392   1
   2  -2 -11 399.307 10.0663   2
  -2  -2  11 403.047 10.1045   2
   2  -2 -11 411.342 10.1648   1
  -2  -2  11 404.224 10.1494   3
  -2   2  11 397.765 10.0907   2
  -2   2  11 405.166 10.1419   1
  -2   2  11 404.850 10.1520   3
   2   2 -11 404.863 10.0428   2
   2   2 -11 404.420 10.1212   3
   2   2 -11 410.936 10.1000   1
  -1  -2  11 1302.33 31.4415   1
   1  -2 -11 1313.34 31.4507   3
  -1  -2  11 1306.60 31.4299   3
   1  -2 -11 1322.49 31.4455   1
   1  -2 -11 1293.05 31.4045   2
  -1  -2  11 1292.75 31.4121   2
  -1  -2  11 1346.02 31.4628   1
  -1   2  11 1308.17 31.4659   3
  -1   2  11 1281.22 31.4351   2
   1   2 -11 1282.12 31.3276   2
  -1   2  11 1293.03 31.4613   1
   1   2 -11 1300.85 31.3320   2
   1   2 -11 1338.76 31.3688   1
   1   2 -11 1299.66 31.3874   3
   0  -2 -11 290.871 7.51228   3
   0  -2 -11 285.706 7.25215   2
   0  -2  11 290.392 7.30195   1
   0  -2  11 293.422 7.31642   3
   0  -2 -11 295.050 7.28853   2
   0  -2  11 272.033 7.39549   2
   0  -2  11 289.010 7.27569   3
   0  -2  11 285.488 7.28120   1
   0  -2 -11 294.245 7.30953   1
   0   2  11 297.255 7.37771   3
   0   2 -11 296.263 7.12561   1
   0   2 -11 299.341 7.09694   2
   0   2 -11 283.813 7.22952   2
   0   2  11 292.037 7.32721   2
   0   2 -11 293.781 7.20237   3
   0   2  11 288.128 7.36359   1
   0   2  11 295.429 7.47123   1
  -1  -2 -11 382.383 9.35870   2
   1  -2  11 370.257 9.37122   1
   1  -2  11 382.578 9.36644   3
   1  -2  11 383.711 9.37884   3
  -1  -2 -11 383.867 9.40157   1
   1  -2  11 391.860 9.37222   2
  -1  -2 -11 387.585 9.36228   2
  -1  -2 -11 381.699 9.44368   3
   1  -2  11 386.123 9.39613   1
   1   2  11 375.407 9.57698   3
   1   2  11 387.360 9.55510   1
   1   2  11 377.455 9.49621   3
   1   2  11 383.449 9.47530   2
   1   2  11 386.100 9.52170   1
   2  -2  11 164.671 4.18546   1
   2  -2  11 164.706 4.12285   3
  -2  -2 -11 167.577 4.30513   3
   2  -2  11 167.205 4.22149   1
   2  -2  11 164.714 4.11715   3
   2   2  11 162.569 4.43587   1
   2   2  11 165.324 4.42164   2
   2   2  11 161.860 4.56086   1
   2   2  11 163.726 4.43873   3
   2   2  11 163.304 4.59446   3
   3   2  11 19.8357 1.66136   1
   3   2  11 20.1039 1.36497   2
   3   2  11 22.1264 1.75213   3
   4   2  11 25.0245 1.57028   3
   4   2  11 21.5154 1.84077   1
   4   2  11 26.1474 1.91602   2
   5   2  11 5.65394 1.95162   3
   5   2  11 2.87084 1.83561   1
   5  -3 -11 33.3366 2.55769   3
  -5  -3  11 27.8147 2.64522   3
  -5  -3  11 27.5590 2.43265   2
   5  -3 -11 29.6257 2.58082   1
   5  -3 -11 29.8911 2.39218   2
   5   3 -11 27.1332 2.40791   2
   5   3 -11 29.3638 2.58573   3
   5   3 -11 26.5449 3.36500   1
  -4  -3  11 1.97374 1.49252   3
   4  -3 -11 2.45409 1.44712   2
   4  -3 -11 2.37134 1.48314   3
  -4  -3  11 -0.2313 1.35856   2
   4  -3 -11 1.16608 1.57801   1
  -4  -3  11 0.97259 1.65298   1
  -4   3  11 2.15879 1.31900   2
   4   3 -11 -0.2379 1.80057   1
  -4   3  11 -0.3884 1.64489   3
   4   3 -11 -0.8449 1.49966   3
   4   3 -11 -0.8010 1.30890   2
   3  -3 -11 232.473 6.31865   1
  -3  -3  11 230.230 6.23127   1
  -3  -3  11 226.554 6.21704   3
   3  -3 -11 221.786 6.06379   2
   3  -3 -11 225.698 6.21327   3
   3   3 -11 226.542 6.35274   1
   3   3 -11 223.347 6.06086   2
  -3   3  11 221.680 6.05432   2
  -3   3  11 220.778 6.21131   1
   3   3 -11 226.808 6.23502   3
  -3   3  11 218.678 6.17584   3
   2  -3 -11 21.1724 1.36602   3
  -2  -3  11 15.7937 1.25957   3
   2  -3 -11 17.0719 1.49727   2
  -2  -3  11 20.8380 1.71014   2
   2  -3 -11 15.5476 1.25444   1
  -2  -3  11 17.7143 1.27678   1
  -2   3  11 19.0694 1.58326   2
   2   3 -11 20.0793 1.44073   2
   2   3 -11 20.2284 1.74772   3
   2   3 -11 20.2202 1.73107   1
  -2   3  11 18.5536 1.33622   3
  -2   3  11 20.0764 1.80505   1
  -1  -3  11 144.056 4.16186   1
  -1  -3  11 138.823 3.91871   1
   1  -3 -11 138.890 3.97644   3
  -1  -3  11 145.605 3.95251   3
  -1  -3  11 138.561 3.88900   2
   1  -3 -11 137.944 3.87135   2
   1  -3 -11 140.121 3.95316   1
  -1   3  11 139.130 3.99752   1
   1   3 -11 141.672 3.74158   2
   1   3 -11 142.900 3.82037   1
   1   3 -11 137.009 3.84286   2
  -1   3  11 137.312 3.97666   3
   1   3 -11 142.380 3.85632   3
  -1   3  11 139.034 3.91228   2
   0  -3 -11 1251.25 30.5795   2
   0  -3 -11 1264.00 30.6343   3
   0  -3 -11 1289.08 30.6213   1
   0  -3  11 1268.94 30.5560   2
   0  -3  11 1286.30 30.5691   3
   0  -3  11 1299.23 30.5882   1
   0  -3  11 1244.75 30.5710   1
   0  -3  11 1296.64 30.5700   3
   0   3 -11 1281.70 30.3770   1
   0   3  11 1261.86 30.7085   1
   0   3  11 1248.97 30.6516   3
   0   3  11 1279.89 30.6685   1
   0   3 -11 1273.19 30.4700   3
   0   3  11 1260.61 30.6327   2
   1  -3  11 569.969 13.9015   1
   1  -3  11 571.677 13.8741   3
   1  -3  11 579.503 13.8895   2
  -1  -3 -11 575.840 14.0174   3
   1  -3  11 581.358 13.9144   1
   1  -3  11 557.153 13.8745   3
  -1  -3 -11 565.491 13.9521   2
  -1  -3 -11 576.886 13.9403   2
   1   3  11 579.295 14.0717   3
   1   3  11 561.353 14.0340   2
   1   3  11 581.338 14.0942   1
   1   3  11 577.705 14.1574   1
   2  -3  11 146.905 3.76201   1
   2  -3  11 142.600 3.61586   3
   2  -3  11 142.852 3.72073   1
  -2  -3 -11 150.659 3.98219   2
   2  -3  11 144.720 3.61860   3
  -2  -3 -11 143.249 3.99668   3
   2   3  11 149.140 4.07540   2
   2   3  11 141.619 4.12151   1
   2   3  11 149.141 4.14423   3
   3   3  11 44.5291 2.22828   1
   3   3  11 40.2615 2.28551   3
   3   3  11 45.6012 2.33728   2
   4   3  11 2.42084 1.53828   3
   4   3  11 2.25666 1.80581   2
   4   3  11 2.20176 1.43540   1
   5   3  11 -1.2118 2.04667   1
   5   3  11 -1.2838 2.01030   3
  -5  -4  11 2.85954 2.56184   3
   5  -4 -11 2.19039 2.02260   2
   5  -4 -11 4.20108 2.39388   1
  -5  -4  11 1.57117 2.12621   2
   5  -4 -11 0.44690 2.21993   3
   5   4 -11 -0.8392 2.09612   2
   5   4 -11 -1.0172 2.75476   1
   5   4 -11 0.54184 2.43656   3
  -4  -4  11 61.4135 3.55971   1
  -4  -4  11 56.1437 3.45004   3
   4  -4 -11 52.8027 3.59074   1
   4  -4 -11 55.2627 2.92829   2
  -4   4  11 53.1089 3.40051   3
   4   4 -11 60.6794 3.79831   1
  -4   4  11 58.5048 2.87714   2
   4   4 -11 53.5196 3.57680   3
  -3  -4  11 2.17882 1.19002   3
  -3  -4  11 0.25859 1.22351   1
   3  -4 -11 2.69180 1.16064   2
  -3  -4  11 0.38714 1.26341   2
   3  -4 -11 1.95068 1.22572   3
   3  -4 -11 3.08331 1.31638   1
  -3   4  11 4.46893 1.24540   2
   3   4 -11 1.11939 1.21649   3
   3   4 -11 2.00564 1.44138   1
  -3   4  11 2.65091 1.31670   3
  -3   4  11 -1.9575 1.51527   1
   3   4 -11 1.40214 1.07199   2
  -2  -4  11 92.0314 3.13404   3
  -2  -4  11 94.5476 3.15856   1
   2  -4 -11 97.1249 3.19260   3
   2  -4 -11 93.2246 2.98869   2
  -2  -4  11 91.4667 3.09598   2
   2  -4 -11 88.6283 3.16166   1
   2   4 -11 92.5348 3.08545   3
  -2   4  11 91.5707 3.24801   1
  -2   4  11 88.7379 3.00478   2
   2   4 -11 92.6046 3.07772   1
   2   4 -11 91.1584 2.88659   2
  -2   4  11 91.0907 3.18859   3
  -1  -4  11 8.91099 1.01949   1
  -1  -4  11 10.7174 1.00999   3
   1  -4 -11 9.33700 0.93371   2
   1  -4 -11 10.2836 1.11581   1
  -1  -4  11 11.6868 1.07711   2
   1  -4 -11 11.4312 1.08212   3
  -1  -4  11 13.3298 1.52160   1
  -1   4  11 9.48498 1.10984   1
  -1   4  11 9.99330 1.06655   2
   1   4 -11 11.1342 1.17406   2
   1   4 -11 12.8656 1.05945   3
  -1   4  11 9.35273 1.11059   3
   1   4 -11 10.7420 0.87308   2
   0  -4  11 62.1642 2.14427   1
   0  -4 -11 63.5230 2.41880   3
   0  -4  11 55.7579 2.13623   2
   0  -4 -11 61.5318 2.33587   1
   0  -4  11 59.7194 2.10933   3
   0  -4  11 60.6545 2.52213   3
   0  -4  11 57.7038 2.23665   1
   0  -4 -11 61.1431 2.14805   2
   0   4  11 61.9933 2.37504   3
   0   4  11 62.6015 2.25846   2
   0   4 -11 61.7594 1.92570   3
   0   4 -11 59.2012 1.76745   1
   0   4  11 64.5064 2.39190   1
  -1  -4 -11 232.540 6.12422   1
   1  -4  11 235.352 5.89803   3
   1  -4  11 228.798 5.96581   1
   1  -4  11 235.700 5.97029   3
   1  -4  11 237.670 5.94488   1
  -1  -4 -11 233.810 6.14745   3
   1  -4  11 244.886 5.94314   2
  -1  -4 -11 233.787 6.02987   2
   1   4  11 237.351 6.14919   2
   1   4  11 240.110 6.22979   1
   1   4  11 235.616 6.20465   3
   1   4  11 220.780 6.52305   1
  -2  -4 -11 260.114 6.48956   2
   2  -4  11 258.644 6.32991   1
  -2  -4 -11 239.312 6.93796   3
   2   4  11 251.214 6.71594   2
   2   4  11 262.590 6.76738   3
   2   4  11 262.245 6.76773   1
   3   4  11 184.427 5.30739   2
   3   4  11 190.887 5.34340   3
   3   4  11 185.205 5.32256   1
   4   4  11 5.62949 1.90386   2
   4   4  11 6.22487 1.68856   3
   4   4  11 7.43974 1.76622   1
   5   4  11 13.1067 2.46856   3
   5   4  11 14.7315 2.56428   1
   5  -5 -11 78.3333 4.88952   3
  -5  -5  11 88.4905 5.25992   3
  -5  -5  11 80.6135 4.40120   2
   5  -5 -11 80.6661 4.50440   2
   5  -5 -11 88.4810 5.37431   1
   5   5 -11 91.0978 7.72587   1
   5   5 -11 85.8387 4.61207   2
   5   5 -11 81.9990 5.69714   3
  -4  -5  11 63.5770 3.48597   2
   4  -5 -11 64.3045 3.22740   2
  -4  -5  11 59.6373 4.50034   3
  -4  -5  11 62.9880 3.93032   1
   4  -5 -11 57.8934 3.70168   3
   4   5 -11 57.0907 4.58397   3
   4   5 -11 67.0455 3.37718   2
  -4   5  11 64.0909 3.08881   2
  -4   5  11 62.4657 3.93170   3
   4   5 -11 62.3695 4.40841   1
  -3  -5  11 19.2222 1.71634   1
   3  -5 -11 22.0019 1.79406   1
   3  -5 -11 23.5506 1.76796   3
  -3  -5  11 19.7295 1.68680   3
   3  -5 -11 23.0865 1.63385   2
  -3  -5  11 22.4248 1.79014   2
  -3   5  11 23.4566 1.78166   3
   3   5 -11 20.8908 1.54280   2
   3   5 -11 17.9754 1.77388   3
  -3   5  11 20.5944 1.61066   2
   3   5 -11 20.7651 1.90414   1
   2  -5 -11 18.5249 1.47741   3
   2  -5 -11 17.3240 1.29731   2
  -2  -5  11 16.9713 1.37521   2
   2  -5 -11 19.5564 1.51600   1
  -2  -5  11 19.7222 1.49732   1
  -2  -5  11 14.2486 1.31945   3
   2   5 -11 21.5859 1.51489   1
   2   5 -11 17.9425 1.43204   3
  -2   5  11 17.3106 1.54622   1
  -2   5  11 15.4203 1.46537   3
   2   5 -11 16.8970 1.25664   2
  -2   5  11 17.8356 1.45492   2
  -1  -5  11 82.0759 2.76389   1
   1  -5 -11 82.6433 2.94773   3
   1  -5 -11 79.0296 2.95373   1
   1  -5 -11 80.7129 2.70638   2
  -1  -5  11 78.3792 2.77115   3
   1   5 -11 76.4977 2.62438   1
  -1   5  11 79.0622 2.77247   2
  -1   5  11 77.4294 2.94701   3
  -1   5  11 75.4858 2.90074   1
   1   5 -11 78.9382 2.43690   2
   0  -5  11 142.186 3.88514   3
   0  -5  11 141.415 3.93025   1
   0  -5 -11 141.093 3.95899   2
   0  -5 -11 141.758 4.33710   1
   0  -5 -11 138.825 4.13986   3
   0  -5  11 138.943 4.07683   1
   0   5  11 139.114 4.17208   1
   0   5  11 139.771 4.15045   3
   0   5 -11 135.360 3.70681   3
   0   5  11 136.682 4.03241   2
   1  -5  11 155.139 4.35061   1
   1  -5  11 155.846 4.22678   3
  -1  -5 -11 163.878 4.43587   2
  -1  -5 -11 160.379 4.60458   3
  -1  -5 -11 157.202 4.57818   1
   1  -5  11 164.985 4.29472   1
   1   5  11 159.445 4.54008   2
   1   5  11 164.023 4.65417   3
   1   5  11 166.175 4.68567   1
   2  -5  11 261.066 6.80687   1
  -2  -5 -11 275.321 6.96003   2
   2  -5  11 276.818 6.74661   1
  -2  -5 -11 269.702 7.16755   3
   2   5  11 276.378 7.26633   1
   2   5  11 270.595 7.23968   3
   2   5  11 270.648 7.17307   2
   3   5  11 57.8032 2.95716   2
   3   5  11 52.7665 3.02858   3
   3   5  11 56.2791 2.93326   1
   4   5  11 106.439 4.46182   1
   4   5  11 87.8419 5.12405   2
   4   5  11 113.065 4.42770   3
   5   5  11 17.9695 2.81918   3
   5   5  11 15.8636 3.22021   1
  -5  -6  11 5.57785 3.13360   3
   5  -6 -11 7.15386 2.96449   1
   5  -6 -11 7.20695 2.72325   2
   5  -6 -11 8.82689 2.82475   3
  -5  -6  11 8.53710 2.61052   2
   5   6 -11 5.67000 2.94299   2
   5   6 -11 2.15859 2.93648   3
  -4  -6  11 238.052 7.34522   3
   4  -6 -11 231.957 6.86196   2
   4  -6 -11 237.100 7.26465   3
   4  -6 -11 237.542 7.28435   1
  -4  -6  11 236.300 7.50632   1
  -4  -6  11 238.539 7.03728   2
   4   6 -11 235.973 7.40045   3
  -4   6  11 238.895 6.81896   2
   4   6 -11 230.966 6.95375   2
   3  -6 -11 163.577 5.03540   2
  -3  -6  11 166.078 5.16808   2
   3  -6 -11 170.951 5.30391   3
  -3  -6  11 168.154 5.35149   1
  -3  -6  11 166.669 5.35912   3
   3  -6 -11 164.335 5.30385   1
   3   6 -11 182.463 6.87992   1
   3   6 -11 167.498 5.34700   3
  -3   6  11 166.060 5.01422   2
   3   6 -11 163.038 4.98947   2
  -3   6  11 161.877 5.47243   3
  -2  -6  11 50.3400 2.70070   3
  -2  -6  11 55.9233 2.66639   2
   2  -6 -11 50.9524 2.86284   1
   2  -6 -11 49.0813 2.43934   2
  -2  -6  11 53.5457 2.72981   1
   2  -6 -11 55.6231 2.82021   3
  -2   6  11 54.8429 2.96544   1
  -2   6  11 56.0161 2.92372   3
   2   6 -11 49.4511 2.89892   3
   2   6 -11 50.2415 2.33293   2
  -2   6  11 53.7268 2.56565   2
  -1  -6  11 12.6631 1.38511   2
  -1  -6  11 12.9271 1.23933   3
   1  -6 -11 12.8390 1.45305   1
  -1  -6  11 12.8434 1.26708   1
   1  -6 -11 12.9777 1.30194   2
   1  -6 -11 14.7855 1.43287   3
  -1   6  11 12.7636 1.49427   1
  -1   6  11 10.3235 1.27290   2
   1   6 -11 11.8009 1.03204   2
  -1   6  11 12.6287 1.51770   3
   1   6 -11 12.5614 1.27065   3
   0  -6 -11 4.73843 1.11696   2
   0  -6  11 3.62563 0.94084   3
   0  -6  11 2.77670 0.95837   1
   0  -6 -11 5.73758 1.37788   1
   0  -6 -11 5.07862 1.26016   3
   0  -6  11 4.23169 1.08227   2
   0   6  11 3.40303 1.21903   3
   0   6  11 4.89628 1.12054   2
   0   6 -11 2.27772 0.84456   3
   0   6  11 3.51034 1.27033   1
  -1  -6 -11 102.276 3.55894   3
  -1  -6 -11 101.976 3.60238   1
   1  -6  11 100.661 3.19001   2
   1  -6  11 104.428 3.09257   1
  -1  -6 -11 103.451 3.28625   2
   1  -6  11 104.921 3.02851   3
   1   6  11 102.164 3.61518   3
   1   6  11 99.4468 3.68595   1
   1   6  11 101.342 3.43965   2
   2  -6  11 152.486 4.08170   1
   2  -6  11 150.269 4.31173   1
  -2  -6 -11 149.843 4.69547   3
   2  -6  11 147.630 3.88685   3
  -2  -6 -11 158.638 4.45652   2
   2   6  11 156.768 4.73071   2
   2   6  11 161.133 4.92045   1
   2   6  11 157.908 4.81888   3
  -3  -6 -11 20.1535 1.62731   2
   3   6  11 21.1375 2.03693   3
   3   6  11 20.5315 1.99501   2
   3   6  11 23.7855 2.11510   1
   4   6  11 51.8772 4.23540   3
   4   6  11 53.9244 4.28118   2
   4   6  11 55.9353 4.24214   1
  -4  -7  11 4.49546 2.39394   3
   4  -7 -11 3.37395 2.13855   2
  -4  -7  11 6.21663 2.31501   2
   4  -7 -11 5.39055 2.25157   3
  -4  -7  11 3.89105 3.18012   1
   4  -7 -11 4.30028 2.31916   1
  -4   7  11 1.76630 1.97452   2
   4   7 -11 7.53309 3.10709   3
   4   7 -11 4.58258 2.21410   2
  -3  -7  11 185.561 5.98793   1
  -3  -7  11 185.723 5.82134   2
   3  -7 -11 177.837 5.86045   3
  -3  -7  11 189.533 5.82726   3
   3  -7 -11 168.380 7.17628   1
   3  -7 -11 188.299 5.59893   2
   3   7 -11 185.709 5.51195   2
  -3   7  11 154.643 7.01709   2
  -3   7  11 181.844 6.06516   3
   3   7 -11 193.800 6.31731   3
   2  -7 -11 265.096 7.26269   2
  -2  -7  11 274.633 7.44869   1
   2  -7 -11 265.255 7.42390   3
   2  -7 -11 265.017 7.51743   1
  -2  -7  11 267.157 7.35025   2
  -2  -7  11 271.156 7.35660   3
  -2   7  11 267.923 7.24836   2
  -2   7  11 262.401 7.68010   1
   2   7 -11 264.114 7.37751   3
   2   7 -11 267.132 7.05414   2
  -2   7  11 265.901 7.51179   3
   1  -7 -11 59.9492 3.37662   1
  -1  -7  11 62.2250 2.73627   3
  -1  -7  11 64.8308 2.89900   2
  -1  -7  11 63.4164 2.82420   1
   1  -7 -11 63.9493 3.09071   3
   1  -7 -11 59.7038 2.66010   2
   1   7 -11 59.9772 2.44421   2
  -1   7  11 64.0808 3.35440   3
   1   7 -11 60.4859 2.80931   3
  -1   7  11 65.7875 3.21194   1
  -1   7  11 59.8875 2.85340   2
   0  -7 -11 109.530 3.92354   3
   0  -7 -11 105.266 3.96184   1
   0  -7 -11 104.099 3.55418   2
   0  -7  11 111.371 3.48113   3
   0  -7  11 111.667 3.64791   2
   0  -7  11 111.474 3.54434   1
   0   7  11 114.586 3.99485   3
   0   7  11 115.004 3.75713   2
   0   7  11 109.398 4.08990   1
  -1  -7 -11 15.9142 1.51496   2
  -1  -7 -11 17.2331 1.69054   3
   1  -7  11 18.9006 1.62295   3
   1  -7  11 19.2165 1.46302   2
   1  -7  11 16.5221 1.26488   1
  -1  -7 -11 18.8700 2.11241   1
   1   7  11 17.3088 1.75763   3
   1   7  11 19.5876 1.87453   1
   1   7  11 13.7629 1.56167   2
   2  -7  11 7.51573 0.80114   3
   2  -7  11 7.78650 0.97922   1
  -2  -7 -11 6.12176 1.43793   2
  -2  -7 -11 7.86107 1.73607   3
   2   7  11 7.47675 1.86973   1
   2   7  11 9.12790 1.95870   3
   2   7  11 7.60441 1.69324   2
  -3  -7 -11 5.63396 1.88633   2
   3   7  11 6.91927 2.19674   1
   3   7  11 3.02437 2.20323   2
   3   7  11 1.99361 2.11431   3
   4   7  11 1.71174 2.90406   3
   4   7  11 2.31810 2.91675   2
   4   7  11 -0.0638 2.89120   1
  -4  -8  11 37.7258 3.25316   3
  -4  -8  11 34.9889 2.90638   2
   4  -8 -11 31.6846 3.27474   1
   4  -8 -11 37.9896 2.93247   2
   4  -8 -11 34.5068 3.07318   3
   4   8 -11 37.1248 3.07502   2
   4   8 -11 37.9758 3.91049   3
   3  -8 -11 -0.3235 1.83149   2
  -3  -8  11 3.28820 1.97550   2
   3  -8 -11 -0.5317 2.11098   1
  -3  -8  11 2.77236 2.43692   1
  -3  -8  11 0.21379 1.92643   3
   3  -8 -11 1.93895 1.98344   3
  -3   8  11 1.79252 2.84672   3
   3   8 -11 -0.4208 1.88218   2
  -3   8  11 -1.8114 1.88502   2
  -2  -8  11 16.0528 2.05271   2
  -2  -8  11 12.9039 2.24198   1
   2  -8 -11 17.0741 2.01824   3
   2  -8 -11 16.7838 1.86932   2
   2  -8 -11 19.1253 2.17330   1
  -2  -8  11 15.5907 1.86766   3
   2   8 -11 15.8324 2.26664   3
  -2   8  11 17.5286 1.83991   2
  -2   8  11 12.8536 2.33126   3
   2   8 -11 14.8658 1.65861   2
   1  -8 -11 246.943 8.50648   2
   1  -8 -11 264.212 7.75112   1
  -1  -8  11 263.259 7.29603   2
  -1  -8  11 280.927 8.00044   1
   1  -8 -11 271.024 7.54959   3
   1   8 -11 264.579 6.84372   2
  -1   8  11 264.988 7.62554   1
  -1   8  11 273.546 7.63906   3
   0  -8 -11 39.5455 2.48125   1
   0  -8  11 36.5101 2.60019   2
   0  -8  11 37.2542 2.33565   3
   0  -8 -11 36.8659 2.99898   3
   0   8  11 39.0361 2.53658   1
   0   8  11 28.5874 3.13101   2
   0   8  11 40.1695 3.26888   3
   1  -8  11 2.44214 1.17967   1
   1  -8  11 2.60886 1.07466   3
  -1  -8 -11 2.14182 1.69878   3
  -1  -8 -11 4.48576 1.81537   2
   1  -8  11 3.61303 1.53314   2
   1   8  11 2.47558 1.82796   2
   1   8  11 4.60312 2.21268   3
   1   8  11 2.74337 2.19870   1
  -2  -8 -11 40.3737 2.95727   2
  -2  -8 -11 43.3303 3.64111   3
   2  -8  11 42.4390 2.21094   1
   2  -8  11 40.9002 2.01770   3
   2   8  11 45.0376 3.45678   2
   2   8  11 42.6106 3.97619   1
   2   8  11 43.1317 3.89906   3
  -3  -8 -11 15.5006 2.22905   2
   3   8  11 14.0264 2.64090   3
   3   8  11 11.3088 2.87027   2
   3   8  11 12.0226 2.71344   1
   3  -9 -11 26.3332 2.74971   3
   3  -9 -11 18.7350 3.01938   1
   3  -9 -11 19.0113 2.45912   2
  -3  -9  11 18.1178 3.08438   1
  -3  -9  11 18.6925 2.53645   3
  -3  -9  11 24.0243 2.64262   2
   3   9 -11 20.3531 2.50262   2
  -3   9  11 15.9764 2.46396   2
  -2  -9  11 2.84539 1.82598   3
  -2  -9  11 3.55756 2.02175   1
   2  -9 -11 2.12438 1.83764   2
   2  -9 -11 5.40624 2.57853   1
  -2  -9  11 2.40342 2.16110   2
   2  -9 -11 4.14323 2.10869   3
  -2   9  11 -3.1355 4.32293   3
  -2   9  11 6.26179 2.04357   2
   2   9 -11 6.25548 1.84076   2
  -1  -9  11 4.67865 1.63702   3
  -1  -9  11 1.68791 1.89028   2
   1  -9 -11 5.87658 2.13969   1
   1  -9 -11 0.93660 1.90327   3
   1  -9 -11 4.29555 1.65715   2
  -1  -9  11 6.16890 1.73949   1
  -1   9  11 2.73357 2.72032   3
  -1   9  11 3.59984 1.97734   2
   0  -9 -11 47.7363 3.07406   2
   0  -9  11 51.1906 2.77498   3
   0  -9  11 51.6243 3.25311   2
   0  -9  11 46.2108 2.95596   1
   0  -9 -11 50.4478 3.61476   3
   0  -9 -11 45.4407 3.14864   1
   0   9  11 38.6781 3.17043   1
   0   9  11 46.0507 4.18219   3
   0   9  11 44.7744 3.41876   2
  -1  -9 -11 58.7611 4.32048   3
  -1  -9 -11 47.9449 3.24856   2
   1  -9  11 54.4856 2.75295   3
   1  -9  11 56.9654 2.93133   1
   1   9  11 60.3267 4.33011   3
   1   9  11 50.6811 3.35250   1
   1   9  11 59.2558 3.72645   2
  -2  -9 -11 3.07097 2.06337   2
   2  -9  11 4.77319 1.43238   1
  -2  -9 -11 2.52273 2.51671   3
   2   9  11 -0.1180 2.61378   2
   2   9  11 -0.5464 2.99585   1
   2   9  11 4.93081 2.60643   3
  -3  -9 -11 4.78210 2.67771   2
   3   9  11 8.28847 3.82261   1
   3   9  11 7.80169 3.24528   2
   3   9  11 4.85985 3.22765   3
  -2 -10  11 12.5444 2.58502   2
   2 -10 -11 13.0960 2.42087   2
  -2 -10  11 12.5322 2.64932   1
   2 -10 -11 15.2890 2.68384   3
   2 -10 -11 15.6782 3.02835   1
  -2 -10  11 13.2938 2.33836   3
   2  10 -11 22.7756 4.28933   2
  -2  10  11 11.2424 2.63172   2
  -1 -10  11 13.5784 2.18455   3
   1 -10 -11 18.8221 2.26619   2
   1 -10 -11 11.0590 2.89240   1
   1 -10 -11 11.7537 2.57196   3
  -1 -10  11 12.5647 2.28541   2
  -1 -10  11 14.3957 2.23865   1
  -1  10  11 17.2009 3.05775   3
  -1  10  11 12.5067 2.59609   2
   0 -10  11 8.29270 2.25914   2
   0 -10  11 8.84921 1.79821   3
   0 -10 -11 11.8555 2.46297   3
   0 -10  11 9.23224 1.88526   1
   0 -10 -11 9.32933 2.06778   2
   0  10  11 6.96391 2.95775   3
   0  10  11 11.9442 2.42764   2
  -1 -10 -11 1.34844 2.73073   3
   1 -10  11 3.67816 1.72159   1
  -1 -10 -11 2.06786 2.25759   2
   1 -10  11 5.46717 1.63019   3
   1  10  11 3.52851 2.63177   2
   1  10  11 4.07715 2.91110   3
  -2 -10 -11 9.77294 2.61663   2
   2 -10  11 6.26359 1.81223   1
   2  10  11 -2.8373 4.37006   1
   2  10  11 7.70510 3.34402   3
   2  10  11 9.52415 3.23704   2
  -1 -11  11 59.8343 4.32865   3
  -1 -11  11 60.9874 4.93900   2
   1 -11 -11 48.2105 3.79199   3
   1 -11 -11 58.5369 4.71090   2
  -1 -11  11 56.1725 4.81997   1
  -1  11  11 49.5546 3.56328   2
   0 -11 -11 16.0602 3.12012   3
   0 -11 -11 12.2558 2.60856   2
   0 -11  11 17.2417 2.32923   3
   0 -11  11 20.6675 2.44670   1
   0  11  11 18.6656 4.04720   3
   0  11  11 16.9617 3.22252   2
  -6   0  12 -2.4249 3.19049   2
   6   0 -12 6.13079 2.93153   2
   6   0 -12 0.25393 3.16594   3
   6   0 -12 -3.7179 3.80887   1
  -5   0  12 5.08895 1.92420   2
  -5   0  12 2.14956 2.18000   3
   5   0 -12 6.71478 2.38340   1
   5   0 -12 4.29140 1.99440   2
   5   0 -12 5.71129 2.12756   3
  -4   0  12 7.27876 1.58871   3
   4   0 -12 7.39082 1.45697   2
   4   0 -12 7.45599 1.55309   3
  -4   0  12 8.20867 1.53153   2
   4   0 -12 7.89241 1.62702   1
  -4   0  12 6.32183 1.64465   1
  -3   0  12 1.72586 1.15447   1
  -3   0  12 2.64890 1.04301   2
   3   0 -12 3.35678 1.10403   2
   3   0 -12 2.34220 1.17748   3
  -3   0  12 5.28321 1.25588   3
   3   0 -12 2.50340 1.19787   1
  -2   0  12 -0.7507 0.85571   3
  -2   0  12 -0.7372 0.80634   2
   2   0 -12 0.23285 0.80480   2
   2   0 -12 -0.5410 0.92689   3
  -2   0  12 0.99958 0.94253   1
   1   0 -12 33.1260 1.70422   1
   1   0 -12 33.1982 1.77847   3
  -1   0  12 34.0034 1.74157   3
  -1   0  12 35.0696 1.67625   1
   1   0 -12 31.2714 1.48736   2
  -1   0  12 32.6680 1.62882   2
  -1   0  12 36.2043 2.44108   1
   0   0 -12 273.199 6.82217   3
   0   0  12 265.665 6.95198   1
   0   0  12 268.212 6.99879   3
   0   0 -12 276.612 6.78965   1
   0   0  12 276.827 6.86460   2
   0   0  12 262.639 6.87405   1
   0   0  12 273.868 6.88855   3
   0   0 -12 277.850 6.73193   2
   0   0 -12 266.238 6.72004   2
   1   0  12 21.2383 1.30931   3
   1   0  12 18.1822 1.52009   1
   1   0  12 19.5870 1.33183   2
   1   0  12 20.3578 1.52601   3
  -1   0 -12 21.4818 1.17163   3
   1   0  12 18.4131 1.30010   1
   2   0  12 142.195 4.69770   3
   2   0  12 151.348 4.07931   1
   2   0  12 153.979 4.01570   3
   2   0  12 153.954 4.05286   1
   2   0  12 154.005 4.02682   2
   3   0  12 2.26981 0.81543   3
   3   0  12 2.67701 0.86869   1
   3   0  12 3.24759 0.98939   1
   3   0  12 1.31414 0.96037   2
   4   0  12 51.4790 1.99756   3
   5   0  12 57.7315 2.84283   1
   6  -1 -12 13.4166 3.53427   3
   6  -1 -12 7.67902 3.92382   1
  -6  -1  12 12.1240 2.95093   2
   6  -1 -12 6.80903 3.07620   2
   6   1 -12 14.8948 3.13087   2
   6   1 -12 12.4147 3.38887   3
   6   1 -12 18.7446 3.80841   1
  -5  -1  12 27.0446 2.30742   2
   5  -1 -12 26.8211 2.47025   3
  -5  -1  12 28.4004 2.98012   3
   5  -1 -12 25.1079 2.28742   2
   5  -1 -12 24.2078 2.53662   1
   5   1 -12 31.8841 2.68678   2
   5   1 -12 30.1316 2.98473   1
  -5   1  12 27.7871 2.68525   3
  -5   1  12 24.8782 2.16696   2
   5   1 -12 27.3972 2.56336   3
   4  -1 -12 4.79077 1.41059   2
   4  -1 -12 2.44464 1.62223   1
  -4  -1  12 3.18103 1.36953   2
  -4  -1  12 2.73189 1.57599   1
  -4  -1  12 3.26837 1.52931   3
   4  -1 -12 2.95911 1.49714   3
  -4   1  12 3.56562 1.34879   2
  -4   1  12 2.31585 1.89578   1
  -4   1  12 4.07801 1.57853   3
   4   1 -12 2.68885 1.75474   1
   4   1 -12 2.28748 1.39147   2
   4   1 -12 1.72683 1.53830   3
   3  -1 -12 11.0745 1.33971   3
  -3  -1  12 9.49244 1.23782   2
  -3  -1  12 8.63533 1.30675   1
  -3  -1  12 8.50437 1.29926   3
   3  -1 -12 11.2099 1.35756   1
   3  -1 -12 10.0662 1.24916   2
   3   1 -12 7.81223 1.34899   1
  -3   1  12 11.2879 1.35024   2
  -3   1  12 9.72591 1.44892   1
   3   1 -12 11.4027 1.42353   3
   3   1 -12 8.36965 1.19811   2
  -3   1  12 13.0775 1.40593   3
  -2  -1  12 27.3365 1.94371   3
   2  -1 -12 29.2403 1.93383   1
  -2  -1  12 28.0838 1.88251   1
   2  -1 -12 26.7766 1.64026   2
   2  -1 -12 28.9960 1.90818   3
   2   1 -12 26.4485 1.90018   3
   2   1 -12 25.6765 1.63742   2
  -2   1  12 27.5421 1.92966   3
   2   1 -12 27.2105 1.83553   1
  -2   1  12 31.0212 1.96440   1
  -2   1  12 27.7752 1.71894   2
  -1  -1  12 490.429 12.3446   1
  -1  -1  12 512.167 12.4421   1
  -1  -1  12 499.309 12.3429   3
  -1  -1  12 502.418 12.3210   2
   1  -1 -12 490.698 12.2612   2
   1  -1 -12 504.473 12.3512   3
   1  -1 -12 508.324 12.3296   1
   1   1 -12 504.877 12.2767   1
  -1   1  12 500.263 12.3688   3
  -1   1  12 478.405 12.4413   1
   1   1 -12 497.405 12.2249   2
  -1   1  12 502.901 12.3666   1
  -1   1  12 499.916 12.3339   2
   1   1 -12 503.599 12.3138   3
   0  -1 -12 588.200 14.3380   3
   0  -1  12 587.242 14.3516   3
   0  -1 -12 599.746 14.2793   2
   0  -1  12 589.086 14.3883   3
   0  -1  12 563.717 14.3464   1
   0  -1 -12 587.092 14.2765   2
   0  -1  12 597.005 14.3439   2
   0   1  12 586.517 14.4443   1
   0   1 -12 600.605 14.1924   2
   0   1  12 569.729 14.3828   3
   0   1 -12 606.841 14.2916   3
   0   1 -12 590.066 14.1960   2
   0   1  12 573.732 14.3890   1
   0   1  12 595.645 14.3770   2
   1  -1  12 61.8566 1.98224   2
   1  -1  12 60.7435 2.13492   1
  -1  -1 -12 59.0050 1.98334   1
   1  -1  12 60.3325 2.00422   1
   1  -1  12 61.2607 2.03625   3
  -1  -1 -12 61.3794 2.01297   3
   1  -1  12 61.9359 2.17693   3
   1   1  12 59.8926 2.42822   3
  -1   1 -12 63.0944 1.78448   3
   1   1  12 59.9381 2.12307   1
   1   1  12 61.5714 2.13048   2
   1   1  12 60.0681 2.17185   3
   2  -1  12 9.41545 0.80533   3
   2  -1  12 10.2006 0.82243   3
   2  -1  12 9.51369 0.88747   2
  -2  -1 -12 9.42745 0.77191   3
   2  -1  12 9.88814 0.84631   1
   2   1  12 9.88438 1.10554   1
   2   1  12 9.18475 0.95092   1
   2   1  12 9.39494 0.91440   3
   2   1  12 9.58518 0.96237   2
   3  -1  12 167.296 4.20386   3
   3  -1  12 169.234 4.34409   1
   3  -1  12 147.841 4.58535   1
   3   1  12 169.579 4.51439   3
   3   1  12 173.226 4.57833   1
   3   1  12 172.641 4.62057   2
   4  -1  12 11.7444 1.03161   1
   4   1  12 12.2756 1.37836   1
   4   1  12 11.9985 1.27655   3
   5   1  12 60.4926 3.43782   1
   5  -2 -12 18.4059 2.39080   3
  -5  -2  12 16.0773 2.37727   3
   5  -2 -12 15.7640 2.12125   2
   5  -2 -12 11.6579 2.42250   1
  -5  -2  12 14.4732 2.23040   2
   5   2 -12 14.1892 2.15244   2
   5   2 -12 19.2943 2.47263   3
   5   2 -12 14.3461 2.69815   1
  -5   2  12 12.2785 2.84040   3
   4  -2 -12 116.865 4.33491   3
  -4  -2  12 107.012 4.41679   1
   4  -2 -12 121.923 4.11419   2
  -4  -2  12 127.328 4.37924   3
   4  -2 -12 120.643 4.41899   1
  -4  -2  12 117.012 4.10276   2
   4   2 -12 119.266 4.08822   2
  -4   2  12 117.528 4.00790   2
   4   2 -12 121.246 4.89172   1
  -4   2  12 120.314 4.46010   3
   4   2 -12 125.495 4.47711   3
  -3  -2  12 30.0868 2.33166   1
   3  -2 -12 35.0077 2.03754   2
   3  -2 -12 32.0684 2.39870   1
  -3  -2  12 33.6068 2.14934   2
   3  -2 -12 32.4226 2.40305   3
  -3  -2  12 31.0345 2.40642   3
   3   2 -12 30.3856 2.02019   2
   3   2 -12 32.5767 2.44511   3
   3   2 -12 30.3176 1.95424   1
  -3   2  12 31.6147 2.44495   3
  -3   2  12 27.8463 2.57809   1
  -3   2  12 31.8091 2.07745   2
  -2  -2  12 161.230 4.59456   2
   2  -2 -12 161.752 4.53154   2
   2  -2 -12 164.506 4.66237   3
  -2  -2  12 163.275 4.64856   1
  -2  -2  12 166.866 4.68386   3
   2  -2 -12 168.002 4.69320   1
  -2   2  12 163.023 4.66647   1
  -2   2  12 161.282 4.56315   2
   2   2 -12 165.618 4.60790   1
   2   2 -12 165.787 4.64570   3
   2   2 -12 162.476 4.48971   2
  -2   2  12 166.000 4.70506   3
  -1  -2  12 35.1918 1.72347   2
  -1  -2  12 32.8017 2.21067   1
  -1  -2  12 33.4579 1.78288   1
  -1  -2  12 33.1026 1.79675   3
   1  -2 -12 37.0474 1.66273   2
   1  -2 -12 36.0036 1.84471   1
   1  -2 -12 35.3488 1.88369   3
   1   2 -12 30.9570 1.49070   2
   1   2 -12 43.4145 2.04041   2
  -1   2  12 35.0990 1.71450   2
  -1   2  12 33.1034 1.86971   3
  -1   2  12 34.6639 1.84147   1
   1   2 -12 34.3719 1.68752   1
   0  -2 -12 73.4830 2.29622   2
   0  -2  12 73.5348 2.36709   1
   0  -2  12 73.3957 2.57884   3
   0  -2  12 72.4620 2.46238   1
   0  -2  12 72.0202 2.37373   3
   0  -2 -12 69.6300 2.49696   3
   0  -2 -12 74.4035 2.43844   1
   0  -2  12 74.1139 2.39586   2
   0   2  12 75.2000 2.49852   1
   0   2 -12 74.8873 2.25122   3
   0   2 -12 76.0919 2.13652   1
   0   2  12 72.7819 2.40574   2
   0   2  12 71.5335 2.47529   3
   1  -2  12 68.9755 2.17536   2
   1  -2  12 68.5272 2.16595   3
  -1  -2 -12 72.6958 2.17847   2
   1  -2  12 63.5950 2.64869   3
   1  -2  12 66.3759 2.13440   1
   1  -2  12 69.8346 2.30281   1
  -1  -2 -12 71.6097 2.31356   3
  -1  -2 -12 70.9925 2.09462   2
   1   2  12 63.3007 2.80335   3
   1   2  12 69.6322 2.38706   1
   1   2  12 69.6539 2.31432   2
   1   2  12 70.9116 2.37483   3
   1   2  12 71.5667 2.66521   1
   2  -2  12 132.639 3.60261   1
   2  -2  12 132.488 3.55412   1
   2  -2  12 134.899 3.49621   3
  -2  -2 -12 136.989 3.69463   3
   2  -2  12 132.926 3.47434   3
   2   2  12 137.216 3.82991   3
   2   2  12 138.630 3.81724   2
   2   2  12 136.182 3.82280   1
   2   2  12 129.981 4.06963   1
   3  -2  12 33.1112 1.39117   1
   3  -2  12 32.0570 1.45853   1
   3   2  12 33.2015 2.05556   1
   3   2  12 33.9290 2.14340   2
   3   2  12 34.5976 2.06307   3
   4   2  12 2.55870 1.42980   1
   4   2  12 2.99411 1.33022   3
   5   2  12 3.30638 2.01549   1
   5  -3 -12 26.3411 2.71143   1
   5  -3 -12 29.2066 2.69180   3
  -5  -3  12 22.6751 2.41788   2
  -5  -3  12 27.4619 2.81060   3
   5  -3 -12 26.9771 2.40622   2
   5   3 -12 24.0890 2.72383   3
   5   3 -12 28.8126 3.10921   1
   5   3 -12 26.6179 2.47168   2
   4  -3 -12 8.76780 1.79168   1
  -4  -3  12 9.54213 1.79692   3
  -4  -3  12 10.9313 1.91424   1
   4  -3 -12 7.21097 2.55589   3
   4  -3 -12 12.2667 1.74811   2
  -4   3  12 11.5710 1.58676   2
  -4   3  12 10.6528 1.98226   3
   4   3 -12 10.3294 1.94473   3
   4   3 -12 15.3783 2.02100   1
   3  -3 -12 122.723 4.01887   3
  -3  -3  12 121.568 3.99146   1
  -3  -3  12 114.720 3.86674   2
   3  -3 -12 117.853 4.07148   1
  -3  -3  12 125.157 4.02017   3
   3  -3 -12 117.545 3.77716   2
  -3   3  12 117.721 4.02805   3
  -3   3  12 115.486 3.78757   2
   3   3 -12 122.112 4.16027   1
   3   3 -12 118.888 4.06302   3
   3   3 -12 121.234 3.74137   2
  -3   3  12 118.585 4.04536   1
   2  -3 -12 69.6758 2.77245   3
   2  -3 -12 74.0597 2.61106   2
   2  -3 -12 74.1305 2.81837   1
  -2  -3  12 71.5483 2.70045   2
  -2  -3  12 70.1764 2.77755   3
  -2  -3  12 71.5281 2.76756   1
  -2   3  12 71.7618 2.78412   1
   2   3 -12 71.4651 2.69229   1
   2   3 -12 72.7393 2.70100   3
  -2   3  12 69.5328 2.84294   3
  -2   3  12 70.7746 2.60112   2
   2   3 -12 73.5255 2.46054   2
  -1  -3  12 17.7314 1.58771   1
  -1  -3  12 15.8271 1.16684   3
  -1  -3  12 19.6726 1.61560   1
   1  -3 -12 18.5712 1.27725   3
   1  -3 -12 18.9213 1.45808   2
   1  -3 -12 18.5560 1.66973   1
  -1  -3  12 20.5073 1.55632   2
  -1   3  12 15.7172 1.24394   1
   1   3 -12 18.4671 1.73650   3
  -1   3  12 19.3595 1.72241   3
  -1   3  12 19.5653 1.56230   2
   1   3 -12 17.0277 1.29061   2
   1   3 -12 18.2850 1.61033   2
   0  -3 -12 252.421 6.40542   1
   0  -3 -12 248.378 6.33149   2
   0  -3  12 245.221 6.34035   3
   0  -3  12 246.783 6.34491   1
   0  -3  12 249.359 6.49882   3
   0  -3  12 240.370 6.39944   1
   0  -3  12 248.693 6.33364   2
   0  -3 -12 249.879 6.43216   3
   0   3 -12 245.554 6.20545   3
   0   3  12 245.088 6.42243   2
   0   3  12 245.287 6.45855   3
   0   3  12 246.917 6.73819   1
   0   3 -12 252.520 6.08205   1
   0   3  12 248.102 6.47490   1
   1  -3  12 199.565 5.20344   1
   1  -3  12 202.974 5.17547   3
   1  -3  12 212.448 5.21358   2
  -1  -3 -12 199.588 5.32072   1
   1  -3  12 197.909 5.25203   3
   1  -3  12 195.019 5.22162   1
  -1  -3 -12 200.498 5.23298   2
  -1  -3 -12 200.456 5.28534   2
  -1  -3 -12 209.798 5.48838   3
   1   3  12 205.386 5.43516   1
   1   3  12 203.392 5.42886   3
   1   3  12 201.873 5.77968   1
   1   3  12 205.803 5.38305   2
   2  -3  12 115.944 3.06343   3
   2  -3  12 117.825 3.05300   3
   2  -3  12 115.196 3.18117   1
   2  -3  12 118.951 3.23835   1
  -2  -3 -12 117.177 3.49236   3
   2   3  12 122.902 3.64624   1
   2   3  12 123.191 3.59609   2
   2   3  12 123.593 3.68072   3
   3   3  12 1.28060 1.16830   3
   3   3  12 2.67342 1.32870   2
   3   3  12 1.17262 1.16706   1
   4   3  12 25.7438 2.45215   2
   4   3  12 27.0143 1.90914   3
   4   3  12 26.5847 1.98346   1
   5   3  12 11.8979 2.58583   1
   5   3  12 13.8922 2.45796   3
   5  -4 -12 4.40937 2.52544   1
  -5  -4  12 -2.7085 2.64610   3
  -5  -4  12 -1.9217 2.27274   2
   5  -4 -12 2.72743 2.42770   3
   5  -4 -12 0.95946 2.48643   2
   5   4 -12 -5.3942 3.50825   1
   5   4 -12 1.03031 2.42211   2
   5   4 -12 5.54559 2.95054   3
  -4  -4  12 11.6456 2.10562   1
   4  -4 -12 16.2171 1.92778   3
  -4  -4  12 10.7169 1.77028   2
  -4  -4  12 13.2259 2.46729   3
   4  -4 -12 12.1883 1.91556   2
   4  -4 -12 12.3373 1.95518   1
   4   4 -12 10.1971 2.24131   1
   4   4 -12 12.1666 2.23807   3
  -4   4  12 14.6822 2.20730   2
   4   4 -12 11.5378 1.74179   2
  -4   4  12 12.7477 2.01121   3
  -3  -4  12 1.47002 1.31550   3
   3  -4 -12 2.76563 1.35271   3
  -3  -4  12 2.17293 1.41069   1
  -3  -4  12 4.61549 1.28999   2
   3  -4 -12 2.47572 1.28747   2
   3  -4 -12 4.37003 1.43407   1
  -3   4  12 1.37406 1.46299   1
  -3   4  12 5.02255 1.36497   2
   3   4 -12 -0.4642 1.57731   1
   3   4 -12 1.55376 1.39402   3
   3   4 -12 3.47977 1.26805   2
  -3   4  12 2.55834 1.42372   3
  -2  -4  12 9.62369 1.26568   1
  -2  -4  12 10.6619 1.22018   2
   2  -4 -12 10.1117 1.28636   1
   2  -4 -12 12.7517 1.33465   3
   2  -4 -12 10.9176 1.27191   2
  -2  -4  12 10.7402 1.26532   3
  -2   4  12 9.48209 1.39195   1
   2   4 -12 10.1026 1.08798   2
  -2   4  12 10.8828 1.33030   3
  -2   4  12 9.36036 1.21612   2
   2   4 -12 10.7781 1.25906   3
   2   4 -12 9.50492 1.27829   1
   1  -4 -12 271.149 7.18746   1
  -1  -4  12 273.919 7.10937   1
   1  -4 -12 278.900 7.17462   3
  -1  -4  12 275.495 7.09408   3
   1  -4 -12 270.276 7.04228   2
  -1  -4  12 279.444 7.07458   2
  -1   4  12 277.133 7.11930   2
  -1   4  12 262.156 7.15331   3
   1   4 -12 270.917 6.86144   2
  -1   4  12 274.072 7.19143   1
   1   4 -12 264.964 6.93684   1
   0  -4  12 31.0445 2.21996   3
   0  -4  12 31.2082 2.06077   1
   0  -4 -12 24.2862 1.57854   2
   0  -4 -12 25.7126 1.90292   1
   0  -4  12 28.5276 1.62889   3
   0  -4  12 26.7856 1.68237   2
   0  -4 -12 25.5700 1.92915   3
   0  -4  12 27.2821 1.62803   1
   0   4 -12 25.0188 1.36160   3
   0   4  12 27.8324 1.93125   1
   0   4  12 24.8009 1.88341   3
   0   4  12 27.1100 1.83980   2
   1  -4  12 365.422 9.02822   1
  -1  -4 -12 361.461 9.18074   1
   1  -4  12 373.408 9.15925   3
   1  -4  12 374.952 9.02295   2
   1  -4  12 364.788 8.98009   3
  -1  -4 -12 358.764 9.08180   2
  -1  -4 -12 360.862 9.23939   3
   1  -4  12 350.449 9.04521   1
   1   4  12 365.399 9.22287   2
   1   4  12 360.006 9.26264   3
   1   4  12 367.318 9.29453   1
   2  -4  12 530.512 13.0394   1
  -2  -4 -12 538.195 13.1343   2
   2  -4  12 514.647 13.1064   1
   2   4  12 553.361 13.4037   2
   2   4  12 545.829 13.4388   1
   2   4  12 546.462 13.4132   3
   3   4  12 5.65259 1.55387   2
   3   4  12 7.02655 1.43179   3
   3   4  12 5.62659 1.45867   1
   4   4  12 89.5111 4.01011   1
   4   4  12 84.8524 4.36154   2
   4   4  12 93.9458 4.12186   3
   5   4  12 13.9685 2.81992   1
   5   4  12 16.4825 2.70670   3
  -5  -5  12 26.0622 2.61366   2
   5  -5 -12 30.8369 2.68276   2
   5  -5 -12 26.5311 3.16947   1
  -5  -5  12 26.2486 3.37891   3
   5  -5 -12 37.2806 3.14328   3
   5   5 -12 23.5182 3.18628   3
   5   5 -12 26.7552 2.86349   2
  -4  -5  12 7.46706 2.10972   3
   4  -5 -12 8.54707 1.99203   3
   4  -5 -12 9.32209 1.83875   2
  -4  -5  12 6.55305 2.20618   1
  -4  -5  12 4.69480 1.84867   2
   4  -5 -12 5.88129 2.04691   1
   4   5 -12 4.20678 1.77292   2
   4   5 -12 5.81828 2.08648   3
  -4   5  12 3.40403 2.16460   3
  -4   5  12 8.00020 1.75286   2
   4   5 -12 7.55032 3.07989   1
  -3  -5  12 60.6160 3.32066   1
   3  -5 -12 59.5579 2.89525   2
  -3  -5  12 64.1019 3.25150   3
   3  -5 -12 63.1671 3.20600   3
   3  -5 -12 60.2230 3.31127   1
  -3  -5  12 67.2692 3.12391   2
   3   5 -12 63.2054 2.83487   2
  -3   5  12 64.4017 2.91719   2
  -3   5  12 61.9657 3.43981   3
   3   5 -12 65.5887 3.47401   3
   3   5 -12 59.8222 4.06616   1
  -3   5  12 58.9668 3.63873   1
   2  -5 -12 6.71642 1.40881   1
  -2  -5  12 7.68969 1.31165   1
  -2  -5  12 7.81620 1.31062   3
  -2  -5  12 8.65388 1.36484   2
   2  -5 -12 8.92324 1.38575   3
   2  -5 -12 9.45277 1.19567   2
  -2   5  12 9.46159 1.42274   3
   2   5 -12 6.43375 1.16526   2
  -2   5  12 5.30382 1.31962   2
  -2   5  12 6.47310 1.53930   1
   2   5 -12 8.96144 1.51396   3
   2   5 -12 9.79000 1.40488   1
   1  -5 -12 6.20933 1.35871   1
  -1  -5  12 3.90184 1.01908   3
   1  -5 -12 5.82376 1.19751   3
   1  -5 -12 4.00524 1.10640   2
  -1  -5  12 4.64562 1.10470   1
  -1   5  12 3.23733 1.17296   1
   1   5 -12 5.56157 1.41648   3
  -1   5  12 5.58562 1.15224   2
   1   5 -12 4.06644 0.82420   2
  -1   5  12 5.06229 1.23161   3
   0  -5 -12 91.5945 2.97779   2
   0  -5  12 92.0963 2.90970   3
   0  -5  12 93.2415 2.95009   1
   0  -5 -12 92.5028 3.18019   1
   0  -5 -12 93.0405 3.23093   3
   0   5  12 87.7899 3.31309   1
   0   5  12 94.3725 3.24171   3
   0   5  12 88.7970 3.09439   2
   0   5 -12 88.6963 2.70600   3
  -1  -5 -12 51.0849 2.21057   2
   1  -5  12 50.8481 2.32891   1
   1  -5  12 56.0527 1.98426   3
   1  -5  12 52.7807 2.04155   1
  -1  -5 -12 52.0514 2.60986   1
  -1  -5 -12 53.9392 2.63277   3
   1   5  12 56.0707 2.56956   3
   1   5  12 51.8487 2.41174   2
   1   5  12 51.0521 2.65988   1
  -2  -5 -12 117.755 3.97845   3
   2  -5  12 120.523 3.57650   1
   2  -5  12 124.784 3.35351   1
  -2  -5 -12 126.698 3.67866   2
   2   5  12 125.775 4.06898   3
   2   5  12 123.234 4.06700   1
   2   5  12 123.308 4.05222   2
   3   5  12 294.433 8.02194   1
   3   5  12 297.509 8.04985   3
   3   5  12 285.049 7.91819   2
   4   5  12 14.7315 2.33125   1
   4   5  12 20.6314 2.27644   3
   4   5  12 17.2900 2.81134   2
  -5  -6  12 8.09481 3.28977   3
   5  -6 -12 -2.0383 2.84417   3
   5  -6 -12 4.77597 2.95341   2
   5  -6 -12 -2.0743 3.20933   1
  -5  -6  12 -2.9383 2.61121   2
   5   6 -12 -3.5435 3.09153   2
   5   6 -12 2.09121 3.37349   3
  -4  -6  12 29.2412 3.80193   1
   4  -6 -12 24.2781 2.35497   2
  -4  -6  12 22.4681 2.65039   3
   4  -6 -12 23.3582 2.46984   3
  -4  -6  12 21.8501 2.38389   2
   4  -6 -12 20.1839 2.42405   1
   4   6 -12 23.0330 2.28411   2
   4   6 -12 21.1934 2.65778   3
  -4   6  12 21.7291 2.32849   2
  -3  -6  12 98.0147 4.53558   2
   3  -6 -12 104.739 4.27155   1
   3  -6 -12 99.1449 4.25720   3
   3  -6 -12 101.531 4.72475   2
  -3  -6  12 107.861 4.33302   1
  -3  -6  12 104.239 4.33146   3
   3   6 -12 107.642 4.59740   3
  -3   6  12 104.340 4.50696   2
  -3   6  12 109.579 4.61549   3
  -2  -6  12 175.239 5.23834   2
   2  -6 -12 180.408 5.34910   3
  -2  -6  12 174.919 5.27063   1
  -2  -6  12 175.386 5.25169   3
   2  -6 -12 180.043 5.43103   1
   2  -6 -12 173.161 5.10857   2
  -2   6  12 167.342 5.41339   1
   2   6 -12 171.492 4.93771   2
   2   6 -12 168.318 5.23955   3
  -2   6  12 181.181 5.39644   3
  -2   6  12 179.920 5.15840   2
   1  -6 -12 47.5327 2.34139   2
  -1  -6  12 46.8559 2.45824   1
   1  -6 -12 49.2391 2.94320   1
   1  -6 -12 48.5964 2.76767   3
  -1  -6  12 47.8953 2.56306   2
  -1  -6  12 48.1462 2.43642   3
  -1   6  12 49.7621 2.83800   3
  -1   6  12 44.4929 2.47959   2
  -1   6  12 49.7673 2.98749   1
   1   6 -12 44.0467 2.00834   2
   1   6 -12 42.4199 2.48774   3
   0  -6 -12 26.1469 2.35348   3
   0  -6  12 26.7799 1.89200   1
   0  -6  12 27.1470 2.07451   2
   0  -6 -12 32.0773 2.47326   1
   0  -6 -12 27.1855 1.94705   2
   0  -6  12 26.6179 1.87383   3
   0   6  12 29.1250 2.56521   1
   0   6  12 27.6744 2.45592   3
   0   6  12 23.9888 1.64134   2
   1  -6  12 81.1574 2.73571   1
  -1  -6 -12 80.9986 3.54046   1
  -1  -6 -12 83.3892 3.41610   3
   1  -6  12 85.6090 2.95143   2
  -1  -6 -12 82.1186 2.94057   2
   1  -6  12 85.2213 2.64518   3
   1   6  12 77.8237 3.52883   1
   1   6  12 82.7560 3.20296   2
   1   6  12 85.4388 3.36594   3
   2  -6  12 8.21380 0.89276   1
  -2  -6 -12 5.02515 1.27568   2
  -2  -6 -12 6.65756 1.62531   3
   2   6  12 6.35785 1.64083   1
   2   6  12 8.63136 1.63416   3
   2   6  12 7.09588 1.60920   2
  -3  -6 -12 24.5247 1.90923   2
   3   6  12 26.6958 2.28193   1
   3   6  12 25.3999 2.40268   2
   3   6  12 24.3457 2.22271   3
   4   6  12 27.4622 2.85917   1
   4   6  12 30.0576 2.84178   3
   4   6  12 30.3950 3.14431   2
  -4  -7  12 14.7037 2.42812   2
   4  -7 -12 10.7747 2.51499   3
  -4  -7  12 14.2696 3.55500   1
   4  -7 -12 13.6080 2.70896   1
   4  -7 -12 12.5143 2.28379   2
  -4  -7  12 13.5742 2.76762   3
   4   7 -12 12.1202 3.14013   3
  -4   7  12 8.89211 2.27477   2
   4   7 -12 7.87888 2.33385   2
   3  -7 -12 194.213 5.90599   2
  -3  -7  12 197.681 6.10568   2
  -3  -7  12 159.366 7.25092   1
   3  -7 -12 197.809 6.25790   3
   3  -7 -12 180.864 6.35287   1
  -3  -7  12 200.554 6.12584   3
   3   7 -12 195.796 6.36731   3
  -3   7  12 193.101 6.35255   3
  -3   7  12 190.418 5.88505   2
   3   7 -12 192.532 5.84293   2
  -2  -7  12 151.238 4.92761   1
  -2  -7  12 148.722 4.77930   2
   2  -7 -12 147.283 5.38376   3
   2  -7 -12 143.963 5.25050   1
  -2  -7  12 146.506 5.73533   3
   2   7 -12 146.796 4.94889   3
  -2   7  12 141.154 6.24019   2
  -2   7  12 144.170 5.10522   3
   2   7 -12 143.021 4.39643   2
  -2   7  12 143.922 5.82161   1
  -1  -7  12 229.277 6.33937   1
   1  -7 -12 218.808 6.22912   2
   1  -7 -12 217.198 6.57475   1
   1  -7 -12 223.117 6.50640   3
  -1  -7  12 222.433 6.23690   3
  -1  -7  12 232.020 6.34056   2
  -1   7  12 220.988 6.34683   2
   1   7 -12 232.344 6.99211   3
   1   7 -12 225.961 5.85479   2
  -1   7  12 235.283 6.65342   3
  -1   7  12 218.789 6.55401   1
   0  -7  12 42.1224 2.27833   3
   0  -7  12 40.9086 2.33093   1
   0  -7  12 43.7175 2.52590   2
   0  -7 -12 45.2684 2.83297   3
   0  -7 -12 42.9834 2.38629   2
   0  -7 -12 41.6367 3.08528   1
   0   7  12 39.5976 3.27258   1
   0   7  12 44.0822 3.07194   3
   0   7  12 40.2476 2.65916   2
  -1  -7 -12 0.68433 1.34764   2
   1  -7  12 0.94447 1.03102   1
   1  -7  12 2.40504 0.97502   3
   1  -7  12 3.84509 1.37309   2
  -1  -7 -12 1.80136 1.66231   3
   1   7  12 2.74825 1.54549   2
   1   7  12 4.14746 1.61416   3
   1   7  12 1.63085 1.73467   1
  -2  -7 -12 4.10244 1.49867   2
  -2  -7 -12 5.05874 1.90462   3
   2  -7  12 3.70065 1.00344   1
   2   7  12 2.21102 1.80310   2
   2   7  12 1.91664 1.83825   3
   3   7  12 6.86557 2.33647   3
   3   7  12 4.60920 2.36339   1
   3   7  12 4.17213 2.48754   2
   4   7  12 2.54465 3.41268   2
   4   7  12 1.96920 3.04753   1
   4   7  12 -3.8231 3.01356   3
   4  -8 -12 17.3532 2.98539   3
   4  -8 -12 22.1073 2.86849   2
   4  -8 -12 19.8247 3.43880   1
  -4  -8  12 15.3583 2.85914   2
  -4  -8  12 16.8909 3.22820   3
   4   8 -12 21.6618 4.09849   3
   4   8 -12 22.3813 3.18158   2
   3  -8 -12 0.68793 2.13425   3
   3  -8 -12 0.41724 1.99835   2
  -3  -8  12 -2.4708 2.67228   1
  -3  -8  12 2.68960 2.08608   2
   3  -8 -12 3.97696 2.64285   1
  -3  -8  12 2.78682 2.07696   3
   3   8 -12 0.57495 1.97742   2
  -3   8  12 2.68393 2.07773   2
   3   8 -12 3.84132 3.17626   3
  -2  -8  12 198.946 6.25649   1
   2  -8 -12 191.619 5.89811   2
  -2  -8  12 194.149 6.05851   2
   2  -8 -12 197.339 6.31195   3
  -2  -8  12 196.160 6.06779   3
   2  -8 -12 199.665 6.67589   1
  -2   8  12 188.238 6.63682   3
  -2   8  12 190.639 5.92504   2
   2   8 -12 184.463 5.77407   2
  -1  -8  12 74.4451 3.48361   1
  -1  -8  12 75.6139 3.94716   2
   1  -8 -12 74.2803 3.95967   1
   1  -8 -12 72.8876 3.30831   2
   1  -8 -12 76.1243 5.31206   3
  -1  -8  12 77.4319 3.42510   3
  -1   8  12 77.9076 4.12707   3
  -1   8  12 82.8295 4.59864   1
  -1   8  12 77.3551 3.67902   2
   0  -8  12 132.390 4.20287   1
   0  -8 -12 133.553 4.67016   3
   0  -8 -12 123.077 4.27477   2
   0  -8  12 124.589 4.29264   2
   0  -8 -12 118.393 5.33751   1
   0   8  12 124.233 5.02319   1
   0   8  12 129.332 4.54279   2
   1  -8  12 58.0280 2.77539   1
  -1  -8 -12 53.7534 3.90091   3
   1  -8  12 61.0324 2.52993   3
  -1  -8 -12 59.8286 3.09194   2
   1   8  12 64.0384 3.96619   3
   1   8  12 64.8303 4.57568   1
   1   8  12 60.3406 3.48098   2
  -2  -8 -12 16.5451 2.71514   3
   2  -8  12 18.3175 1.40030   1
  -2  -8 -12 18.9953 2.04835   2
   2   8  12 18.2561 2.49212   3
   2   8  12 20.3123 2.65749   1
   2   8  12 16.2619 2.39075   2
  -3  -8 -12 27.0141 3.01117   2
   3   8  12 21.0384 3.11395   1
   3   8  12 19.2055 3.03460   3
   3   8  12 23.0498 2.95007   2
  -3  -9  12 13.0682 2.59023   3
   3  -9 -12 14.0296 2.76534   3
  -3  -9  12 15.8604 2.88212   2
  -3  -9  12 15.1112 3.18731   1
   3  -9 -12 18.3023 3.39685   1
   3  -9 -12 15.5219 2.50747   2
   3   9 -12 22.9359 2.91077   2
  -3   9  12 19.1941 2.72784   2
  -2  -9  12 9.04191 2.07442   3
   2  -9 -12 10.4326 2.61743   1
  -2  -9  12 3.44614 2.12341   2
   2  -9 -12 2.52036 2.04226   2
   2  -9 -12 6.37245 2.28485   3
  -2  -9  12 6.36503 2.20651   1
  -2   9  12 2.95279 2.31434   2
  -2   9  12 5.65487 2.79480   3
   2   9 -12 7.42271 2.05166   2
   1  -9 -12 37.0463 3.14471   2
   1  -9 -12 40.7508 2.76068   3
  -1  -9  12 41.6438 3.34229   1
  -1  -9  12 34.9526 2.57264   2
   1  -9 -12 41.0188 2.98453   1
  -1  -9  12 40.3127 3.24565   3
  -1   9  12 36.2982 2.72555   2
  -1   9  12 40.1184 3.20076   3
   0  -9 -12 95.1004 3.97598   2
   0  -9 -12 88.8606 4.51207   3
   0  -9  12 93.0915 3.86804   1
   0  -9  12 95.0068 3.72349   3
   0  -9  12 91.1364 4.35931   2
   0   9  12 95.5152 5.03432   3
   0   9  12 93.9745 6.02197   1
   0   9  12 95.9793 4.31254   2
  -1  -9 -12 46.8231 3.40971   2
  -1  -9 -12 51.6096 4.44698   3
   1  -9  12 52.6195 2.99521   1
   1  -9  12 48.8100 2.81842   3
   1   9  12 48.0843 3.90218   2
   1   9  12 46.1792 3.46367   1
   1   9  12 48.7247 4.44429   3
  -2  -9 -12 42.3752 3.78369   2
   2  -9  12 39.2612 2.89375   1
   2   9  12 39.3361 3.36415   3
   2   9  12 40.6083 3.68088   1
   2   9  12 51.7973 4.51143   2
  -2 -10  12 21.3889 3.07960   2
  -2 -10  12 24.2735 3.04439   1
   2 -10 -12 19.5289 3.51179   1
  -2 -10  12 17.0252 2.61756   3
   2 -10 -12 17.0186 2.96090   3
   2 -10 -12 18.9623 2.74132   2
  -2  10  12 18.8388 2.88341   2
  -1 -10  12 8.79422 2.64449   2
  -1 -10  12 8.89706 2.16462   3
   1 -10 -12 7.50100 2.13270   2
  -1 -10  12 4.97765 2.23961   1
   1 -10 -12 8.94163 2.84935   3
  -1  10  12 5.74497 2.64493   2
  -1  10  12 6.47415 3.27400   3
   0 -10 -12 18.2519 2.34098   2
   0 -10  12 17.4035 2.07155   3
   0 -10 -12 12.9751 2.73261   3
   0 -10  12 19.9108 2.18679   1
   0  10  12 13.9177 2.79121   2
   0  10  12 23.4835 3.31499   3
  -1 -10 -12 75.3334 4.42710   2
  -1 -10 -12 84.7734 5.63424   3
   1 -10  12 77.7184 3.89701   1
   1 -10  12 82.4325 3.69140   3
   1  10  12 68.7231 5.09531   2
   1  10  12 72.3013 4.26605   3
   5   0 -13 14.0088 2.50310   3
   5   0 -13 15.3051 2.35109   2
  -5   0  13 13.9988 2.24822   2
   5   0 -13 18.7953 2.88823   1
  -5   0  13 13.5314 2.46776   3
   4   0 -13 6.38359 1.53406   2
  -4   0  13 5.37980 1.70907   3
  -4   0  13 8.15131 1.58007   2
   4   0 -13 7.49454 1.92034   1
   4   0 -13 6.52929 1.69093   3
  -4   0  13 6.94872 1.83414   1
   3   0 -13 92.4042 3.21894   2
  -3   0  13 95.3994 3.28419   2
  -3   0  13 92.0522 3.51242   1
   3   0 -13 94.8534 3.72922   1
  -3   0  13 96.7471 3.51986   3
   3   0 -13 90.0587 3.46358   3
   2   0 -13 22.1996 1.61825   2
  -2   0  13 19.4954 1.74550   2
  -2   0  13 24.9160 1.98419   1
  -2   0  13 21.6393 1.96489   3
   2   0 -13 23.3447 2.01161   3
   1   0 -13 25.7335 1.74524   1
  -1   0  13 22.9101 1.71444   3
  -1   0  13 25.1574 1.95363   1
   1   0 -13 24.8647 1.70900   3
   1   0 -13 25.6250 1.44885   2
  -1   0  13 25.7261 1.64383   1
  -1   0  13 24.4649 1.62131   2
   0   0 -13 58.3967 1.96879   2
   0   0 -13 57.7839 2.08339   3
   0   0  13 56.7718 2.13964   2
   0   0  13 59.3791 2.16753   1
   0   0 -13 57.2553 1.90681   2
   0   0  13 55.2057 2.49313   1
   0   0  13 59.3403 2.22187   3
   0   0  13 60.1707 2.69080   3
   0   0 -13 62.0412 2.11092   1
  -1   0 -13 641.755 15.5037   3
   1   0  13 654.321 15.6748   3
   1   0  13 651.775 15.6353   3
   1   0  13 616.971 15.6337   1
   1   0  13 629.003 15.6763   1
   1   0  13 655.956 15.6280   2
   2   0  13 36.1719 1.92579   1
   2   0  13 37.3846 1.87415   2
   2   0  13 37.8681 1.74090   1
   2   0  13 35.5180 1.73213   3
   3   0  13 36.9074 1.79435   3
   3   0  13 38.1621 1.88445   1
   3   0  13 35.1636 2.75893   2
   4   0  13 55.6357 2.51320   1
   5   0  13 0.25114 1.64035   1
  -5  -1  13 9.53336 2.49241   3
  -5  -1  13 9.82000 2.20362   2
   5  -1 -13 12.8667 2.36965   3
   5  -1 -13 9.26902 2.82866   1
   5  -1 -13 13.7457 2.44739   2
  -5   1  13 12.2784 2.13644   2
   5   1 -13 12.2904 2.32273   2
  -5   1  13 10.3958 3.14589   3
   5   1 -13 8.92232 2.78722   1
   5   1 -13 12.3570 2.54560   3
  -4  -1  13 107.010 4.67355   2
   4  -1 -13 121.660 4.42327   2
   4  -1 -13 125.131 4.42678   3
  -4  -1  13 118.333 4.48124   1
   4  -1 -13 114.147 4.66950   1
  -4  -1  13 119.310 4.43592   3
   4   1 -13 114.613 4.77949   1
   4   1 -13 118.060 4.72217   2
   4   1 -13 116.140 4.47456   3
  -4   1  13 118.869 4.45876   3
  -4   1  13 109.395 4.88443   1
  -4   1  13 117.785 4.04864   2
  -3  -1  13 12.9105 1.51795   1
  -3  -1  13 14.8439 1.52064   2
  -3  -1  13 14.9314 1.55912   3
   3  -1 -13 10.6561 1.26092   2
   3  -1 -13 12.3220 1.41672   3
   3  -1 -13 15.1250 1.61834   1
  -3   1  13 14.7380 1.48304   3
   3   1 -13 13.8226 1.51170   3
  -3   1  13 11.7847 1.30875   2
   3   1 -13 14.0000 1.34075   2
  -3   1  13 16.2022 1.67498   1
   3   1 -13 14.1634 1.65504   1
   2  -1 -13 14.7342 1.31433   3
  -2  -1  13 11.9620 1.25065   1
   2  -1 -13 14.7065 1.20957   2
  -2  -1  13 14.6837 1.32387   2
  -2  -1  13 12.4058 1.26911   3
   2  -1 -13 11.9143 1.40096   1
   2   1 -13 12.7252 1.11537   2
  -2   1  13 10.5319 1.25768   1
  -2   1  13 10.4644 1.20455   3
   2   1 -13 12.8333 1.24057   1
   2   1 -13 11.2952 1.19279   3
  -2   1  13 13.1195 1.31569   2
   1  -1 -13 94.7838 3.05425   3
  -1  -1  13 94.9790 3.79416   1
  -1  -1  13 96.4727 3.04043   3
  -1  -1  13 94.5688 2.98701   2
  -1  -1  13 96.7193 3.05982   1
   1  -1 -13 92.9805 3.00786   1
   1  -1 -13 95.5235 2.87583   2
   1   1 -13 95.1492 2.96173   1
  -1   1  13 92.0606 2.98670   2
   1   1 -13 95.3156 3.00969   3
  -1   1  13 96.7806 3.07367   1
  -1   1  13 99.0313 3.12073   3
   1   1 -13 94.0967 2.80801   2
   0  -1  13 102.696 3.00364   2
   0  -1  13 97.0443 2.94671   1
   0  -1  13 93.6804 3.22780   1
   0  -1 -13 101.379 2.98805   3
   0  -1  13 100.658 3.00651   3
   0  -1  13 90.8316 3.43603   3
   0  -1 -13 95.8130 2.82119   2
   0  -1 -13 100.380 2.93969   2
   0   1  13 98.0029 3.43953   1
   0   1 -13 101.164 2.89532   3
   0   1  13 97.9790 3.05193   1
   0   1  13 99.4778 3.05533   3
   0   1 -13 98.9890 2.70737   2
   0   1 -13 96.5321 2.80917   1
   0   1  13 101.580 2.99026   2
   0   1 -13 99.3495 2.68787   2
   1  -1  13 0.74120 0.74632   3
   1  -1  13 2.50027 0.75686   1
   1  -1  13 0.93488 0.83653   2
  -1  -1 -13 0.62035 0.84443   1
  -1  -1 -13 2.26200 0.78710   3
   1  -1  13 2.57890 0.92608   1
   1   1  13 3.23689 0.90661   2
  -1   1 -13 2.12266 0.62031   3
   1   1  13 1.80293 0.87171   3
   1   1  13 1.02780 0.81301   1
   1   1  13 -1.0122 1.30703   3
   2  -1  13 87.2914 2.65027   2
   2  -1  13 86.9929 2.61909   3
   2  -1  13 85.7847 2.64643   1
   2   1  13 87.6576 2.77566   3
   2   1  13 87.1626 3.61643   1
   2   1  13 85.5921 2.81771   2
   2   1  13 89.6212 2.78490   1
   3  -1  13 93.0414 2.66892   3
   3  -1  13 94.8267 3.04078   1
   3  -1  13 96.8067 2.87662   1
   3   1  13 99.7664 3.09514   3
   3   1  13 98.0765 3.41024   2
   3   1  13 99.6373 3.16222   1
   4  -1  13 7.69590 1.08548   1
   4   1  13 9.06728 1.32500   3
   4   1  13 8.05288 1.45104   1
   5   1  13 8.91855 1.95275   1
   5  -2 -13 74.2512 4.71773   3
   5  -2 -13 68.6555 5.38257   1
  -5  -2  13 64.0763 4.99665   3
  -5  -2  13 75.0518 4.10874   2
   5  -2 -13 77.4521 4.20647   2
   5   2 -13 64.1626 4.22246   2
   5   2 -13 60.8785 5.49067   1
   5   2 -13 74.6675 4.89653   3
   4  -2 -13 16.7365 3.18834   2
   4  -2 -13 17.7935 3.28311   3
  -4  -2  13 14.7642 2.04615   1
  -4  -2  13 15.6711 1.84075   3
   4  -2 -13 21.4404 2.11324   1
  -4   2  13 14.3008 2.03905   2
   4   2 -13 22.5747 2.26683   1
  -4   2  13 19.7189 2.07201   3
   4   2 -13 20.2107 2.11666   3
   4   2 -13 21.5536 2.60489   2
  -3  -2  13 80.7900 3.06838   2
  -3  -2  13 82.4705 3.32645   3
   3  -2 -13 80.9319 2.98002   2
  -3  -2  13 75.7460 3.24460   1
   3  -2 -13 81.5588 3.37447   1
   3  -2 -13 79.0678 3.29810   3
  -3   2  13 77.7887 3.48152   1
  -3   2  13 78.2837 3.36637   3
  -3   2  13 82.2892 3.06847   2
   3   2 -13 78.3410 2.97456   2
   3   2 -13 78.4995 3.46882   1
   3   2 -13 82.0626 3.42710   3
  -2  -2  13 33.6614 2.16680   1
   2  -2 -13 37.8333 2.32705   1
  -2  -2  13 33.2170 2.08825   2
   2  -2 -13 34.3462 2.24902   3
  -2  -2  13 35.7328 2.20512   3
   2  -2 -13 35.0360 1.90732   2
  -2   2  13 33.8288 1.98547   2
  -2   2  13 35.2087 2.26736   3
   2   2 -13 34.2477 1.84451   2
   2   2 -13 35.7313 2.13100   1
   2   2 -13 35.7521 2.17244   3
  -2   2  13 36.9432 2.20198   1
   1  -2 -13 67.8851 2.54144   1
   1  -2 -13 65.9950 2.52768   3
   1  -2 -13 64.1982 2.30775   2
  -1  -2  13 67.7059 2.40712   2
  -1  -2  13 64.6458 2.46574   1
  -1  -2  13 67.4066 2.48188   3
  -1  -2  13 63.2478 3.12344   1
   1   2 -13 68.0041 2.38386   1
   1   2 -13 68.0004 2.18853   2
  -1   2  13 66.3907 2.56504   1
  -1   2  13 64.6032 2.51710   3
   1   2 -13 66.4431 2.46118   3
  -1   2  13 65.0347 2.46719   2
   0  -2  13 35.4207 1.74025   1
   0  -2  13 33.1364 1.80444   3
   0  -2 -13 35.9059 1.61876   2
   0  -2  13 36.3965 1.79273   2
   0  -2  13 30.5963 2.43168   3
   0  -2 -13 35.7661 1.90607   3
   0  -2  13 34.3012 2.45410   1
   0  -2 -13 33.5672 1.88484   1
   0   2 -13 36.3468 1.60528   3
   0   2  13 38.4562 1.85599   3
   0   2  13 37.3145 1.82113   2
   0   2  13 33.4368 1.81214   1
   0   2 -13 35.1860 1.52300   1
   1  -2  13 36.3689 1.65853   3
   1  -2  13 37.2456 1.60454   1
  -1  -2 -13 37.3373 1.90924   1
  -1  -2 -13 36.3421 1.51537   2
   1  -2  13 35.2414 2.08260   3
   1  -2  13 36.8022 1.87508   1
  -1  -2 -13 37.1360 1.83401   3
  -1  -2 -13 41.6669 1.67404   2
   1   2  13 38.1266 1.92413   2
   1   2  13 37.1037 1.95148   1
   1   2  13 37.7506 2.56654   1
   1   2  13 35.6679 1.87247   3
   2  -2  13 19.3601 1.49075   2
   2  -2  13 17.3777 1.17176   3
   2  -2  13 17.1493 1.10054   1
   2  -2  13 16.8878 1.30108   1
  -2  -2 -13 19.0039 1.74884   3
   2   2  13 17.9200 1.27451   3
   2   2  13 17.1475 1.29408   2
   2   2  13 16.2373 1.27649   1
   3  -2  13 3.87503 0.81640   1
   3  -2  13 3.67063 0.90124   1
   3   2  13 3.30670 1.20860   1
   3   2  13 2.40910 1.22207   3
   3   2  13 4.24714 1.40815   2
   4   2  13 16.8095 1.82875   1
   4   2  13 15.9650 1.96407   3
   5   2  13 6.10884 2.15412   1
  -5  -3  13 6.44738 2.30342   2
   5  -3 -13 6.00981 2.37524   2
  -5  -3  13 7.79845 2.74618   3
   5  -3 -13 3.33346 2.85216   1
   5  -3 -13 5.83040 2.47559   3
   5   3 -13 0.40444 2.23753   2
   5   3 -13 0.04771 2.62461   3
   5   3 -13 2.26844 3.55795   1
  -4  -3  13 75.5359 4.10726   1
  -4  -3  13 79.3475 3.59614   2
   4  -3 -13 79.8652 3.82353   3
  -4  -3  13 66.7248 4.47293   3
   4  -3 -13 75.2206 4.02900   1
   4  -3 -13 71.7765 3.47923   2
  -4   3  13 74.2326 4.10078   2
   4   3 -13 75.0034 3.48896   2
   4   3 -13 77.1450 4.42788   3
  -4   3  13 80.6584 4.18236   3
   4   3 -13 74.0875 4.36096   1
  -3  -3  13 9.42088 1.41445   2
   3  -3 -13 12.0044 1.59503   3
   3  -3 -13 12.7027 1.61226   1
  -3  -3  13 10.7398 1.58498   1
  -3  -3  13 10.8809 1.51184   3
   3  -3 -13 14.2784 1.53024   2
   3   3 -13 12.4661 1.31237   2
  -3   3  13 15.5868 1.69752   1
   3   3 -13 13.0451 1.57887   3
   3   3 -13 12.9546 1.71457   1
  -3   3  13 13.6624 1.62272   3
  -3   3  13 11.2497 1.41004   2
  -2  -3  13 112.015 3.65901   3
   2  -3 -13 107.103 3.70519   1
   2  -3 -13 112.733 3.64456   3
  -2  -3  13 105.991 3.53238   2
  -2  -3  13 106.061 3.61958   1
   2  -3 -13 106.367 3.42771   2
  -2   3  13 110.388 3.66970   1
   2   3 -13 115.061 3.57512   3
   2   3 -13 115.028 3.61643   1
  -2   3  13 103.386 3.47082   2
   2   3 -13 107.035 3.32040   2
  -2   3  13 112.837 3.72382   3
   1  -3 -13 28.4490 1.98317   1
  -1  -3  13 31.5519 1.92275   1
   1  -3 -13 28.2812 2.12077   3
   1  -3 -13 32.2980 1.79262   2
  -1  -3  13 34.3414 1.86199   2
  -1  -3  13 30.1329 1.98213   3
   1   3 -13 29.8152 1.91890   1
  -1   3  13 32.1112 2.07295   3
   1   3 -13 30.7911 1.57355   2
  -1   3  13 34.0841 1.88683   2
  -1   3  13 32.7904 2.09545   1
   1   3 -13 29.2209 2.38031   3
   0  -3  13 230.853 6.04802   1
   0  -3  13 236.549 6.04510   3
   0  -3 -13 234.370 6.12178   1
   0  -3 -13 230.464 6.14855   3
   0  -3 -13 233.060 6.02406   2
   0  -3  13 231.516 6.03286   2
   0  -3  13 229.478 6.16645   1
   0   3  13 231.871 6.20114   3
   0   3  13 230.198 6.13444   2
   0   3  13 236.976 6.22012   1
   0   3 -13 228.273 5.87753   3
  -1  -3 -13 45.2889 1.80231   2
  -1  -3 -13 46.7656 2.19462   1
   1  -3  13 43.8367 1.80053   1
   1  -3  13 42.0541 2.03840   1
   1  -3  13 44.1638 1.78076   3
   1   3  13 43.4294 2.15520   1
   1   3  13 42.1792 2.15671   3
   1   3  13 39.5651 2.06957   2
   2  -3  13 22.8410 1.36389   1
   2  -3  13 23.2296 1.63971   1
  -2  -3 -13 23.6590 1.95055   3
   2  -3  13 22.6785 1.14626   3
   2   3  13 22.6684 1.49211   3
   2   3  13 24.4844 1.99259   2
   2   3  13 22.8468 2.00613   1
   3   3  13 33.6319 2.38906   3
   3   3  13 37.5717 2.75999   1
   3   3  13 30.1491 1.98911   2
   4   3  13 13.9305 1.91205   1
   4   3  13 13.5751 1.79468   3
   5   3  13 17.7222 2.88446   1
   5  -4 -13 14.2560 2.83951   3
   5  -4 -13 23.3789 3.25706   1
  -5  -4  13 15.1411 3.18572   3
  -5  -4  13 13.8489 2.55023   2
   5  -4 -13 15.4935 2.46832   2
   5   4 -13 12.9596 2.54271   2
   5   4 -13 20.3837 3.10675   3
  -5   4  13 19.1700 2.66196   2
  -4  -4  13 4.73117 2.19158   1
  -4  -4  13 2.51507 1.97139   3
   4  -4 -13 6.48974 1.76307   2
   4  -4 -13 9.01334 2.01589   3
  -4  -4  13 5.88465 1.97595   2
   4   4 -13 11.3205 2.81379   1
  -4   4  13 8.77751 1.86141   2
  -4   4  13 9.22410 2.10180   3
   4   4 -13 8.95436 2.23298   3
   4   4 -13 5.56373 1.78094   2
   3  -4 -13 67.8994 3.48558   1
   3  -4 -13 70.1433 2.98640   2
   3  -4 -13 70.1672 3.33888   3
  -3  -4  13 71.7383 3.40555   1
  -3  -4  13 67.7708 3.15224   2
  -3  -4  13 67.9466 3.30580   3
   3   4 -13 69.4318 3.35068   3
  -3   4  13 70.0686 3.50740   1
   3   4 -13 69.7479 3.84547   1
  -3   4  13 70.1819 3.43904   3
  -3   4  13 70.1523 3.07293   2
   3   4 -13 71.9982 2.92535   2
   2  -4 -13 98.4877 3.52096   3
   2  -4 -13 93.3526 3.26337   2
  -2  -4  13 96.2884 3.46225   1
  -2  -4  13 95.7848 3.43374   3
  -2  -4  13 94.1228 3.38270   2
   2  -4 -13 100.900 3.64931   1
  -2   4  13 99.0240 3.34572   2
   2   4 -13 94.2424 3.13955   2
   2   4 -13 101.931 3.49056   3
  -2   4  13 98.9467 3.71334   1
   2   4 -13 100.520 3.48128   1
  -2   4  13 98.1476 3.56618   3
   1  -4 -13 34.3381 1.85641   2
   1  -4 -13 31.7796 2.37377   1
   1  -4 -13 30.1135 2.28534   3
  -1  -4  13 32.3862 2.02381   2
  -1  -4  13 33.0657 2.05588   3
  -1  -4  13 29.8671 1.99405   1
   1   4 -13 32.6718 1.59970   2
  -1   4  13 32.4775 2.26262   3
  -1   4  13 28.3934 1.98990   2
  -1   4  13 27.9103 2.19804   1
   1   4 -13 28.3359 2.40244   3
   0  -4  13 169.880 4.61023   3
   0  -4  13 174.065 4.64206   2
   0  -4 -13 171.141 4.81510   3
   0  -4 -13 171.378 4.63403   2
   0  -4  13 169.109 4.64156   1
   0  -4 -13 164.436 4.79055   1
   0   4 -13 162.861 4.41200   3
   0   4  13 168.052 4.82909   3
   0   4  13 166.272 4.86743   1
   0   4  13 167.341 4.76893   2
  -1  -4 -13 44.5269 2.03455   2
   1  -4  13 46.3357 2.10607   2
   1  -4  13 48.5991 1.89557   3
   1  -4  13 42.0209 2.20055   1
  -1  -4 -13 46.0560 2.54815   3
   1  -4  13 45.6487 1.93194   1
   1   4  13 44.1117 2.23362   2
   1   4  13 47.2999 2.36733   3
   1   4  13 46.8606 2.35429   1
  -2  -4 -13 34.7494 2.65132   3
  -2  -4 -13 38.9447 1.89222   2
   2  -4  13 34.6967 2.04769   1
   2  -4  13 31.7292 1.59970   1
   2   4  13 38.8464 2.39058   2
   2   4  13 39.3017 2.41045   3
   2   4  13 35.0249 2.40514   1
   3   4  13 137.547 4.63298   2
   3   4  13 141.817 4.60213   1
   4   4  13 8.98015 2.09403   1
   4   4  13 13.6603 2.00087   3
  -5  -5  13 20.9119 3.58727   3
   5  -5 -13 19.9465 3.14689   3
  -5  -5  13 23.7442 3.08124   2
   5  -5 -13 23.3434 3.76153   1
   5  -5 -13 14.9584 3.02748   2
  -5   5  13 21.6777 3.35041   2
   5   5 -13 17.0182 3.46191   3
   5   5 -13 16.2053 3.22686   2
   4  -5 -13 2.23224 2.12294   3
   4  -5 -13 2.36677 2.23264   1
  -4  -5  13 4.19450 2.01297   2
  -4  -5  13 3.88325 2.08843   3
   4  -5 -13 1.13375 1.76691   2
  -4  -5  13 3.15669 2.40168   1
   4   5 -13 1.53268 1.94559   2
   4   5 -13 5.76063 2.36458   3
  -4   5  13 2.43986 2.39139   3
  -4   5  13 6.20631 1.84194   2
  -3  -5  13 1.09464 1.93471   2
  -3  -5  13 -2.0155 1.63965   3
   3  -5 -13 -0.4953 1.67472   1
   3  -5 -13 1.14886 1.70027   3
   3  -5 -13 2.50268 2.49085   2
  -3  -5  13 2.05292 1.73508   1
  -3   5  13 1.91011 1.52568   2
   3   5 -13 -0.9483 1.37746   2
  -3   5  13 1.26866 1.71375   3
   3   5 -13 -0.7938 1.92339   3
   2  -5 -13 10.8581 1.77406   1
   2  -5 -13 11.7691 1.33707   2
   2  -5 -13 12.7229 1.57212   3
  -2  -5  13 8.74312 1.47396   2
  -2  -5  13 11.9856 1.40026   3
  -2  -5  13 12.0411 1.50475   1
  -2   5  13 11.9143 1.44941   2
   2   5 -13 10.9447 1.32118   2
   2   5 -13 14.5655 1.69226   3
  -2   5  13 12.7735 1.59034   3
  -2   5  13 10.9988 1.78637   1
   1  -5 -13 77.4905 2.88331   2
  -1  -5  13 79.0165 2.95347   3
   1  -5 -13 75.5841 3.29680   1
   1  -5 -13 81.0613 3.29032   3
  -1  -5  13 83.1592 3.03752   1
   1   5 -13 75.8040 3.12299   3
  -1   5  13 81.6615 3.25895   3
  -1   5  13 80.1922 3.23623   1
  -1   5  13 83.8224 3.04436   2
   1   5 -13 78.1997 2.54580   2
   0  -5  13 221.216 5.87795   1
   0  -5 -13 220.626 6.09262   3
   0  -5  13 214.837 5.80582   3
   0  -5  13 218.855 5.88972   2
   0  -5 -13 221.717 5.88771   2
   0  -5 -13 217.337 6.05602   1
   0   5  13 219.956 6.05436   2
   0   5  13 220.328 6.18422   1
   0   5  13 217.293 6.10622   3
  -1  -5 -13 14.1494 1.56043   3
   1  -5  13 14.3880 1.15928   1
  -1  -5 -13 17.7654 1.36630   2
   1  -5  13 15.1292 1.04252   3
   1   5  13 15.1250 1.44424   2
   1   5  13 16.4770 1.53768   1
   1   5  13 16.2512 1.55143   3
  -2  -5 -13 86.5867 3.15964   2
  -2  -5 -13 89.0104 3.82248   3
   2  -5  13 92.4665 3.34722   1
   2  -5  13 89.3569 2.67960   1
   2   5  13 87.5311 3.52413   3
   2   5  13 91.2264 3.60065   1
   2   5  13 88.2971 3.50575   2
   3   5  13 142.926 5.07163   2
   3   5  13 149.554 5.08426   1
   3   5  13 144.385 5.01982   3
   4   5  13 63.6817 4.51053   3
   4   5  13 62.3147 4.38840   1
   4   5  13 58.2548 4.87790   2
   4  -6 -13 59.3064 5.12723   1
  -4  -6  13 60.8531 5.47999   1
  -4  -6  13 46.9242 4.04507   2
   4  -6 -13 53.9062 3.76935   2
  -4  -6  13 52.1883 4.75026   3
   4  -6 -13 54.2547 4.58922   3
  -4   6  13 58.8466 3.99246   2
   4   6 -13 63.7051 3.94387   2
   4   6 -13 58.4405 3.79440   3
  -3  -6  13 9.44336 2.07400   1
   3  -6 -13 8.47036 2.16318   1
  -3  -6  13 13.3086 1.96508   3
   3  -6 -13 11.8271 1.97967   3
  -3  -6  13 12.8566 2.03515   2
   3  -6 -13 12.7508 1.85245   2
  -3   6  13 11.6906 1.84310   2
  -3   6  13 10.4392 2.29726   3
   3   6 -13 12.4926 1.86068   2
   3   6 -13 13.6117 2.21043   3
   2  -6 -13 18.8108 2.06512   1
  -2  -6  13 20.3462 1.86147   2
   2  -6 -13 19.2390 1.66422   2
  -2  -6  13 15.8934 1.74479   1
  -2  -6  13 17.7652 1.71278   3
   2  -6 -13 17.9015 1.81088   3
   2   6 -13 16.6889 1.75905   3
   2   6 -13 15.4648 1.45674   2
  -2   6  13 19.7383 1.82234   2
  -2   6  13 16.1839 1.93783   1
  -2   6  13 18.1676 1.90515   3
   1  -6 -13 36.7586 2.86857   3
   1  -6 -13 39.8378 2.34549   2
  -1  -6  13 35.7000 2.40200   1
  -1  -6  13 38.7477 2.49256   2
  -1  -6  13 38.6701 2.41170   3
   1  -6 -13 39.2782 2.90642   1
  -1   6  13 38.5419 2.57479   2
  -1   6  13 45.3710 2.92262   3
   1   6 -13 37.1737 1.95923   2
  -1   6  13 38.3733 3.09587   1
   1   6 -13 38.0649 2.78903   3
   0  -6  13 60.2689 2.50009   1
   0  -6 -13 59.3025 3.06049   3
   0  -6 -13 55.8708 2.57111   2
   0  -6  13 56.8821 2.63802   2
   0  -6 -13 57.9927 3.18890   1
   0  -6  13 58.5206 2.47996   3
   0   6  13 57.2690 3.03433   3
   0   6  13 53.0817 2.81128   2
   0   6  13 62.0939 3.18174   1
   1  -6  13 139.846 4.23685   2
   1  -6  13 139.806 4.03562   1
  -1  -6 -13 133.974 4.66460   3
  -1  -6 -13 140.841 4.24587   2
   1  -6  13 138.659 3.91190   3
   1   6  13 135.401 4.61674   3
   1   6  13 141.186 4.76248   1
   1   6  13 140.535 4.44736   2
   2  -6  13 31.5876 1.73553   1
  -2  -6 -13 27.9791 2.38084   3
  -2  -6 -13 37.6211 2.59935   2
   2   6  13 27.3879 2.14369   3
   2   6  13 30.8943 2.35267   2
   3   6  13 27.8674 2.49401   3
   3   6  13 36.1181 2.56940   1
   3   6  13 37.8651 2.81627   2
   4   6  13 36.2282 3.11912   3
   4   6  13 50.8639 3.97354   2
   4   6  13 43.7527 3.31334   1
   4  -7 -13 47.7912 3.34218   3
  -4  -7  13 45.1316 3.34523   2
   4  -7 -13 35.3087 3.68602   1
   4  -7 -13 43.4186 2.89438   2
  -4  -7  13 41.7707 3.33625   3
  -4  -7  13 54.1970 6.08831   1
   4   7 -13 39.9355 3.02185   2
   4   7 -13 43.3817 3.82734   3
  -4   7  13 40.2270 2.98387   2
  -3  -7  13 49.0800 4.32113   1
  -3  -7  13 48.3162 3.72175   2
   3  -7 -13 44.3810 3.21271   1
   3  -7 -13 50.7145 3.55628   2
   3  -7 -13 46.6029 4.06400   3
  -3  -7  13 50.1835 3.78896   3
   3   7 -13 49.5328 3.31122   2
  -3   7  13 40.2451 3.57555   2
   3   7 -13 47.0768 3.14193   3
  -2  -7  13 47.2741 3.22728   3
   2  -7 -13 45.3834 2.80806   1
  -2  -7  13 46.3858 3.53329   1
   2  -7 -13 47.3204 3.45764   3
   2  -7 -13 47.7860 3.01264   2
   2   7 -13 44.1906 4.00017   3
  -2   7  13 43.9115 3.63585   3
  -2   7  13 49.8632 3.11613   2
   2   7 -13 41.7798 2.80203   2
  -1  -7  13 82.5250 4.71380   1
  -1  -7  13 89.7865 3.54932   2
   1  -7 -13 89.2672 4.00886   3
   1  -7 -13 65.9407 4.84570   2
   1  -7 -13 82.1150 3.86533   1
  -1  -7  13 80.5335 4.14971   3
  -1   7  13 88.6042 4.06846   3
  -1   7  13 74.6195 3.87193   1
   0  -7 -13 13.9061 1.55508   2
   0  -7  13 14.3069 1.37214   3
   0  -7 -13 11.4513 2.25983   1
   0  -7 -13 12.0145 1.77424   3
   0  -7  13 13.8859 1.66898   2
   0   7  13 14.6742 2.13380   1
   0   7  13 12.9044 1.90160   3
   0   7  13 14.8990 2.18183   2
  -1  -7 -13 32.3437 2.72224   2
   1  -7  13 29.3232 2.16668   1
  -1  -7 -13 26.7071 2.13763   3
   1  -7  13 27.8573 1.96025   3
   1   7  13 27.4455 2.31010   1
   1   7  13 28.6861 2.35828   2
   1   7  13 33.8796 2.31438   3
  -2  -7 -13 9.72182 2.21356   2
  -2  -7 -13 15.3873 4.13838   3
   2  -7  13 11.5672 1.20616   1
   2   7  13 11.4940 2.34226   1
   2   7  13 11.5696 2.16358   3
   2   7  13 13.8649 2.09868   2
   3   7  13 15.7025 2.85367   2
   3   7  13 8.11698 2.52679   3
   3   7  13 13.4047 2.71492   1
  -3  -8  13 9.83512 2.41177   3
   3  -8 -13 11.5372 2.53996   3
   3  -8 -13 10.2716 2.27114   2
   3  -8 -13 10.4279 2.88834   1
  -3  -8  13 9.64912 2.58442   2
  -3  -8  13 10.2747 3.04241   1
  -3   8  13 9.29264 2.37637   2
  -3   8  13 12.1296 3.92853   3
   3   8 -13 14.8991 2.46976   2
   2  -8 -13 118.593 5.02102   3
  -2  -8  13 118.433 4.73922   2
  -2  -8  13 115.963 4.79598   1
   2  -8 -13 110.938 4.38928   2
  -2  -8  13 120.826 4.71320   3
  -2   8  13 115.744 5.61428   3
   2   8 -13 109.780 4.92282   2
  -2   8  13 102.394 4.52149   2
  -1  -8  13 89.4096 4.83793   2
  -1  -8  13 95.3382 3.97196   1
   1  -8 -13 87.7918 4.55792   1
   1  -8 -13 94.6304 4.64388   3
  -1  -8  13 95.6112 3.93618   3
   1  -8 -13 88.3252 3.81317   2
  -1   8  13 78.2427 5.17938   1
  -1   8  13 96.7745 4.73618   3
  -1   8  13 94.1662 4.09882   2
   0  -8  13 134.427 4.38683   3
   0  -8  13 139.488 4.70171   2
   0  -8  13 137.984 4.59203   1
   0  -8 -13 136.816 4.61075   2
   0   8  13 147.591 5.40097   3
   0   8  13 143.026 4.91760   2
   0   8  13 134.036 5.42008   1
   1  -8  13 8.66398 1.49891   1
   1  -8  13 10.3941 1.35856   3
  -1  -8 -13 8.43592 2.16504   3
  -1  -8 -13 6.99657 1.77323   2
   1   8  13 5.19805 2.24605   2
   1   8  13 7.78884 2.76316   1
   1   8  13 8.45727 2.32392   3
  -2  -8 -13 12.0782 2.28069   2
   2  -8  13 9.80909 1.44664   1
   2   8  13 9.36189 2.54893   3
   2   8  13 9.03941 2.47514   2
   2   8  13 3.18226 2.69995   1
   3   8  13 9.97955 3.31710   2
   3   8  13 5.66410 3.30609   1
   3   8  13 7.74574 3.09224   3
   3  -9 -13 13.5222 2.99065   3
  -3  -9  13 20.3103 3.41426   1
  -3  -9  13 12.0269 3.02930   2
  -3  -9  13 11.3157 2.77426   3
   3  -9 -13 17.4076 3.52556   1
   3  -9 -13 14.2175 2.68331   2
   3   9 -13 7.18775 2.74866   2
  -3   9  13 13.6450 2.99899   2
   2  -9 -13 59.1132 3.86668   2
   2  -9 -13 55.5836 4.81974   3
  -2  -9  13 56.2584 4.47733   1
  -2  -9  13 55.9974 4.05463   3
   2  -9 -13 53.6629 3.70827   1
  -2  -9  13 53.7303 4.23092   2
  -2   9  13 54.2390 4.47623   2
  -2   9  13 49.7409 3.61289   3
  -1  -9  13 165.807 5.84138   2
  -1  -9  13 173.085 5.69589   1
   1  -9 -13 162.378 6.31821   3
   1  -9 -13 169.355 5.62623   2
  -1  -9  13 162.910 5.53638   3
  -1   9  13 172.435 6.97884   3
  -1   9  13 170.396 5.91387   2
   0  -9 -13 73.1712 3.76344   2
   0  -9  13 70.2051 3.51167   3
   0  -9 -13 70.0628 4.99848   3
   0  -9  13 69.2307 4.24695   2
   0  -9  13 74.1351 3.69507   1
   0   9  13 71.6209 4.20375   2
   0   9  13 64.7237 5.23835   3
  -1  -9 -13 113.531 4.68961   2
  -1  -9 -13 107.483 5.50098   3
   1  -9  13 109.790 4.00932   3
   1  -9  13 114.085 4.27841   1
   1   9  13 109.671 5.18200   2
   1   9  13 118.733 6.46137   1
   1   9  13 111.649 5.75407   3
   2  -9  13 9.01445 1.75601   1
  -2  -9 -13 9.42581 2.74221   2
   2   9  13 10.0016 3.14619   2
   2   9  13 2.65335 3.49288   1
   2   9  13 10.1426 3.16751   3
   2 -10 -13 73.7071 5.67400   2
  -2 -10  13 53.2854 3.78520   1
  -2 -10  13 74.2300 5.15262   2
  -2 -10  13 67.0448 5.10602   3
  -1 -10  13 20.7275 2.46677   3
  -1 -10  13 23.3986 3.08690   2
   1 -10 -13 24.6767 3.25118   3
  -1 -10  13 17.9990 2.64418   1
   1 -10 -13 23.1950 2.81989   2
  -1  10  13 18.6757 3.79557   3
  -1  10  13 18.9105 3.00456   2
   0 -10 -13 40.4023 2.90273   2
   0 -10  13 48.2346 3.93132   1
   0 -10  13 49.6802 3.65074   3
   0 -10 -13 37.2996 3.77422   3
   0  10  13 42.3810 3.92912   3
   0  10  13 42.8007 3.40945   2
   1 -10  13 7.21554 2.18293   1
   1 -10  13 7.30823 2.05599   3
  -1 -10 -13 1.21672 3.39297   3
  -1 -10 -13 3.08117 2.69830   2
   1  10  13 8.68821 3.72351   3
   1  10  13 3.70968 3.08591   2
   5   0 -14 -0.7878 2.74033   1
   5   0 -14 1.91065 2.53682   3
   5   0 -14 1.62128 2.37391   2
  -5   0  14 5.93504 2.49523   3
  -5   0  14 -1.5951 2.23584   2
  -4   0  14 32.8153 2.81182   2
   4   0 -14 33.4193 2.87971   2
  -4   0  14 29.6272 2.58897   1
   4   0 -14 33.5530 2.50657   1
  -4   0  14 27.9469 2.21002   3
  -3   0  14 128.969 4.33389   3
   3   0 -14 121.393 4.49483   1
   3   0 -14 126.713 4.36867   3
  -3   0  14 125.399 4.11360   2
   3   0 -14 131.693 4.03376   2
  -3   0  14 130.298 4.45888   1
  -2   0  14 324.905 8.46428   1
   2   0 -14 328.245 8.41282   3
   2   0 -14 314.989 8.26137   2
  -2   0  14 329.623 8.45586   3
  -2   0  14 318.179 8.37108   2
   1   0 -14 2.33887 1.03241   3
  -1   0  14 2.58160 0.97879   2
  -1   0  14 1.04458 0.98819   3
   1   0 -14 3.86110 0.87499   2
  -1   0  14 4.17742 0.98822   1
   1   0 -14 3.07726 1.03137   1
   0   0 -14 136.148 3.63805   2
   0   0  14 135.624 3.94157   3
   0   0  14 132.508 4.30715   1
   0   0  14 136.522 3.90999   2
   0   0 -14 142.315 3.71557   2
   0   0 -14 135.011 3.83260   3
   0   0  14 135.282 3.92524   1
  -1   0 -14 10.5219 0.95456   3
   1   0  14 7.92271 0.98298   3
   1   0  14 8.58516 1.01659   1
   1   0  14 8.24007 1.04392   2
   1   0  14 9.36702 1.40358   1
   2   0  14 151.945 4.28619   2
   2   0  14 153.031 4.24706   1
   2   0  14 152.478 4.23214   3
   3   0  14 5.26484 1.06167   3
   3   0  14 7.76261 1.14127   1
   4   0  14 14.4465 1.53742   1
   5  -1 -14 3.13775 2.76405   1
   5  -1 -14 4.73152 2.49347   3
  -5  -1  14 1.91797 2.27467   2
  -5  -1  14 -0.0115 2.54586   3
   5  -1 -14 0.96156 2.50664   2
   5   1 -14 1.23304 2.24215   2
  -5   1  14 -0.5367 2.79914   3
   5   1 -14 1.37538 2.96231   1
   5   1 -14 2.64655 2.53286   3
   4  -1 -14 39.8240 2.93523   2
  -4  -1  14 33.5254 2.99065   2
  -4  -1  14 31.9575 2.44899   1
  -4  -1  14 44.4178 3.45173   3
   4  -1 -14 42.3338 3.91120   1
   4  -1 -14 36.6999 2.62328   3
   4   1 -14 28.9869 3.10328   3
  -4   1  14 45.3668 2.90781   2
   4   1 -14 39.8411 2.64673   1
  -4   1  14 46.7813 3.77224   1
   4   1 -14 35.9216 2.90880   2
  -4   1  14 46.4064 3.50637   3
   3  -1 -14 233.718 6.49663   3
  -3  -1  14 232.075 6.53040   1
  -3  -1  14 230.577 6.51205   3
   3  -1 -14 230.346 6.65067   1
  -3  -1  14 231.952 6.36184   2
   3  -1 -14 221.774 6.23523   2
  -3   1  14 224.348 6.62449   1
   3   1 -14 224.624 6.47371   1
  -3   1  14 229.359 6.48594   3
   3   1 -14 230.432 6.52199   3
   3   1 -14 221.634 6.22151   2
  -3   1  14 220.667 6.31772   2
  -2  -1  14 102.275 3.51151   3
   2  -1 -14 100.648 3.60429   1
   2  -1 -14 98.6418 3.24058   2
  -2  -1  14 100.295 3.52482   1
   2  -1 -14 103.957 3.55706   3
  -2  -1  14 100.915 3.41325   2
   2   1 -14 104.396 3.46926   3
  -2   1  14 102.523 3.54171   3
   2   1 -14 97.7754 3.20061   2
  -2   1  14 101.579 3.56472   1
  -2   1  14 104.749 3.37872   2
   2   1 -14 103.631 3.45739   1
   1  -1 -14 153.856 4.41913   1
  -1  -1  14 157.882 4.44163   1
   1  -1 -14 153.277 4.44943   3
  -1  -1  14 159.395 4.45830   3
   1  -1 -14 152.515 4.27287   2
  -1  -1  14 157.220 4.40829   2
  -1   1  14 156.443 4.51480   3
  -1   1  14 152.940 4.47107   1
   1   1 -14 155.031 4.20262   2
   1   1 -14 154.619 4.35699   1
  -1   1  14 155.697 4.41978   2
   1   1 -14 153.354 4.40977   3
   0  -1 -14 5.75805 0.84489   2
   0  -1  14 5.56354 1.04073   2
   0  -1  14 6.59055 1.00421   3
   0  -1 -14 5.52976 1.52501   3
   0  -1  14 5.73250 0.93750   1
   0  -1  14 5.73594 1.50162   1
   0  -1 -14 4.41330 1.03329   1
   0   1 -14 5.80467 0.75853   2
   0   1  14 5.59921 1.01852   1
   0   1  14 5.13399 0.97436   2
   0   1 -14 7.49683 0.94654   1
   0   1 -14 5.26727 0.69737   2
   0   1 -14 4.54149 0.90050   3
   0   1  14 5.59754 1.01268   3
   1  -1  14 77.8616 2.93271   1
   1  -1  14 81.2120 2.61650   3
   1  -1  14 82.3151 2.61531   1
  -1  -1 -14 78.0249 2.58652   3
   1  -1  14 81.0105 2.64792   2
   1   1  14 78.9206 2.71470   3
  -1   1 -14 76.1607 2.44225   3
   1   1  14 78.8156 2.71212   1
   1   1  14 80.1075 2.71610   2
   2  -1  14 63.9423 2.22659   3
   2  -1  14 61.2541 2.44946   1
   2  -1  14 60.0274 2.29546   1
   2  -1  14 55.4411 2.71564   2
   2   1  14 66.1083 2.42120   3
   2   1  14 66.1421 2.51552   2
   2   1  14 60.0185 2.43433   1
   3  -1  14 19.8737 1.37087   3
   3  -1  14 23.5754 1.64134   1
   3   1  14 25.6647 2.02852   3
   3   1  14 22.2265 1.69953   2
   3   1  14 18.6601 1.48201   1
   4  -1  14 15.1832 1.23033   1
   4   1  14 17.0424 1.72031   1
   4   1  14 21.3414 1.86612   3
   5  -2 -14 25.2732 3.29905   1
  -5  -2  14 26.7298 3.08002   3
  -5  -2  14 28.8401 2.66649   2
   5  -2 -14 29.4309 2.90556   2
   5  -2 -14 31.6347 2.97097   3
   5   2 -14 30.5423 4.04817   1
  -5   2  14 22.6935 3.58751   3
   5   2 -14 20.9840 3.12363   3
   5   2 -14 32.3734 2.84240   2
  -4  -2  14 10.0762 2.16012   1
   4  -2 -14 16.9434 1.90516   2
   4  -2 -14 9.85204 2.32766   1
   4  -2 -14 14.2183 1.99889   3
  -4   2  14 14.0557 1.87312   2
   4   2 -14 15.5168 3.69057   3
   4   2 -14 12.8602 2.33269   1
   4   2 -14 12.2130 1.82621   2
  -4   2  14 11.2409 2.10243   3
  -3  -2  14 54.1636 3.03100   3
  -3  -2  14 50.4025 2.67954   2
  -3  -2  14 47.7025 2.92929   1
   3  -2 -14 51.3108 2.49561   2
   3  -2 -14 47.7638 2.95220   3
   3  -2 -14 43.8961 3.31309   1
  -3   2  14 44.2679 3.06895   3
   3   2 -14 44.1470 2.49099   2
   3   2 -14 45.6279 3.00351   3
  -3   2  14 47.0397 3.13012   1
   3   2 -14 49.7346 3.26537   1
  -3   2  14 46.9655 2.60304   2
   2  -2 -14 100.982 3.64238   3
   2  -2 -14 101.016 3.69266   1
  -2  -2  14 102.412 3.53965   3
  -2  -2  14 102.101 3.51590   1
   2  -2 -14 104.321 3.30931   2
  -2  -2  14 98.1967 3.40341   2
  -2   2  14 107.409 3.60394   3
   2   2 -14 100.249 3.21037   2
  -2   2  14 100.881 3.42017   2
   2   2 -14 98.8845 3.52256   1
   2   2 -14 103.596 3.51942   3
  -2   2  14 100.231 3.55801   1
   1  -2 -14 55.2137 2.43143   1
   1  -2 -14 56.8619 2.22639   2
  -1  -2  14 56.8451 2.43309   3
  -1  -2  14 55.1300 2.32491   2
  -1  -2  14 56.7047 2.42265   1
   1  -2 -14 58.3256 2.48448   3
   1   2 -14 61.1442 2.53189   3
   1   2 -14 54.7755 2.09125   2
  -1   2  14 55.7056 2.40398   2
  -1   2  14 56.4454 2.53589   3
  -1   2  14 59.9982 2.52488   1
   0  -2  14 31.6079 1.84879   1
   0  -2 -14 34.1663 2.00158   1
   0  -2 -14 35.8344 2.14646   3
   0  -2  14 34.5941 1.86775   2
   0  -2  14 34.2137 1.92810   3
   0  -2 -14 32.4569 1.71475   2
   0  -2  14 37.6699 3.04091   1
   0   2  14 35.5840 2.00222   3
   0   2  14 34.4888 1.96347   2
   0   2 -14 33.1080 1.74013   3
   0   2  14 36.6186 2.05869   1
  -1  -2 -14 39.1195 1.68055   2
   1  -2  14 38.2806 2.30997   1
  -1  -2 -14 40.9837 2.02178   3
   1  -2  14 38.4438 1.79450   1
   1  -2  14 38.7249 1.97773   2
   1  -2  14 43.9825 1.84860   3
   1   2  14 41.5453 2.13520   2
   1   2  14 41.5048 2.09896   1
   1   2  14 42.4230 2.20210   3
   2  -2  14 55.5260 2.30043   2
   2  -2  14 55.6032 1.93688   3
   2  -2  14 52.9368 2.37583   1
   2  -2  14 59.5626 2.06621   1
   2   2  14 57.9802 2.47186   3
   2   2  14 55.2315 2.43973   1
   2   2  14 62.2183 2.56556   2
   3  -2  14 50.5087 1.96500   1
   3   2  14 52.5923 3.02091   2
   3   2  14 42.1069 3.10420   1
   3   2  14 53.6023 2.61470   3
   4   2  14 45.8503 3.10098   3
   4   2  14 42.5533 3.21602   1
   5  -3 -14 5.56800 3.25880   1
  -5  -3  14 2.75070 2.57099   2
   5  -3 -14 11.7290 2.79920   3
  -5  -3  14 7.68087 3.00050   3
   5  -3 -14 9.16600 2.44524   2
   5   3 -14 2.98167 2.86318   3
   5   3 -14 4.90163 2.47793   2
  -5   3  14 7.89972 2.86093   2
   4  -3 -14 40.7579 3.57766   3
  -4  -3  14 37.4586 2.76112   1
  -4  -3  14 33.1793 2.37455   2
  -4  -3  14 38.5070 2.76785   3
   4  -3 -14 39.2803 3.10475   2
   4  -3 -14 43.8342 2.99410   1
   4   3 -14 44.0979 3.34165   1
   4   3 -14 38.3105 3.08300   2
   4   3 -14 39.1254 2.63544   3
  -4   3  14 40.2958 2.82580   3
  -4   3  14 38.2654 3.06738   2
   3  -3 -14 32.3279 2.30305   1
   3  -3 -14 33.9626 2.93331   3
  -3  -3  14 27.2471 1.98258   1
  -3  -3  14 31.9232 2.82329   3
   3  -3 -14 29.4258 2.41084   2
  -3  -3  14 33.2633 2.55556   2
  -3   3  14 29.9469 2.07676   3
   3   3 -14 32.0964 2.36082   1
   3   3 -14 27.9477 1.97333   3
  -3   3  14 33.6996 3.02016   1
  -3   3  14 28.2757 2.48640   2
   3   3 -14 29.1980 2.28117   2
   2  -3 -14 15.4877 1.67153   1
  -2  -3  14 12.5391 1.46531   3
  -2  -3  14 13.6507 1.46888   1
   2  -3 -14 11.9853 1.45405   3
  -2  -3  14 10.7750 1.31787   2
   2  -3 -14 13.3547 1.34283   2
   2   3 -14 12.4956 1.19968   2
  -2   3  14 15.6169 1.56518   1
  -2   3  14 12.1870 1.36327   2
   2   3 -14 10.5241 1.43851   3
   2   3 -14 9.22870 1.50676   1
  -2   3  14 11.8716 1.48579   3
   1  -3 -14 19.0009 1.50763   1
   1  -3 -14 19.1038 1.43119   3
  -1  -3  14 16.0886 1.33155   3
   1  -3 -14 21.6130 1.69615   2
  -1  -3  14 15.0526 1.29369   2
  -1  -3  14 14.5685 1.32604   1
  -1   3  14 18.9840 1.54093   1
  -1   3  14 17.1497 1.47022   3
  -1   3  14 16.6648 1.36006   2
   1   3 -14 16.8362 1.10504   2
   1   3 -14 17.3247 1.38332   3
   0  -3  14 10.8144 1.10556   1
   0  -3  14 11.4734 1.13114   2
   0  -3 -14 11.5959 1.08682   2
   0  -3  14 10.8741 1.11094   3
   0  -3 -14 10.3665 1.27119   3
   0  -3 -14 10.5168 1.29462   1
   0   3  14 9.81606 1.15799   1
   0   3  14 9.90674 1.25207   3
   0   3 -14 10.8562 1.00020   3
   0   3  14 11.1503 1.33560   2
   1  -3  14 225.324 5.87656   3
   1  -3  14 227.307 5.90716   1
   1  -3  14 226.247 5.95702   2
   1  -3  14 226.946 6.15196   1
  -1  -3 -14 225.366 5.83012   2
  -1  -3 -14 222.964 6.08911   3
   1   3  14 235.749 6.20070   1
   1   3  14 223.752 6.10638   3
   1   3  14 229.900 6.15431   2
   2  -3  14 27.0453 1.30309   3
   2  -3  14 26.9343 1.56390   1
   2   3  14 23.9773 1.68112   2
   2   3  14 25.6770 2.21810   1
   2   3  14 26.8774 2.29157   3
   3   3  14 4.44871 1.51816   1
   3   3  14 6.04244 1.71513   3
   3   3  14 10.0916 1.82213   2
   4   3  14 18.2893 2.13777   1
   4   3  14 17.1650 2.11714   3
   5  -4 -14 -2.6007 2.42223   2
   5  -4 -14 2.19726 3.46396   1
   5  -4 -14 5.13857 2.90102   3
  -5  -4  14 2.26370 3.21442   3
  -5  -4  14 0.48301 2.60132   2
   5   4 -14 6.04033 2.69920   2
   5   4 -14 5.13046 3.34641   3
  -5   4  14 5.80436 2.71347   2
   4  -4 -14 19.5979 2.78692   1
   4  -4 -14 15.5925 2.06651   2
  -4  -4  14 12.9573 2.25038   3
   4  -4 -14 23.1148 2.37990   3
  -4  -4  14 19.3231 2.65912   1
  -4  -4  14 14.0171 2.15176   2
  -4   4  14 16.9598 2.74953   3
   4   4 -14 21.9162 2.59368   3
  -4   4  14 17.5144 2.14160   2
   4   4 -14 16.3423 2.04114   2
   3  -4 -14 59.2205 3.85508   1
   3  -4 -14 55.2730 4.27774   2
  -3  -4  14 55.1513 3.40267   1
  -3  -4  14 53.0531 3.28582   2
  -3  -4  14 52.8375 3.25023   3
   3  -4 -14 55.8649 3.36291   3
  -3   4  14 49.2635 3.40186   3
  -3   4  14 52.0151 3.29335   2
  -3   4  14 57.9323 3.72514   1
   3   4 -14 59.2215 3.55146   3
   3   4 -14 56.2709 2.83437   2
   2  -4 -14 64.0275 3.09535   3
   2  -4 -14 58.7185 2.65682   2
  -2  -4  14 57.2058 2.84971   2
  -2  -4  14 62.1029 2.91888   1
  -2  -4  14 68.1489 2.93960   3
   2  -4 -14 58.1138 3.32653   1
  -2   4  14 67.0119 2.85534   2
  -2   4  14 59.0148 3.09737   3
   2   4 -14 56.5499 3.04961   3
   2   4 -14 58.8436 2.54553   2
  -2   4  14 66.0676 3.31488   1
  -1  -4  14 89.6661 3.19913   1
   1  -4 -14 90.5371 3.07507   2
   1  -4 -14 85.7042 3.35527   1
  -1  -4  14 91.9413 3.17797   3
  -1  -4  14 93.9436 3.25405   2
   1  -4 -14 90.6979 3.35580   3
   1   4 -14 91.0360 2.76844   2
  -1   4  14 92.8448 3.39620   1
  -1   4  14 89.3923 3.36217   3
  -1   4  14 90.8118 3.21641   2
   1   4 -14 84.5547 3.16088   3
   0  -4 -14 29.7001 2.35607   1
   0  -4  14 30.7530 2.03011   2
   0  -4 -14 27.7489 2.29715   3
   0  -4 -14 31.4000 1.86751   2
   0  -4  14 26.2325 1.89662   1
   0  -4  14 32.7711 1.92585   3
   0   4  14 30.8305 2.12129   2
   0   4  14 30.9254 2.32928   1
   0   4  14 28.8770 2.30400   3
   1  -4  14 100.056 3.22741   2
   1  -4  14 100.906 3.02286   3
  -1  -4 -14 99.6017 3.51845   3
  -1  -4 -14 101.362 3.13298   2
   1  -4  14 97.8089 3.09879   1
   1   4  14 98.5495 3.51086   3
   1   4  14 99.5194 3.53779   1
   1   4  14 100.071 3.44144   2
   2  -4  14 2.01790 0.87734   1
   2   4  14 2.88306 1.49016   3
   2   4  14 1.74049 1.43853   1
   2   4  14 0.05838 1.39969   2
   3   4  14 18.4301 1.94406   1
   3   4  14 20.2102 2.11277   2
   3   4  14 18.8942 1.89320   3
   4   4  14 8.43985 2.21039   3
   4   4  14 12.7403 2.28375   1
   5  -5 -14 29.2783 3.37924   2
  -5   5  14 35.5147 3.89284   2
   5   5 -14 31.7272 4.34517   2
   4  -5 -14 111.148 5.30772   3
   4  -5 -14 107.645 5.98493   1
   4  -5 -14 108.462 4.71328   2
  -4  -5  14 108.581 5.69471   1
  -4  -5  14 108.952 5.20539   3
  -4  -5  14 114.514 4.89915   2
  -4   5  14 113.174 4.57093   2
  -4   5  14 113.885 5.71885   3
   4   5 -14 115.834 5.95652   3
   4   5 -14 108.911 4.62995   2
  -3  -5  14 23.8933 2.18599   1
  -3  -5  14 17.4724 1.88939   3
   3  -5 -14 19.9431 2.07110   3
   3  -5 -14 20.1792 1.99362   2
  -3  -5  14 17.5885 2.03304   2
   3  -5 -14 18.7984 2.30819   1
  -3   5  14 19.7346 1.97188   2
  -3   5  14 20.8106 2.15548   3
   3   5 -14 19.4492 1.86704   2
   3   5 -14 23.0491 2.43476   3
  -2  -5  14 71.4767 3.23405   2
  -2  -5  14 69.5375 3.30530   1
   2  -5 -14 74.8351 3.51379   3
   2  -5 -14 71.8965 3.01771   2
  -2  -5  14 73.9410 3.24202   3
   2  -5 -14 69.7909 3.60607   1
  -2   5  14 69.9186 3.58283   1
   2   5 -14 72.7346 3.33959   3
  -2   5  14 67.8932 3.55472   3
   2   5 -14 73.5332 2.82682   2
  -2   5  14 71.4121 3.14649   2
  -1  -5  14 30.9661 2.25871   1
   1  -5 -14 29.5037 2.62024   3
   1  -5 -14 28.6224 2.12496   2
  -1  -5  14 28.4000 2.25284   3
   1  -5 -14 27.6160 1.94120   1
   1   5 -14 29.4493 1.81916   2
   1   5 -14 30.2663 2.48019   3
  -1   5  14 30.5079 2.64621   1
  -1   5  14 32.4472 2.36289   2
  -1   5  14 26.5037 1.93404   3
   0  -5  14 44.5176 2.28299   3
   0  -5 -14 46.3453 2.79733   1
   0  -5 -14 46.7019 2.32068   2
   0  -5  14 49.2064 2.49328   2
   0  -5 -14 45.4316 2.81889   3
   0  -5  14 48.2246 2.33606   1
   0   5  14 50.6504 2.81088   3
   0   5  14 47.9068 2.63034   2
   0   5  14 44.3877 2.92384   1
  -1  -5 -14 179.523 5.08682   2
   1  -5  14 180.730 5.01501   1
   1  -5  14 180.293 4.88260   3
  -1  -5 -14 185.711 5.44367   3
   1   5  14 188.103 5.49265   3
   1   5  14 184.550 5.37259   2
   1   5  14 186.052 5.54382   1
  -2  -5 -14 74.1878 2.76522   2
   2  -5  14 72.2191 2.40165   1
   2   5  14 67.4025 3.94038   3
   2   5  14 65.3874 3.37246   2
   3   5  14 3.45012 1.99239   1
   3   5  14 3.46620 2.32973   2
   3   5  14 4.60940 1.91972   3
   4   5  14 13.9524 2.79011   1
   4   5  14 17.0289 2.68231   3
   4  -6 -14 8.13897 2.69719   3
  -4  -6  14 5.48449 2.68695   3
   4  -6 -14 8.53524 2.46030   2
  -4  -6  14 9.99736 3.50305   1
   4  -6 -14 1.57671 3.07653   1
  -4  -6  14 6.86204 2.44680   2
   4   6 -14 4.69666 2.87368   3
  -4   6  14 7.63024 2.45036   2
   4   6 -14 7.99095 2.38545   2
  -3  -6  14 67.9780 4.23757   1
   3  -6 -14 82.0282 6.51155   1
   3  -6 -14 71.3536 4.10953   3
  -3  -6  14 66.1133 3.95643   2
  -3  -6  14 70.9561 3.96103   3
   3  -6 -14 70.9326 3.59728   2
   3   6 -14 60.7498 3.48258   2
   3   6 -14 53.8737 4.26875   3
  -3   6  14 71.3266 3.66608   2
  -2  -6  14 53.4762 3.19582   2
  -2  -6  14 53.8029 3.18751   3
   2  -6 -14 53.3579 3.61309   1
   2  -6 -14 50.0016 2.87891   2
  -2  -6  14 49.0926 3.47078   1
   2  -6 -14 54.9407 3.56851   3
   2   6 -14 55.0534 3.50305   3
  -2   6  14 53.7048 3.07765   2
  -2   6  14 54.8261 3.61640   3
   2   6 -14 51.4744 2.66001   2
  -2   6  14 53.8850 3.92175   1
   1  -6 -14 4.61988 1.41756   2
  -1  -6  14 5.91743 1.47375   2
  -1  -6  14 2.16358 1.35692   1
  -1  -6  14 2.62284 1.32865   3
   1  -6 -14 6.29940 1.56610   3
   1  -6 -14 6.37252 1.77394   1
  -1   6  14 3.77844 1.65376   3
  -1   6  14 6.68315 1.55417   2
  -1   6  14 4.23696 1.94272   1
   0  -6 -14 43.0130 2.41316   2
   0  -6  14 43.7735 2.36512   3
   0  -6  14 45.1123 2.43349   1
   0  -6  14 42.2239 2.61882   2
   0  -6 -14 43.4658 3.17264   3
   0   6  14 41.9967 2.88117   2
   0   6  14 45.5622 3.06350   3
   0   6  14 46.7836 3.18650   1
  -1  -6 -14 26.8836 2.05748   3
   1  -6  14 25.8115 2.21136   1
  -1  -6 -14 27.2695 2.26649   2
   1  -6  14 31.9280 2.43596   2
   1  -6  14 25.5972 1.83883   3
   1   6  14 26.3237 2.11213   2
   1   6  14 25.0724 2.22896   1
   2  -6  14 33.5677 1.99908   1
  -2  -6 -14 34.4346 2.64825   2
   2   6  14 33.3002 2.58746   2
   2   6  14 41.0248 3.50044   3
   2   6  14 38.4534 3.53438   1
   3   6  14 10.6099 2.42175   1
   3   6  14 4.61286 2.53727   2
   3   6  14 4.80062 2.39625   3
   4  -7 -14 3.83252 3.39897   1
   4  -7 -14 -0.6688 2.92438   3
  -4  -7  14 9.91659 2.82119   2
  -4  -7  14 4.86173 2.99010   3
   4  -7 -14 5.96542 2.59515   2
   4   7 -14 1.14324 2.75282   2
   4   7 -14 5.41837 4.32370   3
  -4   7  14 -1.4409 2.71829   2
  -3  -7  14 3.46708 2.16384   2
   3  -7 -14 4.15074 2.58979   1
   3  -7 -14 1.76961 1.95675   2
  -3  -7  14 4.55124 2.22579   3
  -3  -7  14 7.27218 2.69626   1
   3  -7 -14 3.46964 2.25481   3
   3   7 -14 6.68577 4.16446   3
  -3   7  14 3.66760 2.31154   2
   3   7 -14 2.26310 1.98653   2
  -3   7  14 7.52022 2.77383   3
   2  -7 -14 2.91278 1.70985   2
  -2  -7  14 3.10915 2.14506   2
  -2  -7  14 4.53703 1.80119   3
   2  -7 -14 3.30929 1.98178   3
   2  -7 -14 3.62379 2.14493   1
  -2  -7  14 2.80590 1.92010   1
  -2   7  14 2.23249 1.84062   2
   2   7 -14 2.52254 1.66331   2
  -2   7  14 4.86652 2.23980   3
  -1  -7  14 20.1358 1.84409   3
   1  -7 -14 22.1852 1.88089   2
  -1  -7  14 19.2556 1.99414   2
   1  -7 -14 20.8232 2.30096   3
  -1  -7  14 19.0889 1.88540   1
   1  -7 -14 23.5709 2.50804   1
  -1   7  14 20.1518 2.93901   3
  -1   7  14 19.5391 2.09843   2
  -1   7  14 19.1724 2.31934   1
   0  -7 -14 9.95322 1.59757   2
   0  -7  14 10.8376 1.54040   1
   0  -7  14 9.96332 1.78831   2
   0  -7 -14 11.2469 2.04585   3
   0   7  14 13.9192 2.04840   2
   0   7  14 12.9704 2.33590   1
   0   7  14 12.9672 2.01535   3
   1  -7  14 28.8074 2.46252   1
  -1  -7 -14 23.5383 2.30664   3
  -1  -7 -14 28.2161 1.98898   2
   1  -7  14 31.1761 2.18233   3
   1   7  14 27.0460 4.10241   1
   1   7  14 31.4609 2.49810   2
   1   7  14 31.5916 2.49525   3
   2  -7  14 17.3435 1.39803   1
  -2  -7 -14 14.9850 1.91740   2
   2   7  14 16.2549 2.52661   1
   2   7  14 15.9314 2.39893   3
   2   7  14 15.7975 2.60066   2
   3   7  14 21.7659 3.42884   2
   3   7  14 21.5865 2.92925   3
   3   7  14 16.5716 3.17154   1
  -3  -8  14 30.5282 2.94192   3
  -3  -8  14 31.3545 3.57250   1
   3  -8 -14 37.3818 3.55254   1
   3  -8 -14 35.1227 3.18778   3
  -3  -8  14 30.0904 2.85097   2
   3  -8 -14 30.3501 2.84457   2
  -3   8  14 30.4075 2.91561   2
   3   8 -14 39.0560 2.91389   2
   2  -8 -14 -0.0421 2.70720   1
  -2  -8  14 -0.2118 1.99292   3
   2  -8 -14 0.93549 1.91434   2
   2  -8 -14 -1.1559 2.27260   3
  -2  -8  14 0.97257 2.11137   2
  -2  -8  14 3.52340 2.27475   1
  -2   8  14 -3.0951 2.83542   3
   2   8 -14 0.76479 2.03554   2
  -2   8  14 3.00893 2.18155   2
  -1  -8  14 134.186 4.83362   3
   1  -8 -14 128.288 4.72470   2
   1  -8 -14 135.215 5.36155   3
  -1  -8  14 134.809 5.00296   2
  -1  -8  14 140.257 4.92514   1
  -1   8  14 134.044 5.02258   2
  -1   8  14 126.482 7.38336   1
  -1   8  14 128.687 5.57939   3
   0  -8  14 70.1045 3.40911   1
   0  -8  14 68.3286 3.33246   3
   0  -8 -14 71.2741 4.74780   3
   0  -8  14 67.9043 3.82556   2
   0  -8 -14 68.0833 3.52418   2
   0   8  14 62.6222 5.57659   1
   0   8  14 72.5128 4.58287   3
   0   8  14 66.8110 3.99137   2
   1  -8  14 13.8841 1.51154   3
   1  -8  14 16.2984 1.73743   1
  -1  -8 -14 13.0028 2.05561   2
  -1  -8 -14 12.6569 2.53881   3
   1   8  14 14.0958 2.40926   2
   1   8  14 14.9934 2.69379   3
   1   8  14 13.6219 3.00727   1
   2  -8  14 13.4435 1.51841   1
  -2  -8 -14 13.6987 2.31948   2
   2   8  14 15.3094 2.90083   3
   2   8  14 11.5338 2.84380   2
   2   8  14 7.14926 3.07548   1
  -2  -9  14 25.1593 2.91137   1
  -2  -9  14 17.3941 2.62834   3
   2  -9 -14 25.4564 2.81407   2
   2  -9 -14 24.2499 3.20252   3
  -2  -9  14 23.9241 2.80597   2
  -2   9  14 21.1357 3.61171   3
  -2   9  14 28.3697 3.04818   2
  -1  -9  14 75.0434 4.15616   3
   1  -9 -14 81.0504 4.35774   2
  -1  -9  14 81.0450 4.69146   2
   1  -9 -14 82.0508 5.31066   3
  -1  -9  14 90.2330 4.43182   1
  -1   9  14 83.6633 4.84086   2
  -1   9  14 79.2907 6.21608   3
   0  -9 -14 120.729 6.25415   3
   0  -9  14 115.740 4.45398   3
   0  -9 -14 116.056 4.88029   2
   0  -9  14 114.771 4.63803   1
   0   9  14 126.653 5.41409   2
   0   9  14 128.459 6.37486   3
  -1  -9 -14 28.3241 2.62644   2
   1  -9  14 25.3328 2.13346   3
  -1  -9 -14 27.4616 3.70315   3
   1  -9  14 30.4316 2.21678   1
   1   9  14 34.5986 3.41436   3
   1   9  14 27.8361 3.17797   2
   1   9  14 30.4724 3.82870   1
  -2  -9 -14 27.0021 3.07338   2
   2  -9  14 28.1753 2.05026   1
   2   9  14 29.6937 3.67872   3
   2   9  14 29.7156 4.03182   1
   2   9  14 35.0616 3.65853   2
  -1 -10  14 6.03709 2.81789   3
  -1 -10  14 3.33075 2.71778   1
  -1 -10  14 4.86685 3.16249   2
  -1  10  14 -1.2411 3.90605   3
   0 -10 -14 12.1200 2.97470   2
   0 -10  14 6.07920 2.76222   1
   0 -10  14 9.99707 2.21539   3
   0 -10 -14 7.43021 3.34549   3
   0  10  14 3.90129 3.27950   2
   0  10  14 11.7374 3.83308   3
   5   0 -15 8.87185 2.61048   2
   5   0 -15 -0.5184 3.61757   1
  -5   0  15 4.71992 2.92439   3
  -5   0  15 -0.5495 2.53989   2
   5   0 -15 -2.6659 2.86361   3
  -4   0  15 1.09311 2.04844   3
   4   0 -15 3.86120 2.24736   1
   4   0 -15 -2.4451 1.66982   2
   4   0 -15 0.96924 2.07342   3
  -4   0  15 3.41847 1.73658   2
  -4   0  15 4.71123 2.52604   1
   3   0 -15 45.2259 3.22091   1
   3   0 -15 54.3013 2.70076   2
   3   0 -15 52.7983 3.10195   3
  -3   0  15 50.0495 2.81420   2
  -3   0  15 47.2027 3.44254   1
  -3   0  15 50.6850 3.10546   3
   2   0 -15 389.669 9.96333   2
  -2   0  15 400.384 10.1751   3
   2   0 -15 388.760 10.1176   3
  -2   0  15 395.494 10.1933   1
  -2   0  15 387.587 10.0969   2
   2   0 -15 397.758 10.4639   1
   1   0 -15 1.97034 1.21705   3
  -1   0  15 -0.1141 1.07963   3
  -1   0  15 -0.8077 1.11534   2
   1   0 -15 0.41339 1.13054   1
   1   0 -15 0.17723 0.92340   2
  -1   0  15 -1.2411 1.04771   1
   0   0  15 256.059 6.74593   1
   0   0  15 256.898 6.75016   3
   0   0 -15 257.678 6.43521   2
   0   0  15 257.526 6.74811   2
   0   0 -15 252.959 6.64847   3
   1   0  15 10.7411 1.12999   3
   1   0  15 7.85111 1.17746   2
   1   0  15 9.62538 1.12869   1
   2   0  15 3.04299 1.06259   1
   2   0  15 3.99784 1.26968   2
   2   0  15 3.76522 1.08556   3
   3   0  15 3.05407 1.16626   3
   3   0  15 2.25802 1.24648   1
   4   0  15 5.70593 1.57223   1
   5  -1 -15 24.9320 3.13188   3
  -5  -1  15 16.6444 2.65996   2
  -5  -1  15 20.3770 3.06093   3
   5  -1 -15 27.2427 2.71112   2
   5  -1 -15 25.9755 3.47468   1
  -5   1  15 21.4977 3.47891   3
   5   1 -15 24.4158 2.76025   2
   5   1 -15 27.5257 3.36521   3
   4  -1 -15 18.2190 1.99130   2
   4  -1 -15 18.5843 2.40775   1
   4  -1 -15 18.3661 2.27801   3
  -4  -1  15 22.7888 2.29531   3
  -4  -1  15 20.8088 2.64584   1
  -4  -1  15 16.4545 2.06287   2
   4   1 -15 17.7385 2.02730   2
  -4   1  15 19.1073 2.05750   2
   4   1 -15 20.9243 2.34367   3
   4   1 -15 16.3451 2.59467   1
  -4   1  15 15.9070 2.64366   3
  -3  -1  15 11.5152 1.83124   1
  -3  -1  15 14.1325 1.74014   2
   3  -1 -15 14.5408 1.80086   3
  -3  -1  15 12.8337 1.72519   3
   3  -1 -15 14.2338 1.54810   2
   3  -1 -15 16.7448 1.91846   1
  -3   1  15 12.1900 1.67892   3
  -3   1  15 10.8997 1.95769   1
  -3   1  15 11.2717 1.73504   2
   3   1 -15 19.2211 1.83573   3
   3   1 -15 13.8963 1.52776   2
   3   1 -15 13.9575 1.94315   1
   2  -1 -15 14.3965 1.45243   3
  -2  -1  15 15.2514 1.55317   1
   2  -1 -15 15.5686 1.66867   1
  -2  -1  15 14.6786 1.47585   3
  -2  -1  15 16.3109 1.61284   2
   2  -1 -15 15.7294 1.32647   2
  -2   1  15 13.1226 1.52849   3
  -2   1  15 15.4369 1.56912   1
   2   1 -15 15.1968 1.49562   3
   2   1 -15 17.6768 1.57565   1
  -2   1  15 15.1753 1.62343   2
   2   1 -15 15.8546 1.28667   2
  -1  -1  15 300.720 7.70802   2
   1  -1 -15 291.766 7.70179   1
  -1  -1  15 298.768 7.73921   3
   1  -1 -15 286.942 7.55007   2
   1  -1 -15 294.106 7.72420   3
  -1  -1  15 297.814 7.73632   1
  -1   1  15 294.104 7.70879   2
   1   1 -15 298.270 7.50947   2
  -1   1  15 296.699 7.77951   3
   1   1 -15 293.669 7.71987   3
   1   1 -15 298.986 7.63082   1
  -1   1  15 291.746 7.74649   1
   0  -1 -15 74.8942 2.44736   2
   0  -1  15 77.8746 2.71425   1
   0  -1  15 77.0946 2.75016   2
   0  -1  15 76.7679 2.85370   3
   0  -1 -15 75.8969 2.89553   3
   0   1  15 77.4938 2.86749   3
   0   1 -15 74.2064 2.63523   3
   0   1  15 78.6217 2.84761   1
   0   1  15 78.1912 2.81532   2
   1  -1  15 25.6671 1.76631   1
   1  -1  15 28.3652 1.91984   2
  -1  -1 -15 23.0942 1.86770   3
   1  -1  15 29.1902 1.84871   3
   1   1  15 26.8679 1.92456   1
   1   1  15 27.7305 2.01935   3
   1   1  15 25.3107 1.98765   2
   2  -1  15 36.5708 1.97177   1
   2  -1  15 31.8152 1.92001   3
   2  -1  15 34.6922 2.32381   2
   2   1  15 31.3772 2.13018   1
   2   1  15 34.6619 2.17116   3
   2   1  15 35.1837 2.33684   2
   3  -1  15 50.6874 2.78696   1
   3  -1  15 54.3161 1.98811   3
   3   1  15 57.6367 2.81768   1
   3   1  15 54.0346 2.66290   3
   4  -1  15 26.8351 2.11793   1
   4   1  15 32.8793 2.88114   1
   5  -2 -15 5.52745 2.96409   3
   5  -2 -15 3.98858 3.31901   1
  -5  -2  15 7.75553 2.66745   2
  -5  -2  15 3.43522 3.05388   3
   5  -2 -15 2.31952 2.63031   2
   5   2 -15 3.55124 2.54526   2
   5   2 -15 5.85120 3.05877   3
   4  -2 -15 12.8958 2.24376   3
  -4  -2  15 12.5623 2.24857   3
   4  -2 -15 13.3800 1.97713   2
  -4  -2  15 9.29100 2.46256   1
   4  -2 -15 17.4292 2.49564   1
  -4   2  15 17.6894 2.64537   3
  -4   2  15 11.6335 2.10192   2
   4   2 -15 14.9543 2.04483   2
   4   2 -15 11.1711 2.97441   1
   4   2 -15 13.3312 2.25504   3
   3  -2 -15 40.5199 2.55653   2
  -3  -2  15 35.8152 3.08224   3
   3  -2 -15 35.4900 3.04545   3
  -3  -2  15 34.1820 3.03626   1
   3  -2 -15 35.7035 3.15287   1
  -3  -2  15 39.3769 2.73362   2
   3   2 -15 34.6326 2.61771   1
  -3   2  15 37.3760 2.67803   2
   3   2 -15 37.8576 2.32836   3
  -3   2  15 37.3914 3.19567   3
  -3   2  15 36.9118 3.20401   1
   3   2 -15 38.4157 2.51899   2
  -2  -2  15 75.7268 3.16464   3
  -2  -2  15 74.7330 3.02089   2
   2  -2 -15 74.1070 3.26616   1
   2  -2 -15 75.8210 2.87536   2
   2  -2 -15 76.5300 3.27346   3
  -2  -2  15 76.6986 3.19034   1
   2   2 -15 72.4392 2.76640   2
  -2   2  15 76.3767 3.21846   1
  -2   2  15 75.5901 3.04053   2
   2   2 -15 74.4815 3.33267   3
   2   2 -15 76.1453 3.22931   1
  -2   2  15 74.3555 3.22320   3
   1  -2 -15 112.693 3.71945   1
   1  -2 -15 113.367 3.76087   3
  -1  -2  15 111.890 3.68597   1
  -1  -2  15 115.208 3.68734   3
   1  -2 -15 112.460 3.47428   2
  -1  -2  15 113.224 3.61639   2
  -1   2  15 113.160 3.80076   1
  -1   2  15 110.779 3.77943   3
   1   2 -15 114.672 3.64892   3
  -1   2  15 115.486 3.67920   2
   1   2 -15 114.634 3.28552   2
   0  -2  15 125.127 3.77702   1
   0  -2  15 127.380 3.79751   3
   0  -2 -15 122.158 3.92906   3
   0  -2 -15 128.755 3.61257   2
   0  -2  15 127.844 3.80430   2
   0   2 -15 127.135 3.62874   3
   0   2  15 123.695 3.91298   1
   0   2  15 123.871 3.92298   3
   0   2  15 125.742 3.84521   2
   1  -2  15 1.87297 1.14952   2
   1  -2  15 1.53278 0.94256   1
  -1  -2 -15 3.48138 1.12593   3
   1  -2  15 -0.0411 0.91615   3
   1   2  15 2.31778 1.19668   2
   1   2  15 1.91392 1.13353   1
   1   2  15 2.51659 1.18970   3
   2  -2  15 93.8289 2.96733   1
   2  -2  15 92.0929 2.83824   3
   2   2  15 96.3133 3.39483   1
   2   2  15 97.9595 3.39814   3
   2   2  15 100.351 3.47848   2
   3   2  15 54.0520 2.92168   1
   3   2  15 52.0315 3.31993   3
   3   2  15 52.9729 3.43282   2
   4   2  15 23.0906 2.21872   3
   4   2  15 22.8135 2.22001   1
   5  -3 -15 7.93984 2.98470   3
   5  -3 -15 -1.7433 3.39996   1
   5  -3 -15 0.59885 2.60015   2
  -5  -3  15 4.48196 2.69098   2
  -5  -3  15 10.0253 3.30886   3
   5   3 -15 2.35697 2.84664   2
   5   3 -15 7.25197 3.15462   3
  -5   3  15 4.50449 3.10918   2
   4  -3 -15 27.6203 2.36768   2
  -4  -3  15 23.0419 2.78065   1
  -4  -3  15 29.2729 2.39778   2
   4  -3 -15 25.0071 2.51240   3
  -4  -3  15 26.9108 2.60757   3
  -4   3  15 28.5768 2.78404   3
   4   3 -15 25.1526 2.60372   3
   4   3 -15 31.1026 2.40990   2
  -4   3  15 26.4634 2.31204   2
  -3  -3  15 31.4889 2.68512   3
   3  -3 -15 37.8365 3.35291   1
   3  -3 -15 40.8235 3.30508   3
  -3  -3  15 37.2736 3.15860   1
  -3   3  15 42.4310 3.48512   1
  -3   3  15 36.8005 3.30403   3
   3   3 -15 41.2836 3.47052   3
   3   3 -15 38.9912 2.58586   2
  -2  -3  15 72.8129 3.22196   3
  -2  -3  15 73.2018 3.03615   2
   2  -3 -15 71.6242 2.86985   2
   2  -3 -15 70.9072 3.31169   1
   2  -3 -15 72.5223 3.28064   3
  -2  -3  15 72.2516 3.24861   1
   2   3 -15 71.7219 3.34242   3
  -2   3  15 72.7085 3.05616   2
   2   3 -15 70.2458 2.75948   2
  -2   3  15 71.1166 3.32152   3
  -2   3  15 74.3305 3.32741   1
  -1  -3  15 36.6642 2.35512   3
   1  -3 -15 36.4941 2.49320   3
   1  -3 -15 39.1093 2.57142   1
  -1  -3  15 36.6863 2.29605   1
   1  -3 -15 37.4760 2.07542   2
  -1  -3  15 38.2343 2.37629   2
  -1   3  15 38.4803 2.41585   2
   1   3 -15 39.1923 2.37836   3
  -1   3  15 40.6202 2.72221   1
  -1   3  15 37.8778 2.51932   3
   1   3 -15 38.7601 1.82871   2
   0  -3 -15 2.01366 1.06023   2
   0  -3  15 3.84446 1.06925   3
   0  -3  15 2.44654 1.15274   2
   0  -3  15 2.44393 1.02420   1
   0  -3 -15 4.02562 1.38088   3
   0   3  15 4.40657 1.23606   2
   0   3  15 1.87827 1.21910   3
   0   3  15 1.94307 1.18859   1
   1  -3  15 3.68170 1.01619   1
   1  -3  15 5.24784 1.23981   2
  -1  -3 -15 2.81404 1.37138   3
   1  -3  15 5.74153 1.04812   3
  -1  -3 -15 6.74675 1.09928   2
   1   3  15 4.07105 1.32910   1
   1   3  15 5.63681 1.32047   2
   1   3  15 3.31671 1.26247   3
   2  -3  15 34.8652 1.57239   3
   2  -3  15 36.5238 1.84956   1
   2   3  15 32.6529 2.52159   3
   2   3  15 37.0626 2.63142   1
   2   3  15 32.1934 2.69439   2
   3   3  15 26.3194 2.06440   1
   3   3  15 23.5040 2.31641   2
   3   3  15 25.7843 2.05230   3
   4   3  15 4.56024 2.23460   3
   4   3  15 1.91797 2.27221   1
  -5  -4  15 38.0441 3.93745   2
   5  -4 -15 34.2156 3.75323   3
   5  -4 -15 26.3335 3.06909   2
   5  -4 -15 32.2685 4.06927   1
  -5  -4  15 26.6048 3.67217   3
   5   4 -15 28.6028 3.51708   2
  -5   4  15 25.5753 3.27924   2
   5   4 -15 46.6443 4.57813   3
   4  -4 -15 102.090 5.11342   3
  -4  -4  15 102.813 4.72823   2
  -4  -4  15 106.816 5.18113   3
   4  -4 -15 97.8907 4.36440   2
  -4  -4  15 98.2864 6.65100   1
   4  -4 -15 113.913 5.51458   1
   4   4 -15 104.693 4.53939   2
  -4   4  15 99.6892 4.54480   2
   4   4 -15 112.294 5.92228   3
  -4   4  15 103.911 5.26229   3
   3  -4 -15 133.027 5.16862   1
   3  -4 -15 144.227 4.70652   2
   3  -4 -15 129.624 5.89208   3
  -3  -4  15 147.277 5.04524   3
  -3  -4  15 136.010 5.07767   1
  -3   4  15 140.228 5.06406   3
  -3   4  15 141.729 4.80036   2
   3   4 -15 138.422 4.73089   2
   3   4 -15 142.173 5.24979   3
  -3   4  15 139.672 5.62908   1
  -2  -4  15 73.4964 3.34087   1
   2  -4 -15 71.9429 3.49573   3
  -2  -4  15 78.5277 3.30634   2
  -2  -4  15 72.9617 3.30974   3
   2  -4 -15 68.8270 3.01286   2
   2  -4 -15 79.6322 3.64556   1
  -2   4  15 76.1901 3.56201   3
   2   4 -15 73.4767 3.34642   3
  -2   4  15 75.2345 3.25514   2
   2   4 -15 75.5839 2.85374   2
  -2   4  15 76.7938 3.82845   1
   1  -4 -15 19.8962 1.81393   1
   1  -4 -15 19.3515 1.44259   2
  -1  -4  15 17.1767 1.53056   1
   1  -4 -15 18.1068 1.67614   3
  -1  -4  15 17.6959 1.48462   3
  -1  -4  15 17.8095 1.67310   2
  -1   4  15 16.8793 1.68567   2
  -1   4  15 18.0386 1.65841   3
   1   4 -15 18.4893 1.61696   3
  -1   4  15 14.1761 1.63488   1
   1   4 -15 17.3556 1.24741   2
   0  -4  15 86.3209 3.05070   3
   0  -4  15 87.3401 3.08028   1
   0  -4 -15 86.0263 3.03752   2
   0  -4  15 86.5316 3.16250   2
   0  -4 -15 88.8093 3.63120   3
   0   4  15 88.1483 3.30846   2
   0   4  15 85.6682 3.39294   1
   0   4  15 87.4289 3.42584   3
   1  -4  15 18.6862 1.37263   1
  -1  -4 -15 22.4486 1.75975   3
   1  -4  15 22.2036 1.67792   2
  -1  -4 -15 25.0855 1.92315   2
   1  -4  15 23.9554 1.76063   3
   1   4  15 21.2716 1.70340   1
   1   4  15 19.2631 1.67342   3
   1   4  15 19.2321 1.87328   2
   2  -4  15 98.5303 3.02366   1
   2   4  15 102.409 3.79691   2
   2   4  15 92.8242 4.39641   1
   3   4  15 19.3740 2.08900   3
   3   4  15 17.2686 2.17572   1
   3   4  15 23.5820 2.68501   2
   4   4  15 9.24434 2.60159   3
   4   4  15 2.46909 2.56821   1
   4  -5 -15 80.0788 5.17960   3
   4  -5 -15 84.1074 5.84557   1
  -4  -5  15 82.4771 6.29932   1
  -4  -5  15 84.1844 5.10174   3
  -4  -5  15 77.4540 4.66419   2
   4  -5 -15 75.9759 4.55615   2
  -4   5  15 73.6186 4.38417   2
   4   5 -15 90.0887 5.62999   3
  -4   5  15 87.1970 5.92074   3
   4   5 -15 77.5662 4.39749   2
  -3  -5  15 34.8861 2.43584   2
   3  -5 -15 36.6420 2.53395   3
   3  -5 -15 32.5675 2.90309   2
  -3  -5  15 38.9463 2.81438   1
  -3  -5  15 33.6812 2.37951   3
   3  -5 -15 36.1026 2.76937   1
  -3   5  15 38.6368 2.95395   3
  -3   5  15 38.7270 3.26134   2
   3   5 -15 39.6676 3.13989   2
   3   5 -15 35.3768 2.71032   3
  -2  -5  15 27.0744 2.63108   3
   2  -5 -15 29.8809 2.21710   3
  -2  -5  15 31.2652 2.14824   1
   2  -5 -15 28.6756 2.48141   2
  -2  -5  15 24.3946 1.99477   2
   2  -5 -15 29.1473 2.28953   1
   2   5 -15 25.2328 2.12808   3
   2   5 -15 25.1237 2.25896   2
  -2   5  15 29.3404 2.32462   3
  -2   5  15 23.5761 2.29567   2
  -2   5  15 29.6046 2.33581   1
   1  -5 -15 179.162 5.54719   3
   1  -5 -15 173.640 5.67714   1
  -1  -5  15 176.294 5.34216   2
  -1  -5  15 182.196 5.31995   1
   1  -5 -15 178.330 5.18654   2
  -1  -5  15 183.532 5.28241   3
  -1   5  15 183.087 5.57557   3
  -1   5  15 176.036 5.60873   1
  -1   5  15 174.190 5.35498   2
   0  -5  15 23.4768 2.06190   3
   0  -5 -15 22.4008 1.63629   2
   0  -5  15 20.3914 1.51728   1
   0  -5 -15 18.9975 1.92314   3
   0  -5  15 22.1550 1.73610   2
   0   5  15 16.7473 1.83057   3
   0   5  15 20.2531 1.92816   1
   0   5  15 20.5280 1.76814   2
   1  -5  15 5.45397 1.20561   1
   1  -5  15 2.89829 1.00887   3
  -1  -5 -15 7.03559 1.32217   2
  -1  -5 -15 5.70965 1.72593   3
   1   5  15 5.96202 1.67937   2
   1   5  15 3.09491 1.67505   1
   1   5  15 2.75644 2.01102   3
   2  -5  15 2.29606 1.03407   1
   2   5  15 5.09093 2.05851   2
   2   5  15 7.27175 1.86729   3
   2   5  15 4.11801 1.84569   1
   3   5  15 3.37906 2.24182   3
   3   5  15 3.04233 2.50873   2
   3   5  15 -0.8467 2.24451   1
  -4  -6  15 13.9647 3.04372   3
   4  -6 -15 8.57842 2.62272   2
   4  -6 -15 11.8299 3.39566   1
   4  -6 -15 12.7604 3.03819   3
  -4  -6  15 14.4292 4.56905   1
  -4  -6  15 6.01055 2.72617   2
  -4   6  15 9.92970 2.77673   2
   4   6 -15 8.97035 3.51559   3
   4   6 -15 8.04758 2.81764   2
   3  -6 -15 7.01254 2.19164   3
  -3  -6  15 7.87758 2.23773   2
  -3  -6  15 3.88999 2.38343   1
   3  -6 -15 3.40042 2.48398   1
  -3  -6  15 5.36261 2.12894   3
   3  -6 -15 1.68760 1.97401   2
  -3   6  15 6.12223 2.17180   2
  -3   6  15 0.77907 2.68339   3
   3   6 -15 -1.1550 2.94966   3
   3   6 -15 6.20136 1.92199   2
  -2  -6  15 9.22226 2.18327   2
  -2  -6  15 6.14028 1.72009   3
   2  -6 -15 10.9804 2.25724   1
  -2  -6  15 5.90010 1.90184   1
   2  -6 -15 5.69188 1.62321   2
   2  -6 -15 2.97418 2.00761   3
  -2   6  15 4.13541 1.85580   2
   2   6 -15 5.99590 1.64407   2
  -2   6  15 5.98450 1.98537   3
  -2   6  15 7.81398 2.51649   1
  -1  -6  15 10.3089 1.69855   2
  -1  -6  15 9.56585 1.64045   1
   1  -6 -15 8.44542 1.80391   3
   1  -6 -15 9.05011 1.66171   2
   1  -6 -15 8.53975 2.27208   1
  -1  -6  15 13.3452 1.77143   3
  -1   6  15 11.0063 2.20451   1
  -1   6  15 9.52401 1.79524   2
   0  -6  15 20.4871 1.88772   2
   0  -6  15 25.6293 2.28963   3
   0  -6 -15 30.6983 2.31085   3
   0  -6  15 25.2750 1.75398   1
   0  -6 -15 24.3619 1.94639   2
   0   6  15 23.6612 2.86753   2
   0   6  15 23.1159 2.27606   3
   0   6  15 23.4989 2.18402   1
   1  -6  15 3.16093 1.15150   3
   1  -6  15 3.17215 1.32754   1
  -1  -6 -15 5.14748 1.52731   2
  -1  -6 -15 2.41369 1.99637   3
   1   6  15 0.68608 1.88495   3
   1   6  15 5.93402 3.55148   1
   1   6  15 3.68007 1.91407   2
   2  -6  15 121.542 3.76243   1
  -2  -6 -15 117.510 4.25545   2
   2   6  15 127.580 5.02778   1
   2   6  15 134.747 5.00638   3
   2   6  15 123.796 4.87614   2
   3   6  15 -0.5253 2.57805   3
   3   6  15 -0.0911 2.71263   1
   3   6  15 0.49279 2.83890   2
  -3  -7  15 4.19293 2.32684   3
   3  -7 -15 6.79407 2.56572   3
  -3  -7  15 9.20706 2.95043   1
   3  -7 -15 4.36877 2.94149   1
  -3  -7  15 4.20058 2.60381   2
   3  -7 -15 5.36302 2.21133   2
  -3   7  15 4.96788 3.02846   3
   3   7 -15 5.40641 2.44202   2
  -3   7  15 2.28401 2.43594   2
  -2  -7  15 41.1225 3.61869   2
   2  -7 -15 36.9401 2.77712   3
  -2  -7  15 40.2181 3.63343   3
   2  -7 -15 35.8655 3.17645   2
   2  -7 -15 35.6780 3.29185   1
  -2  -7  15 35.8257 2.64930   1
  -2   7  15 31.1927 2.73085   3
  -2   7  15 34.6431 2.54799   2
   2   7 -15 29.0128 3.48590   2
   1  -7 -15 2.21888 1.66049   2
  -1  -7  15 1.44680 1.65156   1
  -1  -7  15 2.58437 1.63028   3
   1  -7 -15 1.67896 1.96958   3
  -1   7  15 5.94802 2.26763   3
  -1   7  15 0.27316 1.97408   2
  -1   7  15 0.60786 2.21440   1
   0  -7  15 71.2330 3.42116   1
   0  -7 -15 70.3588 3.44279   2
   0  -7  15 71.9829 3.92575   2
   0  -7 -15 74.3688 4.50358   3
   0  -7  15 75.0251 3.32016   3
   0   7  15 78.8762 4.39889   3
   0   7  15 75.2703 3.90940   2
   0   7  15 67.4883 5.22506   1
  -1  -7 -15 116.460 5.58786   3
  -1  -7 -15 116.845 4.37426   2
   1  -7  15 115.231 3.81871   3
   1  -7  15 121.372 4.07937   1
   1   7  15 118.238 5.30509   1
   1   7  15 126.860 5.19444   3
   1   7  15 120.957 4.82168   2
  -2  -7 -15 1.69159 2.13916   2
   2  -7  15 3.18085 1.26145   1
   2   7  15 0.85258 2.34157   2
   2   7  15 -1.4638 2.58193   1
   2   7  15 0.48514 2.48999   3
   3   7  15 32.3556 3.77644   1
   3   7  15 30.2463 3.51895   2
   3   7  15 14.9019 3.41603   3
   3  -8 -15 4.35389 2.58543   2
  -3  -8  15 8.31101 3.04217   2
  -3  -8  15 3.73914 2.71821   3
   3  -8 -15 7.14788 2.99438   3
   3  -8 -15 5.06085 4.71731   1
  -3  -8  15 5.26681 3.40835   1
  -3   8  15 -0.6366 2.81353   2
   3   8 -15 3.93536 2.70707   2
  -2  -8  15 19.3137 2.77533   1
  -2  -8  15 24.1036 2.52725   3
   2  -8 -15 21.0275 2.81692   3
  -2  -8  15 24.0406 2.80881   2
   2  -8 -15 19.4966 2.48656   2
  -2   8  15 18.9180 2.73619   2
  -2   8  15 22.3953 3.33033   3
  -1  -8  15 77.1245 4.14348   1
   1  -8 -15 71.6044 3.94854   2
   1  -8 -15 75.7403 4.98892   3
  -1  -8  15 72.4969 4.01177   3
  -1  -8  15 78.1282 4.43090   2
  -1   8  15 82.2435 5.21540   3
  -1   8  15 76.6802 4.42904   2
   0  -8 -15 115.570 5.62804   3
   0  -8  15 111.022 4.34760   1
   0  -8 -15 119.582 4.45081   2
   0  -8  15 107.531 4.10611   3
   0   8  15 113.036 5.08391   2
   0   8  15 112.065 5.55384   3
   0   8  15 103.572 5.94782   1
   1  -8  15 29.9137 1.96085   3
  -1  -8 -15 39.8952 2.59310   2
   1  -8  15 39.6218 2.95999   1
  -1  -8 -15 42.3497 3.97523   3
   1   8  15 35.4488 3.19875   2
   1   8  15 38.1519 3.20853   3
   1   8  15 37.3973 3.50459   1
   2  -8  15 8.68610 1.58563   1
  -2  -8 -15 7.73341 2.94462   2
   2   8  15 12.0546 3.82368   1
   2   8  15 10.7494 3.17367   3
   2   8  15 11.3897 3.45826   2
  -2  -9  15 146.810 6.36033   2
  -2  -9  15 146.767 6.50215   1
   2  -9 -15 156.227 6.03600   2
   2  -9 -15 149.573 7.10487   3
  -2  -9  15 150.268 6.01330   3
  -2   9  15 146.706 6.54223   2
  -2   9  15 153.022 7.89333   3
   1  -9 -15 52.0770 4.37861   2
  -1  -9  15 50.8137 3.74455   2
   1  -9 -15 57.4428 4.01687   3
  -1  -9  15 52.1356 4.31946   1
  -1  -9  15 52.5638 3.99484   3
  -1   9  15 59.9500 4.84164   2
  -1   9  15 45.8823 4.25667   3
   0  -9 -15 10.6678 2.39391   2
   0  -9  15 8.87791 2.01828   3
   0  -9 -15 11.6971 3.05263   3
   0  -9  15 4.38466 2.10905   1
   0   9  15 3.48059 3.01918   2
   0   9  15 10.4942 3.37673   3
  -1  -9 -15 6.61478 2.66442   2
   1  -9  15 5.36590 1.95805   1
   1   9  15 13.9149 4.32120   1
   1   9  15 4.93289 3.58597   2
   1   9  15 4.40856 3.45416   3
  -5   0  16 106.658 5.65372   2
   5   0 -16 107.599 5.63455   2
   5   0 -16 105.882 6.93903   3
  -5   0  16 117.821 6.85244   3
   4   0 -16 0.55896 1.82319   2
   4   0 -16 2.00269 2.14368   3
  -4   0  16 3.15407 2.17483   3
   4   0 -16 -1.5122 2.85619   1
  -4   0  16 0.68615 1.99550   2
   3   0 -16 56.5551 4.03022   1
  -3   0  16 44.0648 3.87095   2
  -3   0  16 54.8712 3.36054   3
   3   0 -16 55.5567 3.40279   3
  -3   0  16 53.1197 3.79250   1
  -2   0  16 20.2107 1.65297   2
   2   0 -16 19.0423 1.76446   3
  -2   0  16 20.4992 1.80682   1
   2   0 -16 21.2135 1.83052   1
  -2   0  16 21.7418 1.73383   3
   2   0 -16 22.8963 1.63892   2
  -1   0  16 31.3568 2.29120   1
   1   0 -16 30.1917 1.92767   2
  -1   0  16 33.4239 2.22552   2
   1   0 -16 29.7878 2.51510   3
  -1   0  16 31.8840 2.35385   3
   0   0  16 30.9326 2.22636   3
   0   0 -16 32.6314 1.72203   2
   0   0 -16 30.9206 2.15456   3
   0   0  16 27.0890 2.12701   1
   0   0  16 26.9321 2.13700   2
   1   0  16 71.7286 2.85099   3
   1   0  16 71.6691 2.87357   2
   1   0  16 72.3817 2.79634   1
   2   0  16 13.1271 1.39178   1
   2   0  16 14.8148 1.63839   2
   2   0  16 13.8974 1.36482   3
   3   0  16 2.01540 1.36255   1
   3   0  16 1.02164 1.29341   3
   4   0  16 -2.6848 1.62990   1
  -5  -1  16 20.6208 3.40618   3
  -5  -1  16 16.8726 2.89644   2
   5  -1 -16 26.2465 3.57629   3
   5  -1 -16 22.1217 3.02425   2
   5   1 -16 25.2029 3.43810   3
  -5   1  16 25.9131 4.14708   3
   5   1 -16 26.5061 3.20224   2
  -4  -1  16 41.3671 3.32216   1
   4  -1 -16 49.1131 3.54628   2
  -4  -1  16 54.5750 4.25416   3
   4  -1 -16 49.4793 4.31375   3
   4  -1 -16 49.4132 3.48104   1
  -4  -1  16 45.2383 2.97660   2
  -4   1  16 48.0557 4.31946   3
   4   1 -16 44.7562 3.00830   3
  -4   1  16 48.7813 3.49679   2
   4   1 -16 43.2313 3.46032   2
  -3  -1  16 4.81110 2.00174   1
  -3  -1  16 5.48264 3.17186   2
  -3  -1  16 2.21884 2.15110   3
   3  -1 -16 2.24655 1.98921   1
   3  -1 -16 -0.3113 1.92510   2
   3  -1 -16 6.56464 1.76734   3
  -3   1  16 0.04662 1.95241   1
   3   1 -16 4.43952 2.68740   1
  -3   1  16 0.86339 1.71998   3
  -3   1  16 4.48229 2.27341   2
   3   1 -16 2.35808 1.75982   3
   2  -1 -16 33.7621 2.33973   1
  -2  -1  16 38.7857 2.81156   1
   2  -1 -16 36.4150 2.75187   3
   2  -1 -16 34.3721 2.23559   2
  -2  -1  16 33.8629 2.46851   2
  -2  -1  16 31.5755 2.66016   3
  -2   1  16 34.2543 2.69274   1
  -2   1  16 34.4069 2.71931   3
  -2   1  16 36.7491 2.53136   2
   2   1 -16 30.1276 2.07586   3
   2   1 -16 36.9708 2.18174   2
  -1  -1  16 165.793 4.89749   1
  -1  -1  16 166.624 4.82294   2
   1  -1 -16 159.573 4.97885   3
   1  -1 -16 163.956 4.61352   2
  -1  -1  16 168.657 4.87721   3
  -1   1  16 163.928 4.81713   2
   1   1 -16 162.071 4.51192   2
  -1   1  16 160.159 4.87779   1
  -1   1  16 165.754 4.92638   3
   1   1 -16 165.388 4.83332   3
   0  -1  16 45.2728 2.45230   2
   0  -1 -16 46.9731 2.55946   3
   0  -1  16 47.1357 2.49809   3
   0  -1  16 47.4784 2.36444   1
   0  -1 -16 48.0845 2.03792   2
   0   1  16 50.0176 2.53883   1
   0   1 -16 49.1293 2.34545   3
   0   1  16 54.6692 2.57346   2
   0   1  16 50.2993 2.56533   3
   1  -1  16 40.6650 2.33456   2
   1  -1  16 36.2808 2.09905   1
   1  -1  16 36.4768 2.17110   3
   1   1  16 35.2232 2.33304   2
   1   1  16 39.9049 2.36048   3
   1   1  16 34.7625 2.30703   1
   2  -1  16 11.5602 1.32746   1
   2  -1  16 10.0640 2.02225   2
   2  -1  16 10.3601 1.20287   3
   2   1  16 8.40228 1.45864   1
   2   1  16 11.5379 1.48059   3
   2   1  16 9.65474 1.60871   2
   3  -1  16 44.7383 2.39985   1
   3   1  16 44.3149 2.95318   1
   4   1  16 19.4581 2.10343   1
   5  -2 -16 15.7158 5.06858   1
  -5  -2  16 0.20082 2.90310   2
   5  -2 -16 -2.1295 3.16508   3
   5  -2 -16 0.85339 2.73419   2
  -5  -2  16 -3.5954 3.29080   3
   5   2 -16 -2.7159 3.32958   3
   5   2 -16 -0.9046 2.75061   2
  -5   2  16 3.21102 3.05850   2
   4  -2 -16 15.3162 2.19544   2
   4  -2 -16 21.5723 3.87453   1
  -4  -2  16 16.2209 3.13479   1
   4  -2 -16 14.5079 2.51840   3
  -4  -2  16 14.0093 2.49769   3
   4   2 -16 18.0996 2.56564   3
   4   2 -16 17.9597 2.16185   2
  -4   2  16 16.8320 2.72620   3
  -4   2  16 14.5873 2.30188   2
   3  -2 -16 18.3408 1.75135   2
   3  -2 -16 14.8733 1.90334   3
  -3  -2  16 18.7284 2.09761   1
  -3  -2  16 13.9697 2.13403   3
  -3  -2  16 15.0558 1.82090   2
   3  -2 -16 18.8921 2.30375   1
   3   2 -16 18.1801 2.29637   3
  -3   2  16 15.1045 2.12720   1
  -3   2  16 14.4243 2.12719   3
  -3   2  16 17.8302 1.96843   2
   2  -2 -16 36.7678 2.33182   2
   2  -2 -16 34.6931 3.13790   1
  -2  -2  16 41.1811 2.80191   1
  -2  -2  16 36.1223 2.80871   3
   2  -2 -16 34.6415 2.82043   3
  -2  -2  16 37.3711 2.50918   2
  -2   2  16 36.3099 2.86566   3
  -2   2  16 35.7719 2.83217   1
   2   2 -16 33.3533 2.96290   3
  -2   2  16 36.6922 2.55084   2
   2   2 -16 34.2298 2.26439   2
  -1  -2  16 6.36426 1.29531   3
  -1  -2  16 5.07489 1.31179   1
   1  -2 -16 7.50366 1.91741   1
   1  -2 -16 5.25237 1.16037   2
  -1  -2  16 7.25841 1.47935   2
   1  -2 -16 6.17959 1.56977   3
  -1   2  16 5.81271 1.34903   2
  -1   2  16 2.81186 1.37263   3
   1   2 -16 4.83789 1.35969   3
  -1   2  16 5.19945 1.42708   1
   1   2 -16 7.15396 1.02317   2
   0  -2 -16 168.973 5.09062   3
   0  -2  16 176.645 5.00365   2
   0  -2 -16 175.660 4.77351   2
   0  -2  16 173.802 5.00004   1
   0  -2  16 177.960 4.99011   3
   0   2  16 174.968 5.16204   1
   0   2  16 175.611 5.12546   3
   0   2  16 177.993 5.09545   2
   1  -2  16 31.4700 2.09270   3
   1  -2  16 29.7172 2.30339   2
   1  -2  16 30.3808 2.06032   1
   1   2  16 32.2142 2.34709   1
   1   2  16 28.3067 2.42946   3
   1   2  16 35.1413 2.41938   2
   2  -2  16 24.5023 1.73998   3
   2  -2  16 25.2868 1.91432   1
   2   2  16 28.0116 2.44701   3
   2   2  16 24.2376 1.95822   2
   2   2  16 27.1837 2.92025   1
   3  -2  16 24.8317 1.92864   1
   3   2  16 25.5482 1.95357   3
   3   2  16 25.6649 2.03177   1
   4   2  16 0.03175 2.13374   1
  -4  -3  16 10.8646 2.27340   2
  -4  -3  16 9.24836 2.65011   3
   4  -3 -16 15.0428 2.98923   1
   4  -3 -16 11.7587 2.29217   2
  -4  -3  16 10.5759 3.19113   1
   4  -3 -16 9.81458 2.50710   3
  -4   3  16 17.7164 2.90442   3
   4   3 -16 8.40641 2.92776   3
  -4   3  16 12.1800 2.25208   2
   4   3 -16 7.18860 2.13503   2
   3  -3 -16 53.9655 3.08345   2
   3  -3 -16 57.4063 4.48330   3
   3  -3 -16 49.5308 4.01112   1
  -3  -3  16 55.3456 3.70099   1
  -3  -3  16 53.1131 3.73868   3
  -3  -3  16 57.5178 3.51909   2
  -3   3  16 54.1119 3.99290   1
   3   3 -16 53.8540 2.96487   2
  -3   3  16 55.5835 3.35761   2
   3   3 -16 53.2960 4.01975   3
  -3   3  16 51.1500 3.72774   3
   2  -3 -16 269.806 7.72653   1
   2  -3 -16 284.356 7.68619   3
  -2  -3  16 273.654 7.51577   2
   2  -3 -16 272.927 7.40640   2
  -2  -3  16 275.557 7.67238   1
  -2  -3  16 278.582 7.64134   3
   2   3 -16 268.894 7.56342   3
  -2   3  16 276.222 7.56314   2
  -2   3  16 280.561 7.71821   3
   2   3 -16 271.075 7.23969   2
  -2   3  16 272.855 7.74852   1
  -1  -3  16 144.320 4.50220   3
  -1  -3  16 144.811 4.47287   1
   1  -3 -16 140.732 4.27298   2
  -1  -3  16 146.208 4.45441   2
   1  -3 -16 140.766 4.68838   3
   1  -3 -16 142.049 5.14013   1
   1   3 -16 141.514 4.05700   2
   1   3 -16 141.431 4.51384   3
  -1   3  16 145.806 4.76382   1
  -1   3  16 141.924 4.64449   3
  -1   3  16 142.354 4.51204   2
   0  -3 -16 31.9239 2.00181   2
   0  -3  16 29.6813 2.21746   3
   0  -3  16 29.7933 2.16238   1
   0  -3 -16 27.5347 1.83331   3
   0  -3  16 27.4508 2.33762   2
   0   3  16 29.2842 2.51937   3
   0   3  16 30.9184 2.31123   2
   0   3  16 30.8431 2.60966   1
   1  -3  16 166.108 4.65229   3
   1  -3  16 164.160 4.92326   2
   1  -3  16 163.097 4.72723   1
  -1  -3 -16 163.159 4.54443   2
   1   3  16 170.483 5.08479   3
   1   3  16 173.128 5.06564   2
   1   3  16 172.995 5.13358   1
   2  -3  16 4.88824 0.93800   3
   2   3  16 5.92506 2.67091   3
   2   3  16 6.12748 1.79810   2
   2   3  16 5.99866 1.65685   1
   3   3  16 12.8720 2.08425   1
   3   3  16 12.1982 1.95878   3
   4   3  16 19.3545 2.82116   3
   4   3  16 26.7680 2.80675   1
  -4  -4  16 32.2484 3.01505   2
  -4  -4  16 38.7477 3.85767   1
   4  -4 -16 37.4104 2.67344   2
  -4  -4  16 29.3877 2.91247   3
   4  -4 -16 32.0323 3.53350   1
   4  -4 -16 38.7195 3.06804   3
  -4   4  16 27.4112 2.69382   2
   4   4 -16 28.1335 2.60266   2
  -4   4  16 26.9001 3.11130   3
   4   4 -16 33.7548 3.28784   3
   3  -4 -16 317.419 9.07776   3
   3  -4 -16 307.940 8.58424   2
   3  -4 -16 304.102 9.05699   1
  -3  -4  16 293.333 9.34267   1
  -3  -4  16 330.921 8.88417   3
  -3   4  16 315.677 9.00152   3
   3   4 -16 312.774 8.92158   3
  -3   4  16 309.543 10.1074   1
   3   4 -16 316.235 8.51689   2
  -3   4  16 316.735 8.68484   2
  -2  -4  16 44.0258 3.31984   3
   2  -4 -16 51.3311 3.29456   3
   2  -4 -16 43.9485 3.78741   1
  -2  -4  16 44.4959 2.99810   2
  -2  -4  16 44.2357 3.16727   1
   2   4 -16 41.8254 2.52378   2
  -2   4  16 47.9342 3.41404   3
  -2   4  16 48.1856 3.67964   1
  -2   4  16 39.3209 2.89497   2
   2   4 -16 42.9764 3.29464   3
  -1  -4  16 22.4352 1.82361   2
   1  -4 -16 21.5340 1.94628   3
  -1  -4  16 18.6464 1.70080   1
  -1  -4  16 21.6925 1.67287   3
   1  -4 -16 21.1885 1.62683   2
  -1   4  16 22.2545 2.01828   2
   1   4 -16 19.6503 1.68016   2
  -1   4  16 19.7908 1.95539   3
  -1   4  16 19.6273 1.87849   1
   0  -4  16 39.6350 2.38207   3
   0  -4 -16 34.0628 2.24132   2
   0  -4 -16 36.9781 2.94067   3
   0  -4  16 39.5419 2.57059   2
   0  -4  16 39.0345 2.37566   1
   0   4  16 43.8759 2.73498   2
   0   4  16 37.8616 2.84136   1
   0   4  16 39.9751 2.89444   3
   1  -4  16 7.80886 1.57825   2
   1  -4  16 6.99469 1.15989   3
   1  -4  16 8.63282 1.41871   1
  -1  -4 -16 7.51477 1.34571   2
  -1  -4 -16 11.7708 2.20124   3
   1   4  16 4.27016 1.77157   2
   1   4  16 5.63641 1.63033   1
   1   4  16 4.83449 2.56328   3
   2  -4  16 11.3890 1.22047   1
   2   4  16 9.71211 1.95853   2
   2   4  16 10.7664 1.88349   3
   2   4  16 8.46988 1.89102   1
   3   4  16 0.96838 2.11639   1
   3   4  16 2.99095 2.56249   2
   3   4  16 0.09729 2.24431   3
  -4  -5  16 157.971 6.43075   2
   4  -5 -16 169.765 6.95417   3
   4  -5 -16 156.078 5.99010   2
  -4  -5  16 162.092 6.74763   3
   4  -5 -16 176.251 8.24033   1
  -4  -5  16 170.867 8.09712   1
   4   5 -16 167.434 6.31571   2
  -4   5  16 166.880 6.18696   2
  -4   5  16 166.317 7.94541   3
   4   5 -16 167.100 7.34661   3
   3  -5 -16 0.24325 2.29096   3
  -3  -5  16 -1.2036 2.24171   1
  -3  -5  16 1.58558 1.90397   3
   3  -5 -16 -1.3242 1.81244   2
   3  -5 -16 -0.4665 2.71963   1
  -3  -5  16 -0.1858 1.98302   2
   3   5 -16 1.16976 1.80172   2
  -3   5  16 -0.7481 2.13388   2
  -3   5  16 -2.0226 2.31229   3
   3   5 -16 7.11629 2.67670   3
   2  -5 -16 4.12560 1.68098   2
  -2  -5  16 1.82093 1.68711   3
   2  -5 -16 -1.0332 2.44729   1
  -2  -5  16 2.05612 1.77125   1
  -2   5  16 2.80209 2.06325   3
   2   5 -16 7.66938 3.40799   3
   2   5 -16 0.55344 1.61020   2
  -2   5  16 2.02949 1.76410   2
  -2   5  16 5.25903 2.12813   1
  -1  -5  16 1.10330 1.69380   1
  -1  -5  16 -3.4066 1.65131   2
  -1  -5  16 1.68338 2.63612   3
   1  -5 -16 -1.8221 1.81443   3
  -1   5  16 3.13390 2.73200   3
  -1   5  16 2.64866 1.92700   2
  -1   5  16 -1.2344 1.87537   1
   0  -5 -16 27.7538 2.46251   2
   0  -5 -16 29.8256 2.20319   3
   0  -5  16 26.2838 2.32261   3
   0  -5  16 29.6534 2.51595   1
   0  -5  16 28.3106 2.01758   2
   0   5  16 23.7627 2.11717   1
   0   5  16 32.1622 2.37365   3
   0   5  16 31.2463 2.45919   2
  -1  -5 -16 41.5579 3.03093   3
   1  -5  16 32.1532 2.45275   1
  -1  -5 -16 35.7049 2.66814   2
   1  -5  16 36.3084 2.15508   3
   1   5  16 38.0661 3.37651   1
   1   5  16 36.8048 3.29961   3
   2  -5  16 14.1029 1.37481   1
   2   5  16 12.8157 2.22072   2
   2   5  16 14.2495 2.26499   3
   2   5  16 15.7543 2.26204   1
   3   5  16 78.2812 4.78360   1
   3   5  16 71.1207 4.69409   3
   3   5  16 63.7899 5.29694   2
   4  -6 -16 18.1150 3.43828   2
  -4  -6  16 24.8064 3.34184   3
   4  -6 -16 18.1520 3.24256   3
   4  -6 -16 10.7772 4.81187   1
  -4  -6  16 24.4973 3.26496   2
   4   6 -16 21.6988 3.01498   2
  -4   6  16 15.8799 3.07952   2
   3  -6 -16 48.4433 3.75886   2
  -3  -6  16 48.7256 4.34518   2
  -3  -6  16 53.1931 4.26328   3
   3  -6 -16 56.2153 4.13559   1
   3  -6 -16 56.1514 4.96774   3
  -3  -6  16 58.0141 5.17096   1
  -3   6  16 50.2447 4.19115   2
  -3   6  16 50.1788 3.68263   3
   3   6 -16 53.4863 3.97356   2
  -2  -6  16 8.17467 2.01786   2
   2  -6 -16 3.22193 1.83078   2
  -2  -6  16 1.59048 1.83078   3
  -2  -6  16 4.97944 2.01971   1
   2  -6 -16 0.91926 2.00854   3
  -2   6  16 1.40300 2.00686   2
  -2   6  16 2.36104 2.96107   1
  -2   6  16 2.51620 2.22795   3
   2   6 -16 3.10917 1.59073   2
   1  -6 -16 2.84771 1.57442   2
  -1  -6  16 4.20245 1.62071   3
   1  -6 -16 4.77288 2.23666   3
  -1  -6  16 1.59265 1.67523   1
  -1  -6  16 2.37465 1.84229   2
  -1   6  16 4.60262 1.89875   2
  -1   6  16 3.51369 2.08314   3
  -1   6  16 3.51827 2.25522   1
   0  -6  16 26.9474 1.92877   1
   0  -6 -16 26.5788 2.05677   2
   0  -6  16 24.9960 2.32763   2
   0  -6 -16 25.9812 2.34098   3
   0  -6  16 29.9463 2.66040   3
   0   6  16 29.6592 2.44236   3
   0   6  16 24.4594 2.27165   2
  -1  -6 -16 137.288 4.71751   2
   1  -6  16 131.909 4.41988   1
   1   6  16 144.002 5.17251   2
   1   6  16 143.698 5.60132   1
   1   6  16 146.282 5.33815   3
   2  -6  16 39.9195 2.35595   1
   2   6  16 36.4205 2.99947   1
   2   6  16 40.0181 3.02718   2
   2   6  16 37.8536 2.85151   3
   3   6  16 15.4582 3.64539   2
   3   6  16 8.82648 3.01645   1
   3   6  16 11.6400 3.08370   3
  -3  -7  16 11.5166 3.34180   1
   3  -7 -16 6.82931 2.53873   2
  -3  -7  16 9.16683 2.85700   2
   3  -7 -16 12.6180 3.15927   3
  -3  -7  16 9.41139 2.70675   3
  -3   7  16 9.56938 3.45052   3
   3   7 -16 8.63326 2.53915   2
  -3   7  16 4.79125 2.78403   2
   2  -7 -16 20.8734 2.34099   2
  -2  -7  16 15.7150 2.53262   1
  -2  -7  16 16.0325 2.32243   3
   2  -7 -16 21.9035 2.63677   3
  -2  -7  16 21.6670 2.63394   2
  -2   7  16 15.8791 2.87327   3
  -2   7  16 11.1251 2.44755   2
  -1  -7  16 0.86405 1.75058   3
  -1  -7  16 3.76473 2.21827   2
   1  -7 -16 2.89589 1.77403   2
   1  -7 -16 4.93490 2.46787   3
  -1  -7  16 3.09473 1.88299   1
  -1   7  16 -1.1196 2.47623   3
  -1   7  16 5.03586 2.34392   2
   0  -7  16 115.939 5.42109   2
   0  -7  16 109.057 4.23779   1
   0  -7 -16 105.362 4.47018   2
   0  -7  16 108.471 4.03846   3
   0  -7 -16 113.659 5.31055   3
   0   7  16 110.742 5.01548   2
   0   7  16 108.329 5.23294   3
   0   7  16 113.186 5.72456   1
   1  -7  16 75.9541 3.22744   3
   1  -7  16 78.4021 3.46245   1
  -1  -7 -16 82.5383 4.20224   2
   1   7  16 75.1270 4.94411   3
   1   7  16 78.0944 5.31641   1
   1   7  16 72.1112 4.47170   2
   2  -7  16 73.9612 3.18009   1
   2   7  16 85.8632 5.56488   1
   2   7  16 86.2444 5.11290   2
   2   7  16 87.6904 5.53127   3
  -2  -8  16 6.12708 2.85576   1
   2  -8 -16 8.44601 3.06638   3
  -2  -8  16 6.63626 2.53833   3
   2  -8 -16 7.49153 2.55748   2
  -2  -8  16 6.55764 2.89176   2
  -2   8  16 7.63160 3.44754   3
  -2   8  16 3.80321 2.85961   2
  -1  -8  16 85.7650 4.42226   3
   1  -8 -16 84.7926 4.44830   2
  -1  -8  16 87.0295 4.58644   1
  -1  -8  16 84.9516 5.05069   2
   1  -8 -16 82.6049 6.17021   3
  -1   8  16 79.2892 4.98549   2
  -1   8  16 93.7913 5.85731   3
   0  -8  16 74.1748 3.80627   3
   0  -8 -16 85.6800 5.68201   3
   0  -8 -16 88.5053 4.59726   2
   0  -8  16 78.4976 4.08906   1
   0   8  16 76.6924 4.97018   2
   0   8  16 85.7644 5.61879   3
   0   8  16 96.1999 6.15205   1
  -1  -8 -16 23.5129 2.92531   2
   1  -8  16 21.5530 2.05988   1
   1  -8  16 21.3836 2.12706   3
   1   8  16 27.8231 3.65722   1
   1   8  16 24.7780 3.07221   2
   1   8  16 23.7591 3.27057   3
  -1  -9  16 17.9658 2.56967   3
  -1  -9  16 23.8656 2.94595   1
   1  -9 -16 17.4111 3.79555   3
   1  -9 -16 19.3745 3.22994   2
  -1   9  16 24.2797 4.34469   3
  -1   9  16 19.3793 3.93334   2
   0  -9  16 12.6626 2.53327   1
   0  -9 -16 14.0219 2.89846   2
   0  -9 -16 18.6126 4.17119   3
   0  -9  16 7.76113 2.25352   3
   0   9  16 13.8703 3.79217   3
   0   9  16 18.1618 3.89366   2
  -4   0  17 16.6423 2.40430   2
   4   0 -17 15.3184 2.70159   3
   4   0 -17 20.1111 2.41214   2
  -4   0  17 15.3185 2.58285   3
  -3   0  17 57.5727 3.47259   2
  -3   0  17 58.5040 4.28072   1
  -3   0  17 70.1435 3.91983   3
   3   0 -17 62.9340 3.25577   2
   3   0 -17 62.8911 4.03331   3
   2   0 -17 5.86122 1.86678   3
  -2   0  17 2.29386 1.62699   1
   2   0 -17 6.83213 1.45128   2
  -2   0  17 5.06168 1.49215   2
  -2   0  17 6.49124 1.62178   3
   1   0 -17 24.1015 1.87282   3
  -1   0  17 23.8763 1.78626   3
  -1   0  17 29.3845 2.49804   1
  -1   0  17 31.0100 2.43191   2
   1   0 -17 27.1220 1.97662   2
   0   0 -17 75.6097 3.25181   3
   0   0  17 71.7508 2.97429   1
   0   0  17 69.8591 3.08797   2
   0   0  17 71.0044 3.14911   3
   1   0  17 71.2822 3.13577   2
   1   0  17 76.4663 3.04888   3
   1   0  17 74.3755 3.01106   1
   2   0  17 5.82748 2.45050   2
   2   0  17 -0.9706 1.35562   3
   2   0  17 1.18076 1.35325   1
   3   0  17 2.67112 1.57498   1
   4   0  17 28.4750 2.11411   1
  -4  -1  17 54.2290 4.12144   2
   4  -1 -17 55.7465 4.73268   3
   4  -1 -17 49.8895 3.94741   2
  -4  -1  17 64.9024 4.75051   3
   4   1 -17 47.8968 3.43169   3
   4   1 -17 56.7216 3.86223   2
  -4   1  17 54.0124 3.35974   3
  -4   1  17 54.2472 3.96166   2
  -3  -1  17 16.5850 2.14481   2
   3  -1 -17 14.0764 1.83064   2
   3  -1 -17 13.2799 2.21731   3
  -3  -1  17 9.18249 2.07170   3
  -3  -1  17 16.8273 2.44649   1
  -3   1  17 11.9045 2.06496   3
   3   1 -17 15.1847 1.81619   2
  -3   1  17 14.8779 2.25383   1
  -3   1  17 11.8743 1.94130   2
   3   1 -17 13.9571 2.41206   3
  -2  -1  17 58.1899 3.37091   1
   2  -1 -17 58.2107 2.74462   2
   2  -1 -17 61.8687 3.58771   3
  -2  -1  17 60.7518 3.28017   3
  -2  -1  17 54.3872 3.08904   2
  -2   1  17 58.2725 3.20150   2
  -2   1  17 60.7351 3.40438   1
  -2   1  17 56.5936 3.30396   3
   2   1 -17 55.0842 2.78358   2
   2   1 -17 58.1836 3.40781   3
  -1  -1  17 12.4030 1.64176   2
   1  -1 -17 11.1690 1.59315   3
  -1  -1  17 12.6917 1.55777   3
   1  -1 -17 11.1829 1.33575   2
  -1  -1  17 12.7505 1.54803   1
  -1   1  17 13.3881 1.56911   2
  -1   1  17 14.3552 1.58480   1
   1   1 -17 13.3252 1.61060   3
   1   1 -17 13.6058 1.27638   2
  -1   1  17 11.6425 1.58936   3
   0  -1 -17 88.4879 3.04328   2
   0  -1 -17 90.8079 3.75054   3
   0  -1  17 92.8823 3.39450   1
   0  -1  17 98.6037 3.46858   3
   0  -1  17 91.4767 3.42089   2
   0   1  17 96.5180 3.47692   2
   0   1  17 92.4471 3.57560   3
   0   1  17 96.8564 3.49875   1
   1  -1  17 72.8973 2.93829   3
   1  -1  17 69.5821 2.89590   1
   1  -1  17 73.0856 3.11147   2
   1   1  17 76.4923 3.14618   3
   1   1  17 69.6179 3.10032   1
   1   1  17 67.6377 3.14123   2
   2  -1  17 9.55643 1.38003   3
   2  -1  17 11.1905 1.47925   1
   2   1  17 9.57882 1.89848   2
   2   1  17 8.75167 1.54938   1
   2   1  17 7.30099 1.57026   3
   3  -1  17 2.94624 1.42998   1
   3   1  17 -0.2736 1.69965   1
   3   1  17 0.41285 1.72844   3
   4   1  17 8.66652 2.31163   1
   4  -2 -17 86.0793 5.22011   3
  -4  -2  17 92.1565 5.38962   3
   4  -2 -17 90.1190 4.60432   2
  -4  -2  17 101.519 7.40196   1
   4   2 -17 90.7679 4.39768   2
   4   2 -17 87.7823 6.07846   3
  -4   2  17 92.4880 5.78667   3
  -4   2  17 86.4712 4.62719   2
  -3  -2  17 18.6464 2.22802   2
  -3  -2  17 22.1395 2.26995   3
   3  -2 -17 25.8274 2.02692   2
  -3  -2  17 22.1157 2.57815   1
   3  -2 -17 21.6785 2.46046   3
  -3   2  17 22.2880 2.38523   3
  -3   2  17 20.8727 2.11847   2
   3   2 -17 24.5613 1.99729   2
  -3   2  17 24.8343 2.57188   1
   3   2 -17 29.6167 2.66664   3
  -2  -2  17 146.489 4.80888   2
  -2  -2  17 152.141 5.01961   1
   2  -2 -17 149.344 5.16837   3
   2  -2 -17 147.243 4.60161   2
  -2   2  17 146.880 5.09129   1
   2   2 -17 144.799 5.00360   3
   2   2 -17 144.403 4.45863   2
  -2   2  17 152.814 5.24114   2
  -2   2  17 156.109 5.28721   3
  -1  -2  17 327.185 8.56821   2
   1  -2 -17 326.142 8.66034   3
  -1  -2  17 329.184 8.58071   3
   1  -2 -17 324.379 8.38626   2
  -1  -2  17 314.840 8.56276   1
   1   2 -17 312.251 8.19224   2
  -1   2  17 320.187 8.58783   2
  -1   2  17 323.936 8.67289   3
   1   2 -17 322.949 8.61717   3
  -1   2  17 324.977 8.70599   1
   0  -2  17 110.217 3.75431   1
   0  -2  17 105.880 3.84414   2
   0  -2 -17 110.131 4.02274   3
   0  -2 -17 110.786 3.49486   2
   0  -2  17 111.973 3.72413   3
   0   2  17 109.826 3.99347   2
   0   2  17 113.527 3.97079   1
   0   2  17 111.153 3.99487   3
   1  -2  17 19.5251 1.63572   1
   1  -2  17 21.9856 1.87299   2
   1  -2  17 24.3014 2.17008   3
   1   2  17 18.0074 1.76547   3
   1   2  17 20.5857 1.86834   1
   1   2  17 20.9470 1.86128   2
   2  -2  17 14.0131 1.28319   3
   2  -2  17 15.1617 1.44162   1
   2   2  17 13.2275 1.79443   1
   2   2  17 13.9220 1.81501   3
   2   2  17 16.2508 2.04394   2
   3  -2  17 13.9718 1.41302   1
   3   2  17 15.2155 2.05985   3
   3   2  17 9.75497 2.03734   1
  -4  -3  17 20.3470 2.72151   2
  -4  -3  17 17.3711 3.03283   3
   4  -3 -17 18.0419 2.85571   3
  -4  -3  17 10.0716 3.81164   1
   4  -3 -17 13.5547 2.50922   2
   4   3 -17 20.1311 3.05751   3
  -4   3  17 16.0415 3.14393   3
   4   3 -17 23.3315 2.74772   2
  -4   3  17 19.8241 2.71840   2
   3  -3 -17 104.190 4.23583   2
   3  -3 -17 107.969 4.83573   3
  -3  -3  17 105.908 4.96288   1
  -3  -3  17 114.897 4.64306   2
  -3  -3  17 115.133 4.88824   3
  -3   3  17 103.780 5.42279   1
   3   3 -17 103.988 4.23858   2
  -3   3  17 114.707 5.06888   3
   3   3 -17 107.099 4.88018   3
  -3   3  17 102.390 4.53708   2
  -2  -3  17 172.721 5.59790   2
  -2  -3  17 177.783 5.98126   1
  -2  -3  17 178.798 5.72468   3
   2  -3 -17 176.945 5.52097   2
   2  -3 -17 179.829 5.85681   3
  -2   3  17 179.695 6.00500   1
  -2   3  17 180.042 5.59208   2
  -2   3  17 180.434 6.32749   3
   2   3 -17 181.298 5.16519   2
   2   3 -17 182.662 5.70051   3
   1  -3 -17 205.697 5.92173   2
  -1  -3  17 220.230 6.15339   3
  -1  -3  17 214.437 6.13182   2
   1  -3 -17 209.419 6.39118   3
  -1  -3  17 209.844 6.14243   1
  -1   3  17 221.454 6.42047   1
   1   3 -17 205.413 5.58559   2
  -1   3  17 211.668 6.30068   3
  -1   3  17 217.946 6.18832   2
   0  -3  17 93.6975 3.43915   3
   0  -3 -17 95.5147 3.81616   3
   0  -3  17 87.7869 3.53635   2
   0  -3  17 94.4543 3.44358   1
   0  -3 -17 94.2899 3.25099   2
   0   3  17 94.2192 3.69079   2
   0   3  17 87.9594 3.71604   3
   0   3  17 96.8782 3.80845   1
   1  -3  17 21.9726 1.84942   2
   1  -3  17 20.1224 1.83746   1
   1  -3  17 24.4392 2.14756   3
   1   3  17 18.6975 2.54676   3
   1   3  17 22.4459 1.91231   2
   1   3  17 19.9804 2.46692   1
   2  -3  17 36.2822 2.27214   1
   2  -3  17 32.9462 2.04712   3
   2   3  17 43.1297 3.15583   3
   2   3  17 30.8700 2.29838   1
   2   3  17 33.5295 2.46842   2
   3   3  17 13.3713 2.23663   1
   3   3  17 14.2952 2.15781   3
   4  -4 -17 44.4480 3.02634   2
   4  -4 -17 52.0384 3.76440   3
  -4  -4  17 32.6645 3.23803   3
  -4  -4  17 35.1604 3.22736   2
   4   4 -17 39.9246 3.78866   3
  -4   4  17 37.3424 3.08849   2
  -4   4  17 40.1648 3.60523   3
   4   4 -17 44.2458 3.19855   2
  -3  -4  17 56.1579 4.09129   3
  -3  -4  17 53.7089 4.56528   1
   3  -4 -17 54.1146 4.36884   3
   3  -4 -17 52.9468 3.51506   2
  -3   4  17 56.0955 4.44149   3
  -3   4  17 54.2751 3.83839   2
   3   4 -17 48.8793 3.34121   2
   3   4 -17 61.5545 3.95879   3
  -2  -4  17 74.2882 3.77267   3
  -2  -4  17 74.7275 3.75622   2
   2  -4 -17 74.5695 4.08396   3
   2  -4 -17 70.4544 3.42259   2
  -2  -4  17 71.0959 3.81838   1
  -2   4  17 74.2877 4.13408   3
   2   4 -17 73.5491 3.35478   2
  -2   4  17 72.2113 4.32716   1
  -2   4  17 80.4805 3.84529   2
   2   4 -17 84.7616 5.81495   3
  -1  -4  17 1.86245 1.70183   3
  -1  -4  17 0.68250 1.64142   2
  -1  -4  17 0.12770 1.53459   1
   1  -4 -17 2.60660 1.54389   2
   1  -4 -17 -0.8342 1.82701   3
  -1   4  17 -0.6344 1.71349   3
  -1   4  17 1.89004 2.00989   2
  -1   4  17 4.40739 1.90478   1
   0  -4 -17 1.76034 1.32481   2
   0  -4 -17 0.80241 1.76944   3
   0  -4  17 5.55072 1.35547   3
   0  -4  17 3.45571 1.44231   1
   0  -4  17 5.64223 1.68218   2
   0   4  17 4.24451 1.84295   1
   0   4  17 3.75026 1.76782   3
   0   4  17 5.50911 1.64671   2
  -1  -4 -17 33.2363 2.38491   2
   1  -4  17 35.1301 2.29555   3
   1  -4  17 34.9627 2.49677   1
   1   4  17 31.5548 2.27525   3
   1   4  17 40.2558 3.34723   1
   1   4  17 29.8855 2.39133   2
   2  -4  17 74.2064 2.93442   1
   2   4  17 71.4684 4.07701   1
   2   4  17 80.0545 4.22746   2
   2   4  17 72.0004 4.01329   3
   3   4  17 9.68062 2.51047   3
   3   4  17 10.1367 2.52916   1
  -4  -5  17 23.5526 3.33650   3
   4  -5 -17 22.0037 2.88270   2
   4  -5 -17 26.8634 3.61863   3
  -4  -5  17 25.3830 3.23540   2
  -4   5  17 17.8488 4.32772   3
   4   5 -17 39.5646 3.25985   2
  -4   5  17 22.6849 3.23182   2
  -3  -5  17 3.07611 2.77261   1
   3  -5 -17 2.57690 2.52320   3
  -3  -5  17 4.86450 2.14662   3
   3  -5 -17 2.77478 2.00671   2
  -3  -5  17 3.52083 2.27047   2
   3   5 -17 2.14813 2.22141   2
  -3   5  17 1.92104 2.77294   3
  -3   5  17 2.47910 2.47675   2
   2  -5 -17 68.1223 4.33300   3
  -2  -5  17 66.4328 3.90690   3
   2  -5 -17 63.0190 3.43946   2
  -2  -5  17 65.8503 4.02074   1
  -2   5  17 72.7457 4.56692   3
   2   5 -17 67.5599 3.15812   2
  -2   5  17 73.8467 3.94776   2
  -2   5  17 60.3440 4.51241   1
  -1  -5  17 6.50308 1.69261   1
  -1  -5  17 4.79554 1.97171   2
   1  -5 -17 6.32450 1.56959   2
   1  -5 -17 5.33701 2.11614   3
  -1  -5  17 4.74601 1.68106   3
  -1   5  17 8.07802 2.30924   1
  -1   5  17 7.57971 2.12564   3
  -1   5  17 5.32109 2.09575   2
   0  -5  17 3.12324 1.52908   1
   0  -5 -17 -0.7039 2.04692   3
   0  -5  17 0.49648 1.90826   2
   0  -5  17 2.36697 1.45583   3
   0   5  17 2.26624 2.05188   1
   0   5  17 1.94918 1.95716   3
   0   5  17 -2.1240 1.82605   2
  -1  -5 -17 -0.3326 1.47327   2
   1  -5  17 -0.4599 1.43770   1
   1   5  17 3.09450 2.07026   2
   1   5  17 1.66591 2.03206   3
   1   5  17 -2.4664 2.06570   1
   2  -5  17 23.9845 1.65358   1
   2   5  17 22.1212 2.90073   2
   2   5  17 22.1228 2.63376   3
   2   5  17 24.1785 2.57425   1
   3   5  17 69.4536 5.27135   1
   3   5  17 75.1714 5.43811   3
  -3  -6  17 75.1855 6.04690   1
   3  -6 -17 63.5916 4.32449   2
  -3  -6  17 68.6975 4.83032   3
  -3  -6  17 71.6599 4.82316   2
   3  -6 -17 78.2346 5.52249   3
   3   6 -17 66.5014 4.23837   2
  -3   6  17 74.5737 6.31659   3
  -3   6  17 70.3012 4.83837   2
   2  -6 -17 21.5836 2.69508   3
  -2  -6  17 22.1005 2.63753   2
   2  -6 -17 19.3052 2.26146   2
  -2  -6  17 19.4866 2.28670   3
  -2  -6  17 19.7684 2.50580   1
  -2   6  17 20.8596 2.52714   2
   2   6 -17 23.3445 2.87067   2
  -2   6  17 18.4182 2.80979   3
  -1  -6  17 -2.2218 2.04209   2
   1  -6 -17 1.77652 1.80692   2
  -1  -6  17 2.28801 1.69211   3
  -1  -6  17 -1.5950 1.80567   1
   1  -6 -17 2.06616 2.47616   3
  -1   6  17 1.59427 2.64874   1
  -1   6  17 -0.4797 2.16187   3
  -1   6  17 1.96434 2.15431   2
   0  -6  17 8.05256 2.24403   2
   0  -6 -17 11.8832 2.46852   3
   0  -6  17 6.33002 1.75069   1
   0  -6 -17 9.92175 1.82344   2
   0  -6  17 6.89297 1.58548   3
   0   6  17 11.0048 2.23009   2
   0   6  17 7.33166 2.40883   1
   0   6  17 7.71381 2.32901   3
   1  -6  17 18.8808 1.84895   1
  -1  -6 -17 17.1068 2.00437   2
   1  -6  17 18.4169 1.65619   3
   1   6  17 22.5648 2.72580   1
   1   6  17 19.6214 2.57320   3
   1   6  17 19.8607 2.65555   2
   2  -6  17 137.222 4.28765   1
   2   6  17 128.133 6.08826   1
   2   6  17 151.127 5.95802   3
   2   6  17 135.761 6.03484   2
  -3  -7  17 35.2859 3.98993   3
   3  -7 -17 37.6583 4.97560   2
  -3  -7  17 35.2543 3.90426   1
  -3  -7  17 28.8352 3.77589   2
  -3   7  17 35.0811 4.21728   3
   3   7 -17 41.9871 4.30525   2
  -3   7  17 30.8382 3.61531   2
  -2  -7  17 78.0152 4.78731   3
   2  -7 -17 71.6703 4.41878   2
   2  -7 -17 76.8392 5.87301   3
  -2  -7  17 79.7865 4.96948   2
  -2  -7  17 73.8998 5.29476   1
  -2   7  17 73.1708 4.95523   2
  -2   7  17 83.7611 6.04774   3
   1  -7 -17 2.92531 2.07467   2
   1  -7 -17 1.31149 2.65549   3
  -1  -7  17 1.37368 1.99833   3
  -1  -7  17 1.69505 2.10765   1
  -1  -7  17 -0.4694 2.54630   2
  -1   7  17 1.93222 2.74587   3
  -1   7  17 5.00984 2.51243   2
  -1   7  17 3.97984 3.36310   1
   0  -7  17 42.3833 3.22272   3
   0  -7 -17 45.6242 3.58821   2
   0  -7 -17 43.9757 3.65929   3
   0  -7  17 36.4506 3.44471   1
   0   7  17 40.6502 3.08751   2
   0   7  17 44.7188 3.42146   1
   0   7  17 39.9781 3.19440   3
   1  -7  17 99.5191 3.91116   1
   1  -7  17 83.7420 3.69251   3
  -1  -7 -17 96.7350 4.37924   2
   1   7  17 87.2347 6.10561   1
   1   7  17 78.5588 5.58961   3
   1   7  17 92.2506 5.15846   2
   2  -7  17 5.93936 1.63209   1
   2   7  17 6.81945 3.40418   2
   2   7  17 16.1026 3.30817   3
   2   7  17 11.7250 3.41238   1
   2  -8 -17 0.54189 3.98083   2
  -2  -8  17 -3.7395 4.14466   3
  -2   8  17 -0.6495 3.83060   3
  -1  -8  17 103.001 5.21867   1
  -1  -8  17 104.392 5.03357   3
   1  -8 -17 107.540 6.38860   3
  -1  -8  17 107.122 5.99896   2
   1  -8 -17 105.534 4.96317   2
  -1   8  17 113.234 6.59216   3
  -1   8  17 99.1756 5.65111   2
   0  -8 -17 11.6727 2.58815   2
   0  -8  17 13.1770 2.15853   3
   0  -8  17 11.2346 2.29715   1
   0  -8 -17 12.4317 5.22297   3
   0   8  17 -1.3491 4.10458   1
   0   8  17 17.4748 3.35114   3
   0   8  17 10.4285 3.08626   2
  -1  -8 -17 -0.5251 2.69640   2
   1  -8  17 2.29169 2.00710   1
   1   8  17 1.54430 3.77289   1
   1   8  17 3.85232 3.13142   2
   1   8  17 2.48645 3.45532   3
   4   0 -18 27.8257 2.71632   2
  -4   0  18 30.4129 3.08886   2
   4   0 -18 25.2426 3.58021   3
  -4   0  18 22.5827 3.10013   3
   3   0 -18 0.70975 1.75354   2
   3   0 -18 0.15294 2.87411   3
  -3   0  18 -1.8399 1.87821   2
  -3   0  18 -1.4660 2.06138   3
   2   0 -18 24.6401 1.97740   2
  -2   0  18 26.1121 2.36771   2
  -2   0  18 26.1196 2.19601   1
   2   0 -18 27.0391 2.24872   3
  -2   0  18 24.9061 2.11203   3
   1   0 -18 26.6015 2.22081   2
  -1   0  18 31.9501 2.90881   1
  -1   0  18 25.6392 2.01624   2
  -1   0  18 23.6949 2.86071   3
   1   0 -18 27.8212 2.18165   3
   0   0  18 56.2966 2.98127   1
   0   0  18 57.1163 3.17327   3
   0   0  18 58.5276 3.07909   2
   1   0  18 112.408 4.12153   2
   1   0  18 113.254 3.97024   1
   1   0  18 107.623 4.03675   3
   2   0  18 194.538 5.67631   1
   2   0  18 186.274 5.51956   3
   3   0  18 -0.7896 1.81102   1
   4  -1 -18 62.6630 5.70828   3
   4  -1 -18 66.7218 4.40485   2
  -4  -1  18 63.2188 4.78096   2
  -4  -1  18 76.4636 5.42617   3
  -4   1  18 72.9570 5.58969   3
  -4   1  18 63.6057 4.46818   2
   4   1 -18 60.1487 4.37349   2
   4   1 -18 64.3665 4.25391   3
   3  -1 -18 17.0940 2.15359   2
  -3  -1  18 10.3711 2.23392   3
  -3  -1  18 12.9224 2.66038   1
  -3  -1  18 15.6584 2.35999   2
   3  -1 -18 14.6195 2.61087   3
  -3   1  18 14.0270 2.25059   3
   3   1 -18 13.8036 1.94509   2
  -3   1  18 13.7594 2.23697   2
  -3   1  18 17.7974 2.82048   1
  -2  -1  18 36.3388 2.56682   1
  -2  -1  18 34.3357 2.56332   2
   2  -1 -18 37.1443 2.49246   3
  -2  -1  18 36.9922 2.37113   3
  -2   1  18 36.9713 3.06285   2
  -2   1  18 40.4761 3.37726   1
  -2   1  18 32.0367 2.32855   3
   2   1 -18 38.7795 2.49307   3
   2   1 -18 37.3188 2.54487   2
  -1  -1  18 120.368 4.31895   2
   1  -1 -18 120.747 3.90010   2
   1  -1 -18 122.821 4.49244   3
  -1  -1  18 125.744 4.40386   1
   1   1 -18 125.781 4.64704   3
  -1   1  18 116.734 4.25761   2
  -1   1  18 125.936 4.44480   1
   1   1 -18 122.306 3.85900   2
   0  -1  18 270.067 7.40491   2
   0  -1  18 272.797 7.37610   3
   0   1  18 267.618 7.47211   1
   0   1  18 276.582 7.44051   2
   0   1  18 261.426 7.62021   3
   1  -1  18 120.383 4.42378   2
   1  -1  18 123.322 4.11617   1
   1  -1  18 128.768 4.18128   3
   1   1  18 126.368 4.36564   1
   1   1  18 119.358 4.39178   2
   1   1  18 115.922 6.03091   3
   2  -1  18 0.83115 1.50983   1
   2   1  18 -0.3346 1.69481   3
   2   1  18 -1.2325 1.67729   1
   3  -1  18 22.6204 1.94610   1
   3   1  18 26.7412 2.36238   3
   3   1  18 21.5751 2.26777   1
  -4  -2  18 80.2452 5.73303   3
   4  -2 -18 70.2210 4.64967   2
   4  -2 -18 62.3630 5.59889   3
  -4   2  18 68.4063 4.79743   2
   4   2 -18 65.0951 4.45064   2
  -4   2  18 71.4589 6.27276   3
   4   2 -18 73.3301 4.17130   3
  -3  -2  18 176.763 6.73273   1
   3  -2 -18 185.843 6.59948   3
  -3  -2  18 188.213 6.44181   3
   3  -2 -18 176.517 5.78803   2
  -3  -2  18 183.936 6.17354   2
  -3   2  18 184.837 6.12166   2
   3   2 -18 134.602 9.93851   3
   3   2 -18 184.131 5.76930   2
  -3   2  18 195.853 6.58527   3
  -3   2  18 194.035 6.72650   1
   2  -2 -18 13.7079 1.71384   2
  -2  -2  18 11.8539 1.97844   3
  -2  -2  18 12.1010 1.87128   2
  -2  -2  18 11.2455 2.19684   1
   2  -2 -18 13.9521 2.21385   3
   2   2 -18 12.6726 1.61016   2
  -2   2  18 14.6845 2.11563   3
  -2   2  18 10.7307 2.10892   1
  -2   2  18 13.4412 2.06475   2
   2   2 -18 14.1063 2.32083   3
   1  -2 -18 188.455 5.94234   3
  -1  -2  18 183.868 6.15806   3
   1  -2 -18 194.760 5.45454   2
  -1  -2  18 191.719 5.76862   2
   1   2 -18 186.935 5.20486   2
  -1   2  18 194.852 5.84622   2
  -1   2  18 198.819 6.04426   1
  -1   2  18 194.793 6.00401   3
   0  -2 -18 196.053 5.37349   2
   0  -2  18 194.918 5.78511   3
   0  -2  18 195.964 5.76744   2
   0  -2  18 191.661 5.84396   1
   0   2  18 196.263 6.33665   3
   0   2  18 198.839 7.29202   1
   0   2  18 189.363 5.81683   2
   1  -2  18 110.032 3.79324   1
   1  -2  18 108.718 4.10677   2
   1  -2  18 103.710 3.66129   3
   1   2  18 106.793 4.15071   2
   1   2  18 101.358 4.12441   1
   1   2  18 102.751 4.12637   3
   2  -2  18 6.20220 1.47969   1
   2  -2  18 6.57779 1.37128   3
   2   2  18 6.17578 2.27176   2
   2   2  18 4.84307 1.84271   1
   2   2  18 4.27471 1.94142   3
   3  -2  18 0.35553 1.47672   1
   3   2  18 1.16185 2.21325   3
   3   2  18 -3.3636 2.03200   1
  -4  -3  18 17.5585 3.38785   3
   4  -3 -18 14.3776 2.64280   2
  -4  -3  18 16.6025 2.93837   2
   4  -3 -18 11.7046 3.27531   3
   4   3 -18 10.7565 3.45025   3
  -4   3  18 19.0910 3.55713   3
  -4   3  18 14.4305 2.89054   2
   4   3 -18 18.3204 2.99354   2
  -3  -3  18 156.738 5.98476   3
  -3  -3  18 155.064 5.80436   2
   3  -3 -18 156.224 6.00606   3
   3  -3 -18 153.132 5.37656   2
  -3  -3  18 156.849 6.39497   1
  -3   3  18 157.234 9.94397   1
   3   3 -18 157.054 5.26984   2
  -3   3  18 160.554 5.74993   2
  -3   3  18 158.164 6.22011   3
   3   3 -18 141.381 7.61930   3
  -2  -3  18 124.770 4.79816   2
  -2  -3  18 127.449 4.98914   3
   2  -3 -18 128.693 4.51706   2
   2  -3 -18 134.071 5.35677   3
  -2  -3  18 133.290 5.11354   1
  -2   3  18 141.372 5.22462   3
   2   3 -18 133.647 4.45929   2
  -2   3  18 123.558 4.79526   2
  -2   3  18 133.090 5.44607   1
   1  -3 -18 1.04007 1.57848   2
  -1  -3  18 1.37196 1.59342   1
  -1  -3  18 2.99725 1.70950   3
   1  -3 -18 0.33594 1.86767   3
  -1  -3  18 2.98994 2.46362   2
  -1   3  18 1.84873 1.85466   3
  -1   3  18 -0.0581 1.82012   1
  -1   3  18 0.98878 1.72797   2
   0  -3 -18 32.2257 1.97022   2
   0  -3  18 36.7119 2.94407   2
   0  -3 -18 41.7104 4.19439   3
   0  -3  18 34.2188 2.70502   1
   0  -3  18 29.0332 2.55224   3
   0   3  18 41.8522 3.28536   3
   0   3  18 33.9719 2.51799   2
   0   3  18 30.3189 2.40653   1
   1  -3  18 30.2808 2.58385   1
   1   3  18 28.8424 2.33165   3
   1   3  18 30.5263 2.28944   1
   1   3  18 29.7277 2.39830   2
   2  -3  18 5.93142 1.45432   1
   2   3  18 3.42253 2.57817   2
   2   3  18 4.24258 2.04614   1
   2   3  18 4.51970 2.02036   3
   3   3  18 2.72675 2.49206   1
   3   3  18 -0.2791 2.49610   3
  -4  -4  18 29.6516 3.52747   3
   4  -4 -18 33.3030 3.24890   2
   4  -4 -18 38.9607 3.65015   3
  -4  -4  18 35.7052 3.99286   2
  -4   4  18 28.4984 3.23899   2
   4   4 -18 38.9081 3.19869   2
  -4   4  18 29.7458 3.79945   3
  -3  -4  18 24.8353 3.14839   1
   3  -4 -18 25.5212 2.50782   2
  -3  -4  18 27.6381 2.71062   3
   3  -4 -18 25.5288 2.86975   3
  -3   4  18 24.4102 2.70286   2
  -3   4  18 28.8317 3.05319   3
   3   4 -18 26.1823 2.52770   2
   2  -4 -18 30.6262 2.79207   3
  -2  -4  18 26.6684 2.36156   3
  -2  -4  18 25.5459 2.45368   2
   2  -4 -18 30.2739 2.19839   2
  -2  -4  18 24.6884 2.44610   1
  -2   4  18 28.0773 2.45996   2
   2   4 -18 25.2602 3.37811   2
  -2   4  18 27.1564 2.64180   3
  -1  -4  18 47.0228 3.32529   1
  -1  -4  18 50.2835 3.33529   3
   1  -4 -18 41.0615 2.64442   3
  -1  -4  18 42.8553 3.72803   2
   1  -4 -18 44.7857 3.02424   2
  -1   4  18 45.5428 3.82243   3
  -1   4  18 37.4899 4.51781   1
  -1   4  18 46.5136 3.43690   2
   0  -4  18 31.3071 2.87345   1
   0  -4  18 33.7259 2.80510   3
   0  -4 -18 39.0676 3.11358   3
   0  -4 -18 32.3267 2.14631   2
   0  -4  18 32.2664 2.31751   2
   0   4  18 32.9929 2.42432   2
   0   4  18 34.4286 2.60636   1
   0   4  18 32.2593 2.40861   3
   1  -4  18 8.73636 1.67498   1
   1  -4  18 6.34525 1.48772   3
   1   4  18 10.1468 2.14926   3
   1   4  18 7.95539 2.14673   2
   1   4  18 7.21084 2.11757   1
   2  -4  18 40.7493 2.72465   1
   2   4  18 33.8210 3.10033   2
   2   4  18 34.3407 2.70431   3
   2   4  18 34.7121 2.76429   1
   3   4  18 14.1377 2.79794   3
   3   4  18 19.1705 2.91019   1
   3  -5 -18 5.11141 2.88536   3
   3  -5 -18 0.99853 2.36069   2
  -3  -5  18 6.74539 3.22123   1
  -3  -5  18 4.40038 2.54594   2
  -3  -5  18 3.34307 2.50905   3
  -3   5  18 2.82064 2.59864   2
   3   5 -18 4.78899 2.39876   2
  -3   5  18 -0.5029 3.33672   3
  -2  -5  18 2.37388 2.12418   3
   2  -5 -18 7.17423 2.76069   3
  -2  -5  18 9.72583 2.40743   1
   2  -5 -18 3.75033 1.96706   2
  -2  -5  18 7.91154 2.32568   2
  -2   5  18 10.7964 2.60683   3
  -2   5  18 8.59461 2.39956   2
   2   5 -18 5.54247 2.09988   2
  -2   5  18 5.13516 2.92496   1
   1  -5 -18 21.5273 2.16580   2
  -1  -5  18 25.6080 2.21849   1
  -1  -5  18 19.0710 2.11061   3
  -1   5  18 22.0204 2.93701   1
  -1   5  18 21.8368 2.53629   2
  -1   5  18 20.0824 2.54194   3
   0  -5 -18 27.9552 2.15754   2
   0  -5  18 28.3343 2.09226   1
   0  -5  18 25.4646 1.97457   3
   0  -5  18 25.3125 2.52566   2
   0   5  18 24.2996 2.49276   1
   0   5  18 25.2283 2.56047   3
   0   5  18 28.5554 2.57653   2
   1  -5  18 2.09985 1.63251   1
   1  -5  18 4.28937 1.49945   3
   1   5  18 2.72078 2.37716   2
   1   5  18 -0.2003 2.29449   3
   1   5  18 0.59722 2.29620   1
   2  -5  18 16.3178 1.67767   1
   2   5  18 14.2639 3.06833   2
   2   5  18 12.8753 2.80609   1
   2   5  18 18.9305 2.76883   3
  -3  -6  18 61.0708 4.27225   1
   3  -6 -18 71.4118 6.23846   3
   3  -6 -18 62.6733 4.67880   2
  -3  -6  18 67.7015 5.22140   3
  -3  -6  18 51.8631 4.08048   2
  -3   6  18 51.5844 3.66581   2
   3   6 -18 53.4383 3.64010   2
  -3   6  18 60.5475 4.23379   3
  -2  -6  18 14.7011 2.42523   3
   2  -6 -18 15.3611 3.13426   3
   2  -6 -18 14.1192 2.30169   2
  -2  -6  18 14.9771 2.70791   2
  -2  -6  18 18.5805 2.83311   1
  -2   6  18 13.2421 2.82905   2
  -2   6  18 14.2818 3.05903   3
   1  -6 -18 75.4229 4.01022   2
  -1  -6  18 75.6716 4.58201   2
  -1  -6  18 75.6243 4.27423   1
   1  -6 -18 70.1590 5.05977   3
  -1  -6  18 76.7795 4.04205   3
  -1   6  18 69.6162 4.50248   2
  -1   6  18 77.4952 5.45638   1
  -1   6  18 82.6557 5.03672   3
   0  -6  18 10.1248 1.98817   1
   0  -6 -18 13.2594 2.14837   2
   0  -6  18 9.42745 1.82161   3
   0   6  18 11.5482 3.01218   1
   0   6  18 11.3957 2.67565   2
   0   6  18 13.0993 2.76903   3
   1  -6  18 10.5528 1.90656   1
  -1  -6 -18 10.7012 2.53476   2
   1  -6  18 15.0255 1.83440   3
   1   6  18 11.4819 2.75276   3
   1   6  18 6.32177 2.73947   1
   1   6  18 12.2120 2.90876   2
   2  -6  18 35.0547 2.83156   1
   2   6  18 36.2764 3.63970   1
   2   6  18 33.8563 3.68117   2
   2   6  18 31.7059 3.55568   3
  -2  -7  18 71.3201 5.53053   2
  -2  -7  18 68.0990 5.06915   3
   2  -7 -18 73.0487 6.63419   3
   2  -7 -18 68.8862 4.59874   2
  -2  -7  18 69.2671 5.75757   1
  -2   7  18 76.6493 5.54565   2
  -2   7  18 65.6518 4.49857   3
  -1  -7  18 41.0595 2.77378   3
  -1  -7  18 39.8084 2.97416   1
  -1  -7  18 42.8779 3.50644   2
   1  -7 -18 47.3490 3.74903   3
   1  -7 -18 43.0238 3.01010   2
  -1   7  18 43.3196 5.55319   1
  -1   7  18 39.8630 3.61895   3
  -1   7  18 41.6434 3.31753   2
   0  -7  18 30.8725 2.42452   3
   0  -7  18 30.4570 2.54944   1
   0  -7 -18 28.9184 2.88736   2
   0   7  18 28.8823 3.13026   2
   0   7  18 28.0112 3.36964   3
   0   7  18 29.7149 3.68063   1
   1  -7  18 38.1094 3.47674   1
  -1  -7 -18 36.4411 3.42470   2
   1   7  18 35.6126 3.81733   2
   1   7  18 36.6619 3.52414   3
   1   7  18 22.8080 3.88948   1
  -4   0  19 12.5336 3.26160   3
  -4   0  19 17.7882 3.30347   2
   4   0 -19 18.4136 2.88536   2
   4   0 -19 28.8298 3.67802   3
  -3   0  19 -0.7479 2.23760   2
  -3   0  19 -1.2211 2.38120   3
   3   0 -19 0.46008 2.04448   2
  -3   0  19 -1.7327 2.65307   1
   3   0 -19 2.97048 2.62410   3
  -2   0  19 11.3453 2.19478   1
   2   0 -19 13.6763 2.41495   3
  -2   0  19 10.5753 2.14622   3
   2   0 -19 11.8544 1.80023   2
  -2   0  19 10.1697 2.12463   2
   1   0 -19 15.0373 1.63603   2
  -1   0  19 15.7042 2.02232   3
  -1   0  19 14.1083 1.98068   1
   0   0  19 6.35638 1.77376   3
   0   0  19 4.79645 1.71320   1
   0   0  19 2.03509 1.85112   2
   1   0  19 500.352 12.4715   3
   1   0  19 475.792 12.4730   1
   1   0  19 485.954 12.6091   2
   2   0  19 1.70598 1.77598   3
   2   0  19 4.95766 1.87588   1
   3   0  19 74.4351 3.96217   1
  -4  -1  19 2.42522 3.19431   3
  -4  -1  19 -4.1187 2.92599   2
   4  -1 -19 2.32783 2.59451   2
   4  -1 -19 -1.0261 3.49681   3
  -4   1  19 0.59907 3.24638   3
   4   1 -19 0.58131 3.57830   3
   4   1 -19 -2.8289 2.62155   2
  -4   1  19 1.75431 2.78284   2
   3  -1 -19 23.9529 2.75818   3
  -3  -1  19 18.9059 2.61958   3
  -3  -1  19 22.1035 3.00916   1
   3  -1 -19 26.3723 2.51658   2
  -3  -1  19 21.1063 2.63414   2
  -3   1  19 21.9596 2.99285   1
  -3   1  19 24.0329 2.56356   2
   3   1 -19 24.7676 2.39335   2
  -3   1  19 26.0340 2.81914   3
   3   1 -19 21.7957 2.98858   3
  -2  -1  19 22.3004 2.21517   2
   2  -1 -19 25.0636 2.47711   3
  -2  -1  19 19.9453 2.28833   1
  -2  -1  19 18.7715 2.29337   3
   2  -1 -19 25.8274 2.03705   2
  -2   1  19 22.4330 2.28154   2
  -2   1  19 21.1085 2.42364   1
   2   1 -19 26.7187 2.94283   3
  -2   1  19 25.3696 2.40229   3
   2   1 -19 26.2499 1.97969   2
  -1  -1  19 11.3350 1.94415   1
  -1  -1  19 8.35108 3.14842   2
   1  -1 -19 12.4190 1.76740   2
  -1  -1  19 14.2442 1.96513   3
   1  -1 -19 13.0189 2.95096   3
  -1   1  19 10.2579 1.99143   3
  -1   1  19 12.4645 2.08687   2
  -1   1  19 9.00506 1.95226   1
   1   1 -19 14.9400 1.46358   2
   0  -1  19 132.719 4.63246   1
   0  -1  19 131.197 4.58964   3
   0  -1  19 133.871 4.72085   2
   0   1  19 134.452 4.74447   2
   0   1  19 135.160 4.72541   1
   0   1  19 129.879 4.82941   3
   1  -1  19 53.0159 3.14576   3
   1  -1  19 51.7790 3.65346   2
   1  -1  19 49.5898 3.13304   1
   1   1  19 56.1652 3.35585   3
   1   1  19 49.5730 3.65717   2
   1   1  19 50.9463 3.43761   1
   2  -1  19 197.815 5.95937   1
   2  -1  19 202.688 5.87718   3
   2   1  19 205.780 6.16336   3
   2   1  19 204.118 6.25350   1
   3  -1  19 26.9935 2.12046   1
   3   1  19 22.6558 2.52147   1
   4  -2 -19 151.396 6.18475   2
  -4  -2  19 162.750 7.11722   3
   4  -2 -19 149.444 7.91965   3
   4   2 -19 147.954 6.22755   2
  -4   2  19 145.141 6.34552   2
   4   2 -19 138.846 7.94701   3
  -4   2  19 143.197 7.95248   3
   3  -2 -19 44.9618 3.46520   3
  -3  -2  19 43.5029 3.05157   2
  -3  -2  19 40.8368 3.41199   1
  -3  -2  19 56.0042 4.74668   3
   3  -2 -19 43.4296 3.83142   2
  -3   2  19 40.3718 2.94856   2
  -3   2  19 43.7222 3.23384   3
  -3   2  19 50.1306 3.89145   1
   3   2 -19 47.7884 3.59202   2
   3   2 -19 47.7355 3.81708   3
   2  -2 -19 81.4438 4.59285   3
  -2  -2  19 77.4618 4.43804   1
  -2  -2  19 86.3965 4.21080   2
  -2  -2  19 86.0774 4.43125   3
   2  -2 -19 77.6132 3.70282   2
  -2   2  19 86.2673 4.47938   3
  -2   2  19 80.5372 4.28506   2
   2   2 -19 76.0785 3.63180   2
  -2   2  19 88.9827 4.93960   1
  -1  -2  19 94.8142 4.15351   3
   1  -2 -19 81.8545 4.85861   3
  -1  -2  19 94.9119 4.11399   1
  -1   2  19 91.2217 4.49417   1
  -1   2  19 91.8943 4.11739   2
  -1   2  19 102.703 4.39801   3
   0  -2  19 4.07613 1.67457   1
   0  -2  19 1.59274 1.88178   2
   0  -2  19 0.94851 1.58156   3
   0  -2 -19 0.16048 1.45163   2
   0   2  19 1.52814 1.92264   3
   0   2  19 -5.1755 3.36720   2
   0   2  19 2.10075 1.90509   1
   1  -2  19 22.5244 1.94622   1
   1  -2  19 21.8213 1.82556   3
   1   2  19 19.1203 2.13868   3
   1   2  19 19.4134 2.14714   1
   2  -2  19 5.77838 1.58643   3
   2  -2  19 4.78434 1.68285   1
   2   2  19 3.30882 2.11492   1
   2   2  19 2.24142 2.10990   3
   3  -2  19 8.45147 1.82737   1
   3   2  19 13.8907 2.68078   1
   3   2  19 3.88948 2.82863   3
  -3  -3  19 75.5943 4.99255   3
   3  -3 -19 62.7909 4.26638   2
  -3  -3  19 71.7913 4.83739   2
  -3  -3  19 61.3588 5.74348   1
   3  -3 -19 73.6174 5.70358   3
  -3   3  19 68.5190 5.38364   3
   3   3 -19 70.8207 4.38739   2
  -3   3  19 72.0287 4.76371   2
  -2  -3  19 296.747 8.73500   2
  -2  -3  19 309.500 8.93028   1
   2  -3 -19 299.465 8.45576   2
  -2  -3  19 312.273 8.77079   3
   2  -3 -19 311.658 8.95088   3
  -2   3  19 301.616 9.19267   1
   2   3 -19 308.646 8.19451   2
  -2   3  19 306.788 8.82133   2
  -2   3  19 304.685 8.90530   3
  -1  -3  19 16.8125 2.07759   1
   1  -3 -19 14.3498 2.62626   3
  -1  -3  19 19.2758 2.19907   3
  -1  -3  19 22.6749 2.49737   2
   1  -3 -19 18.8517 1.89306   2
  -1   3  19 19.3388 2.29437   3
  -1   3  19 15.5205 2.29196   1
  -1   3  19 18.5549 2.38892   2
   0  -3  19 12.0176 2.09997   2
   0  -3  19 13.2880 1.78921   3
   0  -3  19 14.9086 1.88672   1
   0  -3 -19 12.1408 1.63579   2
   0   3  19 13.4677 2.18220   1
   0   3  19 12.7211 2.17210   3
   0   3  19 11.9399 2.13710   2
   1  -3  19 12.0879 1.78136   1
   1  -3  19 14.1153 1.69893   3
   1   3  19 10.8047 2.27761   3
   1   3  19 13.6169 2.24381   1
   1   3  19 20.2464 2.61727   2
   2  -3  19 5.82302 1.65306   1
   2   3  19 7.20127 2.96539   2
   2   3  19 5.65913 2.30973   1
   2   3  19 3.43917 2.51806   3
   3  -4 -19 38.6031 3.82594   3
  -3  -4  19 40.7460 3.84725   1
  -3  -4  19 36.8143 3.36820   2
   3  -4 -19 42.7880 2.95510   2
  -3  -4  19 44.0065 3.29442   3
   3   4 -19 38.9367 2.92689   2
  -3   4  19 41.5086 4.03264   2
  -3   4  19 38.8533 3.61851   3
  -2  -4  19 70.4090 4.49677   3
   2  -4 -19 79.2778 5.11676   3
  -2  -4  19 65.9636 4.48212   2
   2  -4 -19 69.1059 3.92051   2
  -2  -4  19 65.2824 4.70775   1
  -2   4  19 66.1287 4.91864   3
  -2   4  19 68.5896 5.08152   1
  -2   4  19 68.1619 4.33247   2
   2   4 -19 70.4399 3.90384   2
   1  -4 -19 74.8893 5.08926   3
  -1  -4  19 78.0046 4.22499   2
  -1  -4  19 78.8241 4.05520   3
  -1  -4  19 77.4773 4.09183   1
   1  -4 -19 73.3875 3.62672   2
  -1   4  19 80.8008 4.67648   3
  -1   4  19 80.7571 4.93471   1
  -1   4  19 67.4390 4.24251   2
   0  -4 -19 22.2539 2.00690   2
   0  -4  19 18.9092 2.03356   1
   0  -4  19 20.2535 2.01616   3
   0  -4  19 21.9691 2.45848   2
   0   4  19 20.6197 2.43803   3
   0   4  19 16.4525 2.52956   1
   0   4  19 18.4581 2.52253   2
   1  -4  19 3.12372 1.85366   1
   1  -4  19 3.15495 1.65138   3
   1   4  19 4.29530 2.66337   2
   1   4  19 5.45023 2.46272   3
   1   4  19 7.93280 2.37001   1
   2  -4  19 2.04170 1.68075   1
   2   4  19 5.18102 2.56189   1
   2   4  19 9.75301 2.64963   3
   2   4  19 2.41670 3.11287   2
   3  -5 -19 6.00617 2.63520   2
  -3  -5  19 8.21880 3.34762   2
   3  -5 -19 7.69582 3.66638   3
  -3  -5  19 6.58342 2.83857   3
  -3  -5  19 3.31245 3.60428   1
  -3   5  19 11.0319 3.98393   3
  -3   5  19 2.31123 3.15834   2
   3   5 -19 10.7386 2.95059   2
   2  -5 -19 56.5127 3.55852   3
  -2  -5  19 56.4572 4.59258   2
  -2  -5  19 54.4909 3.49603   1
   2  -5 -19 51.0621 3.92189   2
  -2  -5  19 49.6262 4.38120   3
  -2   5  19 41.1174 4.07764   1
  -2   5  19 42.0246 3.30555   2
  -2   5  19 42.6319 3.58953   3
   1  -5 -19 10.1462 3.09644   3
  -1  -5  19 5.90902 2.20572   1
   1  -5 -19 9.15095 2.08242   2
  -1  -5  19 5.88902 2.08949   3
  -1   5  19 9.00726 2.64257   2
  -1   5  19 5.31815 2.98465   1
  -1   5  19 8.27783 2.64640   3
   0  -5  19 91.5783 4.23353   1
   0  -5 -19 92.5235 4.18224   2
   0  -5  19 91.4572 4.02325   3
   0   5  19 98.2604 5.30030   1
   0   5  19 94.9398 4.88736   2
   0   5  19 105.899 5.12612   3
   1  -5  19 41.3962 3.22453   3
   1  -5  19 41.5440 3.29755   1
   1   5  19 35.3250 3.16578   3
   1   5  19 35.9518 3.22187   1
   1   5  19 46.3606 3.30609   2
   2  -5  19 24.7511 1.98888   1
   2   5  19 22.1510 3.84141   2
   2   5  19 18.7215 3.23413   1
   2   5  19 26.9187 3.21000   3
  -2  -6  19 55.3998 3.96631   2
   2  -6 -19 55.5159 3.92022   3
  -2  -6  19 65.2991 5.53606   1
  -2  -6  19 53.7319 4.81287   3
   2  -6 -19 52.3867 3.27217   2
  -2   6  19 46.9255 3.67791   2
  -2   6  19 62.2437 4.06595   3
  -1  -6  19 23.9332 2.66146   1
  -1  -6  19 16.3362 3.22141   2
   1  -6 -19 23.3927 3.64850   3
  -1  -6  19 26.4862 2.50348   3
   1  -6 -19 26.7209 2.58341   2
  -1   6  19 16.4088 3.15294   2
  -1   6  19 21.8610 3.14660   3
  -1   6  19 21.3353 3.47003   1
   0  -6  19 3.70149 2.14131   1
   0  -6  19 4.36167 1.95081   3
   0  -6 -19 7.33213 2.30431   2
   0   6  19 9.82460 3.58270   1
   0   6  19 2.07754 2.68676   2
   0   6  19 4.81271 2.90307   3
   1  -6  19 66.9735 3.86964   1
   1   6  19 76.1644 5.86952   1
   1   6  19 74.7147 5.78587   3
   1   6  19 71.9327 5.36149   2
  -1  -7  19 13.8768 2.75722   3
  -1  -7  19 11.8755 3.24053   1
   1  -7 -19 14.2120 2.77629   2
  -1   7  19 6.99167 4.09134   2
  -1   7  19 1.84800 3.49324   3
   0  -7 -19 30.4628 2.94383   2
   0  -7  19 25.3465 2.58280   3
   0  -7  19 25.3272 3.93813   1
   0   7  19 21.7527 3.93137   1
   0   7  19 32.3975 3.94285   3
   0   7  19 25.1363 3.78764   2
   3   0 -20 9.76124 3.72466   3
  -3   0  20 5.74445 3.15021   1
  -3   0  20 1.02133 2.70861   3
  -3   0  20 2.79457 2.76707   2
   3   0 -20 7.32190 2.35601   2
  -2   0  20 -0.8954 2.36607   1
   2   0 -20 -0.9250 2.04579   2
  -2   0  20 0.42338 2.32347   2
  -2   0  20 -2.3339 2.18642   3
   1   0 -20 111.393 3.87504   2
  -1   0  20 103.941 4.56093   2
  -1   0  20 108.291 4.76282   3
  -1   0  20 106.916 4.75189   1
   0   0  20 8.80612 2.28013   2
   0   0  20 8.91742 1.97817   3
   0   0  20 9.93348 2.02098   1
   1   0  20 -1.6463 1.88252   3
   1   0  20 2.08535 1.94266   1
   2   0  20 197.922 6.22885   1
   2   0  20 195.015 6.20681   3
  -3  -1  20 41.1090 3.23565   2
  -3  -1  20 59.7189 5.19217   3
   3  -1 -20 51.4085 4.27272   2
   3  -1 -20 48.8334 3.69929   3
  -3  -1  20 49.7154 3.72368   1
  -3   1  20 44.1249 3.94446   1
  -3   1  20 44.0139 3.42145   3
   3   1 -20 44.8492 3.95856   2
  -3   1  20 52.4963 3.54762   2
   2  -1 -20 9.46300 4.82736   3
  -2  -1  20 4.02805 2.27963   2
  -2  -1  20 1.31131 2.26911   3
   2  -1 -20 3.43967 1.96332   2
  -2  -1  20 3.29017 2.33913   1
   2   1 -20 6.79743 1.94561   2
  -2   1  20 5.34033 2.34555   2
  -2   1  20 9.86820 2.43388   3
  -2   1  20 2.22743 2.55702   1
  -1  -1  20 5.27860 2.11202   1
  -1  -1  20 11.4791 2.14166   3
  -1  -1  20 10.9471 2.26378   2
  -1   1  20 11.1060 2.18285   2
  -1   1  20 7.56694 2.29353   1
  -1   1  20 7.43685 2.15072   3
   0  -1  20 44.2192 3.55623   3
   0  -1  20 46.3611 3.53730   1
   0   1  20 48.7199 3.79691   2
   0   1  20 43.3519 3.93154   3
   0   1  20 45.4687 3.66093   1
   1  -1  20 40.5692 3.42608   1
   1  -1  20 37.5797 3.29809   3
   1   1  20 35.1499 3.05095   2
   1   1  20 34.7285 2.49220   3
   1   1  20 35.1862 2.56285   1
   2  -1  20 35.7939 2.33582   3
   2  -1  20 32.2342 2.43761   1
   2   1  20 33.7592 2.60413   3
   2   1  20 31.9599 2.70135   1
  -3  -2  20 28.1955 3.36282   1
  -3  -2  20 24.8683 3.01779   2
   3  -2 -20 35.8828 3.04410   2
   3  -2 -20 19.8778 3.28780   3
  -3  -2  20 23.6285 3.01695   3
  -3   2  20 24.1051 3.11989   2
  -3   2  20 25.5972 3.30510   3
   3   2 -20 23.6220 2.84556   2
  -2  -2  20 10.6926 2.42483   3
  -2  -2  20 11.2370 2.51037   2
   2  -2 -20 11.2606 2.13896   2
   2  -2 -20 6.45975 3.19547   3
  -2  -2  20 9.81215 2.51617   1
  -2   2  20 8.80038 3.04419   1
  -2   2  20 8.26597 2.49083   2
  -2   2  20 10.7946 2.55303   3
   2   2 -20 8.97865 2.02026   2
  -1  -2  20 62.8063 3.96306   1
   1  -2 -20 58.8530 3.50223   2
  -1  -2  20 60.6376 3.96762   2
  -1  -2  20 54.2526 4.16092   3
  -1   2  20 61.1253 4.27616   3
  -1   2  20 56.0786 4.13341   2
  -1   2  20 56.8714 4.08964   1
   0  -2  20 14.3957 2.10735   1
   0  -2  20 18.0993 2.03945   3
   0   2  20 15.9994 2.34451   1
   0   2  20 17.3484 2.47944   2
   0   2  20 15.7845 2.29893   3
   1  -2  20 9.46877 1.91980   3
   1  -2  20 8.52588 1.95944   1
   1   2  20 4.63977 2.56461   2
   1   2  20 7.37223 2.28809   3
   1   2  20 6.03073 2.32498   1
   2  -2  20 2.60913 1.93271   1
   2   2  20 4.64929 2.46891   3
   2   2  20 -0.5700 2.38313   1
  -3  -3  20 57.6871 3.94469   1
   3  -3 -20 57.1605 3.54491   2
  -3  -3  20 64.4042 5.43795   3
   3  -3 -20 54.2223 3.85520   3
  -3  -3  20 60.1150 3.99031   2
  -3   3  20 65.1256 5.87002   3
   3   3 -20 65.5850 4.59883   2
  -3   3  20 59.3065 5.16932   2
  -2  -3  20 47.9670 4.22761   2
  -2  -3  20 31.5211 2.92413   1
  -2  -3  20 30.6102 2.82532   3
   2  -3 -20 39.3068 3.47820   3
   2  -3 -20 34.3646 2.56364   2
   2   3 -20 41.6384 2.92002   2
  -2   3  20 34.5390 3.17296   2
  -2   3  20 31.1574 3.03097   3
  -2   3  20 36.4908 3.28981   1
  -1  -3  20 71.9408 4.26175   1
  -1  -3  20 74.2356 4.33335   3
  -1  -3  20 68.1384 4.30684   2
   1  -3 -20 73.3140 3.97169   2
  -1   3  20 66.2325 4.68702   1
  -1   3  20 73.3025 4.35845   2
  -1   3  20 71.4363 4.64284   3
   0  -3  20 2.30634 1.96099   1
   0  -3  20 2.56803 2.42998   2
   0  -3  20 -0.6067 1.96164   3
   0   3  20 -4.4845 2.26469   2
   0   3  20 -1.8089 2.30026   3
   0   3  20 -0.6475 2.39201   1
   1  -3  20 9.54376 1.91869   3
   1  -3  20 8.65608 1.95975   1
   1   3  20 7.09721 2.44247   3
   1   3  20 8.77879 2.70296   2
   1   3  20 6.46337 2.45133   1
   2  -3  20 2.18917 2.03064   1
   2   3  20 2.73598 2.70711   1
   2   3  20 4.68298 2.72299   3
  -3  -4  20 11.1344 3.91162   3
  -3  -4  20 11.2132 3.57556   1
  -3  -4  20 11.8060 3.33293   2
   3  -4 -20 12.1568 2.90696   2
   3   4 -20 16.9941 3.23032   2
  -3   4  20 4.83883 3.56517   3
  -3   4  20 13.5601 4.04007   2
   2  -4 -20 35.5188 2.72996   2
   2  -4 -20 34.9964 3.63868   3
  -2  -4  20 32.0016 3.11539   1
  -2  -4  20 30.2424 3.16373   2
  -2  -4  20 27.7999 2.95748   3
  -2   4  20 28.0559 3.05659   2
  -2   4  20 34.5622 3.67721   1
  -2   4  20 32.1482 3.20842   3
  -1  -4  20 170.011 6.11313   1
  -1  -4  20 167.734 6.36752   2
  -1  -4  20 174.652 6.07480   3
   1  -4 -20 168.661 5.99369   2
  -1   4  20 171.319 6.34262   2
  -1   4  20 180.624 6.99393   1
  -1   4  20 180.787 6.57396   3
   0  -4  20 69.1196 4.05175   1
   0  -4  20 66.1043 3.98542   3
   0  -4 -20 68.6695 4.05351   2
   0   4  20 67.7440 5.05601   1
   0   4  20 64.9258 4.56401   2
   0   4  20 65.0344 4.88398   3
   1  -4  20 36.2238 2.58086   1
   1  -4  20 38.8110 3.49214   3
   1   4  20 37.7509 3.28757   2
   1   4  20 40.9822 3.20836   1
   1   4  20 43.5434 3.31159   3
   2  -4  20 17.7299 2.09728   1
   2   4  20 16.8383 3.72172   1
   2   4  20 14.9972 3.38945   3
  -2  -5  20 9.85669 2.75675   3
   2  -5 -20 17.6137 4.00826   3
  -2  -5  20 7.89655 3.06734   1
   2  -5 -20 13.5577 2.71331   2
  -2  -5  20 9.65571 3.01596   2
  -2   5  20 13.2663 3.53742   3
  -2   5  20 10.4578 3.00974   2
  -1  -5  20 158.155 5.77178   3
  -1  -5  20 148.636 5.94771   1
   1  -5 -20 147.992 5.88223   2
  -1   5  20 154.846 7.09472   1
  -1   5  20 155.456 6.39516   2
  -1   5  20 151.177 6.75422   3
   0  -5  20 49.0821 3.99502   1
   0  -5 -20 49.5434 4.36979   2
   0  -5  20 46.0425 3.74574   3
   0   5  20 42.2621 3.80657   2
   0   5  20 45.1592 3.40325   3
   0   5  20 36.9969 3.51673   1
   1  -5  20 50.0739 3.83279   1
   1   5  20 52.4683 3.89774   1
   1   5  20 48.4347 3.77462   2
   1   5  20 53.0506 3.70775   3
  -1  -6  20 11.0920 2.71111   3
  -1  -6  20 9.56595 2.75168   1
   1  -6 -20 10.9871 3.05778   2
  -1   6  20 14.1671 4.65023   1
  -1   6  20 8.05266 3.37661   3
  -1   6  20 9.21321 3.33340   2
   0  -6  20 30.9877 2.58959   3
   0  -6 -20 32.9495 3.37280   2
   0  -6  20 27.2678 2.82915   1
   0   6  20 29.0507 3.75373   2
   0   6  20 25.9340 3.91481   1
   0   6  20 28.9964 3.73759   3
  -3   0  21 15.8296 3.36317   3
  -3   0  21 27.3921 3.97711   1
   3   0 -21 20.8993 3.04590   2
  -3   0  21 15.1060 3.16458   2
  -2   0  21 89.7341 5.24532   3
   2   0 -21 86.8157 4.24432   2
  -2   0  21 88.0781 5.34964   1
  -2   0  21 76.8227 4.79802   2
  -1   0  21 5.98077 2.34005   3
  -1   0  21 5.67197 2.45511   1
  -1   0  21 5.86461 2.31804   2
   0   0  21 3.48211 2.53302   2
   0   0  21 5.64655 2.28268   1
   0   0  21 2.00745 2.20559   3
   1   0  21 26.5051 2.57056   1
   1   0  21 31.3555 2.61333   3
   2   0  21 3.71638 2.56760   3
   2   0  21 2.98945 2.56364   1
  -3  -1  21 13.5283 3.03514   2
  -3  -1  21 14.4430 3.75992   1
  -3  -1  21 22.0030 3.36637   3
   3  -1 -21 23.0563 3.00103   2
   3   1 -21 24.9182 3.04544   2
  -3   1  21 17.4326 3.40519   3
  -3   1  21 13.3045 3.01959   2
  -3   1  21 11.9228 4.77984   1
  -2  -1  21 21.9218 2.90356   3
  -2  -1  21 21.6436 3.15899   2
   2  -1 -21 29.5940 2.70692   2
  -2  -1  21 19.7144 2.97891   1
   2   1 -21 25.0833 2.37960   2
  -2   1  21 26.0713 2.90171   3
  -2   1  21 23.1556 3.03118   2
  -2   1  21 25.0788 3.50464   1
  -1  -1  21 4.81402 2.47243   2
  -1  -1  21 7.02755 2.44573   1
   1  -1 -21 3.61838 2.40095   2
  -1  -1  21 5.29847 2.34131   3
  -1   1  21 4.86263 2.41031   3
  -1   1  21 5.26233 2.49293   2
  -1   1  21 5.96473 2.60974   1
   0  -1  21 119.923 4.77795   3
   0  -1  21 110.785 4.92443   1
   0  -1  21 116.531 5.47787   2
   0   1  21 106.127 5.07317   3
   0   1  21 106.119 5.13317   2
   0   1  21 111.750 5.06171   1
   1  -1  21 2.61793 2.21510   1
   1  -1  21 -1.9263 2.08335   3
   1   1  21 -2.8594 2.31358   1
   1   1  21 1.27761 2.37314   3
   2  -1  21 8.38486 2.37226   1
   2   1  21 8.98271 2.65311   3
   2   1  21 8.72291 2.70736   1
  -3  -2  21 14.5206 4.02704   2
  -3   2  21 9.68585 4.91042   2
  -2  -2  21 4.20054 2.81387   1
   2  -2 -21 6.07735 2.70864   2
  -2  -2  21 4.81812 2.74169   3
  -2  -2  21 6.14988 2.81663   2
  -2   2  21 6.67468 3.19264   1
  -2   2  21 7.40892 2.70641   2
  -2   2  21 4.56940 2.87364   3
  -1  -2  21 3.97803 2.62343   2
   1  -2 -21 -3.4176 2.15532   2
  -1  -2  21 3.42071 2.39025   1
  -1  -2  21 2.80027 2.37137   3
  -1   2  21 2.29646 2.47337   3
  -1   2  21 -0.8947 2.51592   1
  -1   2  21 6.04038 2.61619   2
   0  -2  21 1.42490 2.67884   2
   0  -2  21 4.79540 2.22962   1
   0  -2  21 4.84858 2.35588   3
   0   2  21 0.65622 2.56299   3
   0   2  21 1.76693 2.59745   2
   0   2  21 6.13952 2.48168   1
   1  -2  21 18.1738 2.26090   3
   1  -2  21 15.1436 2.36182   1
   1   2  21 17.7007 2.69420   3
   1   2  21 13.3806 3.19620   2
   1   2  21 11.5830 2.73559   1
  -2  -3  21 -1.1475 2.66546   3
  -2  -3  21 -2.2530 2.77337   1
   2  -3 -21 3.17284 2.69741   2
  -2  -3  21 2.66933 2.79079   2
  -2   3  21 5.67970 3.00322   3
  -2   3  21 1.63727 2.99993   2
  -2   3  21 2.35513 3.44581   1
   1  -3 -21 23.2546 2.46421   2
  -1  -3  21 19.2928 2.54326   3
  -1  -3  21 18.6603 2.63616   1
  -1  -3  21 14.5870 2.90084   2
  -1   3  21 15.3072 3.09043   2
  -1   3  21 15.4876 2.92608   1
  -1   3  21 19.6077 2.89636   3
   0  -3  21 6.06960 2.19358   3
   0  -3  21 6.67291 2.33964   1
   0   3  21 14.1551 2.71243   3
   0   3  21 17.3869 2.99542   2
   0   3  21 8.23261 2.96907   1
   1  -3  21 8.09975 2.20954   3
   1  -3  21 4.84001 2.32142   1
   1   3  21 3.91728 2.86597   3
   1   3  21 3.64393 3.41222   2
   1   3  21 7.56428 2.92113   1
  -2  -4  21 61.1985 5.47533   3
   2  -4 -21 59.7639 4.84069   2
  -2  -4  21 60.2457 4.24305   2
  -2  -4  21 66.7314 5.34637   1
  -2   4  21 64.5575 5.06974   1
  -2   4  21 51.6818 3.97498   3
  -2   4  21 70.6726 5.65843   2
   1  -4 -21 15.2115 2.61403   2
  -1  -4  21 19.6756 2.76296   1
  -1  -4  21 17.8213 2.72013   3
  -1  -4  21 17.8552 3.55800   2
  -1   4  21 20.8416 3.69038   1
  -1   4  21 19.5114 3.22612   3
  -1   4  21 24.5534 3.10192   2
   0  -4  21 71.9282 4.63733   1
   0  -4  21 74.9753 4.49507   3
   0   4  21 65.6529 5.16769   2
   0   4  21 78.9857 5.64240   3
   0   4  21 71.2339 5.80681   1
   1  -4  21 22.0862 2.60240   1
   1   4  21 9.83236 3.49853   2
   1   4  21 29.1561 3.37005   3
   1   4  21 18.2886 3.30000   1
  -2   0  22 28.0617 3.39008   3
  -2   0  22 30.7722 3.43449   2
  -2   0  22 29.0402 3.89951   1
   2   0 -22 30.1396 4.33629   2
  -1   0  22 48.6035 3.35400   3
  -1   0  22 50.6278 3.66217   1
  -1   0  22 55.7738 4.89947   2
   0   0  22 22.2583 2.77868   3
   0   0  22 23.3453 3.47046   2
   0   0  22 22.2795 2.89604   1
   1   0  22 54.7221 4.66972   3
   1   0  22 45.8879 3.29029   1
   2  -1 -22 26.2611 2.89303   2
  -2  -1  22 18.5546 3.18632   3
  -2  -1  22 26.9800 3.53870   2
  -2  -1  22 22.0328 3.43563   1
  -2   1  22 22.3750 3.27254   3
  -2   1  22 23.0098 3.92249   1
  -2   1  22 25.5405 3.16007   2
  -1  -1  22 22.4286 3.04936   2
  -1  -1  22 23.2394 3.10125   3
  -1  -1  22 20.1774 2.98119   1
  -1   1  22 22.7414 3.20125   2
  -1   1  22 19.6593 3.12286   1
  -1   1  22 20.3797 3.05731   3
   0  -1  22 12.6497 3.59597   2
   0  -1  22 8.61003 2.65976   1
   0  -1  22 10.5314 2.66324   3
   0   1  22 10.0704 2.72963   3
   0   1  22 9.24253 2.79676   1
   0   1  22 4.64687 3.18440   2
   1  -1  22 3.04221 2.52256   3
   1  -1  22 12.3671 2.66510   1
   1   1  22 5.54574 2.72684   1
   1   1  22 8.87468 2.84696   3
  -2  -2  22 -0.6832 3.20777   1
  -2  -2  22 2.06092 3.37426   3
  -2  -2  22 3.92419 2.95428   2
   2  -2 -22 1.40314 2.76418   2
  -2   2  22 3.30853 3.36624   2
  -2   2  22 2.50929 3.37331   3
  -2   2  22 5.22408 3.69000   1
  -1  -2  22 30.1423 3.02036   3
  -1  -2  22 28.6908 3.09952   1
  -1  -2  22 27.0102 3.23151   2
  -1   2  22 23.2513 3.19670   3
  -1   2  22 25.5948 3.40546   1
  -1   2  22 28.7226 3.39954   2
   0  -2  22 2.83901 2.60246   1
   0  -2  22 4.27352 2.52515   3
   0   2  22 2.86332 3.31066   2
   0   2  22 1.88497 2.85090   1
   0   2  22 1.83451 2.79696   3
  -1  -3  22 24.7834 3.16308   1
  -1  -3  22 29.2747 3.05731   3
  -1  -3  22 38.0477 3.83706   2
  -1   3  22 32.1002 3.89442   1
  -1   3  22 29.5812 3.37062   3
  -1   3  22 18.9697 3.51745   2
   0  -3  22 0.96063 2.45922   3
   0  -3  22 2.67225 2.67617   1
   0   3  22 -0.2498 3.04013   3
   0   3  22 3.42714 3.21262   2
   0   3  22 0.29933 3.24261   1
   0   0   0    0.00    0.00   0
 _exptl_absorpt_process_details 'SADABS 2014/5'
 _exptl_absorpt_correction_type   multi-scan
 _exptl_absorpt_correction_T_max  0.7479
 _exptl_absorpt_correction_T_min  0.7127
 _exptl_special_details
)
 The following wavelength and cell were deduced by SADABS from the
 direction cosines etc. They are given here for emergency use only:
 CELL 0.71075    3.734    7.005   12.586   90.023   94.842   89.996
)
;
_shelx_hkl_checksum              28516
_shelx_res_file
;
TITL p16B1a_a.res in P2(1)
    p16B1a.res
    created by SHELXL-2016/6 at 08:44:36 on 08-Jan-2018
CELL  0.71073   3.7363    7.0071   12.5877   90.0000   94.8144   90.0000
ZERR    2.000   0.0002    0.0003    0.0006    0.0000    0.0016    0.0000
LATT -1
SYMM -X, 1/2+Y, -Z
SFAC C H N O
UNIT 14 10 2 6
L.S. 20
BOND $H
CONF
ACTA
TEMP -123
SIZE 0.090        0.171        0.480
rem LIST 6
FMAP 2
PLAN 20
WGHT    0.064300    0.006600
FVAR       2.42004
O01   4    0.380467    0.369637    0.478031    11.00000    0.03899    0.02657 =
         0.01884   -0.00130    0.00939   -0.00370
O02   4    0.565883    0.817262    0.791087    11.00000    0.03728    0.01838 =
         0.03109   -0.00319    0.00884   -0.01062
O03   4    0.314130    0.753600    0.935652    11.00000    0.04606    0.03198 =
         0.02093   -0.01119    0.00736   -0.00651
N01   3    0.390076    0.713383    0.845366    11.00000    0.02007    0.01619 =
         0.01872   -0.00306    0.00057   -0.00059
C01   1    0.266066    0.529353    0.799640    11.00000    0.01447    0.01374 =
         0.01480   -0.00065    0.00209   -0.00082
C02   1    0.122344    0.396354    0.866445    11.00000    0.01853    0.01899 =
         0.01484    0.00250    0.00297   -0.00122
AFIX  43
H02   2    0.101303    0.424953    0.939430    11.00000   -1.20000
AFIX   0
C03   1    0.010246    0.220812    0.824134    11.00000    0.02030    0.01708 =
         0.01963    0.00420    0.00342   -0.00250
AFIX  43
H03   2   -0.087439    0.127606    0.868273    11.00000   -1.20000
AFIX   0
C04   1    0.041856    0.182228    0.716672    11.00000    0.01727    0.01386 =
         0.02005    0.00172    0.00149   -0.00153
AFIX  43
H04   2   -0.036577    0.062838    0.687503    11.00000   -1.20000
AFIX   0
C05   1    0.188283    0.318215    0.651631    11.00000    0.01435    0.01292 =
         0.01528    0.00008    0.00169    0.00052
C06   1    0.303444    0.495360    0.692859    11.00000    0.01477    0.01317 =
         0.01446    0.00045    0.00272   -0.00045
AFIX  43
H06   2    0.403384    0.588642    0.649244    11.00000   -1.20000
AFIX   0
C07   1    0.228707    0.269240    0.538920    11.00000    0.02155    0.01716 =
         0.01740   -0.00306    0.00284    0.00101
AFIX  43
H07   2    0.129789    0.151915    0.512489    11.00000   -1.20000
AFIX   0
HKLF 4
REM  p16B1a_a.res in P2(1)
REM R1 =  0.0299 for    3735 Fo > 4sig(Fo)  and  0.0337 for all    4005 data
REM    100 parameters refined using      1 restraints
END
WGHT      0.0624      0.0067
REM Highest difference peak  0.376,  deepest hole -0.211,  1-sigma level  0.048
Q1    1   0.0237  0.2090  0.7700  11.00000  0.05    0.38
Q2    1   0.2512  0.4010  0.6691  11.00000  0.05    0.37
Q3    1   0.2836  0.5151  0.7457  11.00000  0.05    0.34
Q4    1   0.1257  0.2505  0.6848  11.00000  0.05    0.33
Q5    1   0.0574  0.3053  0.8440  11.00000  0.05    0.33
Q6    1   0.1914  0.4687  0.8305  11.00000  0.05    0.31
Q7    1   0.2211  0.2888  0.5984  11.00000  0.05    0.26
Q8    1   0.3278  0.3277  0.5153  11.00000  0.05    0.24
Q9    1   0.3239  0.6239  0.8203  11.00000  0.05    0.22
Q10   1   0.4451  0.7015  0.9376  11.00000  0.05    0.20
Q11   1   0.3609  0.7230  0.8941  11.00000  0.05    0.19
Q12   1   0.4074  0.8254  0.9690  11.00000  0.05    0.17
Q13   1   0.4077  0.4585  0.4986  11.00000  0.05    0.17
Q14   1   0.3582  0.5387  0.6637  11.00000  0.05    0.16
Q15   1   0.5699  0.7619  0.8212  11.00000  0.05    0.16
Q16   1   0.4989  0.6992  0.6569  11.00000  0.05    0.14
Q17   1   0.3625  0.3767  0.4286  11.00000  0.05    0.13
Q18   1   0.5696  0.8807  0.8257  11.00000  0.05    0.12
Q19   1   0.3313  0.6589  0.9553  11.00000  0.05    0.12
Q20   1   0.7432  0.4276  0.4990  11.00000  0.05    0.12
;
_shelx_res_checksum              79790
loop_
_space_group_symop_operation_xyz
'x, y, z'
'-x, y+1/2, -z'
loop_
_atom_site_type_symbol
_atom_site_label
_atom_site_fract_x
_atom_site_fract_y
_atom_site_fract_z
_atom_site_U_iso_or_equiv
_atom_site_adp_type
_atom_site_calc_flag
_atom_site_occupancy
O O01 0.3805(2) 0.36964(11) 0.47803(5) 0.02774(14) Uani d 1
O O02 0.5659(2) 0.81726(10) 0.79109(6) 0.02858(15) Uani d 1
O O03 0.3141(2) 0.75360(14) 0.93565(6) 0.03273(17) Uani d 1
N N01 0.39008(18) 0.71338(9) 0.84537(5) 0.01838(11) Uani d 1
C C01 0.26607(18) 0.52935(9) 0.79964(5) 0.01429(10) Uani d 1
C C02 0.1223(2) 0.39635(11) 0.86644(6) 0.01736(12) Uani d 1
H H02 0.101303 0.424953 0.939430 0.021 Uiso calc 1
C C03 0.0102(2) 0.22081(11) 0.82413(6) 0.01891(13) Uani d 1
H H03 -0.087439 0.127606 0.868273 0.023 Uiso calc 1
C C04 0.0419(2) 0.18223(10) 0.71667(6) 0.01706(12) Uani d 1
H H04 -0.036577 0.062838 0.687503 0.020 Uiso calc 1
C C05 0.18828(17) 0.31822(9) 0.65163(5) 0.01416(10) Uani d 1
C C06 0.30344(19) 0.49536(10) 0.69286(5) 0.01405(10) Uani d 1
H H06 0.403384 0.588642 0.649244 0.017 Uiso calc 1
C C07 0.2287(2) 0.26924(11) 0.53892(6) 0.01863(12) Uani d 1
H H07 0.129789 0.151915 0.512489 0.022 Uiso calc 1
loop_
_atom_site_aniso_label
_atom_site_aniso_U_11
_atom_site_aniso_U_22
_atom_site_aniso_U_33
_atom_site_aniso_U_12
_atom_site_aniso_U_13
_atom_site_aniso_U_23
O01 0.0390(3) 0.0266(3) 0.0188(2) -0.0037(3) 0.0094(2) -0.0013(2)
O02 0.0373(3) 0.0184(2) 0.0311(3) -0.0106(3) 0.0088(3) -0.0032(2)
O03 0.0461(4) 0.0320(3) 0.0209(3) -0.0065(3) 0.0074(3) -0.0112(3)
N01 0.0201(3) 0.0162(2) 0.0187(2) -0.00059(19) 0.00057(19) -0.00306(18)
C01 0.0145(2) 0.0137(2) 0.0148(2) -0.00082(17) 0.00209(18) -0.00065(17)
C02 0.0185(3) 0.0190(3) 0.0148(2) -0.0012(2) 0.0030(2) 0.00250(19)
C03 0.0203(3) 0.0171(3) 0.0196(3) -0.0025(2) 0.0034(2) 0.0042(2)
C04 0.0173(3) 0.0139(2) 0.0200(3) -0.00153(19) 0.0015(2) 0.0017(2)
C05 0.0143(2) 0.0129(2) 0.0153(2) 0.00052(19) 0.00169(18) 0.00008(19)
C06 0.0148(2) 0.0132(2) 0.0145(2) -0.00045(17) 0.00272(17) 0.00045(17)
C07 0.0216(3) 0.0172(2) 0.0174(3) 0.0010(2) 0.0028(2) -0.0031(2)
loop_
_atom_type_symbol
_atom_type_description
_atom_type_scat_dispersion_real
_atom_type_scat_dispersion_imag
_atom_type_scat_source
C C 0.0033 0.0016 'International Tables Vol C Tables 4.2.6.8 and 6.1.1.4'
H H 0.0000 0.0000 'International Tables Vol C Tables 4.2.6.8 and 6.1.1.4'
N N 0.0061 0.0033 'International Tables Vol C Tables 4.2.6.8 and 6.1.1.4'
O O 0.0106 0.0060 'International Tables Vol C Tables 4.2.6.8 and 6.1.1.4'
loop_
_geom_angle_atom_site_label_1
_geom_angle_atom_site_label_2
_geom_angle_atom_site_label_3
_geom_angle
O03 N01 O02 123.79(8)
O03 N01 C01 118.29(7)
O02 N01 C01 117.92(6)
C06 C01 C02 123.15(6)
C06 C01 N01 118.48(6)
C02 C01 N01 118.36(6)
C03 C02 C01 118.65(6)
C03 C02 H02 120.7
C01 C02 H02 120.7
C02 C03 C04 119.72(6)
C02 C03 H03 120.1
C04 C03 H03 120.1
C03 C04 C05 120.36(6)
C03 C04 H04 119.8
C05 C04 H04 119.8
C04 C05 C06 120.73(6)
C04 C05 C07 118.69(6)
C06 C05 C07 120.56(6)
C01 C06 C05 117.39(6)
C01 C06 H06 121.3
C05 C06 H06 121.3
O01 C07 C05 124.13(7)
O01 C07 H07 117.9
C05 C07 H07 117.9
loop_
_geom_bond_atom_site_label_1
_geom_bond_atom_site_label_2
_geom_bond_distance
O01 C07 1.2152(10)
O02 N01 1.2262(9)
O03 N01 1.2271(9)
N01 C01 1.4711(9)
C01 C06 1.3836(9)
C01 C02 1.3928(9)
C02 C03 1.3909(11)
C02 H02 0.9500
C03 C04 1.3941(10)
C03 H03 0.9500
C04 C05 1.3974(9)
C04 H04 0.9500
C05 C06 1.3992(10)
C05 C07 1.4797(9)
C06 H06 0.9500
C07 H07 0.9500
loop_
_geom_torsion_atom_site_label_1
_geom_torsion_atom_site_label_2
_geom_torsion_atom_site_label_3
_geom_torsion_atom_site_label_4
_geom_torsion
O03 N01 C01 C06 170.48(8)
O02 N01 C01 C06 -10.01(10)
O03 N01 C01 C02 -10.63(11)
O02 N01 C01 C02 168.88(7)
C06 C01 C02 C03 -0.08(11)
N01 C01 C02 C03 -178.92(7)
C01 C02 C03 C04 -0.34(11)
C02 C03 C04 C05 0.56(11)
C03 C04 C05 C06 -0.38(10)
C03 C04 C05 C07 177.92(7)
C02 C01 C06 C05 0.25(10)
N01 C01 C06 C05 179.09(6)
C04 C05 C06 C01 -0.02(9)
C07 C05 C06 C01 -178.30(6)
C04 C05 C07 O01 -173.33(8)
C06 C05 C07 O01 4.98(12)

_cod_database_fobs_code 1548728
