#------------------------------------------------------------------------------
#$Date: 2018-01-13 08:36:00 +0200 (Sat, 13 Jan 2018) $
#$Revision: 205189 $
#$URL: file:///home/coder/svn-repositories/cod/cif/1/54/86/1548681.cif $
#------------------------------------------------------------------------------
#
# This file is available in the Crystallography Open Database (COD),
# http://www.crystallography.net/. The original data for this entry
# were provided by IUCr Journals, http://journals.iucr.org/.
#
# The file may be used within the scientific community so long as
# proper attribution is given to the journal article from which the
# data were obtained.
#
data_1548681
loop_
_publ_author_name
'El-Hiti, Gamal A.'
'Smith, Keith'
'Hegazy, Amany S.'
'Alshammari, Mohammed B.'
'Kariuki, Benson M.'
_publ_section_title
;
 Methyl <i>N</i>-(2-bromo-4-chlorophenyl)carbamate
;
_journal_coeditor_code           SJ4153
_journal_issue                   1
_journal_name_full               IUCrData
_journal_page_first              x180054
_journal_paper_doi               10.1107/S2414314618000548
_journal_volume                  3
_journal_year                    2018
_chemical_formula_iupac          'C8 H7 Br Cl N O2'
_chemical_formula_moiety         'C8 H7 Br Cl N O2'
_chemical_formula_sum            'C8 H7 Br Cl N O2'
_chemical_formula_weight         264.51
_chemical_name_systematic
;
Methyl <i>N</i>-(2-bromo-4-chlorophenyl)carbamate
;
_space_group_crystal_system      triclinic
_space_group_IT_number           2
_space_group_name_Hall           '-P 1'
_space_group_name_H-M_alt        'P -1'
_symmetry_space_group_name_Hall  '-P 1'
_symmetry_space_group_name_H-M   'P -1'
_atom_sites_solution_hydrogens   geom
_audit_creation_method           SHELXL-2013
_cell_angle_alpha                111.639(5)
_cell_angle_beta                 101.035(5)
_cell_angle_gamma                93.712(5)
_cell_formula_units_Z            2
_cell_length_a                   4.6637(3)
_cell_length_b                   9.4598(6)
_cell_length_c                   11.9898(7)
_cell_measurement_reflns_used    2127
_cell_measurement_temperature    150(2)
_cell_measurement_theta_max      74.0500
_cell_measurement_theta_min      5.0680
_cell_volume                     477.25(6)
_computing_cell_refinement
;
CrysAlis PRO (Agilent, 2014)
;
_computing_data_collection
;
CrysAlis PRO (Agilent, 2014)
;
_computing_data_reduction
;
CrysAlis PRO (Agilent, 2014)
;
_computing_molecular_graphics
;
ORTEP-3 for Windows (Farrugia, 2012)
;
_computing_publication_material
;
WinGX (Farrugia, 2012) and CHEMDRAW Ultra (Cambridge Soft, 2001)
;
_computing_structure_refinement
;
SHELXL2013 (Sheldrick, 2015)
;
_computing_structure_solution
;
SHELXS2013 (Sheldrick, 2008)
;
_diffrn_ambient_temperature      150(2)
_diffrn_measured_fraction_theta_full 0.989
_diffrn_measured_fraction_theta_max 0.954
_diffrn_measurement_device_type  'Agilent SuperNova, Dual, Cu at zero, Atlas'
_diffrn_measurement_method       '\w scans'
_diffrn_radiation_type           CuK\a
_diffrn_radiation_wavelength     1.54184
_diffrn_reflns_av_R_equivalents  0.0185
_diffrn_reflns_limit_h_max       5
_diffrn_reflns_limit_h_min       -5
_diffrn_reflns_limit_k_max       11
_diffrn_reflns_limit_k_min       -10
_diffrn_reflns_limit_l_max       11
_diffrn_reflns_limit_l_min       -14
_diffrn_reflns_number            2938
_diffrn_reflns_theta_full        67.684
_diffrn_reflns_theta_max         73.969
_diffrn_reflns_theta_min         4.078
_diffrn_standards_decay_%        0
_diffrn_standards_interval_count 0
_diffrn_standards_interval_time  0
_diffrn_standards_number         0
_exptl_absorpt_coefficient_mu    8.191
_exptl_absorpt_correction_T_max  0.891
_exptl_absorpt_correction_T_min  0.776
_exptl_absorpt_correction_type   gaussian
_exptl_absorpt_process_details
;
(CrysAlis PRO; Agilent, 2014)
;
_exptl_crystal_colour            colourless
_exptl_crystal_density_diffrn    1.841
_exptl_crystal_description       block
_exptl_crystal_F_000             260
_exptl_crystal_size_max          0.305
_exptl_crystal_size_mid          0.203
_exptl_crystal_size_min          0.150
_refine_diff_density_max         0.303
_refine_diff_density_min         -0.607
_refine_ls_extinction_method     none
_refine_ls_goodness_of_fit_ref   1.076
_refine_ls_hydrogen_treatment    constr
_refine_ls_matrix_type           full
_refine_ls_number_parameters     119
_refine_ls_number_reflns         1847
_refine_ls_number_restraints     0
_refine_ls_restrained_S_all      1.076
_refine_ls_R_factor_all          0.0248
_refine_ls_R_factor_gt           0.0239
_refine_ls_shift/su_max          0.001
_refine_ls_shift/su_mean         0.000
_refine_ls_structure_factor_coef Fsqd
_refine_ls_weighting_details
'w=1/[\s^2^(Fo^2^)+(0.0400P)^2^+0.1570P] where P=(Fo^2^+2Fc^2^)/3'
_refine_ls_weighting_scheme      calc
_refine_ls_wR_factor_gt          0.0627
_refine_ls_wR_factor_ref         0.0633
_reflns_number_gt                1777
_reflns_number_total             1847
_reflns_threshold_expression     'I > 2\s(I)'
_cod_data_source_file            sj4153sup1.cif
_cod_data_source_block           I
_cod_original_cell_volume        477.25(5)
_cod_database_code               1548681
_shelx_space_group_comment
;
The symmetry employed for this shelxl refinement is uniquely defined
by the following loop, which should always be used as a source of
symmetry information in preference to the above space-group names.
They are only intended as comments.
;
_shelx_estimated_absorpt_t_min   0.189
_shelx_estimated_absorpt_t_max   0.373
_shelx_hkl_file
;
  -5  -4   5 26927.1 1110.08  13
  -5  -4   6 7373.14 607.244  13
  -5  -4   7 72032.4 1829.18  13
  -5  -4   8 40978.6 1303.32  13
  -5  -4   9 3801.12 367.660  13
  -5  -3  -1 16635.9 783.522   7
  -5  -3   0 711.727 228.047   7
  -5  -3   1 56415.9 1687.01   7
  -5  -3   2 27538.2 1198.16   7
  -5  -3   3 3974.12 458.184   7
  -5  -3   4 46002.5 1499.72  13
  -5  -3   5 44194.0 1563.10  13
  -5  -3   6 11201.4 804.057  13
  -5  -3   7 67860.8 1927.78  13
  -5  -3   8 16702.6 910.025  13
  -5  -3   9 52.5812 142.066  13
  -5  -2  -2 65917.4 1627.77   7
  -5  -2  -1 22596.0 1091.48   7
  -5  -2   0 14451.6 944.049   7
  -5  -2   1 71553.5 2130.24   7
  -5  -2   2 50278.8 1786.53   7
  -5  -2   3 610.266 245.555   7
  -5  -2   4 132396. 2723.26  13
  -5  -2   4 147086. 2837.48   7
  -5  -2   5 15285.7 971.417  13
  -5  -2   6 590.526 272.721  13
  -5  -2   7 54731.4 1787.50  13
  -5  -2   8 13104.0 829.423  13
  -5  -2   9 2149.65 334.907  13
  -5  -1  -3 548.562 182.082   7
  -5  -1  -2 32249.2 1299.98   7
  -5  -1  -1 8745.25 761.706   7
  -5  -1   0 1064.03 337.855   7
  -5  -1   1 17491.2 1129.19   7
  -5  -1   2 8563.04 802.935   7
  -5  -1   3 10297.2 859.251   7
  -5  -1   4 47978.2 1749.43   7
  -5  -1   4 41879.9 1577.98  13
  -5  -1   5 5503.66 614.557  13
  -5  -1   6 33246.1 1439.81  13
  -5  -1   7 56968.9 1816.57  13
  -5  -1   8 47850.4 1565.17  13
  -5  -1   9 4231.48 438.170  13
  -5   0  -3 3358.45 423.478   7
  -5   0  -2 48750.8 1698.78   7
  -5   0  -1 7779.78 749.224   7
  -5   0   0 62483.9 2135.74   7
  -5   0   1 23811.0 1348.80   7
  -5   0   2 45302.6 1848.51   7
  -5   0   3-221.828 273.093   7
  -5   0   4 24083.2 1189.31  13
  -5   0   4 23455.7 1274.98   7
  -5   0   5 61790.9 1894.71   7
  -5   0   5 57545.2 1861.42  13
  -5   0   6 12922.6 894.190  13
  -5   0   7 6266.57 626.395  13
  -5   0   8 50200.0 1569.11  13
  -5   0   9 258.466 163.188  13
  -5   1  -4 14702.5 734.228   7
  -5   1  -3 13801.0 855.543   7
  -5   1  -2 40222.9 1594.49   7
  -5   1  -1 51825.3 1913.66   7
  -5   1   0 35327.0 1638.48   7
  -5   1   1 103741. 2798.31   7
  -5   1   2 70518.5 2309.63   7
  -5   1   3 17477.6 1160.89   7
  -5   1   4 75327.0 2267.31   7
  -5   1   4 72840.5 2029.70  13
  -5   1   5 60429.0 1885.99   7
  -5   1   5 59217.7 1847.97  13
  -5   1   6 9380.86 742.404  13
  -5   1   7 26324.5 1173.59  13
  -5   1   8 256.857 174.923  13
  -5   1   9 12107.4 644.234  13
  -5   2  -4 21343.3 911.185   7
  -5   2  -3 119.350 192.224   7
  -5   2  -2 33855.9 1473.28   7
  -5   2  -1 68534.9 2197.17   7
  -5   2   0 231.533 278.735   7
  -5   2   1 44198.2 1842.34   7
  -5   2   2 405.185 307.926   7
  -5   2   3 17705.3 1158.33   7
  -5   2   4 45169.9 1713.25   7
  -5   2   4 40579.9 1470.16  13
  -5   2   5 1887.38 364.217  13
  -5   2   6 21386.7 1055.74  13
  -5   2   7 92360.3 2050.06  13
  -5   2   8 1155.74 227.889  13
  -5   3  -4 19996.6 846.895   7
  -5   3  -3 4202.49 501.248   7
  -5   3  -2 93700.0 2394.78   7
  -5   3  -1 12898.4 951.859   7
  -5   3   0 454.126 265.130   7
  -5   3   1 74557.3 2314.14   7
  -5   3   2 11907.3 943.484   7
  -5   3   3 633.801 289.570   7
  -5   3   4 37281.2 1330.68  13
  -5   3   5 4212.28 464.584  13
  -5   3   6 524.348 202.575  13
  -5   3   7 57939.2 1425.30  13
  -5   4  -3 715.348 241.244   8
  -5   4  -3 507.597 211.191   7
  -5   4  -2 18927.7 1022.94   7
  -5   4  -1 4093.04 543.182   7
  -5   4   0 6083.52 644.409   7
  -5   4   1 119937. 2738.92   7
  -5   4   3 10007.7 732.576   8
  -5   4   4 60573.1 1531.24   8
  -5   4   5 19620.2 817.368  13
  -5   5  -3 229.233 156.607   8
  -5   5  -2 6202.00 573.083   8
  -5   5  -1 14170.4 892.338   8
  -5   5   0 5051.91 555.618   8
  -5   5   1 7358.07 641.929   8
  -5   5   2 7189.80 589.941   8
  -5   5   3 11401.3 637.334   8
  -5   6  -2 44604.0 1238.88   8
  -5   6  -1 20916.9 897.078   8
  -5   6   0 2712.18 355.002   8
  -5   6   1 9101.37 567.800   8
  -5   6   2 10064.0 522.720   8
  -4  -6  -1 61831.9 1449.61   4
  -4  -6   0 1485.79 299.847   4
  -4  -6   1 42990.6 1527.43   4
  -4  -6   2 57378.7 1816.15   4
  -4  -6   2 59157.2 1614.11   7
  -4  -6   3 17428.7 997.645   4
  -4  -6  10 75684.1 1839.01  13
  -4  -5  -2 36445.3 1288.35   4
  -4  -5  -1 13557.9 913.452   4
  -4  -5   0 10864.7 891.700   4
  -4  -5   1 128104. 3113.75   4
  -4  -5   2 30703.9 1536.63   4
  -4  -5   3 3061.30 459.079   7
  -4  -5   3 2794.03 493.386   4
  -4  -5   4 106189. 2660.50   4
  -4  -5  10 209432. 3378.72  13
  -4  -5  11 7829.84 564.068  13
  -4  -4  -4 1533.56 243.987   7
  -4  -4  -3 5097.03 523.269   4
  -4  -4  -2 82061.9 2351.29   4
  -4  -4  -1 3251.58 566.972   4
  -4  -4   0 1359.02 422.999   4
  -4  -4   1 142676. 3557.31   4
  -4  -4   2 40829.3 1892.75   4
  -4  -4   3 12824.6 1055.78   4
  -4  -4   3 12584.4 946.309   7
  -4  -4   4 279232. 4581.51   4
  -4  -4  10 130773. 2837.09  13
  -4  -4  11 24371.6 1051.80  13
  -4  -3  -5 47654.3 1230.93   7
  -4  -3  -3 184.191 208.923   4
  -4  -3  -2 70456.8 2408.81   4
  -4  -3  -1 37219.5 1844.08   4
  -4  -3   0 8956.57 926.291   4
  -4  -3   1 20993.5 1424.52   4
  -4  -3   2 17892.7 1283.20   4
  -4  -3   3 32543.6 1579.74   7
  -4  -3   3 29298.6 1580.67   4
  -4  -3   9 65879.4 2240.45  13
  -4  -3  10 41069.7 1629.27  13
  -4  -3  11 40327.6 1391.48  13
  -4  -2  -5 40271.8 1391.51   7
  -4  -2  -3 32544.8 1616.46   4
  -4  -2  -2 111731. 3155.21   4
  -4  -2  -1 15329.4 1239.12   4
  -4  -2   0 156634. 3839.23   4
  -4  -2   1 37166.2 1859.41   4
  -4  -2   2 68353.1 2363.25   7
  -4  -2   2 64633.1 2376.68   4
  -4  -2   3 18152.7 1211.63   7
  -4  -2   4 52516.9 1951.47   7
  -4  -2   8 153649. 3567.19  13
  -4  -2   9-83.2003 266.071  13
  -4  -2  10 22108.6 1198.39  13
  -4  -2  11 26846.7 1136.03  13
  -4  -1  -6 28643.7 1051.80   7
  -4  -1  -6 27650.2 1006.74  14
  -4  -1  -5 9679.27 770.491   7
  -4  -1  -4 16697.1 1125.17   7
  -4  -1  -3 40675.4 1858.05   4
  -4  -1  -2 35971.3 1808.25   4
  -4  -1  -1 23758.5 1497.14   4
  -4  -1   0 155666. 3779.30   4
  -4  -1   1 172276. 3783.85   7
  -4  -1   1 169173. 3858.54   4
  -4  -1   2 71628.5 2413.61   7
  -4  -1   3 68625.8 2312.54   7
  -4  -1   4 165565. 3515.66   7
  -4  -1   7 124219. 3245.51  13
  -4  -1   8 796.037 383.641  13
  -4  -1   9 23957.3 1329.66  13
  -4  -1  10 48794.1 1726.15  13
  -4  -1  11 7406.88 601.929  13
  -4   0  -7 35121.9 1085.48  14
  -4   0  -6 14380.0 853.185  14
  -4   0  -6 14190.5 818.083   7
  -4   0  -5 77849.4 2139.76  14
  -4   0  -5 79466.2 2265.85   7
  -4   0  -4 41383.8 1796.64   7
  -4   0  -3 144.953 291.534   7
  -4   0  -2 84573.2 2716.02   7
  -4   0  -1 130854. 3351.46   7
  -4   0   0-239.351 316.249   7
  -4   0   1 128913. 3260.96   7
  -4   0   2-121.949 236.863   7
  -4   0   3 21787.0 1319.76   7
  -4   0   4 104820. 2863.99  13
  -4   0   4 107815. 2873.47   7
  -4   0   5-1.07615 211.723  13
  -4   0   5 254.253 232.952   7
  -4   0   6 47809.0 1998.58  13
  -4   0   7 156723. 3573.96  13
  -4   0   8 62110.6 2201.66  13
  -4   0   9 64722.1 2115.28  13
  -4   0  10 99619.6 2403.03  13
  -4   0  11 7.22337 123.987  13
  -4   1  -7 16886.4 873.944  14
  -4   1  -6 4840.66 503.612   7
  -4   1  -6 3965.02 510.034  14
  -4   1  -5 137195. 2980.44  14
  -4   1  -5 140988. 3074.96   7
  -4   1  -4 13868.4 1059.82   7
  -4   1  -3 37038.1 1763.80   7
  -4   1  -2 314481. 5139.94   7
  -4   1  -1 13440.0 1090.31   7
  -4   1   0 10834.1 985.060   7
  -4   1   1 216998. 4203.99   7
  -4   1   2 3856.96 610.090   7
  -4   1   2 2703.16 463.185  13
  -4   1   3 22571.7 1362.27   7
  -4   1   3 24222.4 1334.32  13
  -4   1   4 168485. 3590.42  13
  -4   1   4 156902. 3545.65   7
  -4   1   5 7280.59 787.773   7
  -4   1   5 7647.02 813.362  13
  -4   1   6 189.654 278.669  13
  -4   1   7 148527. 3388.88  13
  -4   1   8 49731.8 1909.24  13
  -4   1   9 4639.82 576.162  13
  -4   1  10 38211.1 1422.27  13
  -4   1  11 224.918 132.928  13
  -4   2  -8 31061.4 1018.74  14
  -4   2  -7 2043.08 352.830  14
  -4   2  -6 30.1818 184.883  14
  -4   2  -5 55874.9 1929.52   7
  -4   2  -5 53339.3 1887.43  14
  -4   2  -4 653.705 320.812   7
  -4   2  -3 8333.98 849.422   7
  -4   2  -2 47639.8 1999.82   7
  -4   2  -1 401.516 302.100   7
  -4   2   0 36457.8 1746.78   7
  -4   2   1 216880. 4237.30   7
  -4   2   2 44838.3 1738.70  13
  -4   2   2 44125.1 1917.42   7
  -4   2   3 77366.5 2539.23   7
  -4   2   3 76268.8 2339.58  13
  -4   2   4 136574. 3384.39   7
  -4   2   4 144128. 3269.95  13
  -4   2   5 28569.6 1519.93   7
  -4   2   5 28139.3 1470.80  13
  -4   2   6 63572.1 2200.00  13
  -4   2   7 123216. 3035.18  13
  -4   2   8 50719.5 1872.19  13
  -4   2   9 37764.3 1490.89  13
  -4   2  10 16461.2 851.370  13
  -4   3  -8 31026.3 1075.86  14
  -4   3  -7 19022.2 994.047  14
  -4   3  -6 14695.7 968.551  14
  -4   3  -5 37375.2 1549.14   7
  -4   3  -5 37444.2 1565.27  14
  -4   3  -4 35155.7 1618.16   7
  -4   3  -4 37104.4 1544.07  14
  -4   3  -3 436.283 263.945   7
  -4   3  -2 15275.4 1140.82   7
  -4   3  -1 55668.4 2157.58   7
  -4   3   0 25011.2 1450.26   7
  -4   3   1 31848.4 1661.00   7
  -4   3   2 57044.6 1993.25  13
  -4   3   2 58993.2 2280.30   7
  -4   3   3 34382.0 1595.84  13
  -4   3   3 35016.0 1754.56   7
  -4   3   4 40756.7 1763.72  13
  -4   3   4 39750.6 1834.38   7
  -4   3   5 13957.5 1050.69  13
  -4   3   6 89491.5 2577.67  13
  -4   3   7 7192.51 735.535  13
  -4   3   8 384.487 262.272  13
  -4   3   9 68315.1 1791.33  13
  -4   3  10 33608.7 966.828  13
  -4   4  -8 3483.92 385.763  14
  -4   4  -7 7426.26 631.022  14
  -4   4  -6 37079.2 1472.52  14
  -4   4  -5 59144.9 1884.67   7
  -4   4  -5 60227.4 1926.94  14
  -4   4  -4 18849.0 1164.79   7
  -4   4  -4 19100.0 1099.94  14
  -4   4  -3 154671. 3440.40   7
  -4   4  -2 107077. 2941.29   7
  -4   4  -1 25896.4 1500.29   7
  -4   4   0 57512.0 2240.66   7
  -4   4   1 50882.7 2100.13   7
  -4   4   2 19912.9 1195.61  13
  -4   4   2 20983.9 1372.33   7
  -4   4   3 40361.6 1729.01  13
  -4   4   3 39980.4 1854.44   7
  -4   4   4 29934.6 1490.18  13
  -4   4   4 29164.3 1432.42   8
  -4   4   5 25303.1 1366.06  13
  -4   4   6 491.106 271.116  13
  -4   4   7 16534.8 1005.81  13
  -4   4   8 10224.9 711.031  13
  -4   4   9 3728.04 350.021  13
  -4   5  -8 12222.8 653.045  14
  -4   5  -8 11728.0 639.800   9
  -4   5  -7 4981.19 504.140  14
  -4   5  -6 17352.6 969.850  14
  -4   5  -5 37008.8 1525.89   8
  -4   5  -5 38484.6 1479.28  14
  -4   5  -4 26.8383 196.734   7
  -4   5  -4-3.10131 156.337  14
  -4   5  -3 56397.2 2026.88   7
  -4   5  -2 43770.5 1850.80   7
  -4   5  -1 1463.04 440.692   7
  -4   5   0 12542.3 1045.54   7
  -4   5   1 58258.7 2214.80   7
  -4   5   2 316.053 283.795   8
  -4   5   2 295.487 236.281  13
  -4   5   3 28576.0 1424.08   8
  -4   5   3 28630.0 1411.72  13
  -4   5   4 66677.3 2120.93  13
  -4   5   4 64123.8 1895.04   8
  -4   5   5 902.519 286.389  13
  -4   5   6 23592.2 1147.25  13
  -4   5   7 72652.8 1770.95  13
  -4   5   8 569.137 171.443  13
  -4   6  -8 82156.8 1575.23   9
  -4   6  -7 2477.28 331.020  14
  -4   6  -6 4883.13 493.956  14
  -4   6  -5 41614.0 1443.55  14
  -4   6  -5 40932.2 1474.10   8
  -4   6  -4 17796.6 1113.79   8
  -4   6  -3 406.926 289.795   8
  -4   6  -2 45665.9 1913.08   8
  -4   6  -1 4173.82 625.030   8
  -4   6   0 6982.03 785.459   8
  -4   6   1 35626.5 1612.21   8
  -4   6   2 957.033 263.147  13
  -4   6   2 612.690 278.377   8
  -4   6   3 12556.8 817.853   8
  -4   6   3 11887.1 827.808  13
  -4   6   4 62698.6 1809.76  13
  -4   6   5 12772.4 775.096  13
  -4   6   6 32829.1 1085.09  13
  -4   7  -7-7.35649 137.879   9
  -4   7  -6 9447.55 660.261   9
  -4   7  -5 55463.7 1471.42   8
  -4   7  -4 3513.65 452.523   8
  -4   7  -3 37943.4 1507.86   8
  -4   7  -2 114152. 2701.91   8
  -4   7  -1 656.002 307.212   8
  -4   7   0 78075.1 2177.78   8
  -4   7   1 69786.8 1919.24   8
  -4   7   2 1766.96 318.756   8
  -4   7   3 13910.1 673.987   8
  -4   7   3 14744.5 744.964  13
  -4   7   4 27399.2 945.034  13
  -4   8  -6 23836.4 793.966   9
  -4   8  -5 14335.1 650.429   9
  -4   8  -4 178.243 130.073   9
  -4   8  -4 187.913 153.611   8
  -4   8  -3 21066.7 935.230   8
  -4   8  -2 46073.1 1411.20   8
  -4   8  -1 25408.1 1042.08   8
  -4   8   0 34055.5 1151.92   8
  -4   8   1 18376.3 775.350   8
  -3  -8   0 907.165 217.399   4
  -3  -8   1 51349.3 1512.90   4
  -3  -8   2 52118.9 1587.87   4
  -3  -8   3 26227.5 1124.62   4
  -3  -7  -2 51636.6 1470.67   4
  -3  -7  -1 5699.67 581.914   4
  -3  -7   0 29186.9 1399.01   4
  -3  -7   1 193013. 3712.74   4
  -3  -7   2 16045.3 1095.46   4
  -3  -7   3 811.185 276.383   4
  -3  -6  -4 1459.52 246.281   4
  -3  -6  -3 4857.91 520.022   4
  -3  -6  -3 4395.82 433.755  14
  -3  -6  -2 74924.5 2264.41   4
  -3  -6  -1 2030.91 474.919   4
  -3  -6   0 1458.75 453.926   4
  -3  -6   1 180158. 4025.88   4
  -3  -6   2 17111.4 1229.83   4
  -3  -6   3 28534.1 1536.08   4
  -3  -6   4 282338. 4474.75   4
  -3  -5  -5 69490.4 1580.39  14
  -3  -5  -5 77515.2 1648.44   4
  -3  -5  -4 25181.8 1205.95   4
  -3  -5  -4 24677.3 1135.87  14
  -3  -5  -3 4744.93 563.090  14
  -3  -5  -3 5035.90 639.307   4
  -3  -5  -2 112959. 3149.97   4
  -3  -5  -1 64430.1 2482.33   4
  -3  -5   0 7918.39 916.941   4
  -3  -5   1 42989.5 2015.83   4
  -3  -5   2 59364.4 2272.14   4
  -3  -5   3 42993.9 1866.51   4
  -3  -5   4 103663. 2718.69   4
  -3  -5  11 32490.6 1358.61  13
  -3  -4  -6 25332.7 1043.30  14
  -3  -4  -5 30631.7 1324.30   4
  -3  -4  -5 29731.4 1336.32  14
  -3  -4  -4 31404.7 1530.98   4
  -3  -4  -4 31691.4 1508.28  14
  -3  -4  -3 86324.2 2581.06  14
  -3  -4  -3 80834.3 2682.90   4
  -3  -4  -2 134869. 3586.35   4
  -3  -4  -1 14184.8 1192.16   4
  -3  -4   0 254460. 4860.71   4
  -3  -4   1 30984.7 1651.04   4
  -3  -4   2 45108.8 1915.73   4
  -3  -4   3 125139. 3031.74   4
  -3  -4  11 49656.0 1730.50  13
  -3  -3  -7 28129.2 1126.47  14
  -3  -3  -6 39693.7 1407.71   4
  -3  -3  -6 43255.5 1650.45  14
  -3  -3  -5 13556.4 986.255   4
  -3  -3  -5 13123.1 1017.59  14
  -3  -3  -4 25951.9 1482.29   4
  -3  -3  -4 26560.5 1494.12  14
  -3  -3  -3 80219.9 2552.08  14
  -3  -3  -3 75270.2 2625.53   4
  -3  -3  -2 33478.9 1776.37   4
  -3  -3  -1 4069.98 643.600   4
  -3  -3   0 290987. 4930.73   4
  -3  -3   1 157929. 3516.57   4
  -3  -3   2 24275.5 1326.44   4
  -3  -3   3 121750. 2828.83   4
  -3  -3  10 115694. 2904.55  13
  -3  -3  11 1507.01 359.990  13
  -3  -2  -8 34219.2 1231.38  14
  -3  -2  -7 18514.2 1093.02  14
  -3  -2  -6 72546.9 2124.31   4
  -3  -2  -6 74661.3 2396.73  14
  -3  -2  -5 146652. 3358.30   4
  -3  -2  -5 149105. 3525.04  14
  -3  -2  -4 24937.5 1466.49   4
  -3  -2  -4 27368.6 1540.28  14
  -3  -2  -3 7294.22 806.716  14
  -3  -2  -3 6033.87 737.911   4
  -3  -2  -2 174250. 3828.95   4
  -3  -2  -1 142404. 3341.75   4
  -3  -2   0 8102.96 785.638   4
  -3  -2   1 390710. 5086.55   4
  -3  -2   9 107593. 2894.09  13
  -3  -2  10 130944. 3062.74  13
  -3  -2  11 10496.6 816.228  13
  -3  -1  -9 123.527 155.604  14
  -3  -1  -8 77231.4 2147.78  14
  -3  -1  -7 5727.46 683.579  14
  -3  -1  -6 8451.27 872.783  14
  -3  -1  -5 197140. 3900.48   4
  -3  -1  -5 204903. 4161.88  14
  -3  -1  -4 1694.26 429.596   4
  -3  -1  -4 2493.91 476.418  14
  -3  -1  -3 73257.0 2416.14   4
  -3  -1  -3 77032.7 2409.49  14
  -3  -1  -2 509787. 6208.68   4
  -3  -1  -1 1296.34 318.377   4
  -3  -1   8 48489.7 1938.75  13
  -3  -1   9 43850.2 1840.37  13
  -3  -1  10 97628.2 2612.12  13
  -3  -1  11 1469.58 307.237  13
  -3   0  -9 2859.14 432.293  14
  -3   0  -8 98860.6 2644.58  14
  -3   0  -7 7925.06 825.718  14
  -3   0  -6 1904.91 486.503  14
  -3   0  -5 137861. 3371.71  14
  -3   0  -5 132230. 3146.46   4
  -3   0  -4 762.043 307.415   4
  -3   0  -4 1167.09 389.595  14
  -3   0  -3 42117.9 1697.37  14
  -3   0  -3 41372.4 1752.56   4
  -3   0  -2 114920. 2813.72   4
  -3   0   7 207317. 3950.82  13
  -3   0   8 86277.0 2583.37  13
  -3   0   9 137980. 3204.00  13
  -3   0  10 26442.5 1355.02  13
  -3   0  11 6215.27 608.474  13
  -3   1 -10 126.050 148.074  14
  -3   1  -9 31680.5 1400.52  14
  -3   1  -8 70219.7 2337.08  14
  -3   1  -7 14025.3 1112.65  14
  -3   1  -6 91180.3 2787.80  14
  -3   1  -5 67914.6 2321.61  14
  -3   1  -4 39452.2 1700.97  14
  -3   1  -4 36905.8 1647.15   4
  -3   1  -3 10414.6 850.127  14
  -3   1  -3 9772.22 837.011   4
  -3   1  -2 35214.4 1515.46   4
  -3   1   5 34952.0 1531.55  13
  -3   1   6 273442. 4407.46  13
  -3   1   7 14576.2 1057.21  13
  -3   1   8 572.033 295.999  13
  -3   1   9 142448. 3252.65  13
  -3   1  10 32379.0 1470.44  13
  -3   1  11 518.327 194.157  13
  -3   2 -10 18623.2 964.072  14
  -3   2  -9 17126.5 1097.40  14
  -3   2  -8 572.616 389.246  14
  -3   2  -7 14130.7 1124.15  14
  -3   2  -6 80763.7 2609.12  14
  -3   2  -5 57680.5 1969.90   7
  -3   2  -5 59652.0 2152.70  14
  -3   2  -4 24779.4 1297.24   7
  -3   2  -4 27111.6 1399.18  14
  -3   2  -3 318016. 4481.66   7
  -3   2  -3 330268. 4476.15  14
  -3   2  -2 106413. 2535.82   7
  -3   2   4 115593. 2709.76  13
  -3   2   4 114679. 2812.26   7
  -3   2   5 22755.9 1292.44   7
  -3   2   5 22749.1 1263.17  13
  -3   2   6 7389.23 764.861  13
  -3   2   7 60022.2 2162.11  13
  -3   2   8 5981.70 716.798  13
  -3   2   9 21395.5 1269.42  13
  -3   2  10 82564.6 2219.43  13
  -3   2  11 1805.11 281.003  13
  -3   3 -10 4950.28 535.794  14
  -3   3  -9 77170.9 2307.47  14
  -3   3  -8 23298.5 1402.56  14
  -3   3  -7 6891.29 812.922  14
  -3   3  -6 56529.5 2154.84  14
  -3   3  -5 127275. 3096.52  14
  -3   3  -5 121620. 2823.24   7
  -3   3  -4 539.344 316.556  14
  -3   3  -4 906.062 300.682   7
  -3   3  -3 185813. 3420.95  14
  -3   3  -3 176714. 3366.86   7
  -3   3  -2 146042. 3016.68   7
  -3   3  -1 1219.18 311.015   7
  -3   3   0 24854.5 1252.19   7
  -3   3   1 99050.8 2506.95   7
  -3   3   2 26387.0 1350.60   7
  -3   3   2 27094.7 1275.03  13
  -3   3   3 51530.4 1929.07   7
  -3   3   3 52742.8 1835.35  13
  -3   3   4 121438. 3017.80   7
  -3   3   4 124094. 2916.07  13
  -3   3   5 14462.5 1045.19  13
  -3   3   6 27580.6 1486.22  13
  -3   3   7 134352. 3268.98  13
  -3   3   8 4868.83 647.165  13
  -3   3   9 7284.65 717.562  13
  -3   3  10 64164.6 1709.90  13
  -3   4 -11 43531.8 1178.73  14
  -3   4 -10 259.247 202.236  14
  -3   4  -9 99078.8 2572.17  14
  -3   4  -8 217127. 4123.89  14
  -3   4  -7 4825.75 690.792  14
  -3   4  -6 35801.2 1717.91  14
  -3   4  -5 110308. 2898.48  14
  -3   4  -4 2802.68 484.257  14
  -3   4  -4 2925.30 479.669   7
  -3   4  -3 8060.96 748.620   7
  -3   4  -3 8801.95 778.838  14
  -3   4  -2 181043. 3493.63   7
  -3   4  -2 192044. 3382.15  14
  -3   4  -1 16202.1 1064.74   7
  -3   4   0 6715.07 714.968   7
  -3   4   1 115520. 2908.88   7
  -3   4   1 118283. 2739.85  13
  -3   4   2 1507.07 351.448  13
  -3   4   2 1078.88 332.079   7
  -3   4   3 33200.7 1626.21   7
  -3   4   3 33689.3 1560.75  13
  -3   4   4 180809. 3551.25   8
  -3   4   4 180076. 3713.39  13
  -3   4   5 43852.2 1892.74  13
  -3   4   6 99737.0 2845.74  13
  -3   4   7 64333.0 2239.57  13
  -3   4   8 2139.48 432.091  13
  -3   4   9 22068.6 1057.95  13
  -3   4  10 11238.7 563.026  13
  -3   5 -11 37498.3 1068.26  14
  -3   5 -10 7046.43 607.720  14
  -3   5  -9 1419.11 372.557  14
  -3   5  -8 88300.6 2530.67  14
  -3   5  -7 433.976 319.005  14
  -3   5  -6 13949.3 1065.75  14
  -3   5  -5 118611. 2952.27  14
  -3   5  -4 1856.51 409.127  14
  -3   5  -4 1568.09 406.165   7
  -3   5  -3 67922.7 2216.69   7
  -3   5  -3 71908.1 2189.29  14
  -3   5  -2 156898. 3432.81   7
  -3   5  -2 171597. 3322.82  14
  -3   5  -1 39598.0 1571.35  14
  -3   5  -1 37351.8 1692.22   7
  -3   5   0 300069. 4832.57   7
  -3   5   1 147515. 3410.13   7
  -3   5   1 147298. 3268.65  13
  -3   5   2 1490.86 392.784  13
  -3   5   2 1898.76 439.691   8
  -3   5   3 106192. 2890.47  13
  -3   5   3 101898. 2772.33   8
  -3   5   4 67062.6 2106.85   8
  -3   5   4 69889.4 2408.94  13
  -3   5   5 3959.37 612.676  13
  -3   5   6 54509.3 2038.52  13
  -3   5   7 8412.56 769.023  13
  -3   5   8 1091.52 295.040  13
  -3   5   9 19247.5 777.942  13
  -3   6 -10 2372.55 309.966   9
  -3   6 -10 2714.34 374.403  14
  -3   6  -9 1646.96 366.731   9
  -3   6  -9 1571.95 343.873  14
  -3   6  -8 38503.3 1607.39  14
  -3   6  -7 3966.98 600.981  14
  -3   6  -6 127683. 3054.48  14
  -3   6  -5 62447.4 2137.78  14
  -3   6  -5 62341.9 2228.02   8
  -3   6  -4 178.916 308.179   8
  -3   6  -4 203.153 255.286  14
  -3   6  -3 90942.8 2815.74   8
  -3   6  -3 91595.4 2565.69   7
  -3   6  -3 99129.5 2620.13  14
  -3   6  -2 124649. 3070.10   7
  -3   6  -2 122564. 3271.94   8
  -3   6  -1 40732.2 1884.60   8
  -3   6   0 183673. 3962.26   8
  -3   6   1 37740.3 1695.73  13
  -3   6   1 34856.2 1697.74   8
  -3   6   2 150.269 231.766   8
  -3   6   2 353.906 267.450  13
  -3   6   3 64264.2 2056.50   8
  -3   6   3 67299.8 2297.40  13
  -3   6   4 20622.9 1265.91  13
  -3   6   5 10197.4 870.279  13
  -3   6   6 78020.1 2160.57  13
  -3   6   7 2383.09 366.174  13
  -3   6   8 5174.74 407.955  13
  -3   7 -10 1340.42 224.082   9
  -3   7 -10 1257.78 246.253  14
  -3   7  -9 59993.2 1711.59   9
  -3   7  -9 61287.7 1730.30  14
  -3   7  -8 34916.1 1476.87   9
  -3   7  -8 33292.2 1400.75  14
  -3   7  -7 6410.56 679.372  14
  -3   7  -6 86872.8 2431.27  14
  -3   7  -5 20569.4 1237.86   8
  -3   7  -5 18792.3 1165.59  14
  -3   7  -4 2262.24 499.152   8
  -3   7  -4 1993.34 449.636  14
  -3   7  -3 60559.5 2251.59   8
  -3   7  -2 22263.7 1392.08   8
  -3   7  -1 40078.0 1834.40   8
  -3   7   0 26112.7 1443.03   8
  -3   7   1 29852.1 1468.75   8
  -3   7   1 31082.3 1461.43  13
  -3   7   2 739.911 297.885  13
  -3   7   2 905.507 305.489   8
  -3   7   3 68450.7 1881.51   8
  -3   7   3 72768.0 2201.06  13
  -3   7   4 27584.2 1297.98  13
  -3   7   5 1437.68 312.997  13
  -3   7   6 61532.5 1567.98  13
  -3   7   7 47182.0 1081.92  13
  -3   8  -9 26420.5 993.749   9
  -3   8  -8 10098.8 719.307   9
  -3   8  -7 13358.1 884.275   9
  -3   8  -6 9722.71 685.305   8
  -3   8  -6 10557.8 814.696   9
  -3   8  -5 43469.4 1622.90   9
  -3   8  -5 47623.5 1660.01   8
  -3   8  -4 317.989 199.138   9
  -3   8  -4 1593.73 387.425   8
  -3   8  -3 32245.0 1278.04   9
  -3   8  -3 35574.3 1572.07   8
  -3   8  -2 18614.9 1150.20   8
  -3   8  -1 2805.36 508.485   8
  -3   8  -1 2837.94 399.578  11
  -3   8   0 48094.9 1732.88   8
  -3   8   1 76875.7 2044.33   8
  -3   8   1 78796.3 2088.74  13
  -3   8   2 6387.31 597.081  13
  -3   8   3 36219.4 1327.25  13
  -3   8   4 21297.0 926.336  13
  -3   8   5 2079.72 261.062  13
  -3   9  -8 19930.8 802.136   9
  -3   9  -7 4706.72 444.294   9
  -3   9  -6 23302.2 970.838   9
  -3   9  -5 41971.7 1282.38   9
  -3   9  -4 1031.74 273.007   8
  -3   9  -3 18475.9 975.623   8
  -3   9  -2 46021.2 1520.45   8
  -3   9  -1 9753.99 704.780   8
  -3   9  -1 8016.56 568.215  11
  -3   9   0 17693.7 826.410  11
  -3   9   1 40197.9 1146.05  13
  -3   9   1 34972.8 1119.49  11
  -3   9   2-27.2880 84.8034  13
  -3   9   2 87.8763 84.0472  11
  -2  -9  -1 1155.48 221.994   4
  -2  -9   0 25850.0 1049.26   4
  -2  -9   1 149462. 2680.61   4
  -2  -9   2 503.100 195.258   4
  -2  -9   3 14640.5 862.638   4
  -2  -8  -3 6092.47 470.315   4
  -2  -8  -2 61409.3 1743.27   4
  -2  -8  -1 8424.28 742.004   4
  -2  -8   0 9106.34 835.073   4
  -2  -8   1 170142. 3552.93   4
  -2  -8   2 8293.79 803.056   4
  -2  -8   3 32516.2 1544.49   4
  -2  -7  -4 6898.51 566.746   4
  -2  -7  -3 25745.0 1278.52   4
  -2  -7  -2 113130. 2944.40   4
  -2  -7  -1 43660.2 1937.10   4
  -2  -7   0 2356.08 551.277   4
  -2  -7   1 78673.0 2665.18   4
  -2  -7   2 92012.2 2802.68   4
  -2  -7   3 63468.8 2240.43   4
  -2  -6  -6 30818.2 1069.40  14
  -2  -6  -5 15266.2 888.979   4
  -2  -6  -4 24681.2 1317.27   4
  -2  -6  -3 86938.6 2711.15   4
  -2  -6  -2 97647.4 3023.96   4
  -2  -6  -1 10953.4 1058.63   4
  -2  -6   0 241776. 4784.41   4
  -2  -6   1 4182.82 658.752   4
  -2  -6   2 10652.2 981.785   4
  -2  -6   3 254799. 4353.03   4
  -2  -5  -7 36643.2 1257.35  14
  -2  -5  -6 49043.9 1546.28   4
  -2  -5  -6 50708.6 1780.60  14
  -2  -5  -5 18808.2 1160.71   4
  -2  -5  -5 18033.2 1127.27   2
  -2  -5  -4 24892.2 1410.94   2
  -2  -5  -4 24713.2 1455.41   4
  -2  -5  -3 115018. 3283.91   4
  -2  -5  -3 116158. 3077.14   2
  -2  -5  -2 50759.2 2214.38   4
  -2  -5  -2 56574.6 2106.55   2
  -2  -5  -1 1058.90 409.731   4
  -2  -5  -1 1126.57 349.942   2
  -2  -5   0 287247. 5030.55   4
  -2  -5   1 114475. 3030.22   4
  -2  -5   2 816.318 317.729   4
  -2  -4  -8 31311.4 1178.90  14
  -2  -4  -7 2201.82 425.924   2
  -2  -4  -7 2194.30 439.344  14
  -2  -4  -6 121332. 2817.26   4
  -2  -4  -6 120548. 3076.29   2
  -2  -4  -5 137026. 3518.10   2
  -2  -4  -5 139550. 3369.46   4
  -2  -4  -4 2495.61 515.842   4
  -2  -4  -4 143.508 287.851   2
  -2  -4  -3 30814.8 1651.11   2
  -2  -4  -3 28385.6 1623.26   4
  -2  -4  -2 217921. 4132.74   2
  -2  -4  -2 195257. 4133.27   4
  -2  -4  -1 41265.8 1836.30   4
  -2  -4  -1 49315.5 1868.77   2
  -2  -3  -9 244.230 134.292  14
  -2  -3  -8 90451.3 2427.06  14
  -2  -3  -8 84070.4 2349.49   2
  -2  -3  -7 573.439 364.502  14
  -2  -3  -7 3.34004 286.117   2
  -2  -3  -6 12113.2 1134.26   2
  -2  -3  -6 12825.0 995.910   4
  -2  -3  -5 221432. 4706.14   2
  -2  -3  -5 222866. 4253.09   4
  -2  -3  -4 997.118 363.704   2
  -2  -3  -4 217.472 233.447   4
  -2  -3  -3 58013.6 2230.13   2
  -2  -3  -3 54207.9 2070.56   4
  -2  -2 -10 1128.65 229.663  14
  -2  -2  -9 6218.02 641.791   2
  -2  -2  -9 6354.33 643.943  14
  -2  -2  -8 121561. 3183.89   2
  -2  -2  -8 129776. 3226.45  14
  -2  -2  -7 5184.72 774.413   2
  -2  -2  -7 5127.42 726.955  14
  -2  -2  -6 8712.37 789.639   4
  -2  -2  -6 10316.8 1066.94   2
  -2  -2  -5 241981. 4220.55   4
  -2  -2  -5 220727. 4667.00   2
  -2  -2  -4 917.755 368.514   2
  -2  -2  -4 478.274 246.446   4
  -2  -1 -10 2561.44 401.717  14
  -2  -1 -10 2029.73 352.852   2
  -2  -1  -9 67157.9 2239.03  14
  -2  -1  -9 64506.7 2191.20   2
  -2  -1  -8 75147.8 2650.54   2
  -2  -1  -8 78868.2 2639.44  14
  -2  -1  -7 8558.53 970.903   2
  -2  -1  -7 9003.54 942.689  14
  -2  -1  -7 9622.55 931.594  12
  -2  -1  -6 196573. 4082.72  12
  -2  -1  -6 196588. 4109.15  14
  -2  -1  -5 40826.2 1810.33  12
  -2  -1  -5 40887.3 1614.70   4
  -2  -1   7 59717.3 1805.01  16
  -2  -1   8 6054.80 635.943  13
  -2  -1   8 5433.71 605.159  16
  -2  -1   9 217408. 3746.73  13
  -2   0 -11 22752.0 985.873  14
  -2   0 -10 24686.9 1295.43  14
  -2   0 -10 22684.8 1166.62   2
  -2   0  -9 52489.8 2058.48   2
  -2   0  -9 56785.8 2156.55  12
  -2   0  -9 55485.7 2133.97  14
  -2   0  -8 2856.98 543.070  12
  -2   0  -8 2601.19 584.715  14
  -2   0  -8 2285.70 509.094   2
  -2   0  -7 25168.5 1579.04  12
  -2   0  -7 24105.1 1528.34   2
  -2   0  -7 26118.0 1532.31  14
  -2   0  -6 140767. 3328.01  14
  -2   0  -6 133470. 3515.32  12
  -2   0  -5 52915.4 1907.23  14
  -2   0  -5 48101.1 1959.72   2
  -2   0   5 4046.30 461.431  16
  -2   0   6 69782.6 2031.87  16
  -2   0   7 132042. 3017.77  16
  -2   0   8 6434.79 731.399  16
  -2   0   8 5201.59 610.937  13
  -2   0   9 82161.3 2339.76  13
  -2   0   9 89130.2 2796.42  16
  -2   1 -11 26292.4 1183.52  14
  -2   1 -10 1610.28 437.662  12
  -2   1 -10 1865.23 416.924  14
  -2   1 -10 1261.93 349.572   2
  -2   1  -9 91823.1 2645.18   2
  -2   1  -9 96435.8 3085.94  12
  -2   1  -9 95029.5 2832.54  14
  -2   1  -8 14610.7 1287.50  12
  -2   1  -8 13320.5 1070.61   2
  -2   1  -8 12814.9 1092.95  14
  -2   1  -7 1469.15 471.755  12
  -2   1  -7 795.279 342.612  14
  -2   1  -6 141620. 3206.52  14
  -2   1  -6 134338. 3181.83   2
  -2   1   0 71225.0 871.787   1
  -2   1   3 55606.4 1592.72  16
  -2   1   4 213714. 3419.70  16
  -2   1   5 38894.5 1547.83  16
  -2   1   6 759.624 294.781  16
  -2   1   7 156810. 3110.32  13
  -2   1   7 151179. 3483.51  16
  -2   1   8 38879.7 1648.99  13
  -2   1   8 39911.4 1877.48  16
  -2   1   9 14628.2 1039.22  13
  -2   2 -12 10457.3 606.256  14
  -2   2 -11 68166.4 2015.30  14
  -2   2 -10 2456.50 557.357  12
  -2   2 -10 3065.19 554.038  14
  -2   2  -9 146334. 4005.90  12
  -2   2  -9 147128. 3543.20  14
  -2   2  -8 283730. 5638.25  12
  -2   2  -8 295383. 4965.24  14
  -2   2  -7 51166.3 2333.86  12
  -2   2  -7 58131.4 2123.26  14
  -2   2  -6 69082.8 2557.58  12
  -2   2  -6 78614.5 2321.49  14
  -2   2  -1 139843. 1573.84   1
  -2   2   2 2698.60 390.006  16
  -2   2   3 129804. 2700.73  16
  -2   2   4 478230. 5445.44  16
  -2   2   5 114332. 2846.11  16
  -2   2   6 261887. 4017.56  13
  -2   2   6 241128. 4437.26  16
  -2   2   7 137800. 3126.01  13
  -2   2   7 134822. 3502.26  16
  -2   2   8 4474.86 600.395  13
  -2   2   9 65754.8 2198.58  13
  -2   3 -12 8407.80 585.751  14
  -2   3 -11 103407. 2881.35  12
  -2   3 -11 97873.8 2474.92  14
  -2   3 -10 787.165 404.694  12
  -2   3 -10 1042.19 378.101  14
  -2   3  -9 32940.3 1934.99  12
  -2   3  -9 31240.0 1632.34  14
  -2   3  -8 235819. 5086.08  12
  -2   3  -8 240675. 4411.41  14
  -2   3  -7 2474.00 563.844  12
  -2   3  -7 2005.57 460.704  14
  -2   3  -6 22068.5 1418.28  12
  -2   3  -6 16331.3 1069.42  14
  -2   3  -2 173475. 2134.83   1
  -2   3  -1 163301. 2161.99   1
  -2   3   2 33597.2 1355.10  16
  -2   3   3 337452. 4587.88  16
  -2   3   4 62533.2 2118.95  16
  -2   3   5 6529.27 674.314  13
  -2   3   5 5790.50 703.367  16
  -2   3   6 275626. 4485.64  13
  -2   3   6 276896. 5013.44  16
  -2   3   7 13380.0 1044.83  13
  -2   3   7 13068.4 1146.57  16
  -2   3   8 837.000 364.197  13
  -2   3   9 83000.6 2377.71  13
  -2   4 -12 24308.9 1002.85  14
  -2   4 -11 23973.9 1404.46  12
  -2   4 -11 23064.0 1215.85  14
  -2   4 -10 467.312 357.120  12
  -2   4 -10 254.084 242.013  14
  -2   4  -9 9806.44 1023.63  12
  -2   4  -9 8673.50 890.695  14
  -2   4  -8 43507.0 2129.84  12
  -2   4  -8 45142.3 1925.23  14
  -2   4  -7 1375.32 403.695  12
  -2   4  -7 751.501 318.095  14
  -2   4  -6 374835. 5624.44  12
  -2   4  -6 380053. 5077.47  14
  -2   4  -5 132362. 2865.83  14
  -2   4  -2 338225. 3600.13   1
  -2   4  -1 41682.6 1308.07   1
  -2   4   2 1455.80 352.671  16
  -2   4   3 181927. 3607.27  16
  -2   4   4 20953.7 1223.34  13
  -2   4   4 19849.3 1278.80  16
  -2   4   5 28801.7 1499.42  13
  -2   4   5 31860.2 1699.82  16
  -2   4   6 129879. 3253.85  13
  -2   4   7 746.364 321.046  13
  -2   4   8 11842.4 945.307  13
  -2   4   9 61264.4 1824.95  13
  -2   5 -12 44572.6 1322.67  14
  -2   5 -11 16136.0 987.489  14
  -2   5 -10 9591.52 804.566   9
  -2   5 -10 9819.91 955.594  12
  -2   5 -10 11186.3 919.433  14
  -2   5  -9 117566. 3034.34  14
  -2   5  -9 114856. 3274.81  12
  -2   5  -8 26648.4 1584.96  12
  -2   5  -8 26818.6 1481.73  14
  -2   5  -7 1595.21 450.739  12
  -2   5  -7 833.518 318.927  14
  -2   5  -6 285032. 4494.07  14
  -2   5  -6 272686. 4616.48  12
  -2   5  -5 13130.2 935.522  14
  -2   5  -4 6111.88 630.347  14
  -2   5  -2 27897.1 1191.95   1
  -2   5  -1 51841.7 1652.42   1
  -2   5   2 5520.51 622.799   8
  -2   5   2 4717.74 599.421  13
  -2   5   2 5040.33 612.854  16
  -2   5   3 234224. 3907.08   8
  -2   5   3 243917. 4426.08  16
  -2   5   3 235120. 4239.04  13
  -2   5   4 85185.6 2634.76  13
  -2   5   4 88306.1 2781.86  16
  -2   5   5 4718.84 671.377  13
  -2   5   6 149779. 3486.40  13
  -2   5   7 111062. 2830.81  13
  -2   5   8 30675.7 1324.31  13
  -2   5   9 76976.7 1667.36  13
  -2   6 -12 48124.3 1295.56  14
  -2   6 -11 12659.8 749.464   9
  -2   6 -11 15464.2 927.450  14
  -2   6 -10 2070.13 438.387   9
  -2   6 -10 1877.59 419.453  14
  -2   6  -9 115814. 3042.72   9
  -2   6  -9 118990. 2977.12  14
  -2   6  -8 38108.1 1722.46  14
  -2   6  -7 27433.0 1458.39  14
  -2   6  -6 29842.1 1484.01  14
  -2   6  -5 108210. 2868.56   8
  -2   6  -5 109648. 2745.97  14
  -2   6  -4 647.066 256.811  11
  -2   6  -4 847.450 305.945   8
  -2   6  -4 297.709 222.362  14
  -2   6  -3 60184.1 2162.60   8
  -2   6  -3 61838.8 1998.74  14
  -2   6  -2 43268.1 1830.05   8
  -2   6  -2 44426.5 1673.76  14
  -2   6  -2 41365.7 1606.66   1
  -2   6  -1 5564.53 661.533   8
  -2   6  -1 4971.51 579.189   1
  -2   6   0 53210.2 1948.57  13
  -2   6   0 50740.3 1965.27   8
  -2   6   0 51953.9 1871.07   1
  -2   6   1 139502. 3270.13  13
  -2   6   1 142412. 3216.87   8
  -2   6   2 75028.6 2432.77  13
  -2   6   2 73319.0 2275.32   8
  -2   6   2 77465.5 2395.96  16
  -2   6   3 93314.4 2767.90  13
  -2   6   3 92043.1 2426.22   8
  -2   6   4 44353.3 1920.29  13
  -2   6   5 49444.2 1978.84  13
  -2   6   6 32703.0 1515.00  13
  -2   6   7 104330. 2414.84  13
  -2   6   8 6096.82 494.025  13
  -2   7 -11 6741.12 540.879   9
  -2   7 -11 7544.33 605.844  14
  -2   7 -10 25606.0 1259.05   9
  -2   7 -10 26841.0 1281.96  14
  -2   7  -9 22934.7 1328.11   9
  -2   7  -9 23500.8 1283.23  14
  -2   7  -8 48536.0 2030.39   9
  -2   7  -8 50562.7 1943.65  14
  -2   7  -7 30400.3 1620.14   9
  -2   7  -7 31866.6 1560.46  14
  -2   7  -6 64041.4 2091.88   8
  -2   7  -6 58278.8 2094.21  14
  -2   7  -6 57884.6 1938.28  11
  -2   7  -5 143914. 3296.77   8
  -2   7  -5 143754. 3255.40  14
  -2   7  -5 138260. 3063.43  11
  -2   7  -4 20042.6 1290.73   8
  -2   7  -4 17241.9 1135.55  14
  -2   7  -4 17598.0 1128.69  11
  -2   7  -3 75304.7 2472.63   8
  -2   7  -2 165169. 3485.74   1
  -2   7  -2 166265. 3646.38   8
  -2   7  -1 68613.6 2235.74  13
  -2   7  -1 68645.5 2316.84   8
  -2   7  -1 65429.0 2158.77   1
  -2   7   0 99245.3 2742.58  13
  -2   7   0 98431.1 2738.44   8
  -2   7   0 101547. 2763.49   1
  -2   7   1 156541. 3357.24   8
  -2   7   1 164208. 3596.15  13
  -2   7   2 3279.65 562.320  13
  -2   7   2 2940.66 486.474   8
  -2   7   3 30256.5 1551.91  13
  -2   7   4 55848.2 2043.72  13
  -2   7   5 11195.3 880.066  13
  -2   7   6 2443.54 379.288  13
  -2   7   7 4311.31 398.712  13
  -2   8 -11 73436.4 1571.99   9
  -2   8 -10 1772.45 353.264   9
  -2   8  -9 24509.7 1261.48   9
  -2   8  -9 23564.6 1202.36  14
  -2   8  -8 39097.6 1707.46   9
  -2   8  -8 39226.6 1627.26  14
  -2   8  -7 54855.3 2065.01   9
  -2   8  -7 52481.4 1775.36  11
  -2   8  -7 54647.2 1980.44  14
  -2   8  -6 48786.0 1926.34   9
  -2   8  -6 50668.5 1786.21   8
  -2   8  -6 47969.1 1758.09  11
  -2   8  -5 24379.9 1325.41   9
  -2   8  -5 26654.2 1390.75   8
  -2   8  -5 24570.9 1313.36  11
  -2   8  -4 53319.0 2009.01   8
  -2   8  -4 50212.4 1838.64   9
  -2   8  -4 54407.0 1980.09  11
  -2   8  -3 61640.2 2183.53   8
  -2   8  -3 65544.4 2213.05  11
  -2   8  -3 59436.9 1872.47   9
  -2   8  -2 7850.54 806.914   8
  -2   8  -1 41682.8 1770.47   8
  -2   8  -1 35060.1 1584.97  13
  -2   8   0 39670.5 1678.54   8
  -2   8   0 40170.8 1737.30  13
  -2   8   1 13501.3 1030.09  13
  -2   8   2 1815.28 413.562  13
  -2   8   3 78981.8 2263.68  13
  -2   8   4 22021.6 1118.33  13
  -2   8   5 1442.92 278.190  13
  -2   8   6 41671.2 1060.60  13
  -2   9 -10 6848.70 530.338   9
  -2   9  -9 48630.4 1531.14   9
  -2   9  -8 18502.1 896.958  11
  -2   9  -8 19329.6 1052.57   9
  -2   9  -7 30.6248 211.424   9
  -2   9  -7 182.567 144.542  11
  -2   9  -6 68033.8 2008.88   9
  -2   9  -6 67636.0 1970.76  11
  -2   9  -5 20971.6 1095.23   9
  -2   9  -5 22219.7 1172.90  11
  -2   9  -4 4671.70 504.289   9
  -2   9  -4 6102.23 660.168  11
  -2   9  -3 107346. 2680.70  11
  -2   9  -2 15601.5 1052.88  11
  -2   9  -1 1031.70 284.921  13
  -2   9   0 63788.5 1936.93  13
  -2   9   1 203.827 179.218  13
  -2   9   2 10045.2 726.409  13
  -2   9   3 45458.4 1373.42  13
  -2   9   4 69.5598 94.5162  13
  -2  10  -8 7270.65 529.419   9
  -2  10  -7 2200.21 308.155  11
  -2  10  -7 1921.95 302.513   9
  -2  10  -6 86839.3 1920.50  11
  -2  10  -6 83271.6 1764.90   9
  -2  10  -5 25796.8 1099.22  11
  -2  10  -4 220.223 202.371  11
  -2  10  -3 140951. 2622.08  11
  -2  10  -2 31065.7 1227.30  11
  -2  10  -1 4375.57 470.967  11
  -2  10   0 74702.2 1734.85  11
  -2  10   0 69079.8 1588.72  13
  -2  10   1 11329.5 607.140  13
  -2  10   1 11001.3 609.899  11
  -2  10   2 1549.12 211.546  11
  -2  11  -5 6038.48 395.715  11
  -2  11  -4 4394.63 351.695  11
  -2  11  -3 20146.8 732.211  11
  -2  11  -2 551.852 143.275  11
  -1 -10  -1 7850.79 449.058   4
  -1 -10   0 16313.9 751.884   4
  -1 -10   1 106699. 2068.18   4
  -1 -10   2 1314.44 269.118   4
  -1  -9  -3 29015.9 933.462   4
  -1  -9  -2 49503.0 1494.23   4
  -1  -9  -1 7266.13 670.617   4
  -1  -9   0 17010.8 1051.37   4
  -1  -9   1 64733.1 2060.21   4
  -1  -9   2 56361.2 1940.66   4
  -1  -9   3 75568.8 2220.54   4
  -1  -8  -4 17663.2 877.780   4
  -1  -8  -3 64962.7 1989.51   4
  -1  -8  -2 58456.8 2057.34   4
  -1  -8  -1 10481.8 933.756   4
  -1  -8   0 123543. 3148.48   4
  -1  -8   1 1361.94 396.414   4
  -1  -8   2 2873.58 513.407   4
  -1  -8   3 188287. 3676.20   4
  -1  -7  -6 34908.1 966.127   4
  -1  -7  -5 12769.9 811.261   4
  -1  -7  -4 6804.32 710.121   4
  -1  -7  -3 126764. 3195.60   4
  -1  -7  -2 67650.7 2398.00   4
  -1  -7  -1 773.760 363.140   4
  -1  -7   0 282657. 4894.16   4
  -1  -7   1 84842.7 2609.40   4
  -1  -7   2 20613.4 1257.98   4
  -1  -7   3 131973. 2977.12   4
  -1  -6  -7 442.979 147.852   2
  -1  -6  -6 79552.0 1931.72   2
  -1  -6  -6 82552.8 2076.27   4
  -1  -6  -5 74862.3 2113.24   2
  -1  -6  -5 76873.0 2384.38   4
  -1  -6  -4 16420.9 1057.54   2
  -1  -6  -4 14885.7 1127.63   4
  -1  -6  -3 33772.8 1710.10   4
  -1  -6  -2 115961. 3173.56   4
  -1  -6  -1 1211.64 398.649   4
  -1  -6   0 144107. 3356.94   4
  -1  -5  -8 77391.2 1804.64   2
  -1  -5  -8 76505.1 1908.75  14
  -1  -5  -7 4304.94 547.560   2
  -1  -5  -6 30874.7 1479.68   4
  -1  -5  -6 28815.3 1508.19   2
  -1  -5  -5 241748. 4447.82   2
  -1  -5  -5 236953. 4409.04   4
  -1  -5  -4 173.400 268.200   2
  -1  -5  -4 756.809 327.467   3
  -1  -5  -4 949.675 340.868   4
  -1  -5  -3 29293.5 1506.89   3
  -1  -5  -3 33586.2 1600.36   2
  -1  -5  -3 30344.1 1592.01   4
  -1  -5  -2 327158. 5057.70   4
  -1  -4  -9 3290.95 443.353   2
  -1  -4  -9 2951.31 388.589  14
  -1  -4  -8 69098.1 2252.49   2
  -1  -4  -7 75.7730 266.606   2
  -1  -4  -6 28650.4 1576.80   3
  -1  -4  -6 29997.5 1538.90   4
  -1  -4  -5 209047. 4205.51   3
  -1  -4  -5 212695. 4061.09   4
  -1  -4  -4 3540.92 563.360   3
  -1  -4  -4 3148.51 529.175   4
  -1  -4  -3 318092. 4723.96   3
  -1  -4  -3 314796. 4704.29   4
  -1  -3 -10 1875.54 343.972   2
  -1  -3 -10 2029.73 315.484  14
  -1  -3  -9 73958.7 2374.11   2
  -1  -3  -9 69082.2 2136.80  14
  -1  -3  -8 69009.1 2527.23   2
  -1  -3  -7 12086.6 1043.62   3
  -1  -3  -6 180275. 3931.48   3
  -1  -3  -6 198969. 3783.04   4
  -1  -3  -5 6086.48 721.735   3
  -1  -3  -5 6784.85 692.311   4
  -1  -2 -11 21181.9 955.198   2
  -1  -2 -11 16379.7 731.289  14
  -1  -2 -10 8501.08 811.519   2
  -1  -2 -10 7177.94 675.600  14
  -1  -2  -9 148698. 3704.33   2
  -1  -2  -9 143659. 3366.22  14
  -1  -2  -8 11462.0 988.325   3
  -1  -2  -7 20902.7 1342.26   3
  -1  -2  -6 187235. 3828.73   3
  -1  -2   5 119661. 1576.02  16
  -1  -2   6 151938. 1964.60  16
  -1  -2   7 154117. 2272.95  16
  -1  -1 -12 27319.8 895.672   2
  -1  -1 -11 18817.9 1080.26   2
  -1  -1 -11 17213.8 932.891  14
  -1  -1 -10 509.096 316.062   2
  -1  -1 -10 331.042 211.920  14
  -1  -1  -9 61959.9 2118.22   3
  -1  -1  -9 66307.1 2264.00  12
  -1  -1  -9 64620.3 2324.34  14
  -1  -1  -8 797.728 268.438   3
  -1  -1  -8 840.584 361.356  14
  -1  -1  -7 15155.1 1077.98   3
  -1  -1  -7 17069.3 1168.10  12
  -1  -1   3 134558. 1546.55  16
  -1  -1   4 413019. 3023.38  16
  -1  -1   5 34058.3 995.179  16
  -1  -1   6 25478.2 9712.36  16
  -1  -1   7 156534. 2698.71  16
  -1  -1   8 72474.0 2021.72  16
  -1   0 -12 11042.6 671.999   2
  -1   0 -11 92208.1 2449.35  12
  -1   0 -11 90962.8 2342.33  14
  -1   0 -10 6026.54 738.555  12
  -1   0 -10 6369.23 721.644  14
  -1   0  -9 123850. 3378.32  12
  -1   0  -9 119711. 3146.42  14
  -1   0  -8 309810. 5260.34  12
  -1   0  -8 312357. 4953.32  14
  -1   0  -7 139093. 3369.31  12
  -1   0  -7 138611. 3099.98  14
  -1   0   2 122470. 1484.94  16
  -1   0   3 304036. 2669.23  16
  -1   0   4 666550. 4468.29  16
  -1   0   5 364699. 3794.06  16
  -1   0   6 477840. 4864.31  16
  -1   0   7 169790. 3165.09  16
  -1   0   8 12617.5 935.873  16
  -1   0   9 186698. 3799.36  16
  -1   1 -12 18845.6 911.229   2
  -1   1 -12 20474.8 1113.68  12
  -1   1 -12 17656.1 898.249  14
  -1   1 -11 130025. 3289.01  12
  -1   1 -11 124502. 2893.45  14
  -1   1 -10 16000.2 1273.74  12
  -1   1 -10 15527.4 1114.63  14
  -1   1  -9 167367. 4064.79  12
  -1   1  -9 159220. 3565.75  14
  -1   1  -8 443585. 6441.24  12
  -1   1  -8 447859. 5663.21  14
  -1   1  -1 189293. 1257.97   1
  -1   1   1 52415.2 992.940  16
  -1   1   2 28697.9 840.636  16
  -1   1   3 508678. 4029.96  16
  -1   1   4 11121.2 689.342  16
  -1   1   5 57137.5 1710.03  16
  -1   1   6 664697. 6355.09  16
  -1   1   7 2788.70 466.352  16
  -1   1   8 4744.69 651.458  16
  -1   1   9 184842. 4040.95  16
  -1   2 -13 1962.50 339.780  12
  -1   2 -12 40793.1 1757.93  12
  -1   2 -12 36395.2 1363.65  14
  -1   2 -11 8991.85 955.378  12
  -1   2 -11 6783.02 713.561  14
  -1   2 -10 2241.36 548.931  12
  -1   2 -10 1616.60 440.005  14
  -1   2  -9 21141.6 1490.77  12
  -1   2  -9 18143.3 1190.72  14
  -1   2  -8 16978.2 1272.12  12
  -1   2  -8 14950.1 1033.59  14
  -1   2  -5 102073. 2086.30  17
  -1   2  -4 10071.8 610.729  17
  -1   2  -3 925827. 5202.45  17
  -1   2  -2 492457. 2810.31   1
  -1   2  -2 487669. 3374.06  17
  -1   2  -1 204.903 100.919   1
  -1   2  -1 248.996 108.598  17
  -1   2   1 341069. 2898.35  16
  -1   2   2 3967.48 372.842  16
  -1   2   3 456804. 4339.42  16
  -1   2   4 29185.4 1236.46  16
  -1   2   5 48327.2 1732.24  16
  -1   2   6 236254. 4108.06  16
  -1   2   7 5675.71 727.155  16
  -1   2   8 8921.47 908.877  16
  -1   3 -13 11843.3 851.350  12
  -1   3 -12 113060. 3038.53  12
  -1   3 -12 98529.9 2315.45  14
  -1   3 -11 26026.9 1639.23  12
  -1   3 -11 21867.4 1253.68  14
  -1   3 -10 40893.4 2110.63  12
  -1   3 -10 38413.4 1714.04  14
  -1   3  -9 163770. 4064.90  12
  -1   3  -9 153458. 3377.02  14
  -1   3  -8 18161.9 1301.40  12
  -1   3  -8 23520.2 1270.04  14
  -1   3  -6 646177. 5952.44  17
  -1   3  -5 6224.60 554.324  17
  -1   3  -4 25616.1 1016.26  17
  -1   3  -3 471645. 3934.20  17
  -1   3  -2 5806.15 383.573   1
  -1   3  -2 4012.21 345.252  17
  -1   3  -1 30224.7 792.535  17
  -1   3   0 201389. 1685.26  17
  -1   3   0 208962. 2296.14  16
  -1   3   1 30400.1 991.763  16
  -1   3   2 100522. 2030.90  16
  -1   3   3 479937. 4904.33  16
  -1   3   4 118878. 2677.77  16
  -1   3   5 44691.0 1782.61  16
  -1   3   6 255205. 4244.76  13
  -1   3   6 261405. 4598.84  16
  -1   3   7 153491. 3397.87  13
  -1   3   7 158127. 3732.34  16
  -1   4 -13 112.067 203.444  12
  -1   4 -12 123342. 3186.76  12
  -1   4 -12 119401. 2506.90  14
  -1   4 -11 31693.3 1757.54  12
  -1   4 -11 29303.3 1441.00  14
  -1   4 -10 19633.4 1443.40  12
  -1   4 -10 17781.4 1175.04  14
  -1   4  -9 272310. 4093.13  11
  -1   4  -9 265027. 4425.53  14
  -1   4  -8 78500.3 2594.36  12
  -1   4  -8 77433.1 2073.81  11
  -1   4  -8 75733.4 2259.91  14
  -1   4  -7 8356.81 780.054  17
  -1   4  -6 113530. 2598.84  17
  -1   4  -5 274788. 3795.02  17
  -1   4  -4 26097.8 1090.26  17
  -1   4  -3 130267. 2108.89   1
  -1   4  -3 113847. 2079.86  17
  -1   4  -2 140628. 2191.03   1
  -1   4  -2 132255. 2032.89  17
  -1   4  -1 5158.75 361.991  17
  -1   4  -1 4063.20 333.418  16
  -1   4   0 2748.19 313.761  16
  -1   4   1 265808. 3244.53  16
  -1   4   2 228464. 3311.46  16
  -1   4   3 125384. 2717.83  16
  -1   4   4 74359.8 2273.45  16
  -1   4   5 169608. 3548.87  13
  -1   4   5 169431. 3673.64  16
  -1   4   6 66768.6 2287.78  13
  -1   4   6 68176.7 2428.12  16
  -1   4   7 163939. 3484.25  13
  -1   5 -13 19507.1 1053.27  12
  -1   5 -12 20944.5 1286.63  12
  -1   5 -12 20236.8 1020.86  14
  -1   5 -11 2515.24 446.098  11
  -1   5 -11 2512.82 469.760  14
  -1   5 -10 93948.9 2610.70   9
  -1   5 -10 98378.7 3001.77  12
  -1   5 -10 97510.0 2523.40  11
  -1   5 -10 99350.5 2674.97  14
  -1   5  -9 24103.1 1398.81   9
  -1   5  -9 21436.0 1409.74  12
  -1   5  -9 23458.1 1331.87  14
  -1   5  -9 24977.9 1279.87  11
  -1   5  -8 57503.2 2149.80  12
  -1   5  -8 65631.7 2351.63  17
  -1   5  -8 60774.4 1952.88  11
  -1   5  -8 60714.3 2343.57   5
  -1   5  -8 59490.8 2037.08  14
  -1   5  -7 95255.4 2544.89  12
  -1   5  -7 102583. 2432.01  11
  -1   5  -7 100382. 2754.64  17
  -1   5  -7 102853. 2545.44  14
  -1   5  -7 100898. 2862.77   5
  -1   5  -6 45151.9 1739.19  17
  -1   5  -5 191150. 3361.54  17
  -1   5  -4 144730. 2715.39  17
  -1   5  -3 223140. 3180.72   1
  -1   5  -3 218946. 3056.30  17
  -1   5  -2 422112. 3807.63  17
  -1   5  -2 403470. 4258.28   1
  -1   5  -1 353238. 4035.21   1
  -1   5  -1 375418. 3386.51  16
  -1   5   0 420756. 4041.87  16
  -1   5   1 450198. 4662.98  16
  -1   5   2 45016.0 1621.27  16
  -1   5   3 140428. 3196.52  13
  -1   5   3 132574. 2989.03  16
  -1   5   4 112791. 2988.60  13
  -1   5   4 113052. 2937.15  16
  -1   5   5 49401.2 1996.63  13
  -1   5   5 50112.0 2064.36  16
  -1   5   6 17469.9 1177.11  13
  -1   5   7 17231.1 1109.57  13
  -1   6 -13 14828.2 819.614  12
  -1   6 -12 25678.2 1269.15  12
  -1   6 -11 139743. 3213.22  12
  -1   6 -11 144467. 2912.77  11
  -1   6 -11 137384. 2878.29   9
  -1   6 -11 142048. 2964.11  14
  -1   6 -10 11167.0 938.296   9
  -1   6 -10 10202.0 910.937  12
  -1   6 -10 10811.7 860.911  11
  -1   6 -10 10175.1 865.239  14
  -1   6  -9 43677.1 1925.83   9
  -1   6  -9 40827.1 1774.46  12
  -1   6  -9 41485.7 1738.49  14
  -1   6  -9 43107.6 1718.77  11
  -1   6  -8 90566.8 2758.12   9
  -1   6  -8 88564.8 2469.35  11
  -1   6  -8 89924.3 2833.67  17
  -1   6  -8 85268.7 2453.86  14
  -1   6  -8 88606.9 2837.53   5
  -1   6  -7 115455. 3045.70   9
  -1   6  -7 112817. 2719.31  11
  -1   6  -7 115231. 3049.90  17
  -1   6  -7 108721. 2708.81  14
  -1   6  -7 111184. 3023.70   5
  -1   6  -6 100351. 2496.00  11
  -1   6  -6 94692.7 2453.27  14
  -1   6  -6 90028.9 2554.60   5
  -1   6  -6 93638.2 2600.33  17
  -1   6  -5 53311.5 1796.29  14
  -1   6  -5 55700.0 1890.20  17
  -1   6  -4 106903. 2418.12  17
  -1   6  -3 84605.0 2202.29   1
  -1   6  -3 92655.3 2070.87  17
  -1   6  -2 5949.28 585.670   1
  -1   6  -1 164315. 3072.60   1
  -1   6   1 4401.64 596.589  13
  -1   6   1 5206.69 605.845   8
  -1   6   2 11228.4 953.905  13
  -1   6   2 11130.1 856.056   8
  -1   6   2 11491.5 879.435  16
  -1   6   3 183566. 3869.51  13
  -1   6   3 184724. 3673.75  16
  -1   6   4 12742.9 1044.88  13
  -1   6   5 13203.0 1045.26  13
  -1   6   6 125973. 2982.39  13
  -1   6   7 622.690 240.639  13
  -1   7 -12 101696. 2036.34  11
  -1   7 -11 73505.6 2074.88   9
  -1   7 -11 71668.3 2014.74  11
  -1   7 -11 72860.5 2003.12  14
  -1   7 -10 23930.4 1359.06   9
  -1   7 -10 22828.1 1228.77  11
  -1   7 -10 23906.4 1260.82  14
  -1   7  -9 134694. 3095.89  14
  -1   7  -9 141696. 3170.60  11
  -1   7  -8 18148.2 1275.17   9
  -1   7  -8 17229.8 1127.39  11
  -1   7  -8 16869.1 1125.41  14
  -1   7  -8 18145.2 1264.82   5
  -1   7  -7 11652.9 1018.39   9
  -1   7  -7 10342.7 885.378  11
  -1   7  -7 9962.83 873.248  14
  -1   7  -7 10436.2 951.897  17
  -1   7  -7 12488.9 1007.29   5
  -1   7  -6 276017. 4651.08   9
  -1   7  -6 277003. 4523.65  17
  -1   7  -6 264246. 4319.94  14
  -1   7  -6 270920. 4418.26  11
  -1   7  -5 27193.6 1410.86   9
  -1   7  -5 28748.2 1402.31   8
  -1   7  -5 26842.0 1372.89  14
  -1   7  -5 27735.7 1357.13  17
  -1   7  -5 27742.5 1419.18  11
  -1   7  -4 23677.6 1273.10   9
  -1   7  -4 25939.2 1366.61   8
  -1   7  -4 23338.7 1308.34  11
  -1   7  -3 277612. 4099.47   9
  -1   7  -3 278653. 4441.02   8
  -1   7  -3 272855. 4328.71   1
  -1   7  -2 9692.49 864.198  13
  -1   7  -2 10199.7 857.955   8
  -1   7  -2 9206.15 812.988   1
  -1   7  -1 3046.30 524.779  13
  -1   7  -1 3301.57 511.113   8
  -1   7  -1 2903.05 470.952   1
  -1   7   0 155235. 3293.15   8
  -1   7   0 151857. 3291.66   1
  -1   7   0 150773. 3486.37  13
  -1   7   1 4633.98 672.310  13
  -1   7   1 4345.46 589.992   1
  -1   7   2 12017.2 1035.77  13
  -1   7   3 112080. 3068.08  13
  -1   7   4 189.574 305.528  13
  -1   7   5 4251.86 565.612  13
  -1   7   6 74267.1 1922.26  13
  -1   7   7 2609.88 297.914  13
  -1   8 -12 38027.2 1134.45  11
  -1   8 -11 4366.45 484.367  11
  -1   8 -11 4705.79 535.037   9
  -1   8 -10 16654.6 1083.09   9
  -1   8 -10 15338.3 977.427  11
  -1   8  -9 190899. 3854.61   9
  -1   8  -9 180519. 3554.35  11
  -1   8  -8 81.2312 261.316   9
  -1   8  -8 645.085 280.973  11
  -1   8  -7 16531.5 1183.24   9
  -1   8  -7 15257.5 1091.84  11
  -1   8  -6 193212. 3863.43   9
  -1   8  -6 187654. 3818.21  11
  -1   8  -5 11459.1 924.539   9
  -1   8  -5 12146.5 986.693  11
  -1   8  -4 10711.8 871.971   9
  -1   8  -4 11691.8 973.711  11
  -1   8  -3 438292. 5101.11   9
  -1   8  -3 437878. 5625.81  13
  -1   8  -2 61102.0 2152.19  13
  -1   8  -1 30365.3 1565.09  13
  -1   8   0 215618. 4221.27  13
  -1   8   1 18046.2 1243.64  13
  -1   8   2 29159.9 1521.58  13
  -1   8   3 104845. 2711.82  13
  -1   8   4 4576.09 541.499  13
  -1   8   5 28087.2 1121.10  13
  -1   9 -11 22146.8 931.314  11
  -1   9 -10 408.869 238.757   9
  -1   9 -10 497.764 216.037  11
  -1   9  -9 149922. 3024.07  11
  -1   9  -9 159534. 3181.93   9
  -1   9  -8 45629.6 1775.79   9
  -1   9  -8 43495.5 1716.42  11
  -1   9  -7 11035.3 902.145   9
  -1   9  -7 10354.4 892.219  11
  -1   9  -6 57319.9 1957.34   9
  -1   9  -6 61065.3 2123.06  11
  -1   9  -5 19964.5 1124.75   9
  -1   9  -5 22422.7 1315.25  11
  -1   9  -4 23081.3 1348.28  11
  -1   9  -4 19995.1 1069.87   9
  -1   9  -3 51155.2 1994.54  11
  -1   9  -3 46642.9 1800.11  13
  -1   9  -2 575.740 284.295  13
  -1   9  -1 122178. 3000.94  13
  -1   9   0 46674.3 1830.39  13
  -1   9   1 12758.4 938.457  13
  -1   9   2 63319.2 1930.91  13
  -1   9   3 36080.3 1319.36  13
  -1  10 -10 2516.48 302.805  11
  -1  10  -9 17865.6 905.080  11
  -1  10  -8 59460.2 1769.64  11
  -1  10  -7 45146.1 1617.25  11
  -1  10  -6 54541.9 1829.58  11
  -1  10  -5 26144.9 1290.93  11
  -1  10  -4 31683.7 1417.20  11
  -1  10  -3 18776.0 1084.70  11
  -1  10  -2 51283.3 1732.25  11
  -1  10  -1 54580.2 1694.17  11
  -1  10   0 48730.3 1502.84  11
  -1  10   1 11698.5 665.961  11
  -1  10   2 16556.4 665.899  11
  -1  11  -9 2010.51 239.109  11
  -1  11  -8 3752.60 366.733  11
  -1  11  -7 44977.1 1291.76  11
  -1  11  -6 41723.2 1283.80  11
  -1  11  -5 9769.38 638.301  11
  -1  11  -4 30101.2 1092.78  11
  -1  11  -3 63415.0 1532.10  11
  -1  11  -2 49654.3 1277.11  11
  -1  11  -1 2133.19 250.987  11
   0 -10  -2 26680.4 877.645   4
   0 -10  -1 5222.34 461.489   4
   0 -10   0 43071.9 1382.14   4
   0 -10   1 536.662 210.303   4
   0 -10   2 3988.85 465.170   4
   0 -10   3 65477.6 1762.06   4
   0  -9  -4-10.6953 101.594   4
   0  -9  -3 74688.9 1805.39   4
   0  -9  -2 38509.5 1446.90   4
   0  -9  -1 6846.65 674.026   4
   0  -9   0 178723. 3478.14   4
   0  -8  -5 27418.9 1057.38   4
   0  -8  -4 23175.3 1134.37   4
   0  -8  -3 23955.5 1275.88   4
   0  -7  -6 44489.0 1418.94   4
   0  -7  -5 144116. 2951.60   4
   0  -7  -4 5572.17 684.380   4
   0  -6  -8 13362.2 607.460   2
   0  -6  -8 9983.80 574.818  14
   0  -6  -7 3625.63 429.212   2
   0  -6  -6 28504.7 1387.08   3
   0  -6  -6 30284.3 1369.33   4
   0  -6  -6 31664.8 1352.19   2
   0  -6  -5 99299.3 2681.92   3
   0  -6  -5 99203.2 2733.94   4
   0  -6  -4 9130.56 836.691   3
   0  -6  -3 242825. 4151.76   3
   0  -6  -2 170165. 3309.43   3
   0  -5  -9 48351.1 1397.48   2
   0  -5  -9 33904.2 1031.66  14
   0  -5  -8 40355.2 1552.33   3
   0  -5  -8 38701.6 1524.81   2
   0  -5  -7 12946.3 999.485   3
   0  -5  -6 136826. 3292.54   3
   0  -5  -6 133550. 3077.46   4
   0  -5  -5 2970.77 526.244   3
   0  -5  -4 468.223 266.994   3
   0  -5  -3 176482. 3370.79   3
   0  -4 -10 468.822 194.924   2
   0  -4  -9 182647. 3364.67   3
   0  -4  -9 171648. 3024.02  14
   0  -4  -8 19452.0 1248.90   3
   0  -4  -7 3882.52 621.377   3
   0  -4  -6 223216. 4237.07   3
   0  -4  -6 232463. 4015.87   4
   0  -4  -5 44833.6 1816.81   3
   0  -3 -11 12694.8 773.532   2
   0  -3 -10 1847.43 355.900   3
   0  -3  -9 24377.1 1368.54   3
   0  -3  -8 9438.62 926.008   3
   0  -3  -7 33154.0 1659.03   3
   0  -3  -6 95915.2 2662.41   3
   0  -2 -12 15591.9 791.271   2
   0  -2 -11 86374.4 2078.24   3
   0  -2 -10 10960.1 903.859   3
   0  -2  -9 78398.2 2548.81   3
   0  -2  -9 79070.5 2400.62  14
   0  -2  -8 207603. 4152.15   3
   0  -2  -7 169791. 3588.32   3
   0  -2   3 305224. 1232.58  15
   0  -2   4 308217. 2004.83  15
   0  -2   5 515160. 3289.29  15
   0  -2   5 510404. 2272.07  18
   0  -2   6 396385. 3384.39  15
   0  -2   7 37761.9 1185.57  15
   0  -1 -11 92638.0 2340.71   3
   0  -1 -10 60464.6 2131.43   3
   0  -1 -10 58664.1 2091.10  12
   0  -1  -9 279637. 4717.68  12
   0  -1  -9 270432. 4668.25   3
   0  -1  -9 271239. 4398.02  14
   0  -1  -8 387703. 5429.70  12
   0  -1  -8 377022. 5337.83   3
   0  -1   2 1008.96 104.339  15
   0  -1   3 552783. 3124.06  15
   0  -1   4 2260.82 267.185  15
   0  -1   4 2887.75 112.653  18
   0  -1   5 37427.4 1132.27  15
   0  -1   6 853957. 5907.69  15
   0  -1   7 937.634 260.686  15
   0  -1   8 15689.3 975.837  15
   0   0 -13 1167.90 258.273   2
   0   0 -12 48274.9 1661.13  12
   0   0 -11 1107.53 372.597  12
   0   0 -11 448.334 262.874   3
   0   0 -10 3782.41 630.419  12
   0   0 -10 3342.99 551.561   3
   0   0  -9 31686.2 1683.60  12
   0   0  -9 30933.7 1521.89   3
   0   0  -9 30242.9 1427.22  14
   0   0  -8 4793.71 638.284  12
   0   0  -8 4187.81 579.193   3
   0   0  -4 47106.7 891.610  17
   0   0  -3 978157. 3511.40  17
   0   0  -2 195183. 1287.62  17
   0   0  -1 238407. 987.977  17
   0   0   1 231806. 1466.38  15
   0   0   2 186945. 1842.78  15
   0   0   2 198064. 785.621  18
   0   0   3 984726. 5177.89  15
   0   0   4 45053.8 1272.44  15
   0   0   5 1463.45 303.425  15
   0   0   6 533865. 5277.07  15
   0   0   7 1222.72 351.934  15
   0   0   8 5170.41 638.563  15
   0   1 -13 5042.26 532.364  12
   0   1 -13 4499.91 443.870   2
   0   1 -12 156834. 3438.05  12
   0   1 -11 15097.5 1205.89  12
   0   1 -10 40507.3 2004.13  12
   0   1  -9 220607. 4472.64  12
   0   1  -8 17345.5 1194.59  12
   0   1  -7 376.283 151.340  17
   0   1  -6 865165. 5124.57  17
   0   1  -5 36644.5 987.235  17
   0   1  -4 2188.00 231.614  17
   0   1  -3 564349. 3028.22  17
   0   1  -2 1901.89 165.289  17
   0   1  -1 567.811 80.4219  17
   0   1   0 306227. 1641.36  15
   0   1   1 37729.3 822.134  15
   0   1   2 255109. 2586.67  15
   0   1   3 459282. 3999.56  15
   0   1   4 23535.2 1028.69  15
   0   1   5 191461. 3169.36  15
   0   1   6 191321. 3415.08  15
   0   1   7 102444. 2706.79  15
   0   1   8 380370. 5574.30  15
   0   2 -14 3599.03 385.931  12
   0   2 -13 1820.37 405.061  12
   0   2 -12 148212. 3595.92  12
   0   2 -11 35080.6 1876.30  12
   0   2 -10 56002.4 2349.42  12
   0   2 -10 48176.4 1872.64  11
   0   2  -9 341800. 4680.95  11
   0   2  -9 348322. 4973.04   5
   0   2  -8 51541.3 1604.30  17
   0   2  -7 35347.1 1246.09  17
   0   2  -6 380268. 3820.91  17
   0   2  -5 507248. 3995.21  17
   0   2  -4 295296. 2774.03  17
   0   2  -3 305011. 2488.45  17
   0   2  -2 271594. 2112.62  17
   0   2  -1 44849.5 765.002  17
   0   2  -1 46631.0 561.439  15
   0   2   0 45320.3 661.437  17
   0   2   0 42329.1 837.437  15
   0   2   1 537970. 3657.55  15
   0   2   2 509729. 4148.65  15
   0   2   3 127483. 2327.80  15
   0   2   4 181258. 3064.24  15
   0   2   5 179755. 3275.35  15
   0   2   6 70722.7 2226.13  15
   0   2   7 173127. 3748.19  15
   0   3 -14 29357.7 1191.55  12
   0   3 -13 39209.9 1700.36  12
   0   3 -12 22321.8 1464.82  12
   0   3 -11 4271.16 712.607  12
   0   3 -11 2835.31 513.349  11
   0   3 -10 179484. 4175.93  12
   0   3 -10 159811. 3381.20  11
   0   3  -9 9876.38 957.649  12
   0   3  -9 11092.3 869.601  11
   0   3  -9 12574.5 911.801  17
   0   3  -9 12373.1 993.148   5
   0   3  -8 69264.9 2008.20  17
   0   3  -7 159736. 2872.10  17
   0   3  -6 1450.70 280.234  17
   0   3  -5 88261.4 1826.84  17
   0   3  -4 461041. 3723.93  17
   0   3  -3 245903. 2539.99  17
   0   3  -2 612301. 3654.32  17
   0   3  -2 601267. 1357.22  16
   0   3  -1 911079. 4064.82  17
   0   3  -1 903900. 3511.24  15
   0   3   0 799472. 3407.60  17
   0   3   0 783589. 4281.79  15
   0   3   1 523398. 2513.97  17
   0   3   1 516295. 4085.97  15
   0   3   2 303503. 1778.65  17
   0   3   2 310074. 3549.92  15
   0   3   3 497654. 4943.86  15
   0   3   4 151778. 2976.20  15
   0   3   5 186721. 3564.94  15
   0   3   6 91029.1 2700.24  15
   0   4 -14 63777.7 1797.71  12
   0   4 -13 62701.7 2157.55  12
   0   4 -12 32960.8 1748.16  12
   0   4 -12 30855.2 1479.97  11
   0   4 -11 136961. 3629.74  12
   0   4 -11 132064. 3149.42  11
   0   4 -10 60467.8 2390.64  12
   0   4 -10 58964.5 2068.55  11
   0   4 -10 60978.2 2165.18  17
   0   4 -10 64881.2 2415.39   5
   0   4  -9 100555. 2899.27  12
   0   4  -9 101111. 2565.37  11
   0   4  -9 106892. 2777.70  17
   0   4  -9 109742. 3021.79   5
   0   4  -8 156151. 2999.26  11
   0   4  -8 159841. 3290.32  17
   0   4  -8 163608. 3512.19   5
   0   4  -7 140127. 2818.64  17
   0   4  -6 147530. 2739.98  17
   0   4  -5 123709. 2348.02  17
   0   4  -4 92145.4 1828.17  17
   0   4  -3 148188. 2147.75   1
   0   4  -3 139516. 2106.86  17
   0   4  -2 58414.4 1325.07   1
   0   4  -2 57914.0 1256.68  17
   0   4  -2 61240.3 759.211  16
   0   4  -1 339717. 2843.13  17
   0   4  -1 345423. 2653.35  15
   0   4   0 199141. 1999.60  17
   0   4   0 195599. 2382.33  15
   0   4   1 753.812 198.836  15
   0   4   2 11257.2 736.373  15
   0   4   3 229246. 3573.11  15
   0   4   4 5482.97 627.777  15
   0   4   5 43250.1 1794.55  13
   0   4   5 42112.7 1810.31  15
   0   5 -14 10622.1 713.772  12
   0   5 -13 13343.3 963.656  12
   0   5 -12 165154. 3692.28  12
   0   5 -12 163956. 3371.27  11
   0   5 -11 68446.0 2447.72  12
   0   5 -11 66059.1 2235.80  11
   0   5 -11 70932.9 2573.54   5
   0   5 -10 47091.3 2022.51  12
   0   5 -10 47363.5 1882.31  11
   0   5 -10 49440.7 2176.49   5
   0   5  -9 251854. 4313.76   9
   0   5  -9 243970. 4359.53  12
   0   5  -9 255102. 4208.85  11
   0   5  -9 270808. 4699.18  17
   0   5  -9 262291. 4863.67   5
   0   5  -8 1512.12 369.683   9
   0   5  -8 563.947 330.458  12
   0   5  -8 1054.92 341.987  17
   0   5  -8 1295.78 313.554  11
   0   5  -7 86690.9 2378.41  17
   0   5  -6 723656. 6480.48  17
   0   5  -5 8271.77 662.183  17
   0   5  -4 107127. 2116.09  17
   0   5  -3 544007. 4814.43   1
   0   5  -3 552896. 4514.78  17
   0   5  -2 8904.32 614.050   1
   0   5  -2 9911.41 574.222  17
   0   5  -1 226.045 107.229  16
   0   5  -1-39.7207 118.492   1
   0   5  -1 351.393 118.867  17
   0   5   1 12369.4 761.508  15
   0   5   2 6776.79 619.675  15
   0   5   3 185802. 3718.11  13
   0   5   3 175882. 3370.98  15
   0   5   4 590.205 280.806  13
   0   5   5 2676.23 513.150  13
   0   6 -14 206.619 129.435  12
   0   6 -13 981.712 268.584  12
   0   6 -13 1380.85 313.377  11
   0   6 -12 106858. 2690.83  12
   0   6 -12 109108. 2718.94  11
   0   6 -11 8314.01 807.289  12
   0   6 -11 8352.52 822.183  11
   0   6 -11 9104.17 961.223   5
   0   6 -11 8060.27 748.778   9
   0   6 -10 12094.1 973.176  12
   0   6 -10 12980.3 1003.76   9
   0   6 -10 14264.9 1053.96  11
   0   6 -10 15078.8 1236.17   5
   0   6  -9 245636. 4434.46   9
   0   6  -9 242719. 4262.61  11
   0   6  -9 252208. 4724.67  17
   0   6  -9 237072. 4694.78   5
   0   6  -8 35723.7 1697.61   9
   0   6  -8 37006.2 1790.35   5
   0   6  -8 36846.6 1620.28  11
   0   6  -8 36351.7 1756.75  17
   0   6  -7 43372.8 1822.42   9
   0   6  -7 42409.1 1680.07  11
   0   6  -7 39753.7 1698.26  17
   0   6  -6 265135. 4330.37   9
   0   6  -6 273566. 4110.06  11
   0   6  -6 266340. 4154.77  17
   0   6  -5 3760.38 481.910  17
   0   6  -4 64935.2 1794.22  17
   0   6  -3 796559. 6480.62   1
   0   6  -3 823202. 5879.18  17
   0   6  -2 61638.1 1493.68  17
   0   6  -2 55392.1 1676.78   1
   0   6  -1 113994. 2455.06   1
   0   6   0 366315. 4519.52   1
   0   6   1 4804.04 656.245  13
   0   6   2 172703. 3778.68  13
   0   6   2 171921. 3292.79  16
   0   6   3 250998. 4553.95  13
   0   6   3 249262. 4197.61  16
   0   6   4 8611.62 849.099  13
   0   6   5 98041.6 2647.95  13
   0   6   6 27412.0 1262.85  13
   0   7 -13 3810.78 450.407  11
   0   7 -12 63270.1 1996.64  11
   0   7 -11 14167.2 1031.37  11
   0   7 -11 14568.3 1155.76   5
   0   7 -10 13812.6 1053.16  11
   0   7 -10 14611.4 1188.31   5
   0   7 -10 14149.9 1053.18   9
   0   7  -9 347402. 5321.40   9
   0   7  -9 334381. 5526.43   5
   0   7  -9 346705. 5242.14  11
   0   7  -8 77109.0 2566.23   5
   0   7  -8 80024.9 2589.45   9
   0   7  -8 80025.6 2486.14  11
   0   7  -8 82407.0 2687.29  17
   0   7  -7 39937.7 1805.71   9
   0   7  -7 40315.3 1783.26   5
   0   7  -7 38975.1 1720.52  11
   0   7  -7 39640.0 1747.87  17
   0   7  -6 112214. 2919.58   9
   0   7  -6 113044. 2860.45  11
   0   7  -6 112770. 2811.58  17
   0   7  -5 68876.1 2210.36   9
   0   7  -5 68437.5 2074.72  17
   0   7  -5 68196.3 2206.06  11
   0   7  -4 67116.6 2095.79   9
   0   7  -4 69347.2 2205.88  11
   0   7  -4 70696.3 1979.15  17
   0   7  -3 117172. 2735.20   1
   0   7  -3 122361. 2694.24   9
   0   7  -3 117507. 2934.47  13
   0   7  -2 8904.22 766.412   1
   0   7  -2 10857.2 925.270  13
   0   7  -1 249495. 4448.74  13
   0   7  -1 232559. 3787.24   1
   0   7   0 40265.8 1858.95  13
   0   7   0 41004.8 1636.83   1
   0   7   1 9659.64 932.945  13
   0   7   1 9437.25 814.051   1
   0   7   2 176574. 3858.21  13
   0   7   3 33303.6 1655.14  13
   0   7   4 5755.29 671.831  13
   0   7   5 141944. 2854.75  13
   0   8 -13 35959.8 1201.17  11
   0   8 -12 43209.8 1548.97  11
   0   8 -11 42342.0 1688.22  11
   0   8 -11 44566.3 1817.77   5
   0   8 -10 26768.6 1423.14  11
   0   8 -10 26982.2 1493.08   5
   0   8  -9 51057.4 2026.44  11
   0   8  -9 49853.0 2009.73   5
   0   8  -9 50121.0 1999.99   9
   0   8  -8 126225. 3194.05  11
   0   8  -8 129271. 3160.86   5
   0   8  -8 127813. 3232.42   9
   0   8  -7 177929. 3563.47   5
   0   8  -7 176043. 3751.27  11
   0   8  -7 177608. 3761.38   9
   0   8  -6 106788. 2913.67  11
   0   8  -6 107767. 2853.16   9
   0   8  -5 32070.2 1589.07  11
   0   8  -5 33765.9 1552.49   9
   0   8  -4 146056. 3358.83  11
   0   8  -3 27216.9 1498.17  13
   0   8  -2 42997.2 1768.99   1
   0   8  -2 45557.5 1976.86  13
   0   8  -1 213217. 4294.67  13
   0   8   0 108531. 3074.46  13
   0   8   1 18255.2 1268.82  13
   0   8   2 54989.3 2075.46  13
   0   8   3 22368.0 1248.06  13
   0   9 -12 13579.7 768.013  11
   0   9 -11 1958.09 352.245  11
   0   9 -10 49309.8 1780.65  11
   0   9 -10 50380.7 1729.87   5
   0   9  -9 330.790 168.495   5
   0   9  -9 729.589 308.300  11
   0   9  -8 1323.50 399.652  11
   0   9  -8 3268.89 474.753   5
   0   9  -7 118136. 2997.65  11
   0   9  -6 63004.2 2205.03  11
   0   9  -5 4221.43 603.732  11
   0   9  -4 75913.0 2390.00  11
   0   9  -3 120103. 2975.94  11
   0   9  -2 48054.8 1854.66  11
   0  10 -11 260.186 145.002  11
   0  10 -10 49993.1 1530.89  11
   0  10  -9 67985.6 1933.88  11
   0  10  -8 927.034 290.247  11
   0  10  -7 5243.47 589.435  11
   0  10  -6 124123. 2802.24  11
   0  10  -5 261.995 215.009  11
   0  10  -4 35401.5 1465.38  11
   0  10  -3 66398.6 1942.80  11
   0  10  -2 3883.95 465.445  11
   0  10  -1 697.115 217.363  11
   0  10   0 40164.3 1188.34  11
   0  11 -10 14263.7 611.094  11
   0  11  -9 100076. 1806.28  11
   0  11  -8 218.929 136.556  11
   0  11  -7 7526.97 561.435  11
   0  11  -6 73923.0 1730.56  11
   0  11  -5 1901.36 294.067  11
   0  11  -4 25249.1 960.984  11
   0  11  -4 23955.1 834.775  10
   0  11  -3 41708.3 1141.60  11
   0  11  -3 41323.6 1119.77  10
   0  11  -2 15352.4 619.975  11
   1 -10  -2 19851.8 780.650   4
   1 -10  -1 11593.3 684.460   4
   1  -9  -4 14949.8 703.575   4
   1  -9  -3 38507.0 1333.15   4
   1  -8  -5 29178.0 1115.54   4
   1  -7  -6 77168.8 1805.37   3
   1  -7  -6 78857.3 1919.94   4
   1  -7  -5 4778.03 516.005   3
   1  -7  -4 748.336 265.133   3
   1  -6  -8 7090.60 554.246   3
   1  -6  -7 461.788 230.174   3
   1  -6  -7 201.611 131.856   4
   1  -6  -6 127637. 2852.12   3
   1  -6  -5 11692.1 901.225   3
   1  -6  -4 13081.7 935.434   3
   1  -6  -3 175534. 3271.20   3
   1  -5  -9 10921.5 736.706   3
   1  -5  -8 2551.06 444.423   3
   1  -5  -7 16760.1 1111.79   3
   1  -5  -6 20663.9 1238.74   3
   1  -5  -5 47857.5 1828.11   3
   1  -5  -4 109878. 2657.46   3
   1  -5   6 47866.6 1573.52  18
   1  -4 -11 40820.7 1065.15   3
   1  -4 -11 39781.6 1090.53   2
   1  -4 -10 16277.5 913.553   3
   1  -4  -9 42805.5 1694.64   3
   1  -4  -8 70595.8 2316.82   3
   1  -4  -7 166362. 3592.06   3
   1  -4  -6 64651.1 2159.00   3
   1  -4   5 282281. 3376.97  18
   1  -4   6 111949. 2042.18  18
   1  -3 -12 7772.58 479.963   2
   1  -3 -11 37558.1 1326.30   3
   1  -3 -10 52996.5 1866.31   3
   1  -3  -9 203441. 3959.85   3
   1  -3  -8 149339. 3461.91   3
   1  -3   4 27046.6 913.756  18
   1  -3   5 5921.03 424.662  18
   1  -2 -12 53444.7 1440.00   3
   1  -2 -11 309.578 229.703   3
   1  -2 -10 3231.60 548.475   3
   1  -2  -9 54463.4 2106.44   3
   1  -2   3 927011. 4522.36  18
   1  -2   4 9312.68 462.730  18
   1  -2   5 97862.7 1493.10  18
   1  -2   6 779980. 6394.87  15
   1  -2   7 910.701 280.784  15
   1  -1 -12 124516. 2472.17   3
   1  -1 -11 485.956 248.245  12
   1  -1 -11 200.580 256.405   3
   1  -1 -10 5198.28 656.114  12
   1  -1 -10 3718.32 588.864   3
   1  -1  -9 186301. 3863.37  12
   1  -1  -8 4649.45 639.957  12
   1  -1  -4 11584.8 319.045  18
   1  -1  -3 456039. 1537.67  17
   1  -1  -3 531377. 2506.50  18
   1  -1  -2 28088.6 625.792  18
   1  -1  -1 51343.5 868.542  18
   1  -1   0 688368. 3203.45  18
   1  -1   1 192828. 1727.81  18
   1  -1   2 195372. 1810.44  18
   1  -1   3 142598. 1591.42  18
   1  -1   4 11031.8 469.558  18
   1  -1   5 251782. 2303.62  18
   1  -1   6 60336.0 1962.51  15
   1  -1   7 30000.4 1461.63  15
   1  -1   8 473239. 5939.29  15
   1   0 -13 1481.39 280.176  12
   1   0 -12 82310.1 2308.78  12
   1   0 -12 83223.8 2139.11   3
   1   0 -11 22850.3 1379.54  12
   1   0 -11 21603.5 1252.79   3
   1   0 -10 49783.2 2107.04  12
   1   0  -9 201961. 4152.60  12
   1   0  -8 13708.0 1056.32  12
   1   0  -5 351924. 2443.51  17
   1   0  -4 658517. 3091.24  17
   1   0  -4 652953. 1851.06  18
   1   0  -3 307047. 2009.93  17
   1   0  -3 309056. 1677.84  18
   1   0  -2 119354. 1143.86  18
   1   0  -1 13770.4 408.867  18
   1   0   0 9590.40 364.214  18
   1   0   1 532909. 2808.54  18
   1   0   2 654063. 3268.63  18
   1   0   3 113254. 1434.17  18
   1   0   4 254468. 2281.24  18
   1   0   5 126060. 2786.44  15
   1   0   6 84480.1 2481.59  15
   1   0   7 139458. 3340.47  15
   1   0   8 308159. 5075.86  15
   1   1 -14 24841.1 888.799  12
   1   1 -13 59163.6 1872.77  12
   1   1 -12 26889.4 1488.44  12
   1   1 -11 11720.5 1065.58  12
   1   1 -11 11243.5 896.323   3
   1   1 -10 190136. 4224.75  12
   1   1  -9 10495.0 991.617  12
   1   1  -7 153996. 2198.98  17
   1   1  -6 24373.6 829.885  17
   1   1  -5 34681.3 916.646  17
   1   1  -4 415858. 3010.19  17
   1   1  -4 420642. 2191.23  18
   1   1  -3 128687. 1284.57  18
   1   1  -3 126757. 1545.83  17
   1   1  -2 493796. 2627.31  18
   1   1  -1 883307. 3666.04  18
   1   1   0 442072. 2696.65  18
   1   1   1 120954. 1493.50  18
   1   1   2 698248. 3790.32  18
   1   1   3 838734. 4365.70  18
   1   1   4 85723.7 1488.53  18
   1   1   5 451346. 5647.26  15
   1   1   6 203961. 4054.13  15
   1   1   7 14272.5 1118.75  15
   1   2 -14 35590.1 1286.92  12
   1   2 -13 107759. 2767.61  12
   1   2 -12 23992.5 1471.93  12
   1   2 -11 45987.8 2132.82  12
   1   2 -10 174414. 4081.43  12
   1   2 -10 162934. 3529.83  11
   1   2  -9 150087. 3639.24  12
   1   2  -9 148986. 3168.36  11
   1   2  -9 146384. 3038.06   5
   1   2  -8 95474.7 2020.38  17
   1   2  -7 150733. 2461.04  17
   1   2  -6 144752. 2228.11  17
   1   2  -5 115364. 1906.79  17
   1   2  -4 125305. 1867.37  17
   1   2  -3 440953. 3096.79  18
   1   2  -3 444042. 3277.17  17
   1   2  -2 27862.6 777.074  18
   1   2  -1 283249. 2502.91  18
   1   2   0 358872. 1994.55   1
   1   2   0 365247. 2922.53  18
   1   2   1 583.179 156.051  18
   1   2   2 3930.85 352.391  18
   1   2   3 236970. 2748.95  18
   1   2   3 244762. 3660.71  15
   1   2   4 80473.9 2344.02  15
   1   2   5 60009.7 2166.68  15
   1   2   6 200900. 4139.05  15
   1   2   7 23056.7 1457.18  15
   1   3 -14 4200.43 512.360  12
   1   3 -13 8896.72 866.272  12
   1   3 -12 167159. 3922.66  12
   1   3 -11 33818.7 1839.09  12
   1   3 -11 30587.3 1587.33  11
   1   3 -11 30133.5 1493.20   5
   1   3 -10 49550.3 2178.61  12
   1   3 -10 47585.8 1905.99  11
   1   3 -10 45680.3 1884.24   5
   1   3  -9 278261. 4495.60   5
   1   3  -9 282839. 4886.59  12
   1   3  -9 273014. 3982.52  17
   1   3  -9 270502. 4247.25  11
   1   3  -8 5157.16 543.979  17
   1   3  -7 137918. 2519.06  17
   1   3  -6 999999. 6485.65  17
   1   3  -5 20513.1 906.187  17
   1   3  -4 284291. 3132.21  17
   1   3  -3 639089. 4349.32  17
   1   3  -1 82129.0 1254.27   1
   1   3  -1 82535.6 1646.95  18
   1   3   0 656213. 4722.49  18
   1   3   0 663102. 3650.96   1
   1   3   2 4684.00 535.438  15
   1   3   3 179915. 3456.39  15
   1   3   4 345.325 267.899  15
   1   3   5 8060.02 832.456  15
   1   3   6 185326. 4030.89  15
   1   4 -14 279.343 196.509  12
   1   4 -13 4884.11 628.596  12
   1   4 -12 209745. 4299.43  12
   1   4 -12 210383. 4051.05  11
   1   4 -12 200658. 3835.20   5
   1   4 -11 4709.78 704.392  12
   1   4 -11 5203.66 692.409  11
   1   4 -11 5033.18 673.736   5
   1   4 -10 10357.2 967.893   5
   1   4 -10 10399.7 986.141  12
   1   4 -10 10166.0 895.366  17
   1   4  -9 279899. 4726.56  12
   1   4  -9 277990. 4330.97  17
   1   4  -9 278652. 4373.68  11
   1   4  -8 94043.0 2374.46  11
   1   4  -8 92694.9 2423.98  17
   1   4  -7 82494.5 2121.71  17
   1   4  -6 269598. 3668.99  17
   1   4  -5 22875.5 1035.85  17
   1   4  -4 87387.8 1897.96  17
   1   4  -3 867153. 5623.10  17
   1   4  -2 15382.5 720.307  17
   1   4  -1 218221. 2710.88  15
   1   4  -1 206215. 2426.83   1
   1   4   0 322605. 3073.46   1
   1   4   0 319977. 3785.51  15
   1   4   1 4613.42 517.031  15
   1   4   2 385426. 4907.59  15
   1   4   3 311066. 4692.83  15
   1   4   4 3044.35 519.924  15
   1   4   5 204237. 4107.90  15
   1   5 -14 9215.36 685.850  12
   1   5 -13 21831.9 1225.42  12
   1   5 -12 66529.2 2310.68  12
   1   5 -12 71908.6 2378.61  11
   1   5 -12 64995.4 2286.52   5
   1   5 -11 598.896 339.161   5
   1   5 -11 590.624 340.796  11
   1   5 -10 93359.6 2930.27   5
   1   5 -10 89349.9 2693.42  12
   1   5 -10 91597.3 2672.88  11
   1   5  -9 368642. 5167.47  12
   1   5  -9 376153. 5413.26  17
   1   5  -8 37128.4 1647.58  17
   1   5  -8 39083.6 1621.66  11
   1   5  -7 141170. 2983.14  17
   1   5  -6 148890. 2923.84  17
   1   5  -5 117588. 2491.72  17
   1   5  -4 210293. 3187.79  17
   1   5  -3 324395. 3750.51  17
   1   5  -2 76684.8 1754.60  17
   1   5  -1 371975. 3735.47  17
   1   5  -1 366264. 3760.29   1
   1   5   0 40668.3 1267.58   1
   1   5   0 40318.4 1195.00  17
   1   5   1 11067.9 806.316  15
   1   5   2 342276. 4737.46  15
   1   5   2 332652. 5066.39  13
   1   5   3 27469.3 1418.48  15
   1   5   3 28689.8 1516.43  13
   1   6 -14 20475.7 860.132  12
   1   6 -13 57501.5 1756.14  12
   1   6 -13 65099.5 2021.84  11
   1   6 -12 27752.0 1336.45  12
   1   6 -12 29454.3 1488.87  11
   1   6 -12 27915.1 1516.69   5
   1   6 -11 44128.1 1749.68  12
   1   6 -11 49676.1 1986.20  11
   1   6 -11 46532.9 2074.94   5
   1   6 -10 70312.3 2598.13   5
   1   6 -10 72608.4 2415.39  11
   1   6  -9 77399.8 2564.04  17
   1   6  -9 79794.5 2485.03  11
   1   6  -8 221725. 4014.70  11
   1   6  -8 223391. 4215.45  17
   1   6  -7 324177. 4669.36  11
   1   6  -7 329685. 4777.45  17
   1   6  -7 322682. 5123.36   6
   1   6  -6 111460. 2707.24  17
   1   6  -6 109061. 2624.28  11
   1   6  -6 111443. 2880.01   6
   1   6  -5 7768.75 700.428  17
   1   6  -4 373755. 4518.76  17
   1   6  -3 21621.3 1057.47  17
   1   6  -2 8689.94 653.224  17
   1   6  -1 516730. 6403.06  13
   1   6   0 146417. 3506.66  13
   1   6   1 1460.06 414.482  13
   1   6   2 119673. 3183.66  13
   1   6   3 36741.0 1724.28  13
   1   7 -13 129111. 2685.33  11
   1   7 -13 125566. 2713.67   5
   1   7 -12 31096.7 1463.09  11
   1   7 -12 29981.8 1524.28   5
   1   7 -11 7328.42 770.123  11
   1   7 -11 7824.98 861.730   5
   1   7 -10 81282.3 2724.75   5
   1   7 -10 82904.9 2559.28  11
   1   7  -9 2045.62 451.407  11
   1   7  -8 1247.46 361.266  11
   1   7  -7 199718. 3845.31  11
   1   7  -7 207021. 3977.78  17
   1   7  -7 193688. 3523.51  10
   1   7  -6 87049.3 2502.30  11
   1   7  -6 92096.9 2515.34  17
   1   7  -6 90685.0 2629.80   6
   1   7  -6 93230.2 2521.46  10
   1   7  -5 373.522 206.974  17
   1   7  -5 616.819 276.675  11
   1   7  -5 338.210 224.637   6
   1   7  -4 93016.6 2337.02  17
   1   7  -4 92162.6 2505.47  11
   1   7  -3 129758. 2647.34  17
   1   7  -3 133325. 2955.63  11
   1   7  -2 12906.3 935.777  11
   1   8 -13 30230.6 1167.01  11
   1   8 -12 66257.1 1968.12  11
   1   8 -12 67829.5 2063.50   5
   1   8 -11 7121.36 714.708  11
   1   8 -11 8341.10 795.240   5
   1   8 -10 100463. 2818.24   5
   1   8 -10 92480.1 2604.40  11
   1   8  -9 74440.6 2474.39   5
   1   8  -9 76608.0 2430.26  11
   1   8  -8 15857.4 1126.74  11
   1   8  -7 27068.4 1439.72  11
   1   8  -7 26838.4 1346.04  10
   1   8  -6 250742. 4290.71  11
   1   8  -6 244382. 4188.42  10
   1   8  -5 3485.53 542.030  11
   1   8  -4 76368.0 2316.77  11
   1   8  -3 195091. 3606.35  11
   1   8  -2 2951.16 495.297  11
   1   9 -13 2231.32 273.009  11
   1   9 -12 85853.2 1921.25  11
   1   9 -12 87159.3 1938.94   5
   1   9 -11 6457.39 597.547  11
   1   9 -11 7079.86 635.907   5
   1   9 -10 19875.1 1106.24  11
   1   9 -10 21282.3 1136.15   5
   1   9  -9 175073. 3381.63  11
   1   9  -9 170528. 3239.24   5
   1   9  -8 2060.46 406.254   5
   1   9  -8 1410.37 381.949  11
   1   9  -7 14353.5 1001.41  11
   1   9  -7 14710.6 935.130  10
   1   9  -6 121810. 2844.79  11
   1   9  -6 119131. 2803.93  10
   1   9  -5 21053.7 1180.34  11
   1   9  -4 80673.4 2230.46  11
   1   9  -3 70398.7 2010.76  11
   1  10 -11 2339.95 304.142  11
   1  10 -10 68707.1 1681.32  11
   1  10 -10 64354.3 1449.96   5
   1  10  -9 66658.1 1750.45  11
   1  10  -8 10342.9 729.053  11
   1  10  -7 80883.6 2016.33  11
   1  10  -6 18985.6 977.860  11
   1  10  -6 19092.0 967.064  10
   1  10  -5 1040.12 263.750  11
   1  10  -5 743.285 263.728  10
   1  10  -4 72191.5 1734.80  11
   1  10  -4 71064.5 1977.19  10
   1  11  -8-2.58051 89.9238  11
   1  11  -7 116380. 1673.06  11
   1  11  -5 138.359 101.618  10
   1  11  -4 89941.3 1603.24  10
   1  11  -3 17726.2 687.282  10
   2 -10  -2 2094.32 243.140   4
   2  -7   0 100122. 3067.57  18
   2  -7   2 163842. 3960.93  18
   2  -7   3 73105.7 2656.57  18
   2  -7   4 18924.4 1336.07  18
   2  -6  -8 6451.44 487.061   3
   2  -6  -7 106757. 2217.71   3
   2  -6  -6 31906.8 1311.53   3
   2  -6  -5 46338.9 1613.62   3
   2  -6  -2 72114.6 2343.35  18
   2  -6  -1 134524. 3319.08  18
   2  -6   2 40415.1 1851.31  18
   2  -6   3 61861.8 2280.08  18
   2  -6   4 3380.58 560.216  18
   2  -6   5 109550. 2911.20  18
   2  -6   6 28978.4 1484.58  18
   2  -5 -10 20007.2 719.335   3
   2  -5  -9 86367.2 1903.93   3
   2  -5  -8 31112.9 1322.97   3
   2  -5  -7 110698. 2643.61   3
   2  -5  -6 144704. 3060.90   3
   2  -5  -2 3990.58 543.667  18
   2  -5  -1 53492.7 1939.21  18
   2  -5   1 49351.7 1878.39  18
   2  -5   2 26033.5 1366.48  18
   2  -5   3 248044. 4125.91  18
   2  -5   4 6688.77 679.992  18
   2  -5   5 12165.6 910.338  18
   2  -5   6 288314. 4336.76  18
   2  -4 -11 247.861 137.259   3
   2  -4 -10 5291.97 518.876   3
   2  -4  -9 65191.6 1975.63   3
   2  -4  -8 12847.4 968.646   3
   2  -4  -3 170907. 2952.96  18
   2  -4  -2 791.439 241.711  18
   2  -4  -1 98030.1 2348.71  18
   2  -4   0 865984. 6968.74  18
   2  -4   1 40938.0 1526.91  18
   2  -4   2 327658. 4253.70  18
   2  -4   3 383155. 4577.50  18
   2  -4   4 249.235 182.568  18
   2  -4   5 126815. 2672.13  18
   2  -4   6 372982. 4541.85  18
   2  -3 -11 2833.60 383.059   3
   2  -3 -10 1633.76 365.247   3
   2  -3  -9 84879.5 2497.59   3
   2  -3  -3 320735. 3595.60  18
   2  -3  -2 29574.6 1110.32  18
   2  -3  -1 141379. 2478.32  18
   2  -3   0 646055. 5312.70  18
   2  -3   1 159934. 2632.72  18
   2  -3   2 171023. 2755.42  18
   2  -3   3 70044.5 1786.88  18
   2  -3   4 6929.03 577.208  18
   2  -3   5 187046. 2998.90  18
   2  -2 -12 34303.0 1159.85   3
   2  -2 -11 15892.7 974.667   3
   2  -2  -9 70337.3 2205.92  12
   2  -2  -4 502818. 3828.89  18
   2  -2  -3 124086. 2020.99  18
   2  -2  -2 1538.21 247.057  18
   2  -2  -1 173639. 2452.18  18
   2  -2   0 4372.14 415.907  18
   2  -2   1 145386. 2308.00  18
   2  -2   2 442798. 4082.13  18
   2  -2   3 60733.7 1546.63  18
   2  -2   4 60986.1 1600.17  18
   2  -2   5 127808. 2342.30  18
   2  -1 -13 55045.7 1200.49   3
   2  -1 -12 22680.9 983.015  12
   2  -1 -12 22251.1 1057.03   3
   2  -1 -11 9800.99 798.762  12
   2  -1 -11 9596.68 829.095   3
   2  -1 -10 140408. 3280.77  12
   2  -1  -9 15317.4 1151.24  12
   2  -1  -4 210048. 2321.75  18
   2  -1  -3 57436.4 1262.37  18
   2  -1  -2 141129. 2023.77  18
   2  -1  -1 276187. 2874.67  18
   2  -1   0 73584.6 1522.75  18
   2  -1   1 2355.01 303.198  18
   2  -1   2 466289. 4030.00  18
   2  -1   3 500191. 4284.72  18
   2  -1   4 10486.2 649.447  18
   2  -1   5 320800. 3636.87  18
   2  -1   7 841.391 420.059  15
   2   0 -13 80485.0 1781.07  12
   2   0 -13 79395.6 1658.88   3
   2   0 -12 8923.18 768.123  12
   2   0 -12 10075.2 776.164   3
   2   0 -11 1359.86 403.105  12
   2   0 -10 188405. 4140.17  12
   2   0  -5 3767.09 318.858  17
   2   0  -4 179582. 2110.09  18
   2   0  -4 177376. 2144.11  17
   2   0  -3 531405. 3748.53  18
   2   0  -2 875.972 190.818  18
   2   0  -1 185660. 2315.43  18
   2   0   0 466530. 3779.51  18
   2   0   1 1828.96 269.687  18
   2   0   2 37669.8 1143.94  18
   2   0   3 319676. 3441.50  18
   2   0   4 60397.3 1563.68  18
   2   0   6 143274. 3755.46  15
   2   1 -14 545.330 152.791  12
   2   1 -13 5690.77 585.244  12
   2   1 -12 129236. 3163.71  12
   2   1 -11 7654.38 884.836  12
   2   1 -10 34076.6 1833.22  12
   2   1  -6 644517. 4742.14  17
   2   1  -5 71918.1 1356.62  18
   2   1  -5 67585.2 1506.51  17
   2   1  -4 243763. 2602.14  18
   2   1  -3 297038. 2930.53  18
   2   1  -2 535637. 4013.48  18
   2   1  -1 229810. 2674.58  18
   2   1   0 471452. 3925.34  18
   2   1   1 132976. 2153.57  18
   2   1   2 22189.5 925.153  18
   2   1   3 78416.1 1808.95  18
   2   1   4 5852.65 517.437  18
   2   1   5 39997.7 1919.89  15
   2   1   6 207733. 4635.89  15
   2   2 -14 3933.59 432.222  12
   2   2 -13 11166.6 875.779  12
   2   2 -12 217681. 4323.77  12
   2   2 -11 4490.98 700.659  12
   2   2  -9 282760. 4558.87  11
   2   2  -8 109939. 2662.06  11
   2   2  -8 108119. 2539.89  10
   2   2  -7 167100. 2747.34  17
   2   2  -6 278125. 3515.07  17
   2   2  -5 16847.6 752.219  18
   2   2  -5 15961.2 819.299  17
   2   2  -4 106546. 1884.87  18
   2   2  -3 527117. 4229.82  18
   2   2  -2 681.379 193.581  18
   2   2  -1 228526. 2919.36  18
   2   2   0 134949. 2249.67  18
   2   2   1 3422.55 392.757  18
   2   2   2 268383. 3438.32  18
   2   2   3 160284. 2793.66  18
   2   2   4 601.706 186.127  18
   2   2   4 252.526 276.161  15
   2   2   5 250851. 5024.15  15
   2   3 -14 12207.0 787.867  12
   2   3 -13 32742.2 1517.26  12
   2   3 -12 39133.9 1851.19  12
   2   3 -11 3321.78 606.591  12
   2   3 -10 148728. 3453.98  11
   2   3  -9 202994. 3856.29  11
   2   3  -9 202173. 3601.87  10
   2   3  -8 2786.20 414.796  17
   2   3  -8 2245.58 417.360  11
   2   3  -8 3010.41 474.791  10
   2   3  -8 2547.31 481.419   6
   2   3  -7 294758. 4062.65  17
   2   3  -6 86376.5 2137.84  17
   2   3  -5 41791.8 1423.61  17
   2   3  -4 435164. 4352.44  18
   2   3  -4 439094. 4490.66  17
   2   3  -3 409519. 4233.57  18
   2   3  -2 112922. 2238.53  18
   2   3  -1 470369. 4621.70  18
   2   3   0 69899.0 1830.74  18
   2   3   1 7223.19 619.748  18
   2   3   2 505523. 5294.09  18
   2   3   3 52197.7 2135.97  15
   2   3   4 817.439 433.094  15
   2   4 -14 16260.7 890.775  12
   2   4 -13 87892.5 2411.31  12
   2   4 -12 17079.7 1198.69  12
   2   4 -12 17031.2 1048.81   5
   2   4 -11 38422.9 1715.19   5
   2   4 -11 36839.1 1807.47  12
   2   4 -11 37932.2 1764.57  11
   2   4 -10 100977. 3002.47  12
   2   4 -10 103914. 2881.24  11
   2   4  -9 100425. 2718.56  11
   2   4  -9 95002.8 2577.01  17
   2   4  -9 97187.7 2518.81  10
   2   4  -8 293887. 4909.82   6
   2   4  -8 290966. 4347.89  11
   2   4  -8 290210. 4276.26  10
   2   4  -7 310395. 4884.61   6
   2   4  -7 305793. 4292.97  10
   2   4  -6 58552.8 1894.35  17
   2   4  -5 238.676 187.225  17
   2   4  -4 406552. 4600.97  17
   2   4  -3 7741.96 632.975  17
   2   4  -2 6155.16 609.150  18
   2   4  -1 638307. 6082.34  18
   2   4   2 194946. 4071.39  15
   2   4   3 27922.7 1603.35  15
   2   5 -14 32045.9 1133.17  12
   2   5 -13 150259. 2925.33  12
   2   5 -13 155784. 2803.78   5
   2   5 -12 28109.1 1399.41  12
   2   5 -12 30748.4 1515.39  11
   2   5 -12 29130.7 1436.79   5
   2   5 -11 2713.67 499.316   5
   2   5 -11 2506.27 460.906  12
   2   5 -11 2785.50 506.110  11
   2   5 -10 111794. 2930.44  12
   2   5 -10 118868. 3039.97  11
   2   5  -9 19315.6 1205.04  12
   2   5  -9 20049.8 1223.59  11
   2   5  -8 1091.28 339.095  17
   2   5  -8 1060.74 303.464  11
   2   5  -8 914.926 329.999   6
   2   5  -8 554.364 206.261  10
   2   5  -7 271965. 4105.72  11
   2   5  -7 273176. 4463.54  17
   2   5  -7 271732. 4797.89   6
   2   5  -7 267428. 4251.99  10
   2   5  -6 144138. 3165.73  17
   2   5  -6 147415. 3402.65   6
   2   5  -6 150544. 3155.14  10
   2   5  -5 4687.13 564.299  17
   2   5  -5 5439.25 609.819  10
   2   5  -4 119222. 2650.12  17
   2   5  -4 116971. 2791.77  10
   2   5  -3 126750. 2665.87  17
   2   5  -2 502.204 234.563  17
   2   5  -1 114843. 2482.15  17
   2   5   0 343534. 4855.60  15
   2   5   1 630.363 274.089  15
   2   6 -13 28153.9 1071.09  12
   2   6 -13 30296.7 1268.54   5
   2   6 -12 67833.7 1877.09  12
   2   6 -12 75742.7 2250.71  11
   2   6 -12 71794.2 2249.77   5
   2   6 -11 34768.1 1719.91   5
   2   6 -11 36920.7 1653.15  11
   2   6 -10 93555.6 2677.84  11
   2   6  -9 31143.6 1538.73  11
   2   6  -9 30995.0 1466.33  10
   2   6  -8 127213. 2983.18  11
   2   6  -8 125697. 3411.77   6
   2   6  -8 127872. 3047.32  10
   2   6  -7 59857.0 2010.63  11
   2   6  -7 62133.0 2203.26  17
   2   6  -7 61253.4 2336.26   6
   2   6  -7 59964.1 2102.44  10
   2   6  -6 295591. 4726.01  17
   2   6  -6 285926. 4624.21  10
   2   6  -5 46846.1 1833.84  17
   2   6  -5 45881.7 1907.94   6
   2   6  -5 45439.1 1858.85  10
   2   6  -4 129409. 2940.00  17
   2   6  -3 249640. 3920.77  17
   2   6  -2 11186.9 834.028  17
   2   7 -13 6589.39 570.201   5
   2   7 -12 119946. 2621.57  11
   2   7 -12 119257. 2756.31   5
   2   7 -11 15833.5 1122.49   5
   2   7 -11 16172.5 1040.72  11
   2   7 -10 22674.9 1266.85  11
   2   7  -9 202813. 3782.74  11
   2   7  -9 211866. 3769.28  10
   2   7  -8 2979.33 504.425  11
   2   7  -8 4796.37 701.786   6
   2   7  -8 3700.23 548.131  10
   2   7  -7 17274.4 1244.77   6
   2   7  -7 15256.7 1107.54  10
   2   7  -6 128996. 3300.97   6
   2   7  -6 127828. 3227.58  10
   2   7  -5 38296.8 1742.80   6
   2   7  -5 38959.4 1798.58  10
   2   7  -4 109041. 2796.10   6
   2   7  -4 107446. 3038.58  10
   2   7  -3 58529.7 1976.73   6
   2   8 -13 48960.7 1325.38   5
   2   8 -12 51811.2 1489.69  11
   2   8 -12 54082.4 1657.18   5
   2   8 -11 14136.7 964.954   5
   2   8 -11 12967.1 826.486  11
   2   8 -10 144469. 2893.45  11
   2   8  -9 99313.4 2414.32  10
   2   8  -9 98044.6 2425.43  11
   2   8  -8 14557.5 944.866  11
   2   8  -8 14772.2 1005.84  10
   2   8  -7 147370. 3331.25   6
   2   8  -7 145004. 3244.74  10
   2   8  -6 19183.6 1185.85   6
   2   8  -6 20454.3 1283.82  10
   2   8  -5 79.8872 154.585   6
   2   8  -5-38.3487 214.428  10
   2   8  -4 152235. 3004.08   6
   2   8  -4 159067. 3603.37  10
   2   8  -3 32579.3 1640.84  10
   2   8   1 8430.22 658.535  10
   2   8   2 58150.4 1388.87  10
   2   9 -12 21032.2 827.859   5
   2   9 -11 47.4710 161.924   5
   2   9 -11 152.926 134.270  11
   2   9 -10 148845. 2711.10   5
   2   9 -10 152088. 2410.06  11
   2   9  -9 521.475 181.718  10
   2   9  -8 9140.52 704.158  10
   2   9  -7 235450. 3723.72  10
   2   9  -6 11803.0 886.321  10
   2   9  -5 4007.10 534.102  10
   2   9  -4 174155. 3384.44  10
   2   9  -3 15048.8 988.391  10
   2   9  -2 237.923 230.553  10
   2   9  -1 156694. 2749.31  10
   2   9   0 25974.9 986.735  10
   2  10  -8 997.483 197.261  10
   2  10  -7 78308.4 1710.32  10
   2  10  -6 31944.5 1151.25  10
   2  10  -5 8237.06 599.217  10
   2  10  -4 82289.4 1841.70  10
   2  10  -3 30874.3 1070.78  10
   2  10  -2 27886.4 917.291  10
   3  -5  -9 20432.2 752.004   3
   3  -5  -8 1214.38 254.492   3
   3  -5  -7 8067.97 642.495   3
   3  -5  -2 965.381 370.910  18
   3  -5  -1 134048. 3385.70  18
   3  -5   0 293192. 5058.32  18
   3  -5   1 38126.3 1855.01  18
   3  -5   2 169091. 3881.87  18
   3  -5   3 70030.0 2485.59  18
   3  -4 -10 14361.5 685.712   3
   3  -4  -9 22769.2 1032.67   3
   3  -4  -2 1418.64 363.952  18
   3  -4  -1 107428. 2861.45  18
   3  -4   0 6568.46 733.134  18
   3  -4   1 17253.4 1171.29  18
   3  -4   2 182556. 3761.57  18
   3  -4   3 9926.88 896.038  18
   3  -4   4 1898.33 432.506  18
   3  -3 -11 1485.06 248.167   3
   3  -3 -10 70822.4 1854.55   3
   3  -3  -3 51051.0 1770.28  18
   3  -3  -2 25565.9 1285.09  18
   3  -3  -1 94135.9 2492.84  18
   3  -3   0 23781.7 1269.90  18
   3  -3   1 780.625 287.328  18
   3  -3   2 146861. 3218.96  18
   3  -3   3 177317. 3587.83  18
   3  -3   4 688.457 290.813  18
   3  -3   5 116832. 2906.27  18
   3  -2 -12 4410.78 361.326   3
   3  -2 -11 2065.53 340.799   3
   3  -2 -10 88245.2 2116.85  12
   3  -2  -3 224962. 3534.85  18
   3  -2  -2 9480.96 749.604  18
   3  -2  -1 135581. 2854.97  18
   3  -2   0 269236. 4055.59  18
   3  -2   1 5682.66 630.319  18
   3  -2   2 104653. 2600.30  18
   3  -2   3 317301. 4566.08  18
   3  -2   4 26565.4 1352.22  18
   3  -2   5 57450.6 1977.15  18
   3  -1 -12 65766.4 1426.58  12
   3  -1 -12 72295.0 1684.58   3
   3  -1 -11 503.142 224.178  12
   3  -1 -10 36278.0 1623.95  12
   3  -1  -4 94249.9 2153.46  18
   3  -1  -3 92375.9 2188.56  18
   3  -1  -2 261747. 3752.09  18
   3  -1  -1 114345. 2510.61  18
   3  -1   0 122450. 2639.56  18
   3  -1   1 128950. 2762.84  18
   3  -1   2 32081.7 1411.31  18
   3  -1   3 9941.17 808.553  18
   3  -1   4 38457.6 1589.81  18
   3   0 -12 92129.8 2176.45  12
   3   0 -11 7055.39 733.485  12
   3   0  -6 221273. 3818.06  10
   3   0  -5 20419.5 1115.09  10
   3   0  -4 164430. 2844.33  18
   3   0  -3 246323. 3549.26  18
   3   0  -2 14017.5 872.113  18
   3   0  -1 226314. 3507.11  18
   3   0   0 72368.0 2021.06  18
   3   0   1 302.186 216.269  18
   3   0   2 118488. 2704.04  18
   3   0   3 39101.6 1594.38  18
   3   0   4 1828.66 362.748  18
   3   1 -13 24398.5 1010.34  12
   3   1 -13 22520.4 832.199   3
   3   1 -12 19202.9 1120.49  12
   3   1 -11 1664.73 469.527  12
   3   1  -7 283293. 4486.39  10
   3   1  -6 8515.22 760.582  10
   3   1  -5 652.502 223.913  17
   3   1  -5 1295.22 320.351  10
   3   1  -4 385698. 4494.60  18
   3   1  -3 179990. 3110.87  18
   3   1  -2 18676.1 1027.30  18
   3   1  -1 408368. 4816.26  18
   3   1   0 55034.3 1803.24  18
   3   1   1 3347.69 484.738  18
   3   1   2 526998. 5833.20  18
   3   1   3 71614.8 2179.81  18
   3   2 -13 116514. 2425.41  12
   3   2 -12 11752.3 922.878  12
   3   2 -11 12008.3 1058.43  12
   3   2  -8 220347. 4069.78  10
   3   2  -7 212296. 3903.80   6
   3   2  -7 214641. 3902.07  10
   3   2  -6 46576.3 1667.42  17
   3   2  -6 48366.4 1803.42  10
   3   2  -5 1412.30 324.029  18
   3   2  -5 1037.43 298.223  17
   3   2  -5 1125.30 318.885  10
   3   2  -4 219758. 3510.87  18
   3   2  -4 230155. 3735.19  10
   3   2  -3 8695.98 715.887  18
   3   2  -2 5003.72 561.055  18
   3   2  -1 377463. 4789.04  18
   3   2   0 7462.80 707.865  18
   3   2   1 142197. 3054.65  18
   3   2   2 167390. 3401.25  18
   3   3 -14 10318.6 573.151  12
   3   3 -13 110467. 2416.63  12
   3   3 -12 10274.0 871.397  12
   3   3 -11 1541.13 426.488  12
   3   3  -9 36247.9 1672.99   6
   3   3  -9 35922.5 1667.71  10
   3   3  -8 898.543 336.296   6
   3   3  -8-130.951 179.071  10
   3   3  -7 253476. 4553.61   6
   3   3  -7 248762. 4291.20  10
   3   3  -6 127531. 2958.54  17
   3   3  -6 140464. 3227.16  10
   3   3  -5 35012.2 1511.98  18
   3   3  -5 35259.2 1542.75  17
   3   3  -5 36286.9 1602.53  10
   3   3  -4 167232. 3316.40  18
   3   3  -4 165562. 3361.17  10
   3   3  -3 120653. 2829.43  18
   3   3  -3 122695. 2836.66  10
   3   3  -2 24823.1 1303.37  18
   3   3  -2 25467.1 1302.48  10
   3   3  -1 155302. 3290.19  18
   3   3  -1 156465. 3153.86  10
   3   3   0 294506. 4606.32  18
   3   3   1 3864.86 559.822  18
   3   4 -13 15427.9 864.480  12
   3   4 -12 65683.3 2044.78  12
   3   4 -11 42747.7 1816.43  12
   3   4 -10 52012.1 1948.93  10
   3   4  -9 3619.56 560.311  10
   3   4  -9 2815.85 522.965   6
   3   4  -8 210998. 4350.07   6
   3   4  -8 217318. 4122.56  10
   3   4  -7 50534.3 2004.54  17
   3   4  -7 53267.0 2191.91   6
   3   4  -7 53799.9 2075.79  10
   3   4  -6 148096. 3365.03  17
   3   4  -6 154134. 3464.02  10
   3   4  -5 113773. 2906.75  17
   3   4  -5 114169. 2959.20  10
   3   4  -4 111215. 2835.39  17
   3   4  -4 107130. 2852.41  10
   3   4  -3 123853. 3107.79  18
   3   4  -3 124998. 3086.07  10
   3   4  -2 47832.5 1942.13  18
   3   4  -2 45257.5 1845.06  10
   3   4  -1 29788.1 1552.71  18
   3   4  -1 29794.1 1486.86  10
   3   4   0 266435. 4321.69  10
   3   5 -13 19049.8 826.091  12
   3   5 -12 102502. 2272.37  12
   3   5 -12 108431. 2292.79   5
   3   5 -11 26332.6 1259.82  12
   3   5 -10 30157.0 1419.42  12
   3   5 -10 34835.1 1554.71  10
   3   5  -9 164631. 3837.87   6
   3   5  -9 162961. 3530.86  10
   3   5  -8 8100.24 904.336   6
   3   5  -8 7752.42 806.966  10
   3   5  -7 26447.0 1600.74   6
   3   5  -7 26533.3 1493.04  10
   3   5  -6 131510. 3461.27   6
   3   5  -6 125821. 3240.09  10
   3   5  -5 20459.8 1319.13  10
   3   5  -4 93739.0 2795.32  10
   3   5  -3 45363.7 1945.87  10
   3   5  -2 55903.0 2150.29  10
   3   5  -1 42530.9 1851.41  10
   3   5   0 7565.88 783.962  10
   3   6 -12 15802.8 885.284   5
   3   6 -10 196674. 3508.22  10
   3   6  -9 76690.4 2566.24   6
   3   6  -9 73997.5 2318.61  10
   3   6  -8 22143.9 1441.85   6
   3   6  -8 23406.4 1395.43  10
   3   6  -7 201432. 4261.69   6
   3   6  -7 197690. 4062.21  10
   3   6  -6 10345.3 992.393   6
   3   6  -6 10485.1 968.687  10
   3   6  -5 7264.69 825.028  10
   3   6  -4 260953. 4766.39  10
   3   6  -3 26090.2 1517.31  10
   3   6  -2 16549.3 1184.33  10
   3   6  -1 182402. 3717.44  10
   3   6   0 1067.18 313.957  10
   3   7 -12 12608.7 725.646   5
   3   7 -10 193885. 3201.49  10
   3   7  -9 1462.19 358.714  10
   3   7  -8 23105.2 1363.48   6
   3   7  -8 23639.7 1335.54  10
   3   7  -7 243437. 4417.79   6
   3   7  -7 237415. 4274.54  10
   3   7  -6 194.706 255.771   6
   3   7  -6 158.320 207.288  10
   3   7  -5 25353.3 1394.98   6
   3   7  -5 25962.4 1460.59  10
   3   7  -4 161212. 3336.04   6
   3   7  -4 170037. 3684.83  10
   3   7  -3 1020.63 317.580   6
   3   7  -3 1371.90 385.283  10
   3   7  -2 13995.4 885.471   6
   3   7  -2 14806.3 1042.17  10
   3   7  -1 204468. 3517.70  10
   3   7   0 31083.7 1219.07  10
   3   8 -11 6358.43 518.732   5
   3   8 -10 56231.4 1447.32  10
   3   8  -9 23247.3 1071.53  10
   3   8  -8 1046.92 294.942  10
   3   8  -7 106311. 2513.82   6
   3   8  -7 109617. 2603.51  10
   3   8  -6 41952.2 1558.59   6
   3   8  -6 45514.4 1725.11  10
   3   8  -5 11217.2 784.014   6
   3   8  -5 12398.1 920.279  10
   3   8  -4 67493.2 1774.54   6
   3   8  -4 75106.6 2177.52  10
   3   8  -3 25642.5 1224.12  10
   3   8  -2 51739.9 1592.48  10
   3   8  -1 52833.0 1404.15  10
   3   9 -10 55930.2 1227.12   5
   3   9  -9 54543.5 1232.09  10
   3   9  -8 56561.5 1426.07  10
   3   9  -7 53631.0 1505.07  10
   3   9  -6 67690.3 1714.34  10
   3   9  -5 40505.7 1310.64  10
   3   9  -4 72050.2 1670.28  10
   3   9  -3 81730.4 1615.68  10
   4  -4  -8 10107.5 581.569   3
   4  -3 -10 36062.4 950.728   3
   4  -1 -11 305.700 128.748  12
   4  -1 -10 39827.0 1435.11  12
   4  -1  -2 3237.40 565.578  18
   4   0 -11 117.825 155.487  12
   4   0  -3 22585.1 1372.67  18
   4   0  -3 23064.0 1260.52  10
   4   1 -12 885.292 208.720  12
   4   1 -11 8410.44 710.177  12
   4   1  -6 59030.5 2169.49  10
   4   1  -5 82467.0 2514.45  10
   4   1  -4 163582. 3456.11  10
   4   1  -3 71461.3 2221.22  10
   4   2 -12 50880.3 1456.65  12
   4   2 -11 28253.4 1321.24  12
   4   2  -7 22826.4 1385.88  10
   4   2  -6 52063.3 2052.29  10
   4   2  -5 111168. 2944.31  10
   4   2  -4 52997.1 1990.14  10
   4   2  -3 17792.6 1143.57  10
   4   3 -12 51681.7 1433.74  12
   4   3 -11 38595.8 1482.59  12
   4   3  -8 29553.3 1450.62   6
   4   3  -8 32241.2 1614.10  10
   4   3  -7 57267.7 2164.67  10
   4   3  -7 56371.8 2116.72   6
   4   3  -6 95642.8 2804.15  10
   4   3  -5 7222.04 791.891  10
   4   3  -4 73383.4 2386.87  10
   4   3  -3 31849.8 1538.12  10
   4   3  -2 19346.2 1176.91  10
   4   4 -12 1080.91 193.873  12
   4   4 -11 20899.8 975.151  12
   4   4  -9 22944.8 1201.19   6
   4   4  -9 23094.1 1285.17  10
   4   4  -8 22861.3 1325.87   6
   4   4  -8 24581.5 1385.84  10
   4   4  -7 145234. 3452.76   6
   4   4  -7 146563. 3415.53  10
   4   4  -6-143.480 276.344   6
   4   4  -6 132.191 243.696  10
   4   4  -5 23944.5 1388.32  10
   4   4  -4 269875. 4654.55  10
   4   4  -3 11755.6 946.594  10
   4   4  -2 42475.8 1706.88  10
   4   5  -9 387.112 216.862   6
   4   5  -9 707.887 280.010  10
   4   5  -8 21079.3 1253.14   6
   4   5  -8 22848.1 1280.53  10
   4   5  -7 155277. 3485.77   6
   4   5  -7 154229. 3394.24  10
   4   5  -6 7511.66 778.984  10
   4   5  -6 7143.31 812.307   6
   4   5  -5 43010.3 1817.67  10
   4   5  -4 94699.7 2668.17  10
   4   5  -3 2768.01 465.228  10
   4   5  -2 32340.8 1401.16  10
   4   6  -9 15795.8 927.559  10
   4   6  -8 18213.0 1067.24   6
   4   6  -8 17828.1 1035.20  10
   4   6  -7 122822. 2849.15   6
   4   6  -7 116647. 2753.61  10
   4   6  -6 39450.5 1653.92   6
   4   6  -6 37888.2 1591.43  10
   4   6  -5 19625.9 1171.78   6
   4   6  -5 19484.4 1152.52  10
   4   6  -4 51988.5 1828.40   6
   4   6  -4 51104.1 1790.49  10
   4   6  -3 17190.0 988.069  10
   4   6  -2 60069.2 1621.62  10
   4   6   0 1318.65 200.132   6
   4   7  -9 23890.3 958.069  10
   4   7  -8 85824.9 1971.46   6
   4   7  -8 84647.5 1938.48  10
   4   7  -7 50442.2 1564.39   6
   4   7  -7 49228.2 1549.54  10
   4   7  -6 47029.1 1518.12   6
   4   7  -6 46715.0 1519.62  10
   4   7  -5 65638.2 1744.03   6
   4   7  -5 66629.9 1781.24  10
   4   7  -4 86583.5 1890.97   6
   4   7  -4 89533.6 1942.04  10
   4   7  -3 48351.0 1274.67   6
   4   7  -3 50468.7 1283.04  10
   5   2  -5 16575.1 951.514   6
   5   3  -6 10672.8 730.776   6
   5   3  -5 46430.9 1601.49   6
   5   4  -7 70713.8 1602.41   6
   5   4  -6 8268.79 620.334   6
   5   4  -5 35442.9 1321.02   6
   5   4  -4 31961.3 1257.98   6
   5   5  -6 21983.1 873.704   6
   5   5  -5 51400.0 1356.43   6
   5   5  -4 56764.3 1403.94   6
   5   5  -3 12495.1 624.669   6
   0   0   0    0.00    0.00   0
TITL ks1504c in P1
REM P1 (#1 in standard setting)
CELL 1.54184   4.663711   9.459797  11.989766 111.6393 101.0354  93.7116
ZERR    2.00   0.000310   0.000555   0.000672   0.0054   0.0053   0.0051
LATT -1
SFAC C H N O
UNIT 16.00 20.00 2.00 4.00
TREF
HKLF 4
END
;
_shelx_hkl_checksum              50638
_shelx_res_file
;
TITL ks1504c in P-1
CELL  1.54184   4.6637   9.4598  11.9898  111.639  101.035   93.712
ZERR     2.00   0.0003   0.0006   0.0007    0.005    0.005    0.005
LATT   1
SFAC  C    H    N    O    CL   BR
UNIT  16   14   2    4    2    2
MERG   2
eqiv $1 x+1, y, z
htab n1 o1_$1
mpla c1 c2 c3 c4 c5 c6 br1 cl1
mpla n1 c7 o1 o2 c8
FMAP   2
PLAN   10
SIZE     0.150   0.203   0.305
ACTA
BOND   $H
L.S.   4
TEMP  -123.00
WGHT    0.040000    0.157000
FVAR      13.08054
C1    1    0.583243    0.250775    0.089765    11.00000    0.01695    0.01812 =
         0.01959    0.00749    0.00631    0.00470
C2    1    0.777438    0.365792    0.192082    11.00000    0.01769    0.01812 =
         0.02229    0.00910    0.00581    0.00186
C3    1    0.777653    0.380636    0.311313    11.00000    0.02410    0.02148 =
         0.02000    0.00703    0.00333   -0.00030
AFIX  43
H3    2    0.911500    0.458475    0.379609    11.00000   -1.20000
AFIX   0
C4    1    0.580302    0.280556    0.329503    11.00000    0.03097    0.02687 =
         0.01938    0.01214    0.00970    0.00537
C5    1    0.386607    0.165374    0.231492    11.00000    0.02394    0.02191 =
         0.02638    0.01152    0.00993    0.00128
AFIX  43
H5    2    0.252511    0.097264    0.245518    11.00000   -1.20000
AFIX   0
C6    1    0.390337    0.150422    0.112504    11.00000    0.02021    0.01970 =
         0.02223    0.00721    0.00581    0.00016
AFIX  43
H6    2    0.259204    0.070361    0.044862    11.00000   -1.20000
AFIX   0
C7    1    0.356012    0.183171   -0.127544    11.00000    0.02081    0.01945 =
         0.01936    0.00788    0.00661    0.00480
C8    1    0.210242    0.113005   -0.341858    11.00000    0.03406    0.04133 =
         0.01941    0.01173    0.00171    0.00256
AFIX 137
H8A   2    0.140146    0.005800   -0.358085    11.00000   -1.50000
H8B   2    0.288193    0.117366   -0.411030    11.00000   -1.50000
H8C   2    0.045896    0.172610   -0.332342    11.00000   -1.50000
AFIX   0
N1    3    0.591626    0.237341   -0.029871    11.00000    0.01570    0.02564 =
         0.01975    0.00835    0.00584   -0.00021
AFIX  43
H1    2    0.761811    0.266101   -0.042403    11.00000   -1.20000
AFIX   0
O1    4    0.103577    0.146727   -0.125012    11.00000    0.01589    0.03149 =
         0.02433    0.01011    0.00524    0.00099
O2    4    0.440031    0.176496   -0.230434    11.00000    0.02191    0.04020 =
         0.01980    0.01518    0.00491    0.00127
CL1   5    0.576214    0.301150    0.479837    11.00000    0.05487    0.03812 =
         0.02080    0.01322    0.01223   -0.00522
BR1   6    1.041707    0.507052    0.169043    11.00000    0.02532    0.02146 =
         0.02454    0.01045    0.00644   -0.00329
HKLF 4
REM  ks1504c in P-1
REM R1 =  0.0239 for    1777 Fo > 4sig(Fo)  and  0.0248 for all    1847 data
REM    119 parameters refined using      0 restraints
END
WGHT      0.0400      0.1570
REM Highest difference peak  0.303,  deepest hole -0.607,  1-sigma level  0.078
Q1    1   0.8845  0.5112  0.0759  11.00000  0.05    0.30
Q2    1   0.6622  0.3107  0.1422  11.00000  0.05    0.29
Q3    1   1.1989  0.5135  0.2672  11.00000  0.05    0.26
Q4    1   0.7828  0.4854  0.0071  11.00000  0.05    0.25
Q5    1   0.8234  0.3629  0.2626  11.00000  0.05    0.25
Q6    1   0.4238  0.0943 -0.3985  11.00000  0.05    0.25
Q7    1   0.6969  0.2969  0.3066  11.00000  0.05    0.23
Q8    1   1.0674  0.6229  0.2806  11.00000  0.05    0.23
Q9    1  -0.0506  0.3197 -0.3613  11.00000  0.05    0.22
Q10   1   0.6403  0.3491  0.3132  11.00000  0.05    0.22
;
_shelx_res_checksum              23778
_shelxl_version_number           .2013
loop_
_space_group_symop_operation_xyz
'x, y, z'
'-x, -y, -z'
loop_
_atom_site_type_symbol
_atom_site_label
_atom_site_fract_x
_atom_site_fract_y
_atom_site_fract_z
_atom_site_U_iso_or_equiv
_atom_site_adp_type
_atom_site_calc_flag
_atom_site_occupancy
C C1 0.5832(4) 0.2508(2) 0.08977(18) 0.0178(4) Uani d 1
C C2 0.7774(4) 0.3658(2) 0.19208(19) 0.0189(4) Uani d 1
C C3 0.7777(5) 0.3806(2) 0.31131(19) 0.0226(4) Uani d 1
H H3 0.9115 0.4585 0.3796 0.027 Uiso calc 1
C C4 0.5803(5) 0.2806(3) 0.3295(2) 0.0242(4) Uani d 1
C C5 0.3866(5) 0.1654(2) 0.2315(2) 0.0230(4) Uani d 1
H H5 0.2525 0.0973 0.2455 0.028 Uiso calc 1
C C6 0.3903(5) 0.1504(2) 0.1125(2) 0.0210(4) Uani d 1
H H6 0.2592 0.0704 0.0449 0.025 Uiso calc 1
C C7 0.3560(5) 0.1832(2) -0.12754(19) 0.0194(4) Uani d 1
C C8 0.2102(6) 0.1130(3) -0.3419(2) 0.0324(5) Uani d 1
H H8A 0.1401 0.0058 -0.3581 0.049 Uiso calc 1
H H8B 0.2882 0.1174 -0.4110 0.049 Uiso calc 1
H H8C 0.0459 0.1726 -0.3323 0.049 Uiso calc 1
N N1 0.5916(4) 0.2373(2) -0.02987(16) 0.0204(3) Uani d 1
H H1 0.7618 0.2661 -0.0424 0.024 Uiso calc 1
O O1 0.1036(3) 0.14673(18) -0.12501(14) 0.0242(3) Uani d 1
O O2 0.4400(3) 0.17650(19) -0.23043(14) 0.0264(3) Uani d 1
Cl Cl1 0.57621(15) 0.30115(7) 0.47984(5) 0.03750(16) Uani d 1
Br Br1 1.04171(4) 0.50705(2) 0.16904(2) 0.02356(10) Uani d 1
loop_
_atom_site_aniso_label
_atom_site_aniso_U_11
_atom_site_aniso_U_22
_atom_site_aniso_U_33
_atom_site_aniso_U_12
_atom_site_aniso_U_13
_atom_site_aniso_U_23
C1 0.0170(9) 0.0181(9) 0.0196(10) 0.0047(7) 0.0063(7) 0.0075(7)
C2 0.0177(9) 0.0181(9) 0.0223(10) 0.0019(7) 0.0058(8) 0.0091(8)
C3 0.0241(10) 0.0215(9) 0.0200(10) -0.0003(8) 0.0033(8) 0.0070(8)
C4 0.0310(11) 0.0269(11) 0.0194(10) 0.0054(9) 0.0097(8) 0.0121(8)
C5 0.0239(10) 0.0219(10) 0.0264(11) 0.0013(8) 0.0099(8) 0.0115(8)
C6 0.0202(10) 0.0197(9) 0.0222(10) 0.0002(7) 0.0058(8) 0.0072(8)
C7 0.0208(10) 0.0194(9) 0.0194(10) 0.0048(7) 0.0066(8) 0.0079(8)
C8 0.0341(12) 0.0413(13) 0.0194(10) 0.0026(10) 0.0017(9) 0.0117(10)
N1 0.0157(8) 0.0256(9) 0.0198(8) -0.0002(6) 0.0058(6) 0.0084(7)
O1 0.0159(7) 0.0315(8) 0.0243(8) 0.0010(6) 0.0052(6) 0.0101(6)
O2 0.0219(8) 0.0402(9) 0.0198(7) 0.0013(6) 0.0049(6) 0.0152(7)
Cl1 0.0549(4) 0.0381(3) 0.0208(3) -0.0052(3) 0.0122(2) 0.0132(2)
Br1 0.02532(14) 0.02146(14) 0.02454(14) -0.00329(9) 0.00644(9) 0.01045(10)
loop_
_atom_type_symbol
_atom_type_description
_atom_type_scat_dispersion_real
_atom_type_scat_dispersion_imag
_atom_type_scat_source
C C 0.0181 0.0091 'International Tables Vol C Tables 4.2.6.8 and 6.1.1.4'
H H 0.0000 0.0000 'International Tables Vol C Tables 4.2.6.8 and 6.1.1.4'
N N 0.0311 0.0180 'International Tables Vol C Tables 4.2.6.8 and 6.1.1.4'
O O 0.0492 0.0322 'International Tables Vol C Tables 4.2.6.8 and 6.1.1.4'
Cl Cl 0.3639 0.7018 'International Tables Vol C Tables 4.2.6.8 and 6.1.1.4'
Br Br -0.6763 1.2805 'International Tables Vol C Tables 4.2.6.8 and 6.1.1.4'
loop_
_geom_angle_atom_site_label_1
_geom_angle_atom_site_label_2
_geom_angle_atom_site_label_3
_geom_angle
C6 C1 N1 122.34(18)
C6 C1 C2 117.59(19)
N1 C1 C2 120.06(18)
C3 C2 C1 121.46(19)
C3 C2 Br1 118.43(15)
C1 C2 Br1 120.11(15)
C4 C3 C2 119.0(2)
C4 C3 H3 120.5
C2 C3 H3 120.5
C5 C4 C3 121.44(19)
C5 C4 Cl1 119.54(17)
C3 C4 Cl1 119.02(17)
C4 C5 C6 119.14(19)
C4 C5 H5 120.4
C6 C5 H5 120.4
C5 C6 C1 121.39(19)
C5 C6 H6 119.3
C1 C6 H6 119.3
O1 C7 O2 123.82(19)
O1 C7 N1 126.17(19)
O2 C7 N1 110.00(17)
O2 C8 H8A 109.5
O2 C8 H8B 109.5
H8A C8 H8B 109.5
O2 C8 H8C 109.5
H8A C8 H8C 109.5
H8B C8 H8C 109.5
C7 N1 C1 124.53(17)
C7 N1 H1 117.7
C1 N1 H1 117.7
C7 O2 C8 115.05(17)
loop_
_geom_bond_atom_site_label_1
_geom_bond_atom_site_label_2
_geom_bond_distance
C1 C6 1.400(3)
C1 N1 1.401(3)
C1 C2 1.404(3)
C2 C3 1.384(3)
C2 Br1 1.890(2)
C3 C4 1.381(3)
C3 H3 0.9500
C4 C5 1.381(3)
C4 Cl1 1.744(2)
C5 C6 1.384(3)
C5 H5 0.9500
C6 H6 0.9500
C7 O1 1.214(3)
C7 O2 1.345(2)
C7 N1 1.354(3)
C8 O2 1.439(3)
C8 H8A 0.9800
C8 H8B 0.9800
C8 H8C 0.9800
N1 H1 0.8800
loop_
_geom_hbond_atom_site_label_D
_geom_hbond_atom_site_label_H
_geom_hbond_atom_site_label_A
_geom_hbond_site_symmetry_A
_geom_hbond_distance_DH
_geom_hbond_distance_HA
_geom_hbond_distance_DA
_geom_hbond_angle_DHA
N1 H1 O1 1_655 0.88 2.19 2.885(2) 135.2

_cod_database_fobs_code 1548681
