#------------------------------------------------------------------------------
#$Date: 2017-11-18 08:27:06 +0200 (Sat, 18 Nov 2017) $
#$Revision: 203329 $
#$URL: file:///home/coder/svn-repositories/cod/cif/1/54/81/1548116.cif $
#------------------------------------------------------------------------------
#
# This file is available in the Crystallography Open Database (COD),
# http://www.crystallography.net/. The original data for this entry
# were provided by IUCr Journals, http://journals.iucr.org/.
#
# The file may be used within the scientific community so long as
# proper attribution is given to the journal article from which the
# data were obtained.
#
data_1548116
loop_
_publ_author_name
'Dakovi\'c, Marijana'
'Soldin, \<Zeljka'
'Kukovec, Boris-Marko'
'Kodrin, Ivan'
'Aaker\"oy, Christer B.'
'Baus, Nea'
'Rinkovec, Tamara'
_publ_section_title
;
 Building inorganic supramolecular architectures using principles adopted
 from the organic solid state
;
_journal_issue                   1
_journal_name_full               IUCrJ
_journal_page_first
;
;
_journal_paper_doi               10.1107/S2052252517015494
_journal_volume                  5
_journal_year                    2018
_chemical_formula_sum            'C8 H8 Cd I2 N4 O2'
_chemical_formula_weight         558.38
_space_group_crystal_system      monoclinic
_space_group_IT_number           14
_space_group_name_Hall           '-P 2ybc'
_space_group_name_H-M_alt        'P 1 21/c 1'
_symmetry_space_group_name_Hall  '-P 2ybc'
_symmetry_space_group_name_H-M   'P 1 21/c 1'
_atom_sites_solution_hydrogens   mixed
_audit_creation_method           SHELXL-2014/7
_cell_angle_alpha                90
_cell_angle_beta                 92.307(6)
_cell_angle_gamma                90
_cell_formula_units_Z            2
_cell_length_a                   4.0953(3)
_cell_length_b                   7.8089(6)
_cell_length_c                   21.7078(13)
_cell_measurement_reflns_used    1161
_cell_measurement_temperature    200(2)
_cell_measurement_theta_max      28.4630
_cell_measurement_theta_min      5.5390
_cell_volume                     693.65(8)
_computing_structure_refinement  'SHELXL-2014/7 (Sheldrick, 2014)'
_diffrn_ambient_temperature      200(2)
_diffrn_measured_fraction_theta_full 0.991
_diffrn_measured_fraction_theta_max 0.951
_diffrn_measurement_device_type
'Oxford Diffraction Xcalibur2 diffractometer with Sapphire 3 CCD detector'
_diffrn_measurement_method       \w-scan
_diffrn_radiation_type           MoK\a
_diffrn_radiation_wavelength     0.71073
_diffrn_reflns_av_R_equivalents  0.0260
_diffrn_reflns_av_unetI/netI     0.0419
_diffrn_reflns_Laue_measured_fraction_full 0.991
_diffrn_reflns_Laue_measured_fraction_max 0.951
_diffrn_reflns_limit_h_max       4
_diffrn_reflns_limit_h_min       -5
_diffrn_reflns_limit_k_max       9
_diffrn_reflns_limit_k_min       -4
_diffrn_reflns_limit_l_max       27
_diffrn_reflns_limit_l_min       -13
_diffrn_reflns_number            2578
_diffrn_reflns_point_group_measured_fraction_full 0.991
_diffrn_reflns_point_group_measured_fraction_max 0.951
_diffrn_reflns_theta_full        25.242
_diffrn_reflns_theta_max         26.973
_diffrn_reflns_theta_min         4.576
_exptl_absorpt_coefficient_mu    6.020
_exptl_absorpt_correction_T_max  1.00000
_exptl_absorpt_correction_T_min  0.57280
_exptl_absorpt_correction_type   multi-scan
_exptl_absorpt_process_details
;
CrysAlisPro, Agilent Technologies,
Version 1.171.37.35 (release 13-08-2014 CrysAlis171 .NET)
(compiled Aug 13 2014,18:06:01)
Empirical absorption correction using spherical harmonics,
 implemented in SCALE3 ABSPACK scaling algorithm.
;
_exptl_crystal_colour            colourless
_exptl_crystal_density_diffrn    2.673
_exptl_crystal_description       prism
_exptl_crystal_F_000             508
_exptl_crystal_size_max          0.42
_exptl_crystal_size_mid          0.14
_exptl_crystal_size_min          0.06
_refine_diff_density_max         3.589
_refine_diff_density_min         -1.375
_refine_diff_density_rms         0.325
_refine_ls_extinction_method     none
_refine_ls_goodness_of_fit_ref   1.171
_refine_ls_hydrogen_treatment    mixed
_refine_ls_matrix_type           full
_refine_ls_number_parameters     83
_refine_ls_number_reflns         1480
_refine_ls_number_restraints     1
_refine_ls_restrained_S_all      1.171
_refine_ls_R_factor_all          0.0556
_refine_ls_R_factor_gt           0.0501
_refine_ls_shift/su_max          0.000
_refine_ls_shift/su_mean         0.000
_refine_ls_structure_factor_coef Fsqd
_refine_ls_weighting_details
'w=1/[\s^2^(Fo^2^)+(0.0616P)^2^+13.7038P] where P=(Fo^2^+2Fc^2^)/3'
_refine_ls_weighting_scheme      calc
_refine_ls_wR_factor_gt          0.1437
_refine_ls_wR_factor_ref         0.1491
_reflns_Friedel_coverage         0.000
_reflns_number_gt                1368
_reflns_number_total             1480
_reflns_threshold_expression     'I > 2\s(I)'
_cod_data_source_file            lq5009.cif
_cod_data_source_block           6
_cod_database_code               1548116
_shelx_shelxl_version_number     2014/7
_shelx_space_group_comment
;
The symmetry employed for this shelxl refinement is uniquely defined
by the following loop, which should always be used as a source of
symmetry information in preference to the above space-group names.
They are only intended as comments.
;
_shelx_res_file
;

    shelxl.res created by SHELXL-2014/7


TITL NT6
CELL  0.71073   4.0953   7.8089  21.7078   90.000   92.307   90.000
ZERR     2.00   0.0003   0.0006   0.0013    0.000    0.006    0.000
LATT   1
SYMM  - X, 1/2 + Y, 1/2 - Z
SFAC  C  H  CD   I    N    O
UNIT  16   16   2    4    8    4
MERG   2
OMIT    -1.00  54.00
OMIT 1   2   0
OMIT 1   2   2
OMIT -1   3   2
OMIT 1   1   4
OMIT -1   2   2
OMIT 2   0   0
OMIT -1   1   4
OMIT 1   2   4
TWIN -1 0 -0.001 0 -1 0 0.4 0 1
FMAP   2
PLAN   20
ACTA
HTAB
BOND   $H
CONF
L.S.  10
TEMP   -73.00
DFIX 0.88 N2 H21
EQIV $1 -x+2, y+1/2, -z+3/2
HTAB N2 O1_$1
EQIV $2 -x+2, -y+1, -z+1
HTAB C1 I1_$2
WGHT    0.061600   13.703800
BASF   0.09240
FVAR       4.43175
CD1   3    0.500000    0.500000    0.500000    10.50000    0.02100    0.02076 =
         0.02161    0.00202   -0.00270    0.00034
I1    4    0.970302    0.260564    0.453915    11.00000    0.02021    0.02094 =
         0.03222   -0.00497   -0.00265   -0.00115
N1    5    0.542357    0.344556    0.596933    11.00000    0.03206    0.02373 =
         0.02324    0.00217   -0.00700    0.00060
N2    5    0.778229    0.330485    0.695312    11.00000    0.04709    0.03476 =
         0.01696   -0.00154   -0.00653    0.00046
H21   2    0.898474    0.398107    0.719451    11.00000   -1.20000
O1    6    0.855938    0.085654    0.749144    11.00000    0.09102    0.05632 =
         0.03002    0.01046   -0.02028    0.01784
C1    1    0.676441    0.415887    0.645204    11.00000    0.04925    0.02479 =
         0.02146   -0.00273    0.00130    0.00059
AFIX  43
H1    2    0.704061    0.536672    0.644913    11.00000   -1.20000
AFIX   0
C2    1    0.747970    0.154708    0.702094    11.00000    0.04323    0.03846 =
         0.02530   -0.00303   -0.00176    0.01036
C3    1    0.586199    0.076976    0.649819    11.00000    0.05322    0.02457 =
         0.02769    0.00240   -0.00442   -0.00004
AFIX  43
H3    2    0.543473   -0.042599    0.649818    11.00000   -1.20000
AFIX   0
C4    1    0.493844    0.172326    0.600499    11.00000    0.04145    0.02274 =
         0.02807   -0.00257   -0.00509   -0.00219
AFIX  43
H4    2    0.388931    0.116383    0.566249    11.00000   -1.20000

AFIX   0
HKLF 4

REM  NT6
REM R1 =  0.0501 for    1368 Fo > 4sig(Fo)  and  0.0556 for all    1480 data
REM     83 parameters refined using      1 restraints

END

WGHT      0.0650     13.2008

REM Instructions for potential hydrogen bonds
HTAB N2 O1_$1
HTAB C1 I1_$2
EQIV $3 x-1, y, z
HTAB C4 I1_$3
EQIV $4 -x+1, -y, -z+1
HTAB C4 I1_$4

REM Highest difference peak  3.589,  deepest hole -1.375,  1-sigma level  0.325
Q1    1   0.0000  0.5000  0.5000  10.50000  0.05    3.59
Q2    1   0.4910  0.2641  0.4519  11.00000  0.05    2.89
Q3    1   0.0004  0.1748  0.5420  11.00000  0.05    1.13
Q4    1   1.0033  0.3724  0.4581  11.00000  0.05    1.07
Q5    1   0.5113  0.4998  0.4536  11.00000  0.05    1.05
Q6    1   1.0237  0.3227  0.5444  11.00000  0.05    1.03
Q7    1   0.9830  0.2646  0.4920  11.00000  0.05    0.99
Q8    1   0.2260 -0.0151  0.4952  11.00000  0.05    0.94
Q9    1   1.0038  0.2655  0.4060  11.00000  0.05    0.93
Q10   1   0.5228 -0.0320  0.5894  11.00000  0.05    0.92
Q11   1   0.5113  0.5882  0.4981  11.00000  0.05    0.86
Q12   1   1.0045  0.1542  0.4497  11.00000  0.05    0.82
Q13   1   0.5182  0.1200  0.5584  11.00000  0.05    0.81
Q14   1   0.5167 -0.0352  0.5500  11.00000  0.05    0.76
Q15   1   0.4891  0.5966  0.6338  11.00000  0.05    0.75
Q16   1   1.0560  0.1111  0.6494  11.00000  0.05    0.69
Q17   1   1.1125  0.3611  0.4187  11.00000  0.05    0.68
Q18   1   0.9491 -0.0793  0.6199  11.00000  0.05    0.66
Q19   1   0.9895  0.0699  0.6736  11.00000  0.05    0.66
Q20   1   0.4561  0.0591  0.5252  11.00000  0.05    0.66
;
_shelx_res_checksum              51925
_shelx_hkl_file
;
   0   0  -5 54.7286 54.0755   2
   0   0   5 320.909 162.023   2
   0   0  -6 22882.4 1170.15   2
   0   0   6 22911.0 1196.82   2
   0   0   7 281.253 176.822   2
   0   0  -7-11.7199 90.8224   2
   0   0  -8 7328.75 767.034   2
   0   0   8 7972.02 816.081   2
   0   0   9 137.352 132.977   2
   0   0  10 84806.2 3001.17   2
   0   0  11 581.055 308.203   2
   0   0  12 46738.9 1451.88   3
   0   0  12 47202.2 2468.57   2
   0   0  13 188.452 117.711   3
   0   0  13 4232.65 760.154   2
   0   0  14 8091.04 1084.62   2
   0   0  14 6909.87 598.103   3
   0   0  15 79.8336 244.663   2
   0   0  15 598.468 188.481   3
   0   0  16 23903.0 1998.57   2
   0   0  16 25811.3 2102.97   1
   0   0  16 23201.1 1153.54   3
   0   0  17 665.143 388.111   2
   0   0  17 723.439 249.910   3
   0   0  17 826.006 483.247   1
   0   0  18 70316.3 3684.82   2
   0   0  18 72745.2 3748.35   1
   0   0  19 5190.46 1101.82   1
   0   0  20 365197. 8867.56   1
   0   0  21 8679.45 1512.48   1
   0   0  22 154307. 6046.10   1
   0   0  23 3762.36 1049.39   1
   0   0  24 75339.9 4439.48   1
   0   0  25 1617.75 732.070   1
   0   0  26 20809.4 2428.81   1
   0   0  27 294.741 365.897   1
   0   0  28 2784.00 935.942   1
   0   0  29-359.636 332.574   1
   0  -1   4 703631. 4445.74   1
   0   1  -4 718253. 4598.77   1
   0  -1  -4 702581. 5492.52   2
   0   1   4 722921. 5472.55   2
   0   1  -5 138446. 2345.89   1
   0  -1   5 130952. 2178.20   1
   0  -1  -5 133581. 2622.65   2
   0   1   5 136170. 2636.13   2
   0  -1  -5 140130. 2180.31   3
   0  -1  -6 545267. 5818.18   2
   0  -1   6 543110. 5028.21   1
   0   1   6 552513. 5850.21   2
   0  -1  -6 553795. 4436.15   3
   0  -1   7 103125. 2406.45   1
   0  -1  -7 101674. 2718.39   2
   0   1   7 105761. 2839.95   2
   0   1  -7 100936. 2758.72   2
   0  -1  -7 103779. 1979.06   3
   0  -1   8 436644. 5365.84   1
   0   1   8 420497. 5877.89   2
   0  -1   9 87761.4 2594.14   1
   0   1   9 84590.1 2782.60   2
   0   1  10 29406.4 1750.52   2
   0  -1  10 28759.5 1581.52   1
   0  -1  11 66783.5 2540.41   1
   0   1  11 71471.9 2902.64   2
   0   1  12 74369.6 3137.18   2
   0  -1  12 73713.5 2805.45   1
   0  -1  13 48115.2 2386.80   1
   0   1  13 49991.3 2695.95   2
   0   1  14 155588. 4880.29   2
   0  -1  14 139394. 4220.11   1
   0   1  15 56045.7 3038.48   2
   0  -1  15 54732.7 2765.10   1
   0   1  16 215470. 6127.15   2
   0  -1  16 215510. 5647.47   1
   0   1  17 44993.0 2920.29   2
   0  -1  17 40127.1 2539.00   1
   0  -1  18 57219.2 3124.81   1
   0   1  18 63116.8 3584.95   2
   0   1  19 33498.9 2728.94   2
   0  -1  19 31938.7 2395.21   1
   0  -1  20 15551.6 1723.21   1
   0   1  20 17475.7 2017.99   2
   0   1  21 37109.0 2946.03   2
   0  -1  21 36377.6 2735.13   1
   0   1  21 34120.1 2935.98   1
   0  -1  22 3086.04 852.890   1
   0   1  22 2630.42 846.847   1
   0   1  22 2832.19 861.646   2
   0  -1  23 23110.5 2279.18   1
   0   1  23 23440.4 2447.55   2
   0   1  23 23126.1 2511.33   1
   0  -1  24 21648.0 2271.90   1
   0   1  24 19642.4 2381.33   1
   0   1  24 20966.7 2393.67   2
   0  -1  25 9849.33 1565.94   1
   0   1  25 10778.4 1799.91   1
   0  -1  26 31322.4 2844.93   1
   0   1  26 31958.9 3131.67   1
   0  -1  27 10803.6 1703.96   1
   0   1  27 9662.19 1778.64   1
   0   1  28 28248.0 3059.78   1
   0   2   0 205642. 2784.61   2
   0  -2  -1 13423.8 725.020   2
   0   2   1 12959.5 695.667   2
   0   2   2 133081. 2319.49   2
   0  -2  -2 135763. 2368.24   2
   0   2   3 792.438 200.918   2
   0   2  -3 853.568 150.504   1
   0  -2  -3 624.887 178.195   2
   0   2  -4 3041.58 299.216   1
   0   2   4 3486.67 416.687   2
   0  -2  -4 3119.46 398.276   2
   0  -2  -5 45453.4 1635.60   2
   0  -2   5 43695.4 1240.79   1
   0   2   5 45314.0 1631.57   2
   0   2  -5 43137.7 1230.49   1
   0  -2  -6 248506. 4198.07   2
   0   2   6 260618. 4155.28   2
   0  -2   6 255909. 3269.04   1
   0   2  -6 252729. 3258.79   1
   0   2   7 481.176 209.198   2
   0  -2   7 442.939 149.839   1
   0   2  -7 238.539 98.7287   1
   0   2  -8 742492. 6764.94   1
   0  -2   8 725779. 6404.85   1
   0   2   8 731715. 7926.67   2
   0   2   9 18716.4 1341.05   2
   0  -2   9 17192.1 1044.08   1
   0  -2  -9 17896.4 1069.04   3
   0  -2 -10 450972. 5365.13   3
   0  -2  10 438230. 5660.31   1
   0   2  10 446251. 6947.14   2
   0  -2  11 7193.80 774.923   1
   0  -2 -11 7481.75 702.123   3
   0  -2  12 615128. 7558.36   1
   0  -2 -12 623396. 6468.39   3
   0   2  12 618013. 8917.85   2
   0   2  13 902.085 606.530   2
   0  -2  13 996.952 378.262   1
   0  -2  14 292079. 5684.28   1
   0   2  14 295089. 6651.17   2
   0  -2  15 7504.44 950.687   1
   0   2  15 8528.40 1194.46   2
   0  -2  16 55672.0 2698.09   1
   0   2  16 60704.8 3336.20   2
   0  -2  17 921.908 379.497   1
   0   2  17 921.186 428.778   2
   0   2  18 69.3010 88.0187   2
   0  -2  18 376.004 290.627   1
   0  -2  19 190.490 170.452   1
   0   2  19 332.134 262.373   2
   0  -2  20 12642.8 1470.98   1
   0   2  20 12846.9 1708.23   2
   0   2  21 1871.42 704.277   2
   0  -2  21 2072.20 638.314   1
   0  -2  22 14124.3 1654.49   1
   0   2  22 15303.6 1983.71   2
   0  -2  23 528.557 323.018   1
   0   2  23-141.809 45.9182   2
   0   2  24 2931.34 911.321   2
   0   2  24 2266.01 826.489   1
   0  -2  24 2203.32 697.682   1
   0  -2  25 2336.43 735.107   1
   0   2  25 1552.83 728.610   2
   0   2  25 2078.62 827.557   1
   0   2  26 2433.91 911.371   1
   0   2  26 1808.75 714.686   2
   0   2  27 175.618 327.248   1
   0   3   0 227.389 101.107   2
   0   3  -1 28381.7 1272.47   2
   0   3   1 29485.8 1289.72   2
   0   3   2 265514. 3956.90   2
   0  -3  -2 281088. 4155.01   2
   0   3   3 73461.9 2112.61   2
   0  -3  -3 75777.6 2196.90   2
   0   3  -4 296984. 3509.85   1
   0   3   4 314800. 4517.95   2
   0   3  -5 84602.5 1889.87   1
   0   3   5 88639.7 2517.03   2
   0   3  -6 326404. 3873.24   1
   0   3   6 339655. 5149.88   2
   0   3   7 142602. 3476.16   2
   0   3  -7 133145. 2624.84   1
   0   3  -8 231770. 3657.57   1
   0   3   8 238278. 4718.43   2
   0   3  -9 146262. 3103.94   1
   0   3   9 149054. 3918.84   2
   0  -3   9 144885. 3001.17   1
   0   3  10 19967.7 1499.19   2
   0   3 -10 19142.6 1221.14   1
   0  -3  10 19695.8 1152.07   1
   0   3  11 100616. 3499.07   2
   0  -3  11 102943. 2798.25   1
   0  -3  12 50515.6 2070.32   1
   0   3  12 52237.7 2645.52   2
   0   3  13 92575.1 3687.51   2
   0  -3  13 84441.8 2776.65   1
   0   3  14 110010. 4257.30   2
   0  -3  14 100961. 3188.61   1
   0  -3  15 45889.7 2215.29   1
   0   3  15 46043.0 2755.65   2
   0   3  16 119595. 4585.14   2
   0  -3  16 119921. 3766.10   1
   0   3  17 21386.4 2037.92   2
   0  -3  17 21031.8 1646.78   1
   0  -3  18 101769. 3781.48   1
   0   3  18 107779. 4704.39   2
   0  -3  19 14516.6 1494.61   1
   0   3  19 14607.2 1835.29   2
   0  -3  20 24042.8 1982.29   1
   0   3  20 24112.5 2406.81   2
   0  -3  21 3453.97 766.512   1
   0   3  21 3104.94 896.687   2
   0  -3  22 2712.47 700.792   1
   0   3  22 2738.71 862.023   2
   0   3  23 8690.69 1546.08   2
   0   3  24 12638.6 1925.09   2
   0   3  25 8438.47 1633.89   2
   0   4   0 454125. 5899.61   2
   0   4   1 682.277 167.715   2
   0   4  -1 663.238 220.765   2
   0   4  -2 697207. 7401.92   2
   0   4   2 688727. 7313.92   2
   0   4   3 36234.5 1708.97   2
   0   4   4 284912. 4861.06   2
   0   4  -5 11795.5 787.065   1
   0   4   5 11668.3 1008.98   2
   0   4  -6 46274.9 1607.30   1
   0   4   6 49190.0 2127.45   2
   0   4  -7 16652.7 980.478   1
   0   4   7 18633.9 1365.83   2
   0   4   8 11643.3 1115.94   2
   0   4  -8 11366.1 835.868   1
   0   4  -9 843.184 231.868   1
   0   4   9 1132.89 370.784   2
   0   4 -10 65093.6 2214.50   1
   0   4  10 70292.6 2945.61   2
   0   4  11 14.9185 43.0313   2
   0   4  12 45300.0 2542.32   2
   0   4  13 16623.7 1591.67   2
   0  -4  14 1115.73 331.245   1
   0   4  14 1113.39 446.303   2
   0   4  15 5893.46 1023.85   2
   0  -4  15 5667.02 769.807   1
   0   4  16 24058.1 2163.54   2
   0  -4  16 22444.5 1602.47   1
   0   4  17 12247.9 1560.00   2
   0  -4  17 12511.8 1240.39   1
   0  -4  18 103699. 3648.14   1
   0   4  18 103690. 4650.01   2
   0  -4  19 369.143 307.574   1
   0   4  19 420.765 388.087   2
   0   4  20 87397.9 4567.06   2
   0   4  21 1317.75 732.588   2
   0   4  22 117373. 5738.60   2
   0   4  23 2065.14 917.473   2
   0   4  24 67055.5 4546.23   2
   0   5   0 64.3375 179.390   2
   0   5   1 170740. 4087.83   2
   0   5  -1 173975. 4170.58   2
   0   5   2 132062. 3615.91   2
   0   5  -2 141678. 3814.36   2
   0   5  -3 114027. 3411.91   2
   0   5   3 116452. 3414.44   2
   0   5   4 207434. 4612.17   2
   0   5   5 71648.2 2742.36   2
   0   5   6 265314. 5449.80   2
   0   5   7 14285.3 1289.83   2
   0   5   8 50008.0 2502.75   2
   0   5   9 2159.18 538.504   2
   0   5  10 8482.70 1086.00   2
   0   5  11 4096.82 798.892   2
   0   5  12 414.726 232.650   2
   0   5  13 6722.04 1051.88   2
   0   5  14 76506.5 3670.02   2
   0   5  15 24067.6 2137.64   2
   0   5  16 88340.4 4239.80   2
   0   5  17 37770.4 2864.25   2
   0   5  18 63819.2 3865.68   2
   0   5  19 40069.4 3062.84   2
   0   5  20 10244.0 1594.84   2
   0   5  21 33881.6 2976.00   2
   0   5  22 967.864 562.372   2
   0   5  23 20391.6 2500.58   2
   0   6   0 40494.4 2224.41   2
   0   6  -1 3120.92 618.176   2
   0   6   1 3232.10 602.859   2
   0   6  -2 17479.0 1477.77   2
   0   6   2 16658.9 1430.07   2
   0   6  -3 33144.0 2103.28   2
   0   6   3 27862.5 1840.19   2
   0   6   4 242.700 150.345   2
   0   6  -4 298.931 192.346   2
   0   6   5 26133.6 1828.14   2
   0   6   6 44085.2 2428.65   2
   0   6   7 14588.2 1419.26   2
   0   6   8 125021. 4290.34   2
   0   6   9 4304.69 836.237   2
   0   6  10 424401. 8166.80   2
   0   6  11 1307.17 538.084   2
   0   6  12 179084. 5618.69   2
   0   6  13 4612.96 930.376   2
   0   6  14 86610.0 4140.29   2
   0   6  15 10660.7 1484.10   2
   0   6  16 22777.7 2227.68   2
   0   6  17 8991.39 1452.74   2
   0   6  18 1304.87 538.379   2
   0   6  19 850.530 434.049   2
   0   6  20 1022.75 469.093   2
   0   6  21 516.143 372.833   2
   0   6  22 3200.75 975.207   2
   0   7   0-107.046 149.658   2
   0   7   1 405.811 228.066   2
   0   7  -1 263.909 118.987   2
   0   7  -2 49588.0 2713.63   2
   0   7   2 48654.4 2680.37   2
   0   7   3 2623.01 629.416   2
   0   7  -3 3054.56 667.952   2
   0   7   4 94911.5 3779.61   2
   0   7  -4 99867.6 3996.07   2
   0   7  -5 19378.7 1787.97   2
   0   7   5 18474.4 1665.09   2
   0   7  -6 118702. 4424.86   2
   0   7   6 113641. 4245.78   2
   0   7   7 58681.1 3096.23   2
   0   7   8 28338.7 2186.21   2
   0   7   9 83601.6 3835.15   2
   0   7  10 5083.83 966.486   2
   0   7  11 80539.5 3888.77   2
   0   7  12 623.133 372.324   2
   0   7  13 50120.1 3234.20   2
   0   7  14 35683.9 2807.42   2
   0   7  15 12324.4 1684.72   2
   0   7  16 47535.6 3350.65   2
   0   7  17 3819.01 957.929   2
   0   7  18 39659.9 3213.54   2
   0   7  19 286.496 392.232   2
   0   7  20 11336.6 1850.94   2
   0   8   0 143748. 5037.62   2
   0   8  -1 3681.13 791.767   2
   0   8   1 3732.75 804.498   2
   0   8   2 155847. 5231.64   2
   0   8  -2 161292. 5380.14   2
   0   8   3 13953.2 1573.39   2
   0   8  -3 14657.8 1632.90   2
   0   8  -4 78658.6 3823.43   2
   0   8   4 74656.3 3672.19   2
   0   8   5 29058.9 2277.55   2
   0   8  -5 30319.1 2395.27   2
   0   8   6 7399.32 1159.87   2
   0   8  -6 8125.23 1242.75   2
   0   8   7 11495.8 1451.77   2
   0   8  -7 12736.4 1601.13   2
   0   8  -8 1553.79 537.876   2
   0   8   8 1202.84 420.621   2
   0   8   9 1682.51 568.930   2
   0   8  -9 1996.97 651.854   2
   0   8  10 7352.65 1233.68   2
   0   8  11 1265.84 509.108   2
   0   8  12 9219.32 1437.27   2
   0   8  13 4051.83 973.527   2
   0   8  14 355.515 319.398   2
   0   8  15 15661.9 1989.79   2
   0   8  16 5605.08 1212.33   2
   0   8  17 7007.79 1384.40   2
   0   9   0 123.135 207.912   2
   0   9   1 70938.5 3825.52   2
   0   9  -1 73850.8 3935.23   2
   0   9   2 18903.8 1964.28   2
   0   9  -2 19433.9 2033.74   2
   0   9   3 39883.5 2877.21   2
   0   9  -3 40117.4 2941.96   2
   0   9  -4 33372.1 2703.73   2
   0   9   4 30662.7 2527.36   2
   0   9   5 11235.8 1543.21   2
   0   9  -5 12613.1 1664.13   2
   0   9   6 36401.0 2801.90   2
   0   9  -6 35541.5 2841.35   2
   0   9  -7 1712.07 617.433   2
   0   9   7 1239.05 547.320   2
   0   9   8 36507.7 2881.12   2
   0   9  -8 40945.4 3146.04   2
   0   9  -9 0.51070 164.983   2
   0   9   9 426.088 278.882   2
   0   9 -10 3742.44 964.131   2
   0   9  10 3648.72 957.175   2
   0   9  11 847.158 402.438   2
   0   9 -11 582.159 379.499   2
   0   9 -12 5508.11 1225.46   2
   0   9  12 4110.97 998.688   2
   0   9 -13 857.274 477.403   2
   0   9  13 214.275 233.180   2
   0  10   0 9849.88 1522.29   2
   0  10  -1 828.895 314.270   2
   0  10   1 727.706 368.960   2
   0  10  -2 1746.83 573.778   2
   0  10   2 2248.34 656.936   2
   0  10   3 8786.76 1446.60   2
   0  10  -3 10035.2 1594.04   2
   0  10  -4 142.021 185.570   2
   0  10   4 48.6438 267.952   2
   0  10   5 16631.0 2035.74   2
   0  10  -5 14416.9 1928.96   2
   0  10   6 13345.2 1843.49   2
   0  10  -6 14038.9 1924.92   2
   0  10   7 15900.4 2046.15   2
   0  10  -7 15122.8 2015.35   2
   0  10  -8 40593.5 3319.17   2
   0  10   8 36955.5 3124.82   2
  -1   0  26 446.312 336.891   1
  -1   0  25 173.509 192.671   1
  -1   0  24 17289.7 2042.74   1
  -1   0  23-28.5267 95.0123   2
  -1   0  22 1812.27 708.775   2
  -1   0  21 518.594 457.792   2
  -1   0  20 2958.16 787.961   2
  -1   0  20 2217.43 549.926   3
  -1   0  19 200.671 205.796   2
  -1   0  19 70.0839 52.2166   3
  -1   0  18 411.377 183.276   3
  -1   0  18 88.3219 90.4437   2
  -1   0  17-97.5602 156.955   3
  -1   0  17 193.614 217.741   2
  -1   0  16 72228.0 3512.97   2
  -1   0  16 67082.4 2795.67   3
  -1   0  15 1065.00 597.218   2
  -1   0  14 277551. 6442.09   2
  -1   0  13 2211.44 758.183   2
  -1   0  12 559583. 8478.21   2
  -1   0  11 2758.27 711.065   2
  -1   0  10 654786. 8172.68   2
  -1   0   9 508.790 396.913   2
   1   0  -8 360723. 5386.87   2
  -1   0   8 365944. 5385.84   2
   1   0  -7 110.130 120.571   2
  -1   0   7 445.524 231.698   2
   1   0  -6 123352. 2673.22   2
  -1   0   6 126000. 2767.87   2
   1   0  -5 153.626 90.1775   2
  -1   0   5 71.6618 89.3867   2
  -1   0   4 311663. 3531.94   2
   1   0  -4 313812. 3505.36   2
   1   0  -3 173.013 71.8036   2
  -1   0   3 109.462 66.1544   2
   1   0  -2 858.667 143.409   2
  -1   0   2 848.740 145.078   2
  -1   0   1 758.364 124.631   2
  -1   0   1 725.145 160.605   1
   1   0  -1 717.874 121.981   2
  -1   0   0 50776.5 1393.72   1
  -1   0   0 52293.4 973.476   2
   1   0   1 320.859 134.778   1
  -1   0  -1 308.799 118.780   1
   1   0   2 104504. 2234.75   1
  -1   0  -2 101369. 2216.88   1
  -1   0  -3-54.2332 93.9939   1
   1   0   3 1423.17 284.976   1
   1   0   4 9571.44 790.109   1
  -1   0  -4 8601.32 740.155   1
  -1   0  -5 210.318 117.716   2
   1   0   5 218.039 144.008   1
  -1   0  -5 147.894 60.5509   3
  -1   0  -5 62.7305 107.125   1
  -1   0  -6 233884. 2301.88   3
   1   0   6 243257. 4476.79   1
  -1   0  -6 236681. 3972.63   2
  -1   0  -6 241928. 4531.68   1
   1   0   7 60.1753 254.140   1
  -1   0  -7 205.778 206.919   2
   1   0   8 600607. 7854.42   1
   1   0   9 260.524 395.127   1
   1   0  10 727675. 9537.53   1
   1   0  11 1275.53 659.759   1
   1   0  12 428548. 7904.88   1
   1   0  13 1362.13 614.456   1
   1   0  14 218031. 6071.83   1
   1   0  15 367.876 361.678   1
   1   0  16 776.850 475.172   1
   1   0  17-213.630 209.916   1
   1   0  18 623.275 327.398   1
   1   0  19 80.6130 223.486   1
   1   0  20 3379.86 905.664   1
   1   0  21 219.921 293.001   1
   1   0  22 15092.7 1981.81   1
   1   0  23 378.339 357.807   1
   1   0  24 1213.67 565.561   1
   1   0  25-232.219 219.964   1
   1   0  26 2843.33 947.553   1
   1   0  27 255.083 346.843   1
  -1   1  28 14858.1 2154.06   1
  -1   1  27 6262.40 1414.70   1
  -1   1  26 12261.9 1917.45   2
  -1   1  25 6717.22 1407.00   2
  -1  -1  24 12856.5 1659.29   1
  -1   1  24 14420.2 2033.42   2
  -1  -1  23 20319.8 2046.82   1
  -1   1  23 17089.4 2148.23   2
  -1  -1  22 2184.79 655.776   1
  -1   1  22 1573.95 710.567   2
  -1   1  21 10463.3 1596.90   2
  -1  -1  21 11297.6 1467.14   1
  -1  -1  20 56938.1 3169.07   1
  -1   1  20 53183.4 2711.04   3
  -1   1  20 52814.5 3445.11   2
  -1   1  19 19198.0 2049.49   2
  -1  -1  19 17887.2 1730.23   1
  -1   1  19 16422.9 1499.62   3
  -1   1  18 95585.1 3561.29   3
  -1   1  18 89658.5 4288.92   2
  -1   1  17 28018.5 1899.96   3
  -1   1  17 28214.2 2370.84   2
  -1   1  16 152060. 5240.05   2
  -1   1  16 157541. 4428.43   3
  -1  -1  16 148482. 4944.47   2
  -1   1  15 50252.2 2454.21   3
  -1  -1  15 50224.4 2755.19   2
  -1   1  15 49383.9 2840.57   2
  -1  -1  14 65119.8 3052.08   2
  -1   1  14 62702.1 2665.47   3
  -1   1  14 59888.3 2957.04   2
  -1   1  13 44619.8 2214.98   3
  -1  -1  13 42580.9 2362.97   2
  -1   1  13 41634.0 2367.97   2
  -1   1  12 444.517 290.810   3
  -1  -1  12 924.296 510.178   2
  -1   1  12 186.293 456.287   2
  -1   1  11 104719. 3263.09   3
  -1   1  11 107485. 3555.31   2
  -1  -1  11 106577. 3418.93   2
  -1  -1  10 31219.3 1780.24   2
  -1   1  10 30685.2 1778.69   2
  -1   1  10 32172.9 1788.65   3
  -1   1   9 85211.6 2820.95   2
  -1   1   9 90289.9 2903.03   3
  -1  -1   9 90916.1 2906.94   2
  -1   1   8 232188. 4569.02   3
  -1  -1   8 235049. 4383.37   2
  -1   1   8 236311. 4398.92   2
  -1  -1   7 116468. 2854.12   2
  -1   1   7 112363. 2866.81   2
  -1   1   7 114242. 3153.33   3
   1   1  -6 282170. 4181.83   2
  -1  -1   6 297296. 4195.11   2
   1  -1  -6 293296. 4419.70   2
  -1   1   6 288981. 4864.76   3
  -1   1   6 287622. 4301.35   2
   1   1  -5 40578.6 1453.54   2
  -1   1   5 44737.8 1862.61   3
   1  -1  -5 41963.2 1563.41   2
  -1  -1   5 42451.1 1451.88   2
  -1   1   5 39934.4 1510.58   2
  -1   1   4 396766. 4412.33   2
   1  -1  -4 407689. 4565.45   2
  -1   1   4 404197. 5472.06   3
  -1  -1   4 394427. 3821.70   2
  -1   1   3 178051. 2782.22   2
   1   1  -3 174115. 2144.45   2
  -1   1   3 185167. 3582.90   3
   1  -1  -3 177613. 2844.42   2
  -1  -1   3 172813. 2084.85   2
  -1  -1   3 182082. 1892.52   1
  -1  -1   2 349820. 2827.95   1
  -1   1   2 349057. 3729.55   2
   1  -1  -2 356645. 3816.47   2
   1  -1  -1 62795.4 2015.82   3
  -1   1   1 62836.9 2000.53   3
  -1  -1   1 63338.6 1342.93   1
   1   1  -1 63239.9 1279.19   1
  -1   1   1 61601.2 1511.40   2
   1  -1  -1 59169.2 1506.39   2
   1   1   0 147638. 2219.33   1
  -1   1   0 147512. 2952.31   3
   1  -1   0 141208. 2942.66   3
  -1  -1   0 145070. 2309.04   1
  -1   1   0 144881. 2334.79   2
   1   1   1 98628.9 2065.18   1
  -1   1  -1 102139. 2382.04   3
   1  -1   1 103703. 2467.61   3
  -1   1  -1 96487.3 2193.02   1
  -1  -1  -1 99295.4 2122.94   1
  -1  -1  -2 257005. 2341.37   2
   1  -1   2 249828. 3728.26   3
   1   1   2 263323. 3682.48   1
  -1   1  -2 257357. 3697.52   1
  -1  -1  -2 262881. 3819.45   1
  -1   1  -2 259771. 3701.58   3
  -1   1  -3 61757.7 1868.98   1
   1  -1   3 68916.2 2001.19   1
   1  -1   3 65453.2 1855.63   3
  -1  -1  -3 66088.3 1480.65   2
   1   1   3 66496.9 2038.08   1
   1   1   3 64015.1 1429.66   2
   1   1   4 525648. 4860.31   2
  -1  -1  -4 524458. 4835.17   2
  -1   1  -4 565058. 5931.26   1
   1  -1   4 534904. 5115.76   3
   1  -1   4 579734. 6168.90   1
   1   1   4 565466. 6487.71   1
  -1   1  -5 144301. 3163.44   1
   1  -1   5 145540. 2601.59   3
   1  -1   5 146661. 3234.52   1
   1   1   5 145401. 3520.99   1
  -1  -1  -5 141517. 2767.74   2
   1   1   5 138992. 2801.06   2
   1  -1   6 292064. 4790.85   1
   1   1   6 297695. 5351.19   1
   1  -1   6 288665. 3538.13   3
  -1  -1  -6 278970. 4258.29   2
   1   1   6 284241. 4407.13   2
   1   1   7 65808.7 2657.42   1
   1  -1   7 65219.5 1616.32   3
   1   1   7 68993.7 2317.88   2
   1  -1   7 62066.8 2342.48   1
  -1  -1  -7 61636.1 2173.00   2
   1   1   8 71109.1 2929.53   1
   1  -1   8 72126.4 1639.77   3
   1   1   8 75681.9 2597.05   2
   1  -1   8 71315.9 2629.96   1
   1  -1   9 140358. 2171.37   3
   1  -1   9 135331. 3784.28   1
   1   1   9 141988. 4301.92   1
   1   1   9 142924. 3805.32   2
   1  -1  10 4300.15 360.630   3
   1   1  10 4573.27 743.282   2
   1  -1  10 5148.99 797.484   1
   1   1  10 4618.98 807.114   1
   1  -1  11 62930.4 1249.11   3
   1   1  11 68040.0 3225.98   1
   1  -1  11 67533.5 2911.31   1
   1   1  11 66710.2 2795.04   2
   1  -1  12 53580.9 2685.73   1
   1   1  12 55688.4 3043.56   1
   1   1  12 53378.7 2632.50   2
   1  -1  13 70206.9 3193.37   1
   1   1  13 73434.8 3203.26   2
   1   1  13 73063.8 3585.06   1
   1  -1  14 107217. 4109.86   1
   1   1  14 108870. 4062.24   2
   1   1  14 116386. 4663.21   1
   1  -1  15 26770.7 2115.95   1
   1   1  15 26220.2 2074.50   2
   1   1  15 26708.9 2325.45   1
   1  -1  16 135057. 4887.65   1
   1   1  16 137206. 4946.44   2
   1   1  16 147152. 5556.67   1
   1  -1  17 31887.0 2467.04   1
   1   1  17 30527.5 2583.09   1
   1  -1  18 129081. 5070.77   1
   1   1  18 137038. 5668.49   1
   1  -1  19 15606.8 1816.81   1
   1   1  19 13746.1 1847.08   1
   1  -1  20 1479.03 630.331   1
   1   1  20 1823.97 706.799   1
   1  -1  21 19776.4 2171.59   1
   1   1  21 20338.6 2344.81   1
   1  -1  22 5393.89 1161.74   1
   1   1  22 4811.16 1171.31   1
   1  -1  23 8988.82 1547.81   1
   1   1  23 10116.1 1747.98   1
   1  -1  24 29410.6 2852.30   1
   1   1  24 27956.8 2923.31   1
   1  -1  25 15653.1 2126.58   1
   1   1  25 15793.4 2258.92   1
   1  -1  26 24932.6 2745.49   1
   1   1  26 27950.7 3053.53   1
   1  -1  27 6306.10 1445.71   1
   1   1  27 6749.28 1536.76   1
   1  -1  28 10351.3 1856.49   1
  -1   2  26 29549.5 3060.80   2
  -1   2  25 3606.12 1155.50   2
  -1   2  24 73091.6 4584.83   2
  -1   2  23 3858.97 1127.79   2
  -1   2  22 124013. 5675.67   2
  -1  -2  21 1833.09 603.629   1
  -1   2  21 3076.02 1034.06   2
  -1   2  20 108288. 5090.07   2
  -1  -2  20 114353. 4069.26   1
  -1  -2  19 1270.93 468.091   1
  -1   2  19 1652.24 884.692   2
  -1   2  18 55819.2 3368.88   2
  -1  -2  18 61213.6 2775.00   1
  -1  -2  17 1151.50 371.580   1
  -1   2  17 434.332 383.824   2
  -1  -2  16 6860.40 857.085   1
  -1   2  16 5978.58 1037.50   2
  -1  -2  15 5726.43 737.565   1
  -1   2  15 3961.14 808.698   2
  -1  -2  14 1036.62 323.707   1
  -1   2  14 706.595 331.126   2
  -1   2  13 219.630 195.666   2
  -1  -2  13 112.482 140.512   1
  -1   2  12 96036.7 3500.07   2
  -1  -2  12 98066.1 2587.79   1
  -1   2  11 1650.26 501.993   3
  -1  -2  11 1593.38 309.176   1
  -1   2  11 1037.88 367.145   2
  -1   2  10 65834.4 2676.07   2
  -1  -2  10 67072.0 1784.34   1
  -1   2  10 67693.9 2831.88   3
  -1   2   9 3305.55 599.826   2
  -1   2   9 3549.97 646.701   3
  -1  -2   9 3752.76 374.423   1
   1   2  -8 161.298 140.221   2
  -1   2   8-2.46917 185.196   2
  -1  -2   8 382.255 109.750   1
  -1   2   8 412.266 345.103   3
   1   2  -7 145.588 178.524   2
  -1   2   7 56.7044 38.5100   2
  -1   2   6 101364. 2748.47   2
   1   2  -6 103011. 2566.94   2
  -1   2   5 22215.9 1242.63   2
   1   2  -5 23167.0 1132.61   2
   1  -2  -4 445591. 5476.35   2
  -1   2   4 443842. 5329.33   2
  -1   2   3 4684.14 530.240   2
   1  -2  -3 4353.08 511.037   2
   1   2  -2 798626. 3893.79   1
  -1   2   2 794723. 6788.76   2
  -1   2   1 51.9241 106.834   2
   1   2  -1 193.447 48.6890   2
   1   2  -1 267.230 115.621   1
   1   2   0 848153. 3852.90   2
  -1   2   0 856000. 7050.42   2
   1   2   1 14247.2 556.604   2
   1  -2   1 12728.0 1077.03   3
  -1  -2  -1 14117.7 542.758   2
   1   2   1 13414.1 869.117   1
   1   2   2 554185. 4007.15   2
   1   2   2 530914. 6016.02   1
  -1  -2  -2 563533. 3794.40   2
  -1   2  -2 540968. 5834.26   1
  -1   2  -3 595.967 191.696   1
   1   2   3 767.668 166.331   2
  -1  -2  -3 581.466 137.227   2
  -1  -2  -4 170884. 2662.28   2
   1   2   4 173540. 2899.92   2
  -1  -2  -5 18108.8 982.332   2
   1   2   5 18575.0 1060.19   2
   1  -2   5 17176.2 1143.97   1
  -1  -2  -6 64173.7 1982.53   2
   1  -2   6 63282.0 2254.28   1
   1   2   6 63651.9 2073.14   2
  -1  -2  -7 268.011 151.015   2
   1  -2   7 106.330 91.2477   1
   1   2   7 331.467 175.192   2
   1  -2   8 75846.7 2685.51   1
   1   2   8 76688.1 2662.55   2
   1   2   9 996.707 328.426   2
   1  -2   9 1025.50 328.504   1
   1   2  10 118885. 3733.77   2
   1  -2  10 109807. 3481.41   1
   1   2  11 2257.93 564.493   2
   1  -2  11 2180.43 547.416   1
   1  -2  12 22609.5 1715.43   1
   1   2  12 23692.3 1806.87   2
   1  -2  13 614.055 313.605   1
   1   2  13 586.689 360.997   1
   1   2  13 354.659 250.761   2
  -1  -2 -13 752.625 156.262   3
   1   2  14 1378.70 541.130   1
   1   2  14 869.450 382.652   2
   1  -2  14 925.052 401.073   1
   1  -2  15 4351.48 829.270   1
   1   2  15 5278.45 941.777   2
   1   2  15 6095.72 1145.56   1
   1   2  16 53402.0 3534.12   1
   1  -2  16 49118.7 2876.53   1
   1   2  16 51846.2 3128.38   2
   1   2  17 988.590 509.911   1
   1  -2  17 1295.32 559.812   1
   1   2  18 129329. 5759.36   1
   1   2  18 121844. 5057.24   2
   1  -2  18 124346. 4862.92   1
   1   2  19 2862.20 941.529   1
   1   2  19 3126.91 938.220   2
   1  -2  19 3170.27 1007.04   1
   1   2  20 162199. 6797.72   1
   1  -2  20 152433. 5676.14   1
   1   2  20 153314. 5936.48   2
   1   2  21 2462.76 884.759   2
   1  -2  21 2129.28 1047.09   1
   1   2  21 1903.48 876.373   1
   1   2  22 121166. 5556.19   2
   1  -2  22 113665. 5193.05   1
   1   2  22 120422. 6085.45   1
   1  -2  23 2371.02 895.887   1
   1   2  23 795.658 594.454   1
   1   2  24 51921.0 4159.85   1
   1  -2  24 48859.7 3591.68   1
   1   2  25 789.172 512.871   1
   1  -2  25 1502.10 738.788   1
   1   2  26 25365.7 3002.75   1
   1  -2  26 23583.9 2629.10   1
   1  -2  27 419.454 445.992   1
   1  -2  28 635.780 436.723   1
  -1   3  25 14170.5 2125.60   2
  -1   3  24 5826.27 1358.58   2
  -1   3  23 13467.5 1961.43   2
  -1   3  22 2472.77 874.077   2
  -1   3  21 26182.2 2533.09   2
  -1   3  20 13661.7 1769.85   2
  -1   3  19 33639.7 2689.86   2
  -1  -3  18 74059.6 2740.65   1
  -1   3  18 72458.3 3844.54   2
  -1   3  17 32723.9 2614.88   2
  -1  -3  17 31104.0 1686.92   1
  -1  -3  16 108509. 2974.49   1
  -1   3  16 111924. 4522.25   2
  -1  -3  15 27385.4 1398.74   1
  -1   3  15 30540.7 2282.67   2
  -1   3  14 57952.1 3015.61   2
  -1  -3  14 59224.4 1900.28   1
  -1   3  13 9175.65 1161.58   2
  -1  -3  13 8702.36 667.492   1
  -1  -3  12 237.215 105.053   1
  -1   3  12 144.033 129.094   2
  -1   3  11 11818.2 1221.94   2
  -1  -3  11 11545.5 610.351   1
  -1   3  10 17678.5 1446.63   2
  -1  -3  10 18387.7 643.969   1
  -1   3   9 29003.8 1787.96   2
  -1   3   8 205300. 4603.80   2
  -1   3   7 38567.4 1917.44   2
  -1   3   6 327483. 5423.34   2
  -1   3   5 99422.3 2909.38   2
  -1   3   4 235440. 4360.32   2
  -1   3   3 123445. 3102.67   2
  -1   3   2 7470.27 755.770   2
  -1   3   1 136841. 3216.56   2
   1   3  -1 140384. 2272.18   2
   1   3   0 224.050 57.6570   2
  -1   3   0 253.497 113.119   2
   1   3   1 166738. 2530.76   2
  -1   3  -1 169691. 3610.68   2
   1   3   2 194964. 2930.41   2
  -1  -3  -2 193070. 2928.19   2
   1   3   3 116320. 2425.15   2
  -1  -3  -3 115957. 2315.27   2
   1   3   4 332343. 4348.54   2
  -1  -3  -4 332756. 4197.59   2
   1   3   5 73694.2 2195.26   2
  -1  -3  -5 73405.7 2077.26   2
   1   3   6 312200. 4854.70   2
  -1  -3  -6 316056. 4641.89   2
   1   3   7 31167.8 1635.81   2
   1   3   8 45962.0 2141.86   2
   1  -3   9 12890.7 1176.54   1
   1   3   9 15491.7 1314.52   2
   1  -3  10 11619.4 1132.34   1
   1   3  10 12082.2 1186.54   2
   1  -3  11 12693.8 1239.27   1
   1   3  11 15918.4 1408.54   2
   1  -3  12 43869.5 2360.33   1
   1   3  12 46736.0 2548.32   2
   1  -3  13 24256.9 1831.81   1
   1   3  13 24634.1 1946.66   2
   1   3  14 125328. 4626.35   2
   1  -3  14 115913. 4131.09   1
   1  -3  15 30284.0 2176.91   1
   1   3  15 31835.7 2413.94   2
   1  -3  16 127947. 4615.55   1
   1   3  16 136377. 5137.93   2
   1  -3  17 51308.6 2996.19   1
   1   3  17 52066.1 3277.20   2
   1   3  18 30916.2 2983.48   1
   1  -3  18 26679.6 2263.15   1
   1   3  18 30423.1 2578.82   2
   1   3  19 38461.8 3372.74   1
   1  -3  19 33007.6 2549.64   1
   1   3  19 35200.3 2849.40   2
   1   3  20 13918.8 2053.57   1
   1  -3  20 11618.2 1554.51   1
   1   3  20 12559.7 1756.08   2
   1   3  21 28844.3 3021.94   1
   1   3  21 29003.6 2759.14   2
   1  -3  21 26668.4 2408.26   1
   1   3  22 2877.56 991.020   1
   1  -3  22 2986.41 898.512   1
   1   3  23 20126.2 2369.10   2
   1   3  23 20198.8 2673.39   1
   1  -3  23 18239.6 2100.47   1
   1  -3  24 21543.9 2335.62   1
   1   3  24 23291.8 2917.49   1
   1   3  24 19848.4 2390.35   2
   1  -3  25 7907.81 1477.02   1
   1   3  25 8238.04 1753.47   1
   1   3  25 7342.04 1488.90   2
   1  -3  26 26065.6 2700.08   1
  -1   4  24 624.951 436.373   2
  -1   4  23 1425.56 646.677   2
  -1   4  22 10752.0 1674.12   2
  -1   4  21-14.0752 196.110   2
  -1   4  20 3748.79 953.505   2
  -1   4  19 677.345 432.988   2
  -1   4  18 4552.24 1033.10   2
  -1   4  17 7904.39 1270.94   2
  -1   4  16 55771.2 3269.63   2
  -1   4  15 3063.82 776.980   2
  -1   4  14 184534. 5582.53   2
  -1   4  13 5430.88 1129.32   2
  -1   4  12 281493. 6650.59   2
  -1   4  11 1167.06 494.186   2
  -1   4  10 282297. 6143.08   2
  -1   4   9 4503.57 805.459   2
  -1   4   8 206684. 4958.69   2
  -1   4   7 25944.9 1711.75   2
  -1   4   6 40121.6 2069.62   2
  -1   4   5 9557.00 989.198   2
   1   4  -5 588.737 94.6488   1
  -1   4   4 5800.12 750.695   2
  -1   4   3 17428.3 1301.87   2
  -1   4   2 112159. 3310.37   2
   1   4  -2 119940. 2715.16   2
   1   4  -1 137.431 53.8448   2
  -1   4   1 352.179 132.973   2
  -1   4   0 109140. 3310.24   2
   1   4   0 104776. 2444.79   2
   1   4   1 3627.33 455.857   2
  -1   4  -1 3418.48 580.997   2
   1   4   2 14479.5 943.157   2
  -1   4  -2 13642.6 1170.48   2
   1   4   3 22935.0 1226.81   2
  -1  -4  -3 21759.2 1194.83   2
   1   4   4 21496.7 1249.05   2
   1   4   5 14554.9 1051.68   2
   1   4   6 173753. 3866.73   2
   1   4   7 10505.3 1012.67   2
   1   4   8 318812. 5791.49   2
   1   4   9 304.051 343.023   2
   1   4  10 329224. 6467.36   2
   1   4  11 684.314 441.165   2
   1   4  12 288009. 6657.51   2
   1   4  13 10903.4 1337.16   2
   1  -4  14 98834.9 3857.37   1
   1   4  14 96496.6 4021.89   2
   1  -4  15 3604.55 748.200   1
   1   4  15 4055.99 892.331   2
   1  -4  16 36765.4 2451.55   1
   1   4  16 35290.5 2649.11   2
   1  -4  17 3766.26 789.122   1
   1   4  17 4588.90 1015.07   2
   1   4  18 3172.49 830.878   2
   1  -4  18 3039.08 707.674   1
   1  -4  19 22.5426 176.967   1
   1   4  19 94.7134 107.254   2
   1   4  20 14108.3 1880.41   2
   1  -4  20 10561.4 1462.39   1
   1   4  21 593.632 435.856   1
   1  -4  21 801.010 460.387   1
   1   4  21 784.947 528.458   2
   1   4  22 5998.82 1475.72   1
   1  -4  22 6176.51 1187.75   1
   1   4  22 6511.72 1373.43   2
   1   4  23 1570.74 682.129   2
   1   4  23 1521.24 741.068   1
   1  -4  23 918.948 454.294   1
   1   4  24 959.106 552.127   2
   1   4  25 2942.58 979.504   2
  -1   5  22 1115.95 587.254   2
  -1   5  21 607.094 426.864   2
  -1   5  20 13092.8 1844.68   2
  -1   5  19 1844.64 746.108   2
  -1   5  18 46028.8 3236.77   2
  -1   5  17 12332.1 1620.90   2
  -1   5  16 44042.8 3017.13   2
  -1   5  15 22939.4 2129.42   2
  -1   5  14 46763.2 2949.43   2
  -1   5  13 72432.7 3564.81   2
  -1   5  12 13991.4 1514.30   2
  -1   5  11 72849.7 3372.22   2
  -1   5  10 50666.0 2767.58   2
  -1   5   9 69163.7 3138.29   2
  -1   5   8 116312. 4040.80   2
  -1   5   7 54406.0 2668.17   2
   1   5  -7 140.693 47.8336   1
  -1   5   6 194724. 4999.70   2
   1   5  -6 181278. 2083.88   1
  -1   5   5 39778.9 2232.76   2
  -1   5   4 93949.3 3396.83   2
   1   5  -4 98385.4 2890.81   2
  -1   5   3 3140.66 625.236   2
   1   5  -3 2844.13 495.657   2
  -1   5   2 11761.4 1184.07   2
   1   5  -2 11732.1 959.201   2
   1   5  -1 6237.17 691.909   2
  -1   5   1 5634.15 803.017   2
  -1   5   0 2569.09 533.431   2
   1   5   0 2710.25 447.543   2
   1   5   1 1683.32 356.225   2
  -1   5  -1 1208.02 364.097   2
  -1   5  -2 87973.6 3325.64   2
   1   5   2 85637.9 2630.60   2
   1   5   3 30806.1 1608.33   2
  -1   5  -3 31112.2 1979.81   2
   1   5   4 130723. 3421.25   2
   1   5   5 45863.6 2087.31   2
   1   5   6 159712. 4109.87   2
   1   5   7 95827.7 3251.76   2
   1   5   8 133914. 3981.32   2
   1   5   9 89612.7 3399.64   2
   1   5  10 2264.47 567.909   2
   1   5  11 73550.7 3309.78   2
   1   5  12 31110.3 2232.47   2
   1   5  13 44283.4 2805.56   2
   1   5  14 89457.4 4105.19   2
   1   5  15 26443.3 2255.72   2
   1   5  16 59360.7 3457.66   2
   1   5  17 3137.22 867.591   2
   1   5  18 29845.4 2657.58   2
   1   5  19 1932.44 728.072   2
   1   5  20 7119.48 1388.90   2
   1   5  21 734.627 495.925   2
   1   5  22 1378.93 618.391   2
   1   5  23 4790.39 1207.35   2
   1   5  24 4775.64 1257.98   2
  -1   6  21 985.527 901.314   2
  -1   6  20 53535.7 3838.61   2
  -1   6  19 2854.58 907.862   2
  -1   6  18 26638.8 2573.22   2
  -1   6  17 6062.10 1231.62   2
  -1   6  16 2300.05 723.864   2
  -1   6  15 11090.8 1558.20   2
  -1   6  14 22254.9 2127.14   2
  -1   6  13 4268.99 912.507   2
  -1   6  12 4937.68 940.115   2
  -1   6  11 90.5815 212.015   2
  -1   6  10 7190.47 1119.82   2
  -1   6   9 4594.22 879.923   2
  -1   6   8 1332.64 432.729   2
  -1   6   7 22963.9 1854.09   2
  -1   6   6 24297.9 1920.13   2
   1   6  -5 15609.4 1314.69   2
  -1   6   5 17763.3 1646.80   2
  -1   6   4 128258. 4270.18   2
   1   6  -4 133280. 3810.78   2
  -1   6   3 9015.51 1153.47   2
   1   6  -3 7812.40 896.211   2
  -1   6   2 292291. 6628.54   2
   1   6  -2 284983. 5430.21   2
  -1   6   1-150.707 237.221   2
   1   6  -1 162.103 181.322   2
  -1   6   0 338967. 7005.75   2
   1   6   0 336594. 5823.40   2
  -1   6  -1 3302.89 729.936   2
   1   6   1 3959.50 637.795   2
  -1   6  -2 226460. 5845.58   2
   1   6   2 215295. 4701.75   2
   1   6   3 14048.1 1229.47   2
  -1   6  -3 15427.0 1550.26   2
   1   6   4 80614.2 2983.07   2
  -1   6  -4 80195.0 3530.38   2
   1   6   5 26013.8 1728.32   2
  -1   6  -5 26049.2 2006.50   2
   1   6   6 6067.79 861.244   2
   1   6   7 11271.5 1248.36   2
   1   6   8 960.260 370.867   2
   1   6   9 840.437 419.374   2
   1   6  10 9055.42 1190.56   2
   1   6  11 2311.04 606.169   2
   1   6  12 18229.2 1782.38   2
   1   6  13 16789.7 1745.78   2
   1   6  14 1349.75 627.649   2
   1   6  15 11140.2 1571.17   2
   1   6  16 12431.8 1650.60   2
   1   6  17 6164.67 1199.34   2
   1   6  18 51851.2 3547.85   2
   1   6  19 578.035 527.729   2
   1   6  20 76416.4 4657.85   2
   1   6  21 994.719 621.738   2
   1   6  22 60770.4 4376.45   2
  -1   7  18 19494.4 2287.89   2
  -1   7  17 11847.2 1773.57   2
  -1   7  16 21160.5 2338.47   2
  -1   7  15 2577.77 791.724   2
  -1   7  14 21567.8 2221.70   2
  -1   7  13 2304.63 704.124   2
  -1   7  12 3257.31 834.348   2
  -1   7  11 221.546 247.727   2
  -1   7  10 23317.1 2137.77   2
  -1   7   9 772.102 410.062   2
  -1   7   8 57258.0 3278.87   2
  -1   7   7 6339.46 1100.89   2
   1   7  -7 5241.11 890.135   2
  -1   7   6 106783. 4381.87   2
   1   7  -6 101396. 3817.74   2
  -1   7   5 32884.8 2398.78   2
   1   7  -5 32620.4 2132.84   2
   1   7  -4 58190.5 2789.62   2
  -1   7   4 62929.6 3288.33   2
  -1   7   3 67583.9 3404.36   2
   1   7  -3 61033.6 2810.76   2
  -1   7   2 15578.4 1739.45   2
   1   7  -2 7772.72 991.918   2
   1   7  -1 106416. 3696.50   2
  -1   7   1 118397. 4495.95   2
  -1   7   0 2406.30 782.507   2
   1   7   0 2073.02 540.066   2
   1   7   1 93352.8 3459.75   2
  -1   7  -1 93654.9 4012.00   2
   1   7   2 42956.8 2325.48   2
  -1   7  -2 41683.1 2695.16   2
  -1   7  -3 48605.5 2930.28   2
   1   7   3 45709.5 2422.58   2
   1   7   4 69428.1 3057.12   2
  -1   7  -4 82728.4 3912.82   2
   1   7   5 10846.7 1265.80   2
  -1   7  -5 9159.14 1321.56   2
   1   7   6 86458.7 3547.28   2
  -1   7  -6 101968. 4434.03   2
   1   7   7 99921.7 4544.63   2
  -1   7  -7 3748.09 1204.51   2
   1   7   8 62205.9 3132.20   2
   1   7   9-2.98975 263.783   2
   1   7  10 905.870 576.799   2
   1   7  11 845.055 365.039   2
   1   7  12 10628.3 1433.93   2
   1   7  13 1237.54 524.535   2
   1   7  14 36903.2 2823.47   2
   1   7  15 14032.8 1795.57   2
   1   7  16 33042.2 2890.31   2
   1   7  17 20431.6 2259.57   2
   1   7  18 13497.5 1868.77   2
   1   7  19 29497.7 2838.65   2
   1   7  20 3277.08 977.651   2
  -1   8  15 9756.21 1658.21   2
  -1   8  14 49573.8 3536.29   2
  -1   8  13 4802.31 1268.18   2
  -1   8  12 83859.5 4463.60   2
  -1   8  11 1109.53 840.915   2
   1   8 -10 91543.8 4243.20   2
  -1   8  10 83162.8 4326.19   2
  -1   8   9 8392.35 1666.76   2
   1   8  -9 7143.42 1215.38   2
  -1   8   8 44330.8 3095.00   2
   1   8  -8 47658.5 3001.47   2
  -1   8   7 13874.4 1718.57   2
   1   8  -7 13678.0 1541.09   2
  -1   8   6 13674.4 1767.00   2
   1   8  -6 12172.0 1492.93   2
  -1   8   5 19431.8 1987.51   2
   1   8  -5 21844.1 1914.88   2
  -1   8   4 118.276 225.132   2
   1   8  -4 247.675 247.807   2
  -1   8   3 8611.47 1350.25   2
   1   8  -3 6574.83 1037.93   2
  -1   8   2 16120.3 1798.90   2
   1   8  -2 15063.2 1537.35   2
   1   8  -1 38.3754 103.111   2
  -1   8   1 38.9245 329.921   2
   1   8   0 21347.1 1823.40   2
  -1   8   0 20061.2 2028.64   2
   1   8   1 5646.89 924.529   2
  -1   8  -1 5331.56 1024.58   2
   1   8   2 1542.43 518.773   2
  -1   8  -2 2503.74 896.358   2
   1   8   3 11741.1 1351.07   2
  -1   8  -3 10830.0 1482.63   2
   1   8   4 3652.73 762.982   2
  -1   8  -4 4070.55 925.586   2
  -1   8  -5 26533.5 2494.96   2
   1   8   5 24014.6 1994.56   2
   1   8   6 34010.1 2406.04   2
  -1   8  -6 34951.2 2839.19   2
   1   8   7 10755.7 1381.04   2
  -1   8  -7 12083.8 1816.66   2
   1   8   8 80515.0 3798.82   2
  -1   8  -8 82595.9 4431.97   2
   1   8   9 1437.40 615.966   2
  -1   8  -9 3878.34 1418.06   2
   1   8  10 112038. 4749.52   2
   1   8  11 2476.13 714.809   2
   1   8  12 68641.2 3893.06   2
   1   8  13 6367.12 1195.53   2
   1   8  14 33230.8 2842.45   2
   1   8  15 9789.41 1612.88   2
  -1   9  10 2488.37 829.228   2
  -1   9   9 41185.7 3225.93   2
  -1   9   8 21275.9 2276.22   2
  -1   9   7 26464.2 2568.67   2
  -1   9   6 38479.6 3022.88   2
  -1   9   5 5301.92 1131.77   2
  -1   9   4 25906.3 2573.94   2
  -1   9   3 1.86524 237.968   2
  -1   9   2 4845.41 1181.54   2
  -1   9   1 207.282 35.7091   2
  -1   9   0-12.7430 256.435   2
  -1   9  -1-564.923 359.516   2
  -1   9  -2 17656.3 2053.50   2
  -1   9  -3 1341.13 672.058   2
  -1   9  -4 46664.2 3396.03   2
  -1   9  -5 14477.7 1915.85   2
  -1   9  -6 37730.3 3137.49   2
  -1   9  -7 40448.5 3328.50   2
  -1   9  -8 8620.66 1703.44   2
  -1   9  -9 43911.7 3594.47   2
  -1   9 -10 1983.89 772.181   2
  -2   0  25 4380.18 1202.05   2
  -2   0  24 59328.8 4011.02   2
  -2   0  23 13157.9 1965.69   2
  -2   0  22 115081. 4797.52   3
  -2   0  22 124996. 5658.96   2
  -2   0  21 14720.7 1728.29   3
  -2   0  21 18054.3 2226.67   2
  -2   0  20 73060.7 4072.92   2
  -2   0  20 66138.1 3631.16   3
  -2   0  19 20794.6 2025.41   3
  -2   0  19 25499.7 2445.11   2
  -2   0  18 33196.1 2490.75   3
  -2   0  18 32923.9 2571.76   2
  -2   0  17 3202.01 779.534   3
  -2   0  17 2893.13 833.357   2
  -2   0  16 691.350 320.946   2
  -2   0  15 750.346 355.637   2
  -2   0  14 27067.9 2053.78   2
  -2   0  13 612.860 358.037   2
  -2   0  12 37176.2 2148.49   2
  -2   0  11 9214.13 1047.98   2
  -2   0  10 21052.3 1480.78   2
  -2   0   9 8608.78 958.957   2
  -2   0   8 20869.5 1320.03   2
  -2   0   7 448.370 203.568   2
   2   0  -7 471.482 215.346   2
  -2   0   6 38042.9 1575.56   2
   2   0  -6 38279.0 1533.77   2
  -2   0   5 7009.53 679.204   2
   2   0  -5 3969.83 517.391   2
  -2   0   4 317438. 3995.32   2
   2   0  -4 325035. 3908.70   2
  -2   0   3 67017.7 1706.06   2
   2   0  -3 55439.0 1752.09   2
  -2   0   1 102054. 2024.91   2
  -2   0   0 639117. 4821.87   2
  -2   0  -1 153959. 2586.65   2
   2   0   2 425707. 6019.46   1
   2   0   3 48975.9 2315.35   1
   2   0   4 39392.6 2008.21   1
   2   0   5 7591.09 916.778   1
   2   0   6 2451.56 525.104   1
  -2   0  -6 2296.12 384.915   3
  -2   0  -7 3100.28 527.962   3
   2   0   7 4777.09 795.987   1
   2   0   8 46079.2 2491.76   1
  -2   0  -8 43217.3 1609.09   3
  -2   0  -9 3268.08 466.622   3
   2   0   9 4187.13 807.648   1
   2   0  10 61216.9 3095.82   1
   2   0  11 6610.67 1103.94   1
   2   0  12 796.658 385.606   1
   2   0  13 5127.23 1052.73   1
   2   0  14 196.844 319.714   1
   2   0  15 38.3950 178.668   1
   2   0  16 32461.0 2714.70   1
   2   0  17 3790.68 1053.23   1
   2   0  18 200156. 7153.91   1
   2   0  19 8903.73 1628.78   1
   2   0  20 146403. 6421.53   1
   2   0  21 15405.1 2208.04   1
   2   0  22 110022. 5829.73   1
   2   0  23 7677.85 1646.37   1
   2   0  24 28469.2 3105.42   1
   2   0  25 2441.35 972.672   1
  -2   1  26 15533.3 2222.20   2
  -2   1  25 14755.7 2139.00   2
  -2   1  24 3476.82 1010.02   2
  -2   1  23 16216.8 2105.06   2
  -2   1  22 3543.19 994.729   2
  -2   1  22 2528.23 717.506   3
  -2   1  21 14319.7 1712.07   3
  -2   1  21 13959.5 1857.31   2
  -2   1  20 33260.0 2586.13   3
  -2  -1  20 33690.0 2667.15   2
  -2   1  20 30212.7 2672.14   2
  -2   1  19 18820.4 1964.34   3
  -2   1  19 19672.2 2125.40   2
  -2  -1  19 20868.4 2042.86   2
  -2   1  18 67934.9 3590.34   3
  -2  -1  18 68232.0 3579.71   2
  -2   1  18 70221.1 3850.68   2
  -2   1  17 34437.9 2517.86   3
  -2   1  17 32475.9 2495.78   2
  -2  -1  17 34393.3 2492.98   2
  -2   1  16 81243.4 3818.31   3
  -2  -1  16 77897.5 3639.00   2
  -2   1  16 78001.5 3680.76   2
  -2   1  15 44977.5 2837.03   3
  -2  -1  15 45285.1 2808.38   2
  -2   1  15 47437.8 2793.48   2
  -2  -1  14 56493.6 2925.07   2
  -2   1  14 56038.0 3084.89   3
  -2   1  14 56153.2 2932.48   2
  -2   1  13 42787.2 2505.24   2
  -2   1  13 39209.1 2558.23   3
  -2  -1  13 36133.3 2280.65   2
  -2   1  12 8719.03 1141.02   2
  -2   1  12 5586.53 1061.00   3
  -2  -1  12 6347.26 977.065   2
  -2   1  11 27236.4 1809.30   2
  -2   1  11 29607.1 2145.06   3
  -2  -1  11 29734.2 1831.57   2
  -2   1  10 72264.5 2814.89   2
  -2   1  10 75080.5 3363.91   3
  -2  -1  10 74366.2 2750.56   2
  -2   1   9 70813.8 2686.21   2
  -2   1   9 72366.6 3262.45   3
  -2  -1   9 73187.6 2601.15   2
  -2   1   8 252139. 4799.59   2
   2   1  -8 260976. 4403.74   2
  -2   1   8 264420. 6109.07   3
  -2  -1   8 265021. 4629.96   2
  -2   1   7 70349.9 2467.17   2
   2   1  -7 71764.4 2115.34   2
  -2   1   7 63719.4 3023.37   3
  -2  -1   7 62834.8 2128.03   2
  -2   1   6 400096. 5589.96   2
   2   1  -6 406486. 4528.57   2
  -2   1   6 407264. 7336.17   3
  -2  -1   6 402203. 4940.38   2
  -2   1   5 132404. 3030.18   2
   2   1  -5 137982. 2362.84   2
  -2  -1   5 130475. 2735.52   1
  -2   1   5 143899. 4313.91   3
  -2  -1   5 137248. 2570.36   2
  -2   1   4 71110.5 2968.49   3
  -2   1   4 59150.4 1989.76   2
   2   1  -4 62555.3 1399.59   2
  -2  -1   4 66933.7 1979.46   1
   2  -1  -4 59258.2 1991.84   2
  -2  -1   4 67743.4 1587.06   2
  -2   1   3 126796. 2772.35   2
  -2  -1   3 134056. 2837.17   1
   2  -1  -3 130235. 2836.11   2
  -2  -1   3 134846. 1969.22   2
  -2   1   2 29181.4 1841.16   3
  -2  -1   2 26265.8 1292.60   1
  -2  -1   2 27860.0 771.198   2
  -2  -1   1 105497. 1266.02   2
  -2   1   1 109091. 2491.75   2
  -2   1   1 111960. 3534.90   3
  -2  -1   1 113134. 2791.59   1
  -2  -1   0 60725.3 2136.08   1
  -2   1   0 62718.3 1932.77   2
   2   1   0 60273.9 2019.37   1
  -2  -1  -1 58704.3 1024.27   2
   2   1   1 59582.7 2112.51   1
  -2   1  -1 60576.4 2481.84   3
  -2   1  -1 57431.1 1837.17   2
  -2  -1  -1 55582.1 1096.40   2
  -2   1  -2 193170. 4354.40   3
   2   1   2 197051. 4039.25   1
  -2  -1  -2 189655. 2439.90   2
  -2   1  -3 118061. 3339.01   3
   2   1   3 121280. 3311.53   1
  -2  -1  -3 116637. 2158.12   2
  -2   1  -4 288456. 5079.37   3
  -2  -1  -4 275066. 3728.08   2
   2   1   4 296145. 5446.35   1
   2  -1   4 283427. 5489.09   1
  -2   1  -5 108391. 3185.95   3
   2  -1   5 112288. 3647.15   1
  -2  -1  -5 106402. 2671.75   2
   2  -1   6 293429. 5842.08   1
  -2   1  -6 283399. 4786.38   3
   2   1   6 290516. 5917.85   1
   2   1   7 106524. 3769.83   1
   2  -1   7 106177. 3692.37   1
  -2  -1  -7 98420.0 2841.30   2
   2   1   8 74713.9 3286.74   1
   2  -1   8 78500.9 3274.92   1
   2  -1   9 46441.7 2607.90   1
   2   1   9 48745.2 2734.45   1
   2   1  10 9376.97 1253.69   1
   2  -1  10 7937.06 1145.48   1
   2   1  11 50896.8 2997.73   1
  -2  -1 -11 50557.1 1449.03   3
   2  -1  11 54266.3 2959.75   1
   2   1  12 83395.3 3981.15   1
  -2  -1 -12 77746.6 1527.48   3
   2  -1  12 88625.7 3890.92   1
   2   1  13 23883.6 2200.16   1
   2  -1  13 27969.0 2273.16   1
   2   1  14 197054. 6439.65   1
   2  -1  14 204535. 6317.59   1
   2   1  15 45340.1 3222.12   1
   2  -1  15 50192.7 3224.91   1
   2   1  16 55024.0 3634.13   1
   2  -1  16 53945.9 3469.32   1
   2   1  17 33753.4 2947.91   1
   2  -1  17 35853.1 2920.81   1
   2   1  18 34862.7 3025.20   1
   2  -1  18 34627.3 2923.94   1
   2  -1  19 33919.5 2960.49   1
   2   1  19 35120.1 3128.54   1
   2   1  20 2181.25 800.489   1
   2  -1  20 2588.23 862.866   1
   2   1  21 10783.2 1810.05   1
   2  -1  21 13120.7 1923.37   1
   2   1  22 7002.87 1495.62   1
   2  -1  22 8260.77 1585.71   1
   2   1  23 16527.1 2354.33   1
   2  -1  23 19271.9 2475.74   1
   2   1  24 20891.1 2698.06   1
   2  -1  24 19628.6 2529.81   1
   2  -1  25 6913.05 1562.29   1
  -2   2  25 599.729 524.810   2
  -2   2  24 3605.66 1013.92   2
  -2   2  23 2402.01 850.336   2
  -2   2  22 6466.01 1324.22   2
  -2   2  21 1328.42 521.956   3
  -2   2  21 1694.27 653.516   2
  -2   2  20 1117.44 449.653   3
  -2   2  20 832.815 443.098   2
  -2   2  19 1301.95 499.316   3
  -2   2  19 1527.88 527.370   2
  -2   2  18 5452.48 1067.13   3
  -2   2  18 5429.16 1029.57   2
  -2   2  17 1815.14 678.830   3
  -2   2  17 1848.05 617.865   2
  -2   2  16 95923.5 4239.74   2
  -2   2  16 103924. 4487.88   3
  -2   2  15 18593.0 1867.92   2
  -2   2  15 15863.1 1770.33   3
  -2   2  14 218896. 5901.14   2
  -2   2  14 230580. 6545.34   3
  -2   2  13 44650.7 2602.45   2
  -2   2  13 35430.9 2621.68   3
  -2   2  12 258032. 5955.07   2
  -2   2  12 281991. 7016.62   3
  -2   2  11 79272.3 3208.29   2
  -2   2  11 63024.3 3323.29   3
  -2   2  10 298758. 5988.58   2
  -2   2  10 313685. 7213.89   3
  -2   2   9 70169.3 2764.57   2
  -2   2   9 57149.9 3092.68   3
   2   2  -8 138263. 3163.17   2
  -2   2   8 139333. 3839.13   2
  -2  -2   8 141228. 2252.31   1
  -2   2   8 148621. 4824.13   3
   2   2  -7 66298.1 2014.05   2
  -2   2   7 60968.4 3086.72   3
  -2  -2   7 62034.2 1538.44   1
   2   2  -6 27209.6 1132.89   2
  -2   2   6 25493.0 1519.89   2
  -2   2   6 28673.7 2049.60   3
  -2  -2   6 27311.6 1023.53   1
  -2  -2   5 16112.1 840.153   1
  -2   2   5 15880.9 1168.66   2
  -2   2   5 15993.4 1540.69   3
  -2  -2   4 19337.4 946.250   1
   2   2  -4 16972.4 590.110   2
  -2   2   4 18960.0 1236.92   2
  -2   2   4 18890.3 1628.16   3
  -2  -2   3 6725.58 605.530   1
  -2   2   3 4872.66 693.222   2
  -2   2   3 6705.04 990.777   3
  -2   2   2 81612.8 2496.37   2
  -2  -2   2 86386.0 2309.52   1
  -2   2   2 89809.7 3428.17   3
  -2   2   1 17323.8 1518.22   3
  -2  -2   1 15007.9 1021.81   1
   2   2  -1 10456.3 828.721   1
  -2   2   1 10538.2 884.568   2
  -2  -2   0 80288.4 2531.89   1
   2   2   0 81722.7 2314.35   1
  -2   2   0 81013.8 3134.11   3
  -2   2   0 77483.0 2450.16   2
  -2  -2  -1 14518.0 1160.89   1
  -2   2  -1 19374.2 1584.86   3
  -2   2  -1 13935.9 1177.63   2
   2   2   1 17567.7 1182.55   1
   2   2   2 19895.2 1299.43   1
   2   2   3 9240.66 968.420   1
  -2  -2  -3 5568.13 379.019   2
   2   2   4 85748.6 3024.59   1
  -2  -2  -4 83977.6 1722.47   2
  -2  -2  -5 9223.49 692.461   2
   2   2   5 9779.17 1103.19   1
  -2  -2  -6 289194. 4169.75   2
   2   2   6 301079. 6194.77   1
  -2  -2  -7 30228.0 1499.22   2
   2   2   7 33755.8 2225.46   1
   2  -2   7 32271.9 2087.09   1
   2   2   8 316200. 6956.04   1
   2  -2   8 329199. 6753.17   1
   2   2   9 65104.6 3339.77   1
   2  -2   9 45994.6 2721.20   1
   2   2  10 392597. 8394.97   1
   2  -2  10 410846. 7923.47   1
   2   2  11 52123.2 3254.34   1
   2  -2  11 55477.5 3081.05   1
   2   2  12 220065. 6715.64   1
   2  -2  12 231496. 6387.48   1
   2   2  13 36711.5 2903.53   1
   2  -2  13 48150.9 3031.43   1
   2  -2  14 88024.7 4149.18   1
   2   2  14 88842.5 4507.82   1
   2   2  15 14074.1 1934.91   1
   2  -2  15 18824.5 1988.12   1
   2  -2  16 4091.68 950.777   1
   2   2  16 2961.74 878.420   1
   2  -2  17 1136.10 524.578   1
   2   2  17 505.235 404.548   1
   2   2  18 4381.90 1110.65   1
   2  -2  18 4828.48 1070.97   1
   2   2  19 228.360 277.084   1
   2  -2  19 580.153 405.568   1
   2  -2  20 13287.7 1873.37   1
   2   2  20 13592.8 2028.08   1
   2   2  21 1026.24 667.865   1
   2  -2  21 1409.85 675.246   1
   2   2  22 11569.7 1942.52   1
   2  -2  22 8768.98 1569.48   1
   2   2  23 1032.97 611.665   1
   2  -2  23 790.537 521.224   1
   2  -2  24 598.040 434.742   1
   2  -2  25 518.422 404.918   1
  -2   3  24 4032.98 1118.72   2
  -2   3  23 2975.11 943.729   2
  -2   3  22 3667.22 988.135   2
  -2   3  21 4027.25 1027.22   2
  -2   3  20 28062.7 2574.92   2
  -2   3  19 13167.4 1795.17   2
  -2   3  18 57809.3 3586.77   2
  -2   3  17 41023.1 2906.71   2
  -2   3  16 54035.0 3236.19   2
  -2   3  15 41377.8 2713.68   2
  -2   3  14 40880.2 2627.11   2
  -2   3  13 48527.5 2805.57   2
  -2   3  12 10225.6 1337.64   2
  -2   3  11 67432.4 3060.37   2
  -2   3  10 67157.1 2973.79   2
  -2   3   9 63071.9 2823.92   2
   2   3  -8 160952. 3701.64   2
  -2   3   8 166044. 4435.82   2
  -2   3   7 90299.0 3293.08   2
   2   3  -7 100022. 2685.53   2
  -2   3   6 156000. 4077.47   2
   2   3  -6 148078. 2951.42   2
   2   3  -5 61877.5 1678.29   2
  -2   3   5 63697.3 2575.88   2
   2   3  -4 182829. 2371.65   2
  -2   3   4 192487. 4378.68   2
  -2   3   3 47836.9 2173.68   2
   2   3  -2 8825.59 655.345   1
  -2   3   2 9512.12 1014.89   2
  -2   3   1 20343.0 1443.25   2
   2   3  -1 21269.0 1103.06   1
  -2   3   0 42175.6 2038.50   2
   2   3   0 43216.7 1719.19   1
   2   3   1 24825.1 1409.13   1
  -2   3  -1 24748.4 1618.15   2
  -2   3  -2 191314. 4399.75   2
   2   3   2 186452. 4143.90   1
   2   3   3 80284.4 1646.35   2
   2   3   3 89709.7 3063.87   1
   2   3   4 173635. 2843.80   2
   2   3   4 178874. 4561.98   1
  -2  -3  -4 177423. 2512.45   2
  -2  -3  -5 94027.1 2102.82   2
   2   3   5 93521.8 2368.42   2
  -2  -3  -6 226226. 3568.13   2
   2   3   6 223138. 5642.74   1
   2   3   6 220328. 4002.96   2
  -2  -3  -7 98512.5 2647.23   2
   2   3   7 97715.3 3932.63   1
   2   3   7 91655.3 2784.05   2
   2   3   8 39847.7 2614.43   1
   2   3   8 41795.0 2001.09   2
   2   3   9 86648.7 3982.97   1
   2   3   9 86098.0 3017.66   2
   2   3  10 14260.6 1727.74   1
   2   3  10 11569.4 1209.47   2
   2  -3  11 63725.2 3267.82   1
   2   3  11 56935.8 3443.67   1
   2   3  11 62281.4 2792.23   2
   2  -3  12 73890.4 3609.08   1
   2   3  12 68641.9 3903.31   1
   2   3  12 70984.4 3127.14   2
   2  -3  13 41291.7 2772.34   1
   2   3  13 37820.3 2985.47   1
   2   3  13 41268.7 2492.43   2
   2  -3  14 77375.9 3857.65   1
   2   3  14 74264.6 4294.77   1
   2   3  14 77630.4 3538.48   2
   2  -3  15 27781.4 2382.40   1
   2   3  15 27241.8 2709.16   1
   2   3  15 29925.8 2279.63   2
   2  -3  16 114798. 4941.21   1
   2   3  16 118957. 5730.01   1
   2  -3  17 17194.6 1955.53   1
   2   3  17 16067.6 2183.62   1
   2  -3  18 31281.6 2706.35   1
   2   3  18 29089.9 2963.45   1
   2   3  19 6698.61 1487.41   1
   2  -3  19 7622.10 1390.89   1
   2   3  20 1412.18 734.207   1
   2  -3  20 1261.23 566.505   1
   2   3  21 6717.44 1561.04   1
   2  -3  21 6424.18 1322.14   1
   2   3  22 8800.47 1773.95   1
   2  -3  22 9258.63 1619.64   1
   2  -3  23 5398.01 1280.36   1
   2   3  23 5414.64 1464.53   1
   2  -3  24 9519.35 1710.99   1
   2  -3  25 10532.0 1862.13   1
  -2   4  23 9874.08 1761.81   2
  -2   4  22 46511.7 3563.62   2
  -2   4  21 17139.1 2209.29   2
  -2   4  20 49801.4 3605.74   2
  -2   4  19 12465.3 1775.87   2
  -2   4  18 15800.8 1885.55   2
  -2   4  17 12977.6 1644.72   2
  -2   4  16 2410.15 743.460   2
  -2   4  15 11984.8 1519.40   2
  -2   4  14 9302.19 1313.77   2
  -2   4  13 2609.53 731.732   2
  -2   4  12 31977.5 2265.82   2
  -2   4  11 7388.19 1114.56   2
  -2   4  10 14226.7 1462.00   2
  -2   4   9 9816.16 1180.33   2
  -2   4   8 542.240 288.176   2
  -2   4   7 9394.53 1084.54   2
   2   4  -7 9512.71 893.984   2
  -2   4   6 110936. 3766.00   2
   2   4  -6 104374. 2720.63   2
  -2   4   5 22376.0 1675.64   2
   2   4  -5 21812.7 1155.15   2
  -2   4   4 273678. 5759.55   2
   2   4  -4 271617. 3752.83   2
  -2   4   3 30781.1 2183.43   2
   2   4  -3 26165.2 1016.88   2
   2   4  -2 337178. 3142.36   2
  -2   4   2 325931. 6255.34   2
   2   4  -2 327157. 3956.42   1
   2   4  -1 51900.0 1368.51   2
  -2   4   1 52556.2 2910.43   2
   2   4   0 387281. 3429.57   2
   2   4   0 381403. 5403.66   1
  -2   4   0 381619. 6767.20   2
   2   4   1 66458.9 1577.40   2
   2   4   1 69288.3 2535.35   1
  -2   4  -1 68480.6 2890.06   2
   2   4   2 212448. 3009.79   2
   2   4   2 207364. 4659.84   1
  -2   4  -2 208147. 5146.17   2
   2   4   3 66860.3 2884.34   1
   2   4   3 64299.3 1872.05   2
   2   4   4 61291.0 2852.60   1
  -2  -4  -4 65306.4 1780.47   2
   2   4   4 62891.7 1932.78   2
  -2  -4  -5 34776.6 1472.14   2
   2   4   5 41050.0 2504.81   1
   2   4   5 39070.9 1666.08   2
  -2  -4  -6 1307.02 346.812   2
   2   4   6 2148.90 639.782   1
   2   4   6 1501.87 373.391   2
   2   4   7 2061.30 630.555   1
   2   4   7 2107.31 432.468   2
   2   4   8 31010.9 2415.68   1
   2   4   8 38070.8 2038.71   2
   2   4   9 3030.54 639.620   2
   2   4   9 1971.77 714.115   1
   2   4  10 33889.2 2703.83   1
   2   4  10 40796.0 2318.02   2
   2   4  11 6429.10 1242.92   1
   2   4  11 8362.96 1092.57   2
   2   4  12 16156.4 1984.04   1
   2   4  12 17644.3 1623.15   2
   2   4  13 5781.11 1264.10   1
   2   4  13 7378.20 1106.16   2
   2   4  14 10379.9 1691.02   1
   2   4  14 9957.13 1336.35   2
   2   4  15 10175.9 1714.75   1
   2   4  15 9934.00 1373.57   2
   2   4  16 54043.5 4033.21   1
   2   4  16 56564.9 3392.74   2
   2   4  17 3457.39 1098.01   1
   2   4  17 3135.08 852.927   2
   2  -4  18 73701.7 4217.01   1
   2   4  18 76517.9 5028.33   1
   2   4  18 75524.3 4073.49   2
   2   4  19 5541.08 1504.89   1
   2   4  19 6185.06 1265.10   2
   2  -4  20 99308.4 5124.37   1
   2   4  20 100751. 6007.71   1
   2   4  20 100235. 4970.00   2
   2   4  21 4911.53 1452.95   1
   2  -4  21 10590.7 1758.81   1
   2  -4  22 68203.1 4417.06   1
   2  -4  23 6410.64 1390.30   1
   2  -4  24 30800.5 3101.60   1
  -2   5  21 17750.1 2251.12   2
  -2   5  20 18344.8 2229.67   2
  -2   5  19 23020.2 2479.82   2
  -2   5  18 45218.1 3306.59   2
  -2   5  17 19129.4 2121.95   2
  -2   5  16 50709.3 3345.88   2
  -2   5  15 16530.0 1869.85   2
  -2   5  14 5759.94 1072.27   2
  -2   5  13 6835.16 1186.80   2
  -2   5  12 45.7982 114.526   2
  -2   5  11 869.557 418.712   2
  -2   5  10 29341.2 2239.96   2
  -2   5   9 6347.82 1039.75   2
  -2   5   8 81049.1 3586.24   2
  -2   5   7 38124.8 2406.93   2
  -2   5   6 108941. 4047.84   2
  -2   5   5 76715.3 3420.36   2
   2   5  -5 81388.8 2325.32   2
  -2   5   4 99924.8 3800.31   2
   2   5  -4 103934. 2444.68   2
   2   5  -3 112264. 2476.66   2
  -2   5   3 110292. 3973.61   2
   2   5  -3 101259. 1992.02   1
   2   5  -2 20822.7 1098.45   1
   2   5  -2 21956.1 1125.95   2
  -2   5   2 19413.7 1842.77   2
   2   5  -1 89954.0 2135.58   2
   2   5  -1 89153.6 2536.84   1
  -2   5   1 88228.5 3561.98   2
   2   5   0 34921.2 1389.34   2
   2   5   0 35620.2 1799.50   1
  -2   5   0 33982.8 2192.36   2
   2   5   1 95669.5 2304.63   2
   2   5   1 93068.5 3143.76   1
  -2   5  -1 90499.4 3645.50   2
   2   5   2 137066. 2915.82   2
   2   5   2 130107. 3990.53   1
  -2   5  -2 133337. 4511.38   2
   2   5   3 54066.8 1939.09   2
  -2   5  -3 51253.4 2856.90   2
   2   5   3 51598.6 2702.82   1
   2   5   4 225364. 4143.29   2
  -2   5  -4 219744. 5837.62   2
   2   5   5 42698.2 1935.17   2
   2   5   5 38361.8 2605.31   1
   2   5   6 49712.0 3036.01   1
   2   5   6 59062.7 2434.66   2
   2   5   7 16098.0 1859.75   1
   2   5   7 19926.9 1474.00   2
   2   5   8 20518.7 2086.77   1
   2   5   8 23041.9 1601.87   2
   2   5   9 3503.09 968.102   1
   2   5   9 6797.67 944.267   2
   2   5  10 234.116 306.954   1
   2   5  10 415.085 216.958   2
   2   5  11 189.464 218.266   1
   2   5  11 410.522 229.744   2
   2   5  12 19760.6 2317.58   1
   2   5  12 26202.7 2074.34   2
   2   5  13 18583.5 2300.55   1
   2   5  13 21264.8 1937.48   2
   2   5  14 55116.9 3227.63   2
   2   5  14 51861.9 3941.43   1
   2   5  15 27136.7 2326.68   2
   2   5  15 21130.7 2596.29   1
   2   5  16 68684.8 3817.26   2
   2   5  16 69185.4 4784.41   1
   2   5  17 47069.6 3267.73   2
   2   5  17 41378.2 3779.36   1
   2   5  18 22202.4 2321.29   2
   2   5  18 22729.6 2835.74   1
   2   5  19 31236.4 3417.08   1
   2   5  20 2686.86 1097.18   1
  -2   6  19 2282.35 789.039   2
  -2   6  18 10526.2 1666.25   2
  -2   6  17 5638.66 1222.15   2
  -2   6  16 20471.9 2213.55   2
  -2   6  15 8201.94 1386.06   2
  -2   6  14 76573.0 4114.77   2
  -2   6  13 22304.5 2217.62   2
  -2   6  12 161438. 5831.64   2
  -2   6  11 31545.5 2589.05   2
  -2   6  10 109568. 4597.19   2
  -2   6   9 46870.4 2986.34   2
  -2   6   8 56696.0 3208.79   2
  -2   6   7 24752.8 2066.13   2
  -2   6   6 4070.44 821.417   2
  -2   6   5 14998.7 1596.28   2
  -2   6   4 10332.1 1314.21   2
  -2   6   3 5323.26 947.121   2
  -2   6   2 25593.8 2075.56   2
  -2   6   1 3069.47 710.697   2
  -2   6   0 18484.9 1777.18   2
  -2   6  -1 15506.3 1641.94   2
   2   6   1 14866.9 1367.05   1
   2   6   2 1043.13 441.099   1
  -2   6  -2 429.492 389.040   2
   2   6   3 22082.5 1874.23   1
  -2   6  -3 22050.3 1996.64   2
   2   6   4 5744.90 1037.27   1
  -2   6  -4 6000.59 1080.61   2
   2   6   5 10851.7 1452.44   1
  -2   6  -5 14000.6 1625.84   2
   2   6   6 46779.5 3115.82   1
  -2   6  -6 59653.8 3403.30   2
   2   6   7 11810.1 1691.12   1
   2   6   8 167641. 6307.01   1
   2   6   9 10470.7 1718.92   1
   2   6  10 137100. 6061.90   1
   2   6  11 16132.6 2222.10   1
   2   6  12 98611.6 5412.74   1
   2   6  13 12417.2 1996.84   1
   2   6  14 24806.4 2836.94   1
   2   6  15 7171.36 1591.19   1
   2   6  16 2811.95 1084.60   1
   2   6  17 3980.83 1247.75   1
   2   6  18 1523.24 715.842   1
  -2   7  16 25129.4 2596.99   2
  -2   7  15 24509.4 2526.49   2
  -2   7  14 6747.72 1303.26   2
  -2   7  13 39916.1 3106.24   2
  -2   7  12 6563.02 1312.37   2
  -2   7  11 43024.7 3134.78   2
  -2   7  10 28086.0 2484.91   2
  -2   7   9 35220.2 2761.96   2
  -2   7   8 52072.2 3288.69   2
  -2   7   7 24936.9 2247.24   2
  -2   7   6 58035.7 3447.65   2
  -2   7   5 21415.9 2044.85   2
  -2   7   4 42116.5 2875.72   2
  -2   7   3 7564.67 1314.21   2
  -2   7   2 4481.72 914.825   2
  -2   7   1 480.433 355.830   2
  -2   7   0 6826.91 1148.29   2
  -2   7  -1 3211.66 787.419   2
  -2   7  -2 56097.7 3376.87   2
  -2   7  -3 9282.37 1429.07   2
  -2   7  -4 101016. 4686.32   2
   2   7   5 32216.1 2673.61   1
  -2   7  -5 42774.0 3091.88   2
   2   7   6 21709.7 2260.24   1
  -2   7  -6 31879.2 2704.29   2
   2   7   7 43301.5 3309.89   1
  -2   7  -7 63372.0 3849.22   2
   2   7   8 12592.8 1855.19   1
  -2   7  -8 17670.0 2078.17   2
   2   7   9 49017.1 3724.12   1
   2   7  10 4111.47 1213.17   1
   2   7  11 31739.6 3144.50   1
   2   7  12 13555.3 2127.92   1
   2   7  13 19922.1 2625.66   1
   2   7  14 31176.4 3350.99   1
   2   7  15 5593.27 1521.11   1
   2   7  16 36757.0 3773.64   1
   2   7  17 1901.45 936.682   1
  -2   8  11 1453.39 543.141   2
  -2   8  10 2258.98 681.995   2
  -2   8   9 5736.02 1155.69   2
  -2   8   8 148.642 314.761   2
  -2   8   7 11674.5 1639.54   2
  -2   8   6 29009.4 2629.80   2
  -2   8   5 13842.9 1801.50   2
  -2   8   4 79592.7 4272.03   2
  -2   8   3 14885.1 1930.22   2
  -2   8   2 96262.6 4731.69   2
  -2   8   1 18899.6 2165.14   2
  -2   8   0 102460. 4885.76   2
  -2   8  -1 29400.2 2635.41   2
  -2   8  -2 60812.3 3809.67   2
  -2   8  -3 31632.9 2794.93   2
  -2   8  -4 19328.6 2167.55   2
  -2   8  -5 13693.1 1880.20   2
  -2   8  -6 1357.13 498.608   2
  -2   8  -7 3091.94 853.872   2
  -2   8  -8 5227.65 1164.58   2
  -2   8  -9-157.619 316.996   2
  -2   8 -10 10503.6 1718.39   2
   2   8  12 4552.36 1282.20   1
   2   8  13 10410.9 1970.87   1
   2   8  14 741.432 585.452   1
   2   8  15 6979.41 1703.34   1
  -3   0  25 45.7811 113.943   2
  -3   0  24 1489.10 645.623   3
  -3   0  24 1504.16 679.204   2
  -3   0  23-701.594 438.126   3
  -3   0  23 378.275 316.312   2
  -3   0  22 3051.44 877.677   3
  -3   0  22 3456.40 951.842   2
  -3   0  21 196.039 53.9808   3
  -3   0  21 112.570 166.072   2
  -3   0  20-169.337 359.602   3
  -3   0  20 751.914 412.909   2
  -3   0  19 277.807 231.852   3
  -3   0  19 761.447 484.655   2
  -3   0  18 11755.3 1725.81   3
  -3   0  18 13374.5 1696.91   2
  -3   0  17 445.804 447.419   3
  -3   0  17 805.277 543.264   2
  -3   0  16 60114.8 3860.26   3
  -3   0  16 66263.5 3554.55   2
  -3   0  15 1330.68 649.151   2
  -3   0  14 166317. 5199.84   2
  -3   0  13 22267.4 1943.03   2
  -3   0  12 212962. 5309.18   2
  -3   0  11 46771.2 2479.60   2
  -3   0  10 222655. 5148.47   2
  -3   0   9 47950.5 2369.23   2
  -3   0   8 70828.1 2600.62   2
  -3   0   7 29155.7 1634.56   2
  -3   0   6 12543.2 993.295   2
  -3   0   5 5758.88 769.099   2
  -3   0   4 14992.4 989.809   2
  -3   0   3 33.7592 43.2795   2
  -3   0   2 62236.2 1907.27   2
  -3   0   1-4.08145 234.334   2
  -3   0   0 16076.3 936.168   2
  -3   0  -1 198.615 414.882   2
  -3   0  -2 36.7144 68.3673   2
  -3   0  -3 105.172 150.204   2
   3   0   4 51227.9 2743.50   1
  -3   0  -4 47233.2 2540.47   3
   3   0   5 653.878 408.262   1
  -3   0  -5 245.910 231.751   3
  -3   0  -6 210602. 5160.07   3
   3   0   6 225986. 6056.01   1
   3   0   7 2422.25 930.233   1
  -3   0  -7 573.251 467.618   3
   3   0   8 304715. 7442.38   1
  -3   0  -8 295815. 5755.94   3
  -3   0  -9 2157.97 629.242   3
   3   0   9 5576.93 1308.98   1
   3   0  10 324819. 8171.53   1
  -3   0 -10 309770. 5516.10   3
   3   0  11 8131.25 1697.81   1
  -3   0 -11 2271.82 564.229   3
   3   0  12 178639. 6401.25   1
   3   0  13 7107.90 1481.95   1
   3   0  14 5508.45 1190.39   1
   3   0  15 1817.43 862.369   1
   3   0  16 919.786 479.969   1
   3   0  17 302.378 360.817   1
   3   0  18 7611.87 1517.90   1
   3   0  19 286.486 296.856   1
   3   0  20 3715.90 1104.83   1
   3   0  21 12.3905 64.1952   1
  -3   1  25 7763.15 1620.72   2
  -3  -1  24 1614.36 767.648   3
  -3   1  24 721.620 454.128   3
  -3   1  24 1164.86 660.448   2
  -3  -1  23 4359.14 1126.49   3
  -3   1  23 5699.90 1300.75   3
  -3   1  23 6817.10 1401.53   2
  -3  -1  22 4593.23 1128.79   3
  -3   1  22 4980.14 1194.53   3
  -3   1  22 6204.58 1312.62   2
  -3   1  21 5765.11 1287.10   3
  -3   1  21 5420.06 1213.63   2
  -3   1  20 24347.7 2577.34   3
  -3  -1  20 26761.1 2425.46   2
  -3   1  20 26459.8 2596.83   2
  -3   1  19 9729.38 1615.70   3
  -3  -1  19 9887.51 1468.60   2
  -3   1  19 10362.1 1622.17   2
  -3   1  18 62255.5 4006.16   3
  -3  -1  18 60225.0 3434.24   2
  -3   1  18 63365.2 3758.73   2
  -3   1  17 19584.8 2242.62   3
  -3  -1  17 20391.5 2034.89   2
  -3   1  17 21762.3 2148.28   2
  -3   1  16 38137.0 3077.11   3
  -3  -1  16 44945.4 2826.39   2
  -3   1  16 40150.2 2748.33   2
  -3   1  15 24593.5 2452.68   3
  -3  -1  15 24184.9 2072.71   2
  -3   1  15 29320.8 2342.65   2
  -3   1  14 8388.83 1424.34   3
  -3  -1  14 9676.63 1232.44   2
  -3   1  14 9742.56 1325.39   2
  -3   1  13 27486.4 2088.91   2
  -3   1  13 24060.4 2391.46   3
  -3  -1  13 26480.4 1919.85   2
  -3   1  12 10136.8 1245.03   2
  -3   1  12 8861.17 1463.75   3
  -3  -1  12 8425.01 1049.04   2
  -3   1  11 45446.8 2483.66   2
  -3   1  11 46153.3 3226.62   3
  -3  -1  11 48747.6 2370.62   2
  -3   1  10 79801.2 3166.86   2
  -3   1  10 79647.6 4153.93   3
  -3  -1  10 76162.3 2862.85   2
  -3   1   9 24396.4 1711.16   2
  -3   1   9 24476.8 2286.56   3
  -3  -1   9 26599.1 1607.25   2
  -3   1   8 94873.7 3205.79   2
  -3   1   8 96274.7 4481.65   3
  -3  -1   8 93773.7 2848.30   2
  -3   1   7 32572.8 1846.29   2
  -3  -1   7 28782.2 1510.00   2
  -3   1   6 159856. 3898.55   2
  -3   1   6 153316. 5522.73   3
   3   1  -6 151741. 2767.00   2
  -3  -1   6 160318. 3174.77   2
  -3   1   5 62271.8 2384.14   2
  -3  -1   5 57024.5 1751.12   2
  -3   1   4 80518.3 2615.91   2
  -3   1   4 78646.5 3795.02   3
  -3  -1   4 82061.5 1884.30   2
  -3  -1   3 51506.0 1556.77   2
  -3   1   3 57952.5 2219.06   2
  -3  -1   2 1062.57 331.575   2
  -3   1   2 237.497 75.9427   2
  -3   1   2 832.374 425.019   3
  -3  -1   1 21421.1 759.986   2
  -3   1   1 23356.2 1405.20   2
  -3   1   1 21066.0 1909.19   3
  -3  -1   0 50027.8 1140.85   2
  -3   1   0 51373.3 2014.96   2
  -3   1   0 51900.2 2921.05   3
  -3   1  -1 34294.4 2334.77   3
  -3  -1  -1 33443.1 971.865   2
  -3   1  -1 34432.2 1636.31   2
  -3  -1  -1 32850.5 1040.27   2
   3   1   2 222314. 5267.47   1
  -3  -1  -2 213882. 2684.74   2
  -3   1  -2 215363. 4274.46   2
  -3  -1  -2 212885. 3019.31   2
  -3  -1  -3 39753.3 1295.12   2
   3   1   3 38818.8 2288.46   1
  -3   1  -3 39258.2 2419.31   3
  -3   1  -3 44733.2 2011.78   2
  -3  -1  -3 45115.3 1549.99   2
   3   1   4 186717. 5127.01   1
  -3   1  -4 175540. 5022.05   3
  -3  -1  -4 180497. 3297.94   2
   3   1   5 42043.1 2551.92   1
  -3   1  -5 39298.6 2358.40   3
   3   1   6 83987.1 3722.18   1
  -3   1  -6 80187.8 3274.65   3
  -3  -1  -6 79811.3 2560.89   2
   3  -1   7 45611.2 2929.10   1
   3   1   7 44380.7 2819.32   1
  -3   1  -7 37615.3 2181.56   3
   3  -1   8 9935.16 1374.90   1
   3   1   8 10704.3 1419.28   1
  -3   1  -8 8058.73 995.172   3
   3  -1   9 59177.9 3409.11   1
   3   1   9 53263.4 3217.03   1
   3  -1  10 20076.9 2035.58   1
  -3  -1 -10 21200.2 1460.15   3
   3   1  10 24221.4 2266.92   1
   3  -1  11 32718.3 2644.01   1
  -3  -1 -11 25903.7 1529.71   3
   3   1  11 27977.4 2461.67   1
   3  -1  12 34090.8 2784.84   1
   3   1  12 33884.0 2818.15   1
   3  -1  13 17836.8 2082.65   1
   3   1  13 17673.1 2086.10   1
   3  -1  14 99404.1 5019.11   1
   3   1  14 93214.9 4901.45   1
   3  -1  15 18287.1 2260.28   1
   3   1  15 17236.5 2240.75   1
   3  -1  16 74172.7 4547.19   1
   3   1  16 70916.8 4537.00   1
   3  -1  17 18207.5 2366.36   1
   3   1  17 17601.7 2349.51   1
   3  -1  18 13410.7 2045.06   1
   3   1  18 14444.7 2165.05   1
   3  -1  19 9036.04 1725.19   1
   3   1  19 7024.77 1558.05   1
   3   1  20 226.113 363.356   1
   3  -1  20 645.554 473.915   1
   3  -1  21 8452.97 1719.84   1
   3   1  21 8340.67 1742.62   1
  -3   2  24 42703.8 3697.99   2
  -3   2  23 5351.39 1331.92   3
  -3   2  23 5011.97 1463.78   2
  -3   2  22 49976.5 3833.66   3
  -3   2  22 48183.6 3759.92   2
  -3   2  21 7898.19 1590.22   3
  -3   2  21 9389.56 1658.47   2
  -3   2  20 28627.3 2867.53   3
  -3   2  20 28192.5 2645.73   2
  -3   2  19 8714.08 1607.62   3
  -3   2  19 11428.6 1780.70   2
  -3   2  18 9366.20 1589.42   3
  -3   2  18 7507.14 1281.15   2
  -3   2  17 5685.35 1313.66   3
  -3   2  17 5759.57 1235.57   2
  -3   2  16-68.9383 284.523   3
  -3   2  16 657.843 397.978   2
  -3   2  15 1189.70 618.639   3
  -3   2  15 1715.37 666.541   2
  -3   2  14 20081.0 1872.29   2
  -3   2  14 19715.3 2205.53   3
  -3   2  13 202.959 317.213   2
  -3   2  13 382.765 362.565   3
  -3   2  12 24344.5 1942.87   2
  -3   2  12 25476.2 2469.49   3
  -3   2  11 3710.65 960.491   2
  -3   2  11 1522.55 791.878   3
  -3   2  10 9458.75 1138.77   2
  -3   2  10 9034.47 1409.85   3
  -3   2   9 3270.00 703.052   2
  -3   2   9 1823.75 738.696   3
  -3   2   8 10410.3 1138.87   2
  -3   2   8 11537.7 1564.13   3
  -3   2   7 9984.43 1121.12   2
  -3   2   7 9435.30 1439.06   3
  -3   2   6 104368. 3435.20   2
  -3   2   6 109094. 4756.42   3
  -3   2   5 8869.53 1095.85   2
  -3   2   5 6018.64 1205.11   3
  -3   2   4 279078. 7407.54   3
  -3   2   4 268163. 5325.41   2
  -3   2   3 13097.0 1269.20   2
  -3   2   3 4641.89 1173.93   3
  -3   2   2 364364. 6086.42   2
  -3   2   2 374243. 8398.60   3
  -3   2   1 43138.9 2226.33   2
  -3   2   1 6208.49 1355.11   3
  -3   2   0 268260. 5245.62   2
  -3   2   0 275567. 6959.45   3
   3   2   1 4024.54 938.731   1
  -3   2  -1 6811.86 1296.77   3
   3   2   2 108667. 3594.91   1
  -3   2  -2 122355. 3620.80   2
  -3   2  -2 115441. 4403.99   3
   3   2   3 8717.48 1217.37   1
  -3   2  -3 9946.29 1355.78   3
  -3  -2  -4 34274.8 917.891   2
   3   2   4 36048.6 2263.00   1
  -3  -2  -4 33614.6 860.067   2
  -3   2  -4 34902.2 1976.31   2
   3   2   5 1436.28 592.513   1
   3   2   6 11393.9 1350.83   1
   3   2   7 376.168 310.435   1
   3   2   8 36450.1 2614.10   1
   3   2   9 1147.95 521.717   1
   3  -2  10 39842.9 2891.76   1
   3   2  10 39215.1 2908.89   1
   3   2  11 641.553 480.511   1
   3  -2  11 81.1906 518.305   1
   3   2  12 1684.93 650.795   1
   3  -2  12 2103.74 682.248   1
   3   2  13 4213.33 1077.90   1
   3  -2  13 4010.71 1036.63   1
   3  -2  14 11517.4 1714.14   1
   3   2  14 12851.1 1846.06   1
   3   2  15 1070.61 579.436   1
   3  -2  15 1423.00 612.305   1
   3  -2  16 53240.6 3801.78   1
   3   2  16 54755.1 4029.42   1
   3   2  17 1405.08 752.842   1
   3  -2  17 1200.15 582.367   1
   3   2  18 94794.7 5574.87   1
   3  -2  18 100178. 5423.94   1
   3   2  19 1271.24 894.185   1
   3  -2  19 1890.61 862.763   1
   3   2  20 77874.2 5293.19   1
   3  -2  20 79477.5 5054.67   1
   3  -2  21 2613.34 1146.98   1
  -3   3  22 4267.75 1154.27   2
  -3   3  21 8683.41 1547.56   2
  -3   3  20 22418.0 2416.43   2
  -3   3  19 17175.6 2132.89   2
  -3   3  18 43127.3 3245.32   2
  -3   3  17 17414.2 1970.22   2
  -3   3  16 31353.2 2577.72   2
  -3   3  16 34461.7 3118.46   3
  -3   3  15 11992.3 1563.99   2
  -3   3  15 8806.41 1602.56   3
  -3   3  14 8522.57 1314.18   2
  -3   3  14 9389.30 1620.00   3
  -3   3  13 12863.7 1586.05   2
  -3   3  13 7145.05 1413.41   3
  -3   3  12 4285.53 873.054   2
  -3   3  12 4336.03 1099.19   3
  -3   3  11 4761.26 885.476   2
  -3   3  11 5252.42 1195.57   3
  -3   3  10 47519.0 2717.48   2
  -3   3  10 49114.9 3484.16   3
  -3   3   9 16333.8 1600.42   2
  -3   3   9 14916.1 1933.60   3
  -3   3   8 126771. 4260.89   2
  -3   3   8 127317. 5521.60   3
  -3   3   7 45632.1 2502.53   2
  -3   3   7 40415.7 3072.30   3
  -3   3   6 101459. 3641.41   2
  -3   3   6 106246. 4941.70   3
  -3   3   5 59347.1 2901.11   2
  -3   3   5 46137.5 3239.42   3
  -3   3   4 40957.9 2270.45   2
  -3   3   4 38436.1 2911.37   3
  -3   3   3 64247.0 2826.55   2
  -3   3   2 3135.62 619.584   2
  -3   3   1 54004.9 2567.82   2
   3   3   0 37241.2 1908.07   1
  -3   3   0 37555.0 2184.40   2
   3   3   1 52219.7 2389.95   1
  -3   3  -1 52691.3 2553.48   2
   3   3   2 152885. 4300.89   1
  -3   3  -2 162134. 4660.60   2
   3   3   3 44435.8 2428.18   1
  -3   3  -3 49292.7 2621.46   2
   3   3   4 145235. 4546.49   1
  -3   3  -4 147915. 4495.42   2
   3   3   5 14645.7 1526.51   1
   3   3   6 74875.5 3585.09   1
   3   3   7 8909.18 1335.49   1
   3   3   8 9730.26 1391.19   1
   3   3   9 7564.74 1289.12   1
   3   3  10 5037.77 1044.38   1
   3   3  11 11377.1 1658.06   1
   3   3  12 60007.3 3886.46   1
   3   3  13 16456.8 2109.57   1
   3   3  14 63747.5 4268.94   1
   3   3  15 22048.7 2593.84   1
   3   3  16 33632.4 3277.95   1
   3  -3  16 37022.6 3231.92   1
   3   3  17 18462.1 2492.36   1
   3  -3  17 25137.3 2723.17   1
   3   3  18 11236.3 1970.27   1
   3  -3  18 11379.8 1902.66   1
   3   3  19 19162.6 2657.12   1
   3  -3  19 20279.1 2528.30   1
   3  -3  20 767.445 586.469   1
  -3   4  21 1364.03 757.324   2
  -3   4  20-73.5829 141.316   2
  -3   4  19 4386.84 1078.24   2
  -3   4  18 11187.0 1668.38   2
  -3   4  17 1701.06 687.894   2
  -3   4  16 55810.7 3563.43   2
  -3   4  15 6204.95 1190.15   2
  -3   4  14 101623. 4584.64   2
  -3   4  13 17689.4 1905.08   2
  -3   4  12 128487. 4859.98   2
  -3   4  11 17640.1 1949.39   2
  -3   4  10 94715.8 4075.81   2
  -3   4   9 28268.8 2374.95   2
  -3   4   8 35455.8 2382.93   2
  -3   4   7 17534.7 1651.21   2
  -3   4   6 4100.41 791.700   2
  -3   4   5 11858.0 1434.86   2
  -3   4   4 21804.6 1780.10   2
  -3   4   3 669.100 307.229   2
  -3   4   2 39628.8 2429.45   2
  -3   4   1 1748.14 478.206   2
   3   4  -1 615.329 213.044   1
   3   4   0 25509.6 1554.11   1
  -3   4   0 24506.4 1906.69   2
  -3   4  -1 17780.5 1782.50   2
   3   4   1 15895.6 1330.48   1
  -3   4  -2-228.332 304.942   2
   3   4   2 810.472 334.606   1
  -3   4  -3 5364.80 920.593   2
   3   4   3 4739.94 821.729   1
  -3   4  -4 51429.5 2901.74   2
   3   4   4 51450.9 2798.51   1
  -3   4  -5 4783.69 937.939   2
   3   4   5 5098.31 924.010   1
   3   4   6 139120. 4974.94   1
   3   4   7 3170.44 885.780   1
   3   4   8 194996. 6355.56   1
   3   4   9 1979.56 801.460   1
   3   4  10 153009. 6064.95   1
   3   4  11 7772.40 1489.84   1
   3   4  12 70278.0 4328.41   1
   3   4  13 4568.28 1258.51   1
   3   4  14 28710.0 2909.56   1
   3   4  15 4491.00 1214.20   1
   3   4  16 411.176 221.328   1
   3   4  17 418.115 257.398   1
   3   4  18 4543.80 1258.04   1
  -3   5  18 18701.3 2231.71   2
  -3   5  17 9688.49 1576.60   2
  -3   5  16 21283.5 2304.67   2
  -3   5  15 29236.1 2658.79   2
  -3   5  14 10409.8 1555.09   2
  -3   5  13 35522.4 2753.49   2
  -3   5  12 5369.67 1327.32   2
  -3   5  11 27737.5 2395.24   2
  -3   5  10 34670.6 2613.38   2
  -3   5   9 29917.5 2396.19   2
  -3   5   8 94253.4 4236.76   2
  -3   5   7 23546.1 2145.10   2
  -3   5   6 70367.8 3581.49   2
  -3   5   5 19336.9 1913.50   2
  -3   5   4 24149.7 2043.70   2
  -3   5   3 7466.45 1232.91   2
  -3   5   2 443.946 223.272   2
  -3   5   1 6959.31 1126.03   2
  -3   5   0 29836.6 2287.72   2
  -3   5  -1 3985.33 828.943   2
  -3   5  -2 44149.5 2803.11   2
  -3   5  -3 18246.7 1876.17   2
   3   5   3 14453.6 1436.56   1
  -3   5  -4 92065.4 4193.78   2
   3   5   4 91048.2 3784.25   1
   3   5   5 45277.0 2810.83   1
  -3   5  -5 49849.3 3196.58   2
   3   5   6 66750.4 3581.14   1
  -3   5  -6 75154.5 3885.87   2
   3   5   7 60355.7 3539.21   1
  -3   5  -7 76068.0 3991.87   2
   3   5   8 5692.66 1136.06   1
   3   5   9 34815.2 2854.75   1
   3   5  10 4783.22 1095.17   1
   3   5  11 27832.1 2712.34   1
   3   5  12 42208.6 3449.77   1
   3   5  13 11262.3 1856.66   1
   3   5  14 35477.7 3334.61   1
   3   5  15 3830.07 1164.82   1
   3   5  16 25263.0 2945.99   1
   3   5  17 975.789 664.905   1
  -3   6  15 3139.65 895.215   2
  -3   6  14 4726.66 1089.51   2
  -3   6  13 428.532 391.498   2
  -3   6  12 7275.81 1303.44   2
  -3   6  11 1620.43 638.468   2
  -3   6  10 536.879 340.246   2
  -3   6   9 8411.04 1360.10   2
  -3   6   8 3158.20 783.535   2
  -3   6   7 8741.00 1332.38   2
  -3   6   6 37636.1 2804.31   2
  -3   6   5 6445.37 1135.30   2
  -3   6   4 105741. 4600.42   2
  -3   6   3 4665.97 1512.55   2
  -3   6   2 139075. 5317.43   2
  -3   6   1 25245.8 2258.78   2
  -3   6   0 153357. 5621.00   2
  -3   6  -1 34152.3 2660.64   2
  -3   6  -2 68610.8 3788.25   2
  -3   6  -3 28948.1 2451.86   2
  -3   6  -4 777.170 426.460   2
  -3   6  -5 9275.16 1665.59   2
  -3   6  -6 1461.13 606.403   2
  -3   6  -7 2261.14 701.117   2
   3   6   8 9012.87 1443.64   1
  -3   6  -8 14892.9 1889.68   2
  -3   6  -9 569.105 311.544   2
   3   6   9 440.781 242.221   1
   3   6  10 5446.39 1200.26   1
   3   6  11 4578.70 1140.05   1
   3   6  12 891.053 535.549   1
   3   6  13 6383.36 1432.40   1
   3   6  14 1561.51 693.574   1
   3   6  15 3812.51 1153.29   1
   3   6  16 16224.1 2444.52   1
  -3   7  11 336.754 343.197   2
  -3   7  10 15774.6 1983.27   2
  -3   7   9 3011.81 909.040   2
  -3   7   8 41354.3 3155.11   2
  -3   7   7 12114.8 1724.53   2
  -3   7   6 33684.5 2845.56   2
  -3   7   5 27491.0 2635.57   2
  -3   7   4 12993.0 1720.29   2
  -3   7   3 41858.3 3147.76   2
  -3   7   2 4386.27 993.598   2
  -3   7   1 62226.0 3821.54   2
  -3   7   0 22987.6 2463.19   2
  -3   7  -1 27513.9 2557.29   2
  -3   7  -2 33181.9 2834.40   2
  -3   7  -3 11070.5 1656.63   2
  -3   7  -4 60089.5 3874.64   2
  -3   7  -5 9238.68 1700.48   2
  -3   7  -6 36435.1 3134.77   2
  -3   7  -7 8025.31 1548.40   2
  -3   7  -8 4391.63 1122.75   2
  -3   7  -9 2472.25 820.908   2
  -3   7 -10 1086.00 536.178   2
  -4   0  19 466.853 319.142   3
  -4   0  18 731.379 453.382   3
  -4   0  17-167.504 437.651   3
  -4   0  16 1325.18 532.515   3
  -4   0  15-233.051 487.547   3
  -4   0  14 13153.9 2029.84   3
  -4   0  13 63.2249 258.875   3
  -4   0  12 9210.29 1664.54   3
  -4   0  11-313.839 500.499   3
  -4   0  10-162.233 489.635   3
  -4   0   9-827.677 477.779   3
  -4   0   8 6300.66 1321.84   3
  -4   0   7 229.110 351.227   3
  -4   0   6 80356.5 4648.25   3
  -4   0   5 531.842 567.924   3
  -4   0   4 167649. 6598.68   3
  -4   0   3 1479.61 880.877   3
  -4   0   2 220907. 7315.73   3
  -4   0   1 1979.20 940.272   3
  -4   0   0 162188. 6174.91   3
  -4   0  -1 1663.65 679.803   3
  -4   0  -2 44920.8 3129.95   3
  -4   0  -3 397.582 330.369   3
  -4   0  -4 1391.73 616.853   3
  -4   0  -5 80.8461 112.049   3
  -4   0  -6 16329.6 1731.75   3
  -4   0  -7 187.073 223.453   3
  -4   0  -8 28781.3 2219.17   3
   4   0   9 183.989 335.161   1
   4   0  10 3525.17 1025.32   1
   4   0  11 175.608 300.925   1
   4   0  12 2054.05 906.822   1
   4   0  13-158.533 188.938   1
   4   0  14 12030.9 1938.02   1
   4   0  15 330.752 322.567   1
   4   0  16 47859.1 4013.22   1
  -4  -1  18 19640.9 2621.68   3
  -4   1  18 20941.1 2690.98   3
  -4   1  17 6742.26 1506.98   3
  -4   1  16 16522.5 2378.71   3
  -4   1  15 5468.43 1298.01   3
  -4   1  14 1972.29 849.100   3
  -4   1  13 11289.7 1881.61   3
  -4   1  12 6143.52 1431.34   3
  -4   1  11 12206.6 1913.30   3
  -4   1  10 55138.3 4025.97   3
  -4   1   9 7634.34 1545.09   3
  -4   1   8 88669.1 5047.50   3
  -4   1   7 17531.6 2234.42   3
  -4   1   6 56641.2 3924.54   3
  -4   1   5 25711.5 2630.05   3
  -4   1   4 17169.4 2149.91   3
  -4   1   3 25526.9 2546.21   3
  -4   1   2 7504.42 1421.67   3
  -4   1   1 21059.4 2255.28   3
  -4   1   0 41401.5 3107.58   3
  -4   1  -1 25428.1 2401.03   3
  -4   1  -2 82803.3 4263.48   3
  -4   1  -3 18977.8 2037.16   3
  -4   1  -4 96533.9 4491.43   3
  -4   1  -5 12330.0 1587.32   3
  -4  -1  -6 37116.1 2676.63   3
  -4   1  -6 36879.2 2672.51   3
   4   1   7 15161.0 1855.91   1
  -4  -1  -7 12840.7 1528.57   3
  -4   1  -7 14412.0 1638.18   3
  -4  -1  -8 4393.43 927.094   3
  -4   1  -8 4844.69 1004.96   3
   4   1   9 18629.8 2153.98   1
   4   1  10 17512.2 2131.99   1
   4   1  11 7749.29 1469.88   1
   4  -1  12 69407.4 4494.17   1
   4   1  12 66302.6 4351.23   1
   4  -1  13 12831.2 1981.59   1
   4   1  13 10867.7 1832.89   1
   4  -1  14 48834.1 3956.97   1
   4   1  14 45528.5 3812.52   1
   4  -1  15 16284.1 2347.73   1
   4   1  15 15592.1 2319.89   1
   4   1  16 26435.8 3075.51   1
  -4   2  18 14054.5 2236.09   3
  -4   2  17 1091.66 614.637   3
  -4   2  16 50039.4 4149.37   3
  -4   2  15 1263.26 910.913   3
  -4   2  15 2865.87 956.792   2
  -4   2  14 97000.6 4447.37   2
  -4   2  14 92093.2 5544.56   3
  -4   2  13 2522.08 796.788   2
  -4   2  13 2270.49 1065.30   3
  -4   2  12 109667. 4456.64   2
  -4   2  12 96329.7 5588.04   3
  -4   2  11 3762.00 890.003   2
  -4   2  11 4409.50 1234.31   3
  -4   2  10 77025.3 3592.70   2
  -4   2  10 56599.0 4186.90   3
  -4   2   9 2482.29 703.928   2
  -4   2   9 3183.83 1002.92   3
  -4   2   8 33892.9 2341.02   2
  -4   2   8 18439.1 2387.36   3
  -4   2   7 580.945 339.224   2
  -4   2   7 357.700 332.659   3
  -4   2   6 6570.92 1164.67   2
  -4   2   6 1917.73 816.931   3
  -4   2   5 910.524 363.269   2
  -4   2   5 566.846 523.642   3
  -4   2   4 19019.1 1572.04   2
  -4   2   4 16742.6 2132.95   3
  -4   2   3 100.868 105.753   2
  -4   2   3 134.283 274.685   3
  -4   2   2 28746.5 1926.94   2
  -4   2   2 28128.5 2698.20   3
  -4   2   1 168.287 75.7016   2
  -4   2   1 149.947 198.860   3
  -4   2   0 16787.8 1464.08   2
  -4   2   0 14129.0 1880.65   3
  -4   2  -1 769.048 252.054   2
  -4   2  -1 1346.30 563.664   3
  -4   2  -2 6811.06 994.127   2
  -4   2  -2 5467.41 1144.28   3
  -4   2  -3 1493.62 424.157   2
  -4   2  -3 1611.55 605.078   3
  -4   2  -4 57799.4 2834.14   2
  -4   2  -4 56086.4 3524.52   3
  -4   2  -5 1495.45 548.549   2
   4   2   5 1493.49 594.967   1
   4   2   6 139015. 5378.37   1
  -4   2  -6 149688. 4797.29   2
  -4   2  -7 2804.27 772.183   2
   4   2   7 2220.69 823.550   1
   4   2   8 162788. 6177.11   1
   4   2   9 2657.91 897.100   1
   4   2  10 125431. 5762.95   1
   4   2  11 2951.48 997.461   1
   4   2  12 64260.5 4399.90   1
   4   2  13 703.212 621.214   1
   4   2  14 11883.8 2044.98   1
   4   2  15 516.681 509.622   1
  -4   3  19 6114.92 1325.32   2
  -4   3  18 24137.8 2614.15   2
  -4   3  17 9243.59 1539.73   2
  -4   3  16 17792.6 2121.38   2
  -4   3  16 16390.5 2499.75   3
  -4   3  15 14608.4 1864.84   2
  -4   3  15 13540.5 2239.55   3
  -4   3  14 6126.94 1225.47   2
  -4   3  14 1053.39 603.430   3
  -4   3  13 18293.4 1984.72   2
  -4   3  13 13599.5 2191.76   3
  -4   3  12 9221.84 1403.55   2
  -4   3  12 7645.74 1639.92   3
  -4   3  11 20475.8 2006.01   2
  -4   3  11 17506.8 2435.75   3
  -4   3  10 35927.0 2563.78   2
  -4   3  10 38367.5 3545.74   3
  -4   3   9 26565.1 2188.78   2
  -4   3   9 21591.8 2660.73   3
  -4   3   8 60650.9 3277.94   2
  -4   3   8 59095.3 4317.79   3
  -4   3   7 15251.1 1663.74   2
  -4   3   7 13239.0 2083.42   3
  -4   3   6 66547.1 3283.09   2
  -4   3   6 59158.3 4225.48   3
  -4   3   5 6151.19 1002.04   2
  -4   3   5 5967.46 1400.92   3
  -4   3   4 20546.8 1883.40   2
  -4   3   4 14172.4 2082.15   3
  -4   3   3 4889.13 889.383   2
  -4   3   2 6838.58 1012.14   2
  -4   3   1 3490.15 725.364   2
  -4   3   0 40543.1 2495.90   2
  -4   3  -1 15851.7 1574.42   2
  -4   3  -2 79659.1 3550.02   2
   4   3   3 21196.6 1916.27   1
  -4   3  -3 21110.1 1857.81   2
   4   3   4 82131.3 3920.01   1
  -4   3  -4 86307.1 3828.90   2
   4   3   5 27261.6 2326.18   1
  -4   3  -5 29493.6 2279.05   2
   4   3   6 31112.3 2575.52   1
  -4   3  -6 37897.5 2678.49   2
   4   3   7 29452.4 2581.06   1
  -4   3  -7 31936.8 2478.44   2
   4   3   8 2068.14 873.991   1
  -4   3  -8 4789.20 1085.08   2
   4   3   9 25673.8 2561.96   1
   4   3  10 14422.1 1973.92   1
   4   3  11 20612.1 2440.52   1
   4   3  12 32764.9 3138.76   1
   4   3  13 12202.6 1975.80   1
   4   3  14 49296.9 4034.41   1
   4   3  15 4340.59 1229.95   1
  -4   4  18 5442.34 1326.92   2
  -4   4  17 3365.66 963.856   2
  -4   4  16 2851.93 905.001   2
  -4   4  15 2041.90 702.417   2
  -4   4  14 7033.87 1304.74   2
  -4   4  13 402.445 374.719   2
  -4   4  12 8520.98 1376.48   2
  -4   4  11 725.676 406.130   2
  -4   4  10 2929.23 906.218   2
  -4   4   9 3341.60 814.919   2
  -4   4   8 13779.0 1641.98   2
  -4   4   7 3846.33 842.684   2
  -4   4   6 63243.3 3444.12   2
  -4   4   5 2282.06 765.130   2
  -4   4   4 127694. 4865.46   2
  -4   4   3 1459.09 816.747   2
  -4   4   2 152022. 5253.49   2
  -4   4   1 1070.84 689.372   2
  -4   4   0 107097. 4490.76   2
  -4   4  -1 3470.25 871.349   2
  -4   4  -2 59266.2 3344.99   2
  -4   4  -3 8058.93 1256.94   2
  -4   4  -4 6391.22 1387.18   2
  -4   4  -5 3305.50 842.719   2
   4   4   6 6442.01 1189.31   1
  -4   4  -6 8528.27 1342.34   2
  -4   4  -7 36.5308 347.960   2
   4   4   7 305.976 307.801   1
   4   4   8 16740.2 2019.36   1
  -4   4  -8 15922.6 1893.14   2
  -4   4  -9 913.400 482.566   2
   4   4   9 922.551 481.328   1
   4   4  10 13048.3 1893.03   1
  -4   4 -10 16290.8 1982.23   2
   4   4  11 2996.50 942.208   1
   4   4  12 872.481 507.684   1
   4   4  13 3187.42 1034.38   1
   4   4  14 8472.38 1708.67   1
  -4   5  15 1824.15 816.314   2
  -4   5  14 4546.10 1134.46   2
  -4   5  13 402.922 326.764   2
  -4   5  12 6892.30 1292.02   2
  -4   5  11 853.244 479.040   2
  -4   5  10 21889.0 2281.39   2
  -4   5   9 5703.93 1169.28   2
  -4   5   8 37554.9 2892.06   2
  -4   5   7 11544.6 1630.78   2
  -4   5   6 37420.7 2815.04   2
  -4   5   5 23443.6 2200.05   2
  -4   5   4 18037.2 2130.55   2
  -4   5   3 35919.8 2718.60   2
  -4   5   2 4706.36 1092.30   2
  -4   5   1 39180.9 2918.53   2
  -4   5   0 30082.7 2524.04   2
  -4   5  -1 21329.9 2217.08   2
  -4   5  -2 71301.5 3967.89   2
  -4   5  -3 11977.1 1739.51   2
  -4   5  -4 49708.8 3373.58   2
  -4   5  -5 7038.75 1288.50   2
  -4   5  -6 24890.6 2426.59   2
  -4   5  -7 1268.16 553.429   2
  -4   5  -8 3094.19 916.405   2
  -4   5  -9 305.558 247.577   2
  -4   5 -10 5910.76 1281.29   2
  -4   5 -11 4295.95 1115.75   2
   4   5  12 15699.2 2239.60   1
  -4   5 -12 20668.4 2428.21   2
   4   5  13 6307.87 1469.39   1
  -4   6  10 46209.6 3496.66   2
  -4   6   9 6139.87 1364.27   2
  -4   6   8 14795.2 1940.42   2
  -4   6   7 4894.08 1148.09   2
  -4   6   6 2098.87 850.979   2
  -4   6   5 3695.94 910.362   2
  -4   6   4 8471.50 1412.85   2
  -4   6   3 929.199 435.281   2
  -4   6   2 9159.52 1457.52   2
  -4   6   1 1709.21 638.853   2
  -4   6   0 1859.65 649.529   2
  -4   6  -1 6238.93 1248.93   2
  -4   6  -2 398.231 656.816   2
  -4   6  -3 8177.68 1457.06   2
  -4   6  -4 21924.7 2375.95   2
  -4   6  -5 4136.28 1093.72   2
  -4   6  -6 58802.7 3989.04   2
  -4   6  -7 1405.19 840.511   2
  -4   6  -8 90175.7 5213.39   2
  -5   0   8 12617.5 2212.72   3
  -5   0   7-197.256 219.459   3
  -5   0   6 7977.99 1703.30   3
  -5   0   5-737.929 501.292   3
  -5   0   4 18570.8 2509.08   3
  -5   0   3-214.822 232.641   3
  -5   0   2 9105.14 1722.90   3
  -5   0   1-95.7202 332.233   3
  -5   0   0 2024.55 788.212   3
  -5   0  -1-867.599 501.863   3
  -5   0  -2 7777.06 1503.59   3
  -5   0  -3-31.7078 243.890   3
  -5   0  -4 38790.5 3269.23   3
  -5   0  -5 60.6087 168.392   3
  -5  -1   7 7696.86 1710.23   3
  -5   1   7 7043.99 1608.73   3
  -5  -1   6 27277.4 3175.92   3
  -5   1   6 27821.4 3167.14   3
  -5  -1   5 6656.45 1565.74   3
  -5   1   5 8434.77 1717.46   3
  -5  -1   4 11954.2 2042.61   3
  -5   1   4 12410.2 2068.73   3
  -5  -1   3 6875.95 1524.03   3
  -5   1   3 5437.26 1352.40   3
  -5  -1   2 10506.0 1910.98   3
  -5   1   2 10286.6 1878.29   3
  -5  -1   1 7957.54 1597.74   3
  -5   1   1 7487.76 1563.07   3
  -5  -1   0 35243.3 3322.85   3
  -5   1   0 35565.8 3321.22   3
  -5  -1  -1 10997.7 1878.59   3
  -5   1  -1 9026.10 1669.92   3
  -5  -1  -2 47131.2 3754.92   3
  -5   1  -2 51854.5 3931.20   3
  -5  -1  -3 9939.13 1725.27   3
  -5   1  -3 11758.2 1858.51   3
  -5  -1  -4 40246.5 3362.95   3
  -5   1  -4 45272.7 3566.58   3
  -5  -1  -5 9944.10 1631.64   3
  -5   1  -5 10579.0 1690.82   3
  -5   2   6 52472.9 4440.71   3
  -5   2   5 2387.85 1112.64   3
  -5   2   4 90351.7 5684.75   3
  -5   2   3 2387.07 1072.51   3
  -5   2   2 90895.1 5613.19   3
  -5   2   1 2442.70 1024.58   3
  -5   2   0 64987.6 4585.78   3
  -5   2  -1 2051.39 855.204   3
  -5   2  -2 27291.1 2987.72   3
  -5  -2  -5-71.3326 309.641   3
   0   0   0    0.00    0.00   0
TITL exp_393 in P2(1)/m
REM P2(1)/m (#11 in standard setting)
CELL 0.71073   4.095276   7.808873  21.707822  90.0000  92.3073  90.0000
ZERR    3.00   0.000331   0.000575   0.001345   0.0000   0.0060   0.0000
LATT  1
SYMM -x, y+1/2,-z
SFAC C H N O Cd
UNIT 24.00 36.00 12.00 6.00 3.00
TREF
HKLF 4
END
;
_shelx_hkl_checksum              57216
loop_
_space_group_symop_operation_xyz
'x, y, z'
'-x, y+1/2, -z+1/2'
'-x, -y, -z'
'x, -y-1/2, z-1/2'
loop_
_atom_site_label
_atom_site_type_symbol
_atom_site_fract_x
_atom_site_fract_y
_atom_site_fract_z
_atom_site_U_iso_or_equiv
_atom_site_adp_type
_atom_site_occupancy
_atom_site_site_symmetry_order
_atom_site_calc_flag
_atom_site_refinement_flags_posn
_atom_site_refinement_flags_adp
_atom_site_refinement_flags_occupancy
Cd1 Cd 0.5000 0.5000 0.5000 0.0212(3) Uani 1 2 d S . P
I1 I 0.97030(18) 0.26056(9) 0.45392(3) 0.0246(3) Uani 1 1 d . . .
N1 N 0.542(3) 0.3446(13) 0.5969(4) 0.027(2) Uani 1 1 d . . .
N2 N 0.778(3) 0.3305(16) 0.6953(5) 0.033(3) Uani 1 1 d D . .
H21 H 0.90(3) 0.398(16) 0.719(6) 0.040 Uiso 1 1 d D U .
O1 O 0.856(3) 0.0857(16) 0.7491(5) 0.060(4) Uani 1 1 d . . .
C1 C 0.676(4) 0.4159(17) 0.6452(5) 0.032(3) Uani 1 1 d . . .
H1 H 0.7041 0.5367 0.6449 0.038 Uiso 1 1 calc R U .
C2 C 0.748(4) 0.1547(19) 0.7021(6) 0.036(3) Uani 1 1 d . . .
C3 C 0.586(4) 0.0770(17) 0.6498(6) 0.035(3) Uani 1 1 d . . .
H3 H 0.5435 -0.0426 0.6498 0.042 Uiso 1 1 calc R U .
C4 C 0.494(4) 0.1723(16) 0.6005(5) 0.031(3) Uani 1 1 d . . .
H4 H 0.3889 0.1164 0.5662 0.037 Uiso 1 1 calc R U .
loop_
_atom_site_aniso_label
_atom_site_aniso_U_11
_atom_site_aniso_U_22
_atom_site_aniso_U_33
_atom_site_aniso_U_23
_atom_site_aniso_U_13
_atom_site_aniso_U_12
Cd1 0.0210(5) 0.0208(6) 0.0216(5) 0.0020(4) -0.0027(4) 0.0003(5)
I1 0.0202(4) 0.0209(4) 0.0322(4) -0.0050(3) -0.0027(3) -0.0011(3)
N1 0.032(5) 0.024(5) 0.023(4) 0.002(4) -0.007(4) 0.001(5)
N2 0.047(7) 0.035(6) 0.017(5) -0.002(4) -0.007(4) 0.000(5)
O1 0.091(10) 0.056(7) 0.030(5) 0.010(5) -0.020(6) 0.018(7)
C1 0.049(8) 0.025(6) 0.021(5) -0.003(5) 0.001(5) 0.001(6)
C2 0.043(8) 0.038(8) 0.025(6) -0.003(6) -0.002(5) 0.010(6)
C3 0.053(9) 0.025(6) 0.028(6) 0.002(5) -0.004(6) 0.000(6)
C4 0.041(7) 0.023(6) 0.028(6) -0.003(5) -0.005(6) -0.002(6)
loop_
_atom_type_symbol
_atom_type_description
_atom_type_scat_dispersion_real
_atom_type_scat_dispersion_imag
_atom_type_scat_source
C C 0.0033 0.0016 'International Tables Vol C Tables 4.2.6.8 and 6.1.1.4'
H H 0.0000 0.0000 'International Tables Vol C Tables 4.2.6.8 and 6.1.1.4'
Cd Cd -0.8075 1.2024 'International Tables Vol C Tables 4.2.6.8 and 6.1.1.4'
I I -0.4742 1.8119 'International Tables Vol C Tables 4.2.6.8 and 6.1.1.4'
N N 0.0061 0.0033 'International Tables Vol C Tables 4.2.6.8 and 6.1.1.4'
O O 0.0106 0.0060 'International Tables Vol C Tables 4.2.6.8 and 6.1.1.4'
loop_
_geom_angle_atom_site_label_1
_geom_angle_atom_site_label_2
_geom_angle_atom_site_label_3
_geom_angle
_geom_angle_site_symmetry_1
_geom_angle_site_symmetry_3
N1 Cd1 N1 180.0 3_666 .
N1 Cd1 I1 87.2(3) 3_666 3_666
N1 Cd1 I1 92.8(3) . 3_666
N1 Cd1 I1 92.8(3) 3_666 .
N1 Cd1 I1 87.2(3) . .
I1 Cd1 I1 180.00(2) 3_666 .
N1 Cd1 I1 89.8(2) 3_666 1_455
N1 Cd1 I1 90.2(2) . 1_455
I1 Cd1 I1 92.04(2) 3_666 1_455
I1 Cd1 I1 87.96(2) . 1_455
N1 Cd1 I1 90.2(2) 3_666 3_766
N1 Cd1 I1 89.8(2) . 3_766
I1 Cd1 I1 87.96(2) 3_666 3_766
I1 Cd1 I1 92.04(2) . 3_766
I1 Cd1 I1 180.0 1_455 3_766
Cd1 I1 Cd1 87.963(19) . 1_655
C1 N1 C4 116.0(10) . .
C1 N1 Cd1 120.1(8) . .
C4 N1 Cd1 122.5(7) . .
C1 N2 C2 123.9(11) . .
C1 N2 H21 110(10) . .
C2 N2 H21 126(10) . .
N1 C1 N2 123.9(12) . .
N1 C1 H1 118.1 . .
N2 C1 H1 118.1 . .
O1 C2 N2 119.7(13) . .
O1 C2 C3 128.2(14) . .
N2 C2 C3 112.2(11) . .
C4 C3 C2 120.3(12) . .
C4 C3 H3 119.9 . .
C2 C3 H3 119.9 . .
C3 C4 N1 123.7(11) . .
C3 C4 H4 118.2 . .
N1 C4 H4 118.2 . .
loop_
_geom_bond_atom_site_label_1
_geom_bond_atom_site_label_2
_geom_bond_distance
_geom_bond_site_symmetry_2
Cd1 N1 2.429(9) 3_666
Cd1 N1 2.429(9) .
Cd1 I1 2.8916(7) 3_666
Cd1 I1 2.8916(7) .
Cd1 I1 3.0046(7) 1_455
Cd1 I1 3.0046(7) 3_766
I1 Cd1 3.0046(7) 1_655
N1 C1 1.290(15) .
N1 C4 1.362(16) .
N2 C1 1.329(16) .
N2 C2 1.39(2) .
N2 H21 0.88(2) .
O1 C2 1.222(16) .
C1 H1 0.9500 .
C2 C3 1.426(18) .
C3 C4 1.346(17) .
C3 H3 0.9500 .
C4 H4 0.9500 .
loop_
_geom_hbond_atom_site_label_D
_geom_hbond_atom_site_label_H
_geom_hbond_atom_site_label_A
_geom_hbond_distance_DH
_geom_hbond_distance_HA
_geom_hbond_distance_DA
_geom_hbond_angle_DHA
_geom_hbond_site_symmetry_A
N2 H21 O1 0.88(2) 1.89(5) 2.743(16) 163(14) 2_756
C1 H1 I1 0.95 3.02 3.655(13) 125.6 3_766
loop_
_geom_torsion_atom_site_label_1
_geom_torsion_atom_site_label_2
_geom_torsion_atom_site_label_3
_geom_torsion_atom_site_label_4
_geom_torsion
C4 N1 C1 N2 3(2)
Cd1 N1 C1 N2 -163.7(11)
C2 N2 C1 N1 -1(2)
C1 N2 C2 O1 178.1(14)
C1 N2 C2 C3 -2(2)
O1 C2 C3 C4 -177.4(17)
N2 C2 C3 C4 2(2)
C2 C3 C4 N1 -1(2)
C1 N1 C4 C3 -2(2)
Cd1 N1 C4 C3 164.3(11)
