#------------------------------------------------------------------------------
#$Date: 2018-02-08 10:05:29 +0200 (Thu, 08 Feb 2018) $
#$Revision: 206304 $
#$URL: file:///home/coder/svn-repositories/cod/cif/1/54/88/1548892.cif $
#------------------------------------------------------------------------------
#
# This file is available in the Crystallography Open Database (COD),
# http://www.crystallography.net/. The original data for this entry
# were provided by IUCr Journals, http://journals.iucr.org/.
#
# The file may be used within the scientific community so long as
# proper attribution is given to the journal article from which the
# data were obtained.
#
data_1548892
loop_
_publ_author_name
'Fan, Changzeng'
'Liu, Cong'
_publ_section_title
;
 Crystal structure of \w-Al~4~Cr
;
_journal_coeditor_code           WM4068
_journal_issue                   2
_journal_name_full               IUCrData
_journal_page_first              x180216
_journal_paper_doi               10.1107/S241431461800216X
_journal_volume                  3
_journal_year                    2018
_chemical_formula_iupac          'Al4 Cr'
_chemical_formula_sum            'Al4 Cr'
_chemical_formula_weight         159.92
_chemical_name_systematic
;
Tetraaluminium chromium
;
_space_group_crystal_system      monoclinic
_space_group_IT_number           8
_space_group_name_Hall           'C -2y'
_space_group_name_H-M_alt        'C 1 m 1'
_symmetry_space_group_name_Hall  'C -2y'
_symmetry_space_group_name_H-M   'C 1 m 1'
_cell_angle_alpha                90
_cell_angle_beta                 100.357(4)
_cell_angle_gamma                90
_cell_formula_units_Z            6
_cell_length_a                   5.1574(6)
_cell_length_b                   17.413(2)
_cell_length_c                   5.1107(7)
_cell_measurement_reflns_used    1199
_cell_measurement_temperature    293.(2)
_cell_measurement_theta_max      27.0053
_cell_measurement_theta_min      4.0533
_cell_volume                     451.49(10)
_computing_cell_refinement
;
SAINT (Bruker, 2015)
;
_computing_data_collection
;
APEX3 (Bruker, 2015)
;
_computing_data_reduction
;
SAINT (Bruker, 2015)
;
_computing_molecular_graphics
;
DIAMOND  (Brandenburg & Putz, 2017)
;
_computing_publication_material
;
publCIF (Westrip, 2010)
;
_computing_structure_refinement
;
SHELXL2014 (Sheldrick, 2015b)
;
_computing_structure_solution
;
SHELXT2014 (Sheldrick, 2015a)
;
_diffrn_ambient_temperature      293.(2)
_diffrn_detector_area_resol_mean 10.4167
_diffrn_measured_fraction_theta_full 1.000
_diffrn_measured_fraction_theta_max 1.000
_diffrn_measurement_device_type  'Bruker APEXII Photon 100 COMS'
_diffrn_measurement_method       'phi and omega scans'
_diffrn_radiation_monochromator  Graphite
_diffrn_radiation_type           'Mo K\a'
_diffrn_radiation_wavelength     0.71073
_diffrn_reflns_av_R_equivalents  0.0678
_diffrn_reflns_limit_h_max       7
_diffrn_reflns_limit_h_min       -6
_diffrn_reflns_limit_k_max       21
_diffrn_reflns_limit_k_min       -23
_diffrn_reflns_limit_l_max       6
_diffrn_reflns_limit_l_min       -6
_diffrn_reflns_number            4792
_diffrn_reflns_theta_full        28.93
_diffrn_reflns_theta_max         28.93
_diffrn_reflns_theta_min         2.34
_exptl_absorpt_coefficient_mu    4.646
_exptl_absorpt_correction_T_max  0.870
_exptl_absorpt_correction_T_min  0.757
_exptl_absorpt_correction_type   multi-scan
_exptl_absorpt_process_details
;
(<i>SADABS</i>; Krause <i>et al.</i>,  2015)
;
_exptl_crystal_colour            metallic
_exptl_crystal_density_diffrn    3.529
_exptl_crystal_density_method    'not measured'
_exptl_crystal_description       fragment
_exptl_crystal_F_000             456
_exptl_crystal_size_max          0.07
_exptl_crystal_size_mid          0.05
_exptl_crystal_size_min          0.03
_refine_diff_density_max         0.848
_refine_diff_density_min         -1.203
_refine_ls_abs_structure_details
;
Flack (1983); 584 Friedel pairs
;
_refine_ls_abs_structure_Flack   0.16(7)
_refine_ls_extinction_method     none
_refine_ls_goodness_of_fit_ref   1.051
_refine_ls_hydrogen_treatment    undef
_refine_ls_matrix_type           full
_refine_ls_number_parameters     74
_refine_ls_number_reflns         1200
_refine_ls_number_restraints     2
_refine_ls_restrained_S_all      1.050
_refine_ls_R_factor_all          0.0721
_refine_ls_R_factor_gt           0.0466
_refine_ls_shift/su_max          0.000
_refine_ls_shift/su_mean         0.000
_refine_ls_structure_factor_coef Fsqd
_refine_ls_weighting_details
'w=1/[\s^2^(Fo^2^)+(0.0320P)^2^+2.4184P] where P=(Fo^2^+2Fc^2^)/3'
_refine_ls_weighting_scheme      calc
_refine_ls_wR_factor_gt          0.0833
_refine_ls_wR_factor_ref         0.0903
_reflns_number_gt                967
_reflns_number_total             1200
_reflns_threshold_expression     'I > 2\s(I)'
_cod_data_source_file            wm4068sup1.cif
_cod_data_source_block           I
_cod_database_code               1548892
_shelx_hkl_file
;
   2   0   0  232.48   28.30
   2   0   0  163.38   17.60
   2   0   0  213.88   18.40
  -2   0   0  170.58   21.70
  -2   0   0  208.48   16.10
  -2   0   0  183.98   17.40
   4   0   0    0.30   18.50
   4   0   0   -0.10   23.90
   4   0   0   -4.30   23.40
   4   0   0   30.40   29.50
  -4   0   0   18.00   22.50
   6   0   0 2242.28  150.68
   6   0   0 2438.56  105.49
  -1  -1   0  126.79   10.00
   1  -1   0  127.39    8.00
   1  -1   0  125.49   12.30
  -1  -1   0  130.39    5.60
  -1  -1   0  144.39   13.70
  -1  -1   0  126.19    8.50
  -1  -1   0  140.09   11.00
   1   1   0  129.39   10.70
  -1   1   0  127.19   12.00
  -1   1   0  135.19    7.80
   1   1   0  145.49   14.00
   1   1   0  137.89   11.30
  -3  -1   0  106.49   18.70
   3  -1   0  123.49   18.90
   3  -1   0  109.29   27.50
   3  -1   0  123.89   16.60
  -3  -1   0  143.69   27.90
  -3  -1   0   88.79   19.70
   3  -1   0  105.49   20.10
   3   1   0   96.29   27.20
  -3   1   0   96.79   24.50
   3   1   0  143.79   22.10
   3   1   0  119.79   16.90
  -3   1   0  130.79   17.80
   3   1   0  136.99   23.50
  -3   1   0  115.79   17.70
   5  -1   0    6.30   41.10
   5  -1   0   60.49   31.90
  -5  -1   0   87.79   36.50
  -5   1   0   24.10   45.10
   5   1   0  -68.69   48.30
   5   1   0   42.90   32.00
   5   1   0   58.09   42.40
   0  -2   0   37.50    4.60
   2  -2   0  150.08    8.80
  -2  -2   0  164.78   20.40
  -2  -2   0  139.29   15.70
   2  -2   0  146.69   14.60
   2  -2   0  143.89   14.20
  -2  -2   0  132.69    8.40
  -2  -2   0  145.79   22.40
  -2  -2   0  144.49   17.40
   2  -2   0  151.48   21.10
  -2   2   0  152.18   20.80
  -2   2   0  107.19   12.60
   2   2   0  180.88   21.40
   2   2   0  152.78   15.50
   2   2   0  181.88   20.00
  -2   2   0  159.08   13.10
   2   2   0  163.18   24.30
  -4  -2   0   -4.30   22.70
   4  -2   0   69.69   22.90
   4  -2   0   54.09   20.30
   4  -2   0   66.19   34.50
   4  -2   0   65.19   22.00
   4   2   0   77.89   25.60
   4   2   0   74.49   34.50
   4   2   0   75.69   26.20
  -4   2   0   62.59   22.70
  -4   2   0   53.49   19.50
   4   2   0   82.39   30.70
   6  -2   0  243.18   75.39
   6  -2   0  214.28   42.00
   6   2   0  309.67   56.19
   6   2   0  299.37   82.79
  -1  -3   0  751.02   23.40
   1  -3   0  709.23   27.90
  -1  -3   0  736.53   30.50
  -1  -3   0  745.93   26.30
  -1  -3   0  760.72   27.70
  -1  -3   0  767.42   29.40
   1   3   0  747.33   28.40
   1   3   0  744.73   31.40
   1   3   0  774.92   29.50
   1   3   0  756.42   26.40
   3  -3   0   24.60    7.00
  -3  -3   0   60.89   21.30
   3  -3   0   47.10   13.60
   3  -3   0   54.09   13.50
  -3  -3   0   34.40   13.60
   3  -3   0   47.40   13.90
  -3  -3   0   32.10   21.80
  -3  -3   0   18.80   17.60
   3  -3   0   30.20   23.40
  -3   3   0   12.50   20.10
   3   3   0   80.79   28.40
  -3   3   0   30.60   13.10
  -3   3   0   31.30   13.10
   3   3   0   30.10   16.60
   3   3   0   43.20   19.50
   5  -3   0    8.10   48.00
  -5  -3   0   55.09   39.20
   5  -3   0   73.79   27.90
   5  -3   0   35.90   47.10
   5   3   0   50.99   46.30
  -5   3   0   13.60   27.70
   5   3   0  -19.90   42.30
   0  -4   0   19.50    6.50
   0  -4   0   21.30    5.80
   0  -4   0   26.10    7.90
   0  -4   0   29.90    6.60
   0   4   0   25.80    6.10
   0   4   0   21.30    6.10
   0   4   0   30.30    7.10
   0   4   0   20.30    7.90
   2  -4   0 4362.76  108.39
  -2  -4   0 4380.56  120.89
   2  -4   0 4388.66  122.09
  -2  -4   0 4273.37  107.89
  -2  -4   0 4169.28  123.79
  -2  -4   0 4287.27  118.29
  -2  -4   0 4399.46  114.39
   2   4   0 4430.36  122.39
   2   4   0 4292.97  118.89
   2   4   0 4393.56  114.79
   2   4   0 4605.74  128.69
   4  -4   0 1560.04   57.79
  -4  -4   0 1500.85   59.79
   4  -4   0 1440.76   53.59
   4  -4   0 1404.86   83.29
   4  -4   0 1523.15   52.99
  -4  -4   0 1539.65   71.09
   4   4   0 1693.43   79.59
   4   4   0 1544.95   66.59
  -4   4   0 1574.84   55.69
   4   4   0 1548.45   88.49
   4   4   0 1569.74   71.09
  -6  -4   0  110.29   58.89
   6  -4   0    0.60   33.30
   6  -4   0   59.99   66.89
   6   4   0   21.10   52.99
   6   4   0   91.19   67.69
   1  -5   0  116.09   13.30
  -1  -5   0  128.39   16.30
  -1  -5   0   98.19   11.80
  -1  -5   0  108.29   16.20
   1   5   0  117.99   13.60
   1   5   0  104.79   16.30
   1   5   0   89.39   15.60
   1   5   0  105.19   15.40
  -3  -5   0   30.80   15.50
  -3  -5   0   57.09   23.30
   3  -5   0   19.50   24.40
  -3  -5   0   37.50   10.40
  -3  -5   0   59.69   22.30
   3  -5   0   34.90   10.90
  -3  -5   0    6.90   18.30
  -3   5   0   38.80   11.30
   3   5   0   27.90   16.80
  -3   5   0   32.20   10.80
   3   5   0   24.00   25.90
   3   5   0   35.60   22.00
  -5  -5   0   74.29   41.80
   5  -5   0   45.50   54.69
   5   5   0   87.09   52.99
   5   5   0  101.89   36.50
   5   5   0  130.99   53.29
   0  -6   0   13.50    8.90
   0  -6   0   18.20    9.70
   0  -6   0   27.60    8.80
   0  -6   0   20.50   11.20
   0   6   0   15.10    8.40
   0   6   0   29.20    9.70
   0   6   0    9.80   10.80
   0   6   0   19.80    9.30
  -2  -6   0  797.12   39.40
  -2  -6   0  787.92   35.50
  -2  -6   0  836.02   42.90
   2  -6   0  779.82   37.60
  -2  -6   0  845.02   45.10
   2  -6   0  858.71   41.50
   2   6   0  833.62   44.20
   2   6   0  856.61   41.90
   2   6   0  817.02   37.10
   2   6   0  851.31   48.40
  -4  -6   0   58.29   32.50
  -4  -6   0  103.49   13.90
   4  -6   0  140.49   41.20
  -4  -6   0  117.19   27.60
   4  -6   0   66.79   14.10
   4   6   0  147.09   38.30
  -4   6   0  122.39   18.10
  -4   6   0   96.09   17.90
   4   6   0  129.49   40.80
   4   6   0   73.19   32.30
   6  -6   0   -1.20   69.39
  -6  -6   0  215.28   63.79
   6   6   0  181.08   62.29
   6   6   0  162.58   78.69
  -1  -7   0 2645.74   73.99
  -1  -7   0 2661.63   76.99
  -1  -7   0 2632.74   79.49
   1  -7   0 2732.03   75.19
  -1  -7   0 2325.87   82.69
  -1  -7   0 2730.63   75.29
   1  -7   0 2572.54   73.19
  -1   7   0 2452.45   68.89
   1   7   0 2649.33   79.79
  -1   7   0 2598.24   73.29
   1   7   0 2488.05   78.99
   3  -7   0   60.49   27.40
  -3  -7   0   32.10   17.00
  -3  -7   0   19.40   23.90
  -3  -7   0   45.70   26.20
  -3  -7   0   50.59   15.80
  -3  -7   0   22.10   22.30
   3  -7   0   32.50   17.20
   3   7   0   50.09   24.50
   3   7   0   70.09   25.00
   3   7   0   45.10   32.40
  -5  -7   0  767.52   54.19
  -5  -7   0  678.23   78.79
   5   7   0  817.72   71.79
   5   7   0  805.22   98.19
   0  -8   0 7625.04  192.38
   0  -8   0 7847.02  191.08
   0  -8   0 7978.60  189.88
   0  -8   0 7591.74  189.38
   0  -8   0 7471.65  190.68
   0   8   0 7803.52  190.68
   0   8   0 7587.24  191.28
   0   8   0 7386.06  191.08
  -2  -8   0  131.79   22.50
   2  -8   0  206.28   26.20
   2  -8   0  215.28   25.50
  -2  -8   0  184.58   28.10
  -2  -8   0  191.88   23.60
   2  -8   0  216.78   22.70
  -2  -8   0  186.18   22.80
  -2  -8   0  176.18   27.70
   2   8   0  213.18   28.50
   2   8   0  199.48   29.00
   2   8   0  157.68   28.80
   2   8   0  186.88   25.40
   4  -8   0  172.98   44.70
  -4  -8   0  204.78   41.20
   4  -8   0  207.08   24.20
  -4  -8   0  215.98   31.10
  -4  -8   0  171.68   21.30
   4   8   0  228.58   53.59
   4   8   0  193.28   41.20
   6  -8   0 1119.69  132.89
   6   8   0  767.52  113.29
   6   8   0  829.22  103.99
  -1  -9   0  187.68   22.80
  -1  -9   0  201.88   24.20
   1  -9   0  184.98   21.30
   1  -9   0  214.08   24.70
  -1  -9   0  228.08   27.90
   1  -9   0  178.48   14.90
  -1  -9   0  154.68   19.40
  -1  -9   0  211.38   24.60
   1  -9   0  187.38   17.60
   1   9   0  159.88   23.30
   1   9   0  226.38   27.50
  -1   9   0  172.88   18.60
  -1   9   0  197.68   22.60
   1   9   0  182.28   21.40
  -3  -9   0  166.68   24.80
   3  -9   0  179.18   37.20
   3  -9   0  199.88   29.10
  -3  -9   0  195.38   36.40
   3  -9   0  189.58   26.50
  -3  -9   0  198.18   24.70
  -3  -9   0  146.09   37.50
   3   9   0  118.69   38.00
   3   9   0  204.88   36.10
   3   9   0  192.58   40.50
  -5  -9   0   48.60   47.50
   5  -9   0   -4.60   50.99
   5  -9   0   31.60   41.40
  -5  -9   0   89.59   32.40
   5   9   0  102.09   48.50
   5   9   0   31.40   61.89
   0 -10   0   21.30   14.60
   0 -10   0   -0.80   15.10
   0 -10   0   14.30   15.20
   0 -10   0    3.90   13.40
   0 -10   0   15.40   15.10
   0  10   0    2.40   13.70
   0  10   0   15.40   13.60
  -2 -10   0  173.28   24.50
   2 -10   0  217.08   28.40
  -2 -10   0  160.68   31.50
   2 -10   0  186.78   25.90
  -2 -10   0  175.28   31.20
   2 -10   0  206.48   24.80
  -2 -10   0  155.98   23.90
  -2 -10   0  157.58   27.60
   2  10   0  128.19   27.50
   2  10   0  159.58   25.50
   2  10   0  215.68   36.60
  -4 -10   0  192.58   31.20
  -4 -10   0  174.28   26.70
  -4 -10   0  241.28   46.10
   4 -10   0  199.48   47.10
   4 -10   0  156.98   29.30
   4 -10   0  191.78   37.10
   4  10   0  125.89   48.40
   6 -10   0  117.99   84.09
  -6 -10   0  154.68   74.79
   6  10   0   76.89   89.59
   6  10   0   52.89   71.19
   1 -11   0  547.35   26.60
  -1 -11   0  496.75   37.60
   1 -11   0  482.25   36.80
   1 -11   0  583.14   36.10
  -1 -11   0  627.44   41.00
  -1 -11   0  539.25   36.20
   1 -11   0  561.94   27.80
  -1 -11   0  545.15   37.10
  -1 -11   0  558.74   40.10
   1 -11   0  461.15   38.40
  -1  11   0  510.25   31.10
   1  11   0  536.15   47.90
  -1  11   0  549.45   28.10
   1  11   0  558.94   39.50
  -1  11   0  528.85   36.60
   1  11   0  520.45   36.50
  -3 -11   0   82.09   23.80
   3 -11   0  115.49   28.70
  -3 -11   0  128.49   41.20
  -3 -11   0  125.19   29.50
   3 -11   0   95.79   25.70
  -3 -11   0   73.89   31.80
   3 -11   0   62.49   32.30
   3  11   0   48.80   38.70
   3  11   0   94.29   35.20
   5 -11   0  113.99   58.19
  -5 -11   0  242.08   58.99
  -5 -11   0  147.29   43.90
   5 -11   0  205.58   48.00
   5  11   0   65.49   65.99
   5  11   0  242.28   57.99
   0 -12   0  135.49   26.00
   0 -12   0  139.89   23.20
   0 -12   0  107.29   23.30
   0 -12   0  170.58   24.00
   0 -12   0  120.09   21.90
   0  12   0  104.39   22.00
   0  12   0  129.49   23.60
   0  12   0  145.09   26.50
   2 -12   0 1820.22   69.79
   2 -12   0 1787.62   68.49
  -2 -12   0 1846.12   78.59
   2 -12   0 1743.93   67.69
  -2 -12   0 1821.92   67.99
  -2 -12   0 1807.12   77.39
  -2 -12   0 1706.43   75.29
  -2 -12   0 1863.71   71.89
   2  12   0 1786.62   78.69
   2  12   0 1776.42   85.49
   4 -12   0  529.85   61.59
  -4 -12   0  510.05   51.69
  -4 -12   0  406.46   55.79
  -4 -12   0  448.76   46.20
   4 -12   0  577.34   56.79
   4 -12   0  469.15   48.30
   4  12   0  543.75   69.59
   4  12   0  459.95   68.29
  -1 -13   0  254.87   32.70
   1 -13   0  346.37   37.50
  -1 -13   0  242.48   32.40
  -1 -13   0  326.37   35.20
   1 -13   0  275.97   31.80
   1 -13   0  256.77   27.80
   1 -13   0  212.78   25.40
  -1 -13   0  309.77   36.50
   1 -13   0  304.27   42.60
  -1 -13   0  280.57   35.50
   1  13   0  294.87   40.20
  -1  13   0  269.17   28.80
  -1  13   0  259.97   27.20
  -1  13   0  244.18   32.10
   1  13   0  338.67   39.90
   3 -13   0  788.02   52.39
   3 -13   0  877.81   53.99
  -3 -13   0  792.12   64.79
  -3 -13   0  788.62   50.69
   3 -13   0  809.02   63.79
  -3 -13   0  775.12   52.39
   3  13   0  858.81   80.99
   3  13   0  735.53   66.19
   5 -13   0  299.27   55.49
  -5 -13   0   85.99   62.89
   5 -13   0  308.57   67.69
  -5 -13   0  245.38   50.09
   5  13   0  150.08   63.49
   5  13   0  346.97   84.79
   0 -14   0  723.53   47.70
   0 -14   0  737.03   46.10
   0 -14   0  663.13   44.50
   0 -14   0  698.93   45.30
  -2 -14   0   79.49   36.50
  -2 -14   0  -11.20   21.60
  -2 -14   0    2.40   22.10
   2 -14   0   47.90   26.50
  -2 -14   0    2.30   28.50
   2 -14   0   13.80   35.30
   2 -14   0   57.99   27.20
  -2 -14   0   25.10   31.70
   2 -14   0   -2.00   20.90
   2  14   0   -0.80   37.20
   2  14   0    8.30   32.40
  -4 -14   0   74.99   32.90
   4 -14   0   54.99   35.30
   4 -14   0  -32.00   48.30
  -4 -14   0    5.30   46.50
   4 -14   0   18.40   33.40
  -4 -14   0   64.09   33.60
   4  14   0   94.79   50.19
   4  14   0   22.10   60.29
   1 -15   0  523.25   48.30
  -1 -15   0  631.54   52.59
  -1 -15   0  623.24   47.50
  -1 -15   0  617.04   48.80
  -1 -15   0  639.44   53.59
  -1 -15   0  618.44   46.70
   1 -15   0  668.03   47.70
   1 -15   0  622.34   37.20
   1 -15   0  568.24   39.00
  -1  15   0  576.14   41.30
   1  15   0  709.33   61.69
   1  15   0  635.04   57.89
   3 -15   0   80.39   34.30
   3 -15   0  160.18   35.40
  -3 -15   0  104.89   31.70
   3 -15   0  144.59   41.50
  -3 -15   0   76.39   30.50
  -3 -15   0   52.99   40.80
   3  15   0   65.79   42.10
   3  15   0  114.39   56.39
  -5 -15   0  181.18   51.69
  -5 -15   0  188.98   71.49
   5  15   0   16.40   93.59
   5  15   0  170.68   72.99
   0 -16   0 2223.88   82.49
   0 -16   0 2133.49   82.79
   0 -16   0 2093.89   74.09
   0 -16   0 2074.09   84.49
   0  16   0 2024.20   86.79
  -2 -16   0  100.29   37.80
  -2 -16   0  -18.50   42.40
  -2 -16   0   48.40   29.10
  -2 -16   0   29.90   28.50
   2 -16   0   39.90   28.20
   2 -16   0   12.90   31.50
   2 -16   0   40.30   27.80
  -2  16   0   18.90   27.30
   2  16   0   28.80   45.30
   2  16   0  -14.20   38.00
  -2  16   0   68.29   23.40
  -4 -16   0    8.80   43.20
  -4 -16   0   34.70   56.59
   4 -16   0   73.89   42.40
  -4 -16   0   13.70   36.00
   4  16   0  -49.40   72.39
   4  16   0  -61.79   56.69
  -1 -17   0  250.27   39.40
   1 -17   0  213.48   29.20
  -1 -17   0  279.47   60.29
  -1 -17   0  176.18   41.60
   1 -17   0  267.37   42.50
  -1 -17   0  203.18   36.50
   1 -17   0  230.98   37.70
  -1 -17   0  181.68   46.20
   1  17   0  319.07   50.29
  -1  17   0  265.37   34.20
  -3 -17   0  286.37   44.70
   3 -17   0  241.18   44.20
   3 -17   0  232.28   44.30
  -3 -17   0  168.58   35.20
  -3 -17   0  200.28   52.79
   3  17   0  264.37   60.69
   3  17   0  284.77   72.79
   0 -18   0   32.40   29.10
   0 -18   0    6.70   28.40
   0 -18   0   58.19   31.40
   0  18   0    5.00   36.80
  -2 -18   0  150.28   41.60
   2 -18   0  126.19   39.30
  -2 -18   0  104.59   45.20
  -2 -18   0  119.09   37.00
   2  18   0   87.59   59.59
   2  18   0  119.49   53.69
  -4 -18   0  233.68   71.09
  -4 -18   0  237.98   54.29
  -4 -18   0  202.38   52.69
   4 -18   0  227.18   55.59
   4 -18   0  210.68   51.29
   4  18   0  203.28   96.19
   4  18   0  147.89   81.49
   1 -19   0  205.28   40.70
   1 -19   0  217.08   44.90
  -1 -19   0  289.27   48.30
   1 -19   0  349.27   43.10
  -1 -19   0  306.97   50.39
  -1 -19   0  329.87   48.90
   1  19   0  307.47   57.89
  -3 -19   0  116.29   48.00
   3 -19   0  217.58   52.49
  -3 -19   0  147.29   55.69
   3 -19   0  199.38   51.29
  -3 -19   0  151.68   47.90
   3  19   0  329.17   87.09
   3  19   0  159.48   70.99
   0 -20   0    2.00   37.10
   0 -20   0  -19.10   39.70
   0 -20   0   61.29   36.80
  -2 -20   0  496.85   67.89
   2 -20   0  638.14   72.79
  -2 -20   0  682.93   73.09
  -2 -20   0  619.64   75.29
   2 -20   0  434.36   59.89
   2  20   0  658.23   82.89
   1 -21   0   56.19   49.90
  -1 -21   0   80.59   42.90
  -1 -21   0  154.18   53.99
  -1 -21   0  106.39   50.19
   1 -21   0  137.09   47.80
   3 -21   0  207.38   59.49
   3 -21   0  262.27   61.79
  -3 -21   0  225.18   58.29
   3  21   0  355.96   93.49
   0 -22   0  226.48   54.29
   0 -22   0  146.39   47.30
   0 -22   0  120.39   53.99
  -2 -22   0   32.30   54.79
  -2 -22   0  181.78   67.39
   2 -22   0  100.29   60.89
   2 -22   0   83.19   57.69
  -2 -22   0   46.30   57.09
   1 -23   0  112.59   62.09
  -1 -23   0   89.59   63.99
  -1 -23   0  195.88   63.19
  -1 -23   0  138.79   61.29
   1 -23   0  190.58   63.79
   6   0  -1  153.08   44.10
   6   0  -1   72.79   59.69
   4   0  -1 6207.88  171.18
   4   0  -1 6383.66  163.28
  -4   0   1 6564.84  183.48
   4   0  -1 6260.37  176.38
  -4   0   1 6448.25  177.28
   4   0  -1 5963.90  192.18
  -2   0   1  416.96   16.20
  -2   0   1  434.76   24.00
   2   0  -1  380.86   25.60
   2   0  -1  378.56   15.60
  -2   0   1  406.06   24.00
   2   0  -1  450.75   31.80
   2   0  -1  409.76   23.70
  -2   0   1  416.66   16.10
   2   0  -1  407.26   17.40
   0   0  -1  518.75   26.00
   0   0   1  577.64   19.60
   0   0   1  567.84   27.10
   0   0   1  544.65   22.70
   0   0  -1  568.64   23.50
   0   0  -1  544.25   19.40
   0   0   1  574.34   21.80
   0   0  -1  523.75   20.90
   2   0   1 9429.26  235.08
  -2   0  -1 9680.73  238.88
  -2   0  -1 9350.66  236.88
   2   0   1 9340.87  228.48
   2   0   1 9734.93  239.68
   2   0   1 9983.70  252.77
   2   0   1 9999.00  238.18
  -2   0  -1 9693.83  247.28
  -2   0  -1 9589.04  228.68
   4   0   1  331.97   40.90
   4   0   1  255.17   48.40
  -4   0  -1  179.58   36.10
   4   0   1  235.28   35.90
   6   0   1  107.69   75.09
   6   0   1  165.78   51.39
   7  -1  -1   52.09   60.19
   7   1  -1    5.30   63.59
   5  -1  -1   56.89   29.90
   5  -1  -1  117.39   32.70
   5  -1  -1  127.29   38.40
   5  -1  -1  126.69   54.19
  -5  -1   1  125.59   38.30
  -5   1   1   82.29   37.10
   5   1  -1  105.59   34.60
   5   1  -1  133.19   33.20
   5   1  -1  155.68   54.29
   5   1  -1   63.49   40.70
   3  -1  -1   15.80   16.50
  -3  -1   1    8.50   12.10
  -3  -1   1   15.40   15.90
  -3  -1   1   29.00   17.70
   3  -1  -1    4.80   11.50
   3  -1  -1   11.10   12.70
   3  -1  -1    1.30   18.90
   3   1  -1   22.80   20.90
  -3   1   1    8.80   14.80
   3   1  -1    2.80   15.20
  -3   1   1   -3.00    5.60
   3   1  -1   20.70   11.70
   3   1  -1   -1.50   18.00
   1  -1  -1  685.83   22.80
   1  -1  -1  682.33   25.30
  -1  -1   1  720.13   27.20
  -1  -1   1  694.43   21.40
  -1  -1   1  698.93   23.00
  -1  -1   1  711.43   28.90
   1  -1  -1  666.53   27.00
  -1   1   1  682.13   27.30
   1   1  -1  670.93   22.60
  -1   1   1  716.83   25.50
   1   1  -1  698.13   26.60
   1   1  -1  733.73   21.90
   1   1  -1  684.73   29.10
  -1   1   1  696.83   22.80
   1  -1   1  384.36   17.30
  -1  -1  -1  358.96   17.20
   1  -1   1  395.96   27.00
   1  -1   1  364.36   21.80
  -1  -1  -1  407.06   21.70
   1  -1   1  407.16   20.10
   1   1   1  398.36   23.10
  -1   1  -1  415.76   24.60
  -1   1  -1  397.96   23.60
   1   1   1  366.66   17.20
   1   1   1  407.66   21.90
  -1   1  -1  397.66   20.10
   1   1   1  388.96   29.00
  -1   1  -1  400.96   16.90
   3  -1   1  143.79   15.30
  -3  -1  -1  193.68   29.10
  -3  -1  -1  180.98   13.40
  -3  -1  -1  165.18   24.10
   3  -1   1  224.98   38.40
   3  -1   1  252.87   27.10
  -3  -1  -1  250.57   37.50
   3  -1   1  189.88   25.00
   3  -1   1  233.88   23.90
  -3   1  -1  196.18   28.90
   3   1   1  185.28   15.70
  -3   1  -1  208.98   25.60
   3   1   1  233.08   29.30
   3   1   1  204.68   25.80
   3   1   1  176.68   27.30
   3   1   1  155.18   34.70
  -3   1  -1  217.78   27.60
   5  -1   1  363.66   45.30
  -5  -1  -1  329.77   50.59
   5  -1   1  245.28   60.09
   5   1   1  362.66   50.29
  -5   1  -1  432.46   55.89
   5   1   1  413.56   69.29
   6  -2  -1   45.80   38.90
  -6  -2   1   62.69   51.59
   6  -2  -1  -18.30   56.99
   6   2  -1   56.39   63.69
   6   2  -1  -36.30   44.90
  -4  -2   1  386.16   45.10
   4  -2  -1  250.97   42.70
   4  -2  -1  303.47   37.30
   4  -2  -1  326.17   29.30
   4  -2  -1  247.48   32.40
   4   2  -1  408.66   49.20
  -4   2   1  301.37   33.50
   4   2  -1  292.97   46.40
   4   2  -1  436.36   42.80
  -4   2   1  278.17   31.70
  -2  -2   1   93.99   15.70
  -2  -2   1   83.49    9.60
   2  -2  -1   97.79   14.60
  -2  -2   1   66.89   15.70
   2  -2  -1  118.39   15.10
  -2  -2   1   63.29   10.80
   2  -2  -1   86.29    9.80
   2   2  -1  111.09   12.30
  -2   2   1  104.59   14.10
  -2   2   1  100.29   10.10
   2   2  -1   74.99   15.50
  -2   2   1  105.29   13.40
   2   2  -1  104.09   15.50
   2   2  -1   80.49   18.10
   0  -2  -1  159.08   13.30
   0  -2  -1  149.49   20.60
   0  -2  -1  169.58    9.20
   0  -2   1  178.58   11.40
   0  -2   1  177.78   13.60
   0  -2   1  135.49   14.40
   0  -2   1  155.58   14.50
   0  -2  -1  148.59   12.30
   0  -2  -1  168.08   11.20
   0   2  -1  139.39   15.40
   0   2  -1  169.58   12.70
   0   2  -1  183.58   14.80
   0   2   1  174.08   11.50
   0   2   1  167.28    9.40
   0   2   1  189.18   15.20
   0   2   1  185.58   13.60
   0   2   1  162.48   20.90
   2  -2   1  112.99   21.50
  -2  -2  -1   99.29   21.60
   2  -2   1   97.89   11.40
   2  -2   1   85.99   15.60
  -2  -2  -1  119.49   17.60
   2  -2   1   83.39   14.80
  -2   2  -1   75.19   14.10
  -2   2  -1  151.28   23.10
   2   2   1   75.49   20.50
  -2   2  -1   88.29   14.70
   2   2   1  127.09   20.00
   2   2   1   90.09   18.30
   4  -2   1  155.28   43.60
   4  -2   1  190.78   30.50
   4  -2   1  211.78   31.50
  -4  -2  -1  170.58   34.10
   4   2   1  189.28   48.40
  -4   2  -1  175.38   27.70
   4   2   1  209.48   34.90
   4   2   1  181.98   37.90
   6  -2   1  -48.90   76.39
   6  -2   1  106.79   47.40
   6   2   1    2.30   76.69
   6   2   1  100.89   56.09
   5  -3  -1   76.19   27.40
   5  -3  -1   66.89   28.50
  -5  -3   1   90.29   40.90
   5  -3  -1    6.00   32.80
   5  -3  -1  -15.00   45.90
   5   3  -1   90.89   41.60
  -5   3   1   25.90   26.50
   5   3  -1   97.09   45.40
   5   3  -1   79.89   44.10
   3  -3  -1 1165.08   59.89
   3  -3  -1 1171.18   40.80
  -3  -3   1 1142.09   33.70
   3  -3  -1 1131.29   43.80
  -3  -3   1 1116.09   51.89
   3  -3  -1 1086.79   33.70
   3  -3  -1 1105.99   36.20
  -3  -3   1 1134.29   41.80
  -3  -3   1 1094.99   49.10
   3   3  -1 1169.08   55.69
  -3   3   1 1093.89   41.40
   3   3  -1 1125.19   60.19
   3   3  -1 1167.58   43.80
   3   3  -1 1109.79   49.70
  -1  -3   1   99.69   11.30
   1  -3  -1   61.09   10.60
   1  -3  -1   91.09   10.70
  -1  -3   1   87.39   14.40
  -1  -3   1  109.39   14.40
   1  -3  -1   85.59   10.80
   1   3  -1   90.89   12.80
  -1   3   1  103.79   11.10
  -1   3   1   93.29   11.80
   1   3  -1   91.39   11.20
   1   3  -1   53.49   13.40
   1   3  -1   78.39   12.20
  -1   3   1   80.19   10.30
   1  -3   1    7.40    9.60
  -1  -3  -1   24.60   12.00
   1  -3   1   19.60    8.00
   1  -3   1   13.50   11.60
  -1  -3  -1   17.90    7.80
   1  -3   1    1.50    7.00
  -1  -3  -1   30.40   14.50
  -1  -3  -1   15.80   11.20
   1   3   1   15.90   13.70
   1   3   1   -6.00    6.80
  -1   3  -1   23.50   10.30
   1   3   1   31.50    9.20
  -1   3  -1   24.30    8.20
   3  -3   1 1471.05   73.89
   3  -3   1 1369.96   51.39
  -3  -3  -1 1398.46   69.99
  -3  -3  -1 1373.36   42.70
   3  -3   1 1414.96   42.90
  -3  -3  -1 1541.05   62.89
   3  -3   1 1375.16   53.59
  -3  -3  -1 1461.85   59.79
  -3   3  -1 1369.76   62.99
  -3   3  -1 1437.86   51.19
   3   3   1 1466.75   62.99
   3   3   1 1390.16   54.79
   3   3   1 1398.06   62.99
   3   3   1 1372.16   43.20
   3   3   1 1404.46   78.59
  -3   3  -1 1403.16   51.89
  -5  -3  -1   67.49   41.50
   5  -3   1   80.29   53.99
   5  -3   1  103.09   32.20
   5   3   1   18.80   50.29
  -5   3  -1   44.50   32.10
   5   3   1  111.19   39.40
   6  -4  -1  259.77   36.70
   6  -4  -1  416.76   77.29
  -6  -4   1  309.27   60.39
   6   4  -1  277.77   56.19
   6   4  -1  219.58   69.99
   4  -4  -1   74.19   20.10
   4  -4  -1   78.29   18.40
   4  -4  -1   74.99   21.80
  -4  -4   1   69.09   30.40
   4  -4  -1   86.29   33.50
  -4  -4   1   48.60   19.90
   4   4  -1   44.10   22.90
  -4   4   1   57.09   19.40
  -4   4   1   56.79   19.90
   4   4  -1   56.09   33.30
   4   4  -1  134.59   38.40
   4   4  -1  103.59   29.40
   2  -4  -1 7720.03  195.48
  -2  -4   1 8360.06  210.68
   2  -4  -1 8319.17  196.58
   2  -4  -1 8337.77  194.88
  -2  -4   1 8003.10  198.98
  -2   4   1 8140.19  195.78
   2   4  -1 8125.69  206.18
  -2   4   1 8084.69  195.68
   2   4  -1 7960.90  209.88
   2   4  -1 8035.10  199.48
   2   4  -1 8121.49  210.88
   0  -4  -1  896.41   42.70
   0  -4   1  918.91   34.20
   0  -4  -1  908.01   32.80
   0  -4   1  871.51   32.30
   0  -4  -1  934.91   31.10
   0  -4  -1  885.41   33.40
   0  -4   1  868.51   31.90
   0  -4  -1  925.31   28.50
   0   4  -1  805.82   27.90
   0   4   1  881.61   34.00
   0   4   1  934.11   28.90
   0   4   1  905.21   44.10
   0   4  -1  912.61   31.70
   0   4  -1  889.11   34.70
  -2  -4  -1   26.60   18.50
   2  -4   1    4.50    9.10
   2  -4   1   13.20   12.60
   2  -4   1    7.40    9.50
  -2  -4  -1   -8.00   14.10
   2  -4   1   48.60   19.70
  -2  -4  -1   38.40   15.80
  -2  -4  -1   17.10   12.80
  -2  -4  -1    4.90    9.10
   2   4   1   11.70   15.10
  -2   4  -1   21.20   10.50
   2   4   1   28.60   12.80
  -2   4  -1   19.60    9.90
  -2   4  -1   18.20   14.20
   2   4   1   12.00   10.00
   2   4   1    4.00   18.30
   2   4   1   16.20   15.50
   4  -4   1 2939.81   77.29
   4  -4   1 2947.10   91.79
  -4  -4  -1 3033.50  108.59
   4  -4   1 2816.22  121.99
  -4  -4  -1 2895.71   75.99
  -4   4  -1 3012.50   92.79
   4   4   1 3025.20  131.39
   4   4   1 2974.90  111.39
   4   4   1 2961.80  107.59
   6  -4   1  134.39   54.99
   6  -4   1  -23.10   79.39
   6   4   1    5.00   76.39
   6   4   1   45.20   60.19
   5  -5  -1  -22.60   44.60
  -5  -5   1   82.99   40.70
  -5  -5   1   59.69   26.60
   5  -5  -1   55.79   27.50
   5   5  -1   78.89   46.40
   5   5  -1  -42.20   49.90
  -5   5   1   21.80   23.80
   5   5  -1  -19.30   32.80
  -3  -5   1  180.88   27.60
  -3  -5   1  193.48   22.00
  -3  -5   1  163.68   23.90
   3  -5  -1  176.38   18.20
  -3  -5   1  170.08   29.10
  -3  -5   1  255.17   33.90
   3  -5  -1  165.38   30.30
   3   5  -1  193.88   36.20
   3   5  -1  155.78   26.70
   3   5  -1  185.78   23.80
   3   5  -1  228.28   34.20
  -3   5   1  161.88   19.20
   1  -5  -1   82.99    9.50
  -1  -5   1   67.19   12.70
  -1  -5   1   50.09   17.10
   1  -5  -1   58.99   10.30
   1  -5  -1   74.59   10.80
  -1  -5   1   89.99   18.80
  -1   5   1   47.50   10.00
   1   5  -1   75.29   16.10
  -1   5   1   46.80   10.90
  -1   5   1   52.59    7.50
   1   5  -1   69.99   13.00
   1   5  -1   54.89   11.80
   1   5  -1   57.09   13.40
  -1   5   1   48.90   11.30
   1  -5   1  125.29   13.80
  -1  -5  -1  129.19   17.70
  -1  -5  -1  144.59   20.50
  -1  -5  -1  117.09   13.90
   1  -5   1  149.19   17.30
  -1  -5  -1  152.98   17.00
   1  -5   1  145.39   16.50
  -1  -5  -1  150.68   25.00
   1   5   1  162.68   16.90
   1   5   1  160.98   21.60
  -1   5  -1  129.69   14.50
   1   5   1  134.69   15.90
   1   5   1  167.08   20.80
  -1   5  -1  144.49   15.90
  -1   5  -1  104.59   13.50
   1   5   1  201.08   29.60
   3  -5   1  650.43   32.90
  -3  -5  -1  715.33   56.79
  -3  -5  -1  700.63   31.60
   3  -5   1  648.44   30.70
  -3  -5  -1  673.53   45.50
  -3  -5  -1  672.43   49.80
   3  -5   1  709.23   54.09
   3  -5   1  655.83   30.40
  -3  -5  -1  648.14   37.90
   3   5   1  567.64   41.10
  -3   5  -1  677.63   46.10
  -3   5  -1  709.33   33.80
   3   5   1  691.93   52.59
   3   5   1  649.93   65.19
   3   5   1  676.13   47.10
   3   5   1  625.64   31.10
   5  -5   1   26.80   28.50
   5  -5   1   33.80   55.99
  -5  -5  -1  -65.09   39.40
   5   5   1  -41.00   58.59
   5   5   1   15.90   39.70
  -6  -6   1  232.58   65.59
   6  -6  -1  277.47   78.49
   6   6  -1  131.99   57.99
   6   6  -1  275.87   81.49
  -4  -6   1   83.29   33.10
  -4  -6   1   79.19   23.40
   4  -6  -1  142.79   20.40
   4  -6  -1  143.89   19.50
  -4  -6   1  102.79   16.30
  -4  -6   1  134.49   24.60
   4  -6  -1  129.69   38.90
   4   6  -1   96.89   37.90
   4   6  -1   61.99   37.10
   4   6  -1   85.69   26.70
  -4   6   1   85.09   18.70
   4   6  -1  130.49   34.20
  -4   6   1  105.99   19.00
  -2  -6   1  285.17   27.60
  -2  -6   1  338.97   24.10
   2  -6  -1  294.97   22.30
  -2  -6   1  304.37   31.90
  -2  -6   1  294.47   28.80
   2   6  -1  274.27   30.80
  -2   6   1  294.07   18.80
  -2   6   1  305.87   21.40
   2   6  -1  263.57   32.50
  -2   6   1  282.97   16.90
   2   6  -1  333.07   29.80
   2   6  -1  212.98   24.70
   0  -6  -1  656.53   41.00
   0  -6  -1  667.33   30.10
   0  -6  -1  671.03   27.40
   0  -6   1  722.53   32.20
   0  -6   1  689.93   29.60
   0  -6  -1  702.73   29.60
   0  -6  -1  663.23   31.50
   0   6   1  702.63   31.40
   0   6   1  636.04   27.20
   0   6  -1  699.33   31.50
   0   6   1  676.33   28.70
   0   6  -1  694.83   28.50
   0   6   1  634.64   30.30
   0   6   1  618.04   42.80
   0   6  -1  679.13   30.70
  -2  -6  -1   98.39   18.00
  -2  -6  -1   98.69   21.70
  -2  -6  -1  113.09   15.70
   2  -6   1   82.49   21.70
  -2  -6  -1   81.79   22.40
   2  -6   1   98.69   11.60
  -2  -6  -1  112.69   24.90
   2  -6   1   82.79   13.50
   2   6   1  121.19   24.00
   2   6   1   90.39   15.60
  -2   6  -1   79.69   17.50
  -2   6  -1   92.89   13.80
   2   6   1   85.09   19.10
   2   6   1   88.49   21.90
   2   6   1  127.89   30.40
  -4  -6  -1  797.42   35.50
   4  -6   1  860.71   75.29
   4  -6   1  778.32   35.40
  -4  -6  -1  660.83   65.99
   4   6   1  721.93   83.59
   4   6   1  664.23   58.99
  -4   6  -1  787.52   42.50
   4   6   1  688.03   69.69
   6  -6   1  -39.10   82.79
  -6  -6  -1    6.40   78.79
   6   6   1   53.79   61.99
   6   6   1   -6.90   89.49
  -5  -7   1  715.83   74.79
  -5  -7   1  660.93   53.89
   5  -7  -1  674.23   86.09
   5   7  -1  643.64   86.59
   5   7  -1  718.13   67.49
  -3  -7   1  940.51   57.59
   3  -7  -1 1006.80   40.30
   3  -7  -1 1058.59   61.19
  -3  -7   1  972.20   57.09
   3   7  -1 1006.70   62.19
   3   7  -1  946.91   54.49
   3   7  -1 1037.30   62.69
   3   7  -1 1107.59   49.60
   1  -7  -1   19.90    9.60
  -1  -7   1    1.10   12.30
   1  -7  -1   26.40   11.50
  -1  -7   1   14.70   11.30
   1  -7  -1   26.20   10.90
   1  -7  -1   25.10    9.80
  -1   7   1   17.20    9.60
  -1   7   1    9.20    7.90
   1   7  -1   33.20   14.80
  -1   7   1   15.60   10.00
   1   7  -1   20.60   11.30
  -1   7   1    8.00   10.70
   1   7  -1   10.70   10.30
   1   7  -1   20.50   15.30
   1  -7   1 2798.22   82.89
  -1  -7  -1 2794.62   78.49
   1  -7   1 2675.73   74.09
   1  -7   1 2720.83   74.09
  -1  -7  -1 2746.83   85.89
   1  -7   1 2800.72   75.79
  -1  -7  -1 2799.82   84.49
  -1  -7  -1 2799.22   79.59
  -1  -7  -1 2770.32   94.09
   1   7   1 2775.52   95.79
   1   7   1 2674.63   85.59
  -1   7  -1 2700.43   74.19
   1   7   1 2747.72   79.79
   1   7   1 2802.62   79.29
   1   7   1 2803.92   86.29
  -1   7  -1 2757.12   77.49
   3  -7   1  519.95   31.10
  -3  -7  -1  452.95   49.60
   3  -7   1  526.45   50.49
  -3  -7  -1  530.45   38.60
  -3  -7  -1  535.25   31.50
  -3   7  -1  538.55   27.40
   3   7   1  559.14   63.59
  -3   7  -1  491.15   28.90
   3   7   1  524.15   49.80
   3   7   1  458.25   52.09
   5  -7   1   43.00   55.69
  -5  -7  -1   69.19   45.80
   5   7   1  -17.40   59.59
   5   7   1   28.70   40.60
  -6  -8   1  387.06   68.89
   6  -8  -1  313.57   88.89
  -6  -8   1  262.87   50.19
   6   8  -1  281.27   82.59
   6   8  -1  199.58   63.39
   4  -8  -1 2238.38  101.89
   4  -8  -1 2271.27   75.89
   4  -8  -1 2330.27   71.59
  -4  -8   1 2308.87  100.09
  -4  -8   1 2432.96   71.59
  -4  -8   1 2299.07   82.39
   4   8  -1 2376.16   97.69
   4   8  -1 2379.86  109.19
  -2  -8   1   31.10   18.60
   2  -8  -1   17.20   12.20
  -2  -8   1   30.80   18.40
  -2  -8   1   12.40   19.40
  -2  -8   1   30.00   16.90
   2  -8  -1   15.50   14.00
   2   8  -1   16.00   20.70
   2   8  -1   48.70   17.30
  -2   8   1   33.90   10.40
  -2   8   1   22.40   10.80
   2   8  -1   57.09   20.20
   2   8  -1   44.90   20.20
   0  -8  -1 1349.27   45.80
   0  -8  -1 1383.16   48.50
   0  -8   1 1341.27   48.00
   0  -8  -1 1388.66   60.39
   0  -8  -1 1358.16   49.99
   0  -8   1 1373.26   50.19
   0  -8  -1 1338.47   48.40
   0   8   1 1370.56   50.19
   0   8   1 1411.16   65.79
   0   8  -1 1355.46   47.40
   0   8  -1 1365.66   49.99
   0   8   1 1366.76   49.00
   0   8   1 1317.27   45.70
   0   8  -1 1371.86   50.89
   0   8   1 1357.86   48.50
  -2  -8  -1 2882.91   97.29
  -2  -8  -1 2859.71   94.29
  -2  -8  -1 2931.61   88.59
  -2  -8  -1 2831.52  102.09
   2  -8   1 2949.60   91.49
   2  -8   1 2590.24   89.19
  -2  -8  -1 2937.71   83.49
  -2   8  -1 2825.32   75.39
   2   8   1 2800.92   84.79
  -2   8  -1 2999.20   77.69
   2   8   1 2805.42  107.89
   2   8   1 2780.22   96.49
   2   8   1 2623.34   86.89
   2   8   1 2860.41   96.69
  -4  -8  -1    7.10   36.70
   4  -8   1   80.19   23.20
  -4  -8  -1   67.09   23.70
   4  -8   1   72.59   22.10
  -4  -8  -1   62.59   21.40
   4  -8   1   61.69   43.10
   4   8   1   61.59   44.10
  -4   8  -1   96.99   19.20
   6  -8   1  378.56   94.89
  -6  -8  -1   56.89   74.69
   6   8   1  521.95  112.59
   6   8   1  300.67   80.69
   5  -9  -1  329.97   66.49
  -5  -9   1  298.87   31.80
   5  -9  -1  426.86   42.80
   5  -9  -1  364.76   41.90
  -5  -9   1  346.87   57.39
  -5  -9   1  349.67   43.40
   5   9  -1  324.37   65.49
   5   9  -1  208.18   49.70
  -3  -9   1   14.20   24.40
   3  -9  -1   18.10   28.50
  -3  -9   1   28.30   30.30
  -3  -9   1   18.00   19.10
   3  -9  -1   14.20   14.10
  -3  -9   1   56.99   27.90
   3  -9  -1   13.10   18.50
   3   9  -1  -67.29   27.80
   3   9  -1  -25.20   31.70
   3   9  -1   12.30   30.30
   3   9  -1    5.50   24.50
   1  -9  -1  127.19   15.90
   1  -9  -1  101.69   28.10
  -1  -9   1  146.59   24.70
   1  -9  -1  149.69   21.60
   1  -9  -1  105.19   17.40
  -1  -9   1  117.39   20.80
   1  -9  -1  114.29   15.50
  -1  -9   1  163.78   24.30
  -1   9   1  119.99   17.40
   1   9  -1   65.09   15.70
   1   9  -1  129.19   22.50
  -1   9   1  140.39   17.80
   1   9  -1  106.89   22.40
  -1   9   1  142.59   18.00
  -1   9   1  106.89   19.00
   1   9  -1  101.99   15.30
  -1  -9  -1  488.85   32.50
   1  -9   1  460.45   34.60
  -1  -9  -1  509.25   45.30
   1  -9   1  498.45   25.70
  -1  -9  -1  501.25   31.30
  -1  -9  -1  443.16   35.40
  -1  -9  -1  464.45   38.00
   1   9   1  468.55   31.90
   1   9   1  514.95   38.20
  -1   9  -1  482.25   25.10
  -1   9  -1  468.85   29.70
   1   9   1  451.85   31.10
   1   9   1  520.55   49.30
   1   9   1  420.66   35.60
   3  -9   1  179.68   35.20
  -3  -9  -1  185.88   37.90
  -3  -9  -1  196.88   28.90
   3  -9   1  182.48   33.70
  -3  -9  -1  199.08   26.20
   3   9   1  263.57   41.40
   3   9   1  219.18   49.90
  -5  -9  -1   38.00   48.80
   5  -9   1  -65.39   54.89
   5   9   1  -80.09   62.39
   5   9   1  -11.10   46.50
  -6 -10   1  -29.70   45.70
  -6 -10   1   12.10   68.59
   6 -10  -1    2.50   82.99
   6  10  -1  -97.19   64.49
   6  10  -1  -20.10   82.89
  -4 -10   1   62.89   25.00
   4 -10  -1  102.49   26.00
  -4 -10   1   27.20   38.30
  -4 -10   1  109.39   27.70
   4 -10  -1   59.79   25.90
   4 -10  -1  129.89   41.80
   4  10  -1   10.00   55.39
   4  10  -1   66.39   45.60
   2 -10  -1  239.78   25.60
  -2 -10   1  246.08   30.10
  -2 -10   1  265.07   35.20
  -2 -10   1  304.17   33.90
   2 -10  -1  230.48   27.30
  -2  10   1  257.57   23.10
   2  10  -1  311.07   36.90
   2  10  -1  319.97   35.80
  -2  10   1  232.38   20.90
   2  10  -1  309.87   40.70
   2  10  -1  297.07   33.60
   0 -10  -1  267.57   27.80
   0 -10   1  264.17   27.60
   0 -10  -1  258.87   27.50
   0 -10  -1  292.97   37.30
   0 -10  -1  268.17   25.50
   0 -10   1  272.57   28.30
   0 -10   1  266.17   28.30
   0 -10  -1  271.47   28.40
   0  10   1  220.58   27.80
   0  10   1  295.27   26.10
   0  10  -1  280.57   30.00
   0  10   1  244.88   28.30
   0  10  -1  245.58   25.50
   0  10   1  306.87   30.20
   0  10  -1  280.27   28.70
   0  10   1  327.67   40.70
  -2 -10  -1  167.98   23.80
  -2 -10  -1  117.89   34.00
   2 -10   1  136.29   26.30
  -2 -10  -1  125.79   28.60
  -2 -10  -1  106.39   22.00
   2 -10   1  171.48   26.60
  -2 -10  -1  135.19   32.00
  -2  10  -1  155.98   19.80
   2  10   1  145.49   32.40
   2  10   1  105.09   40.20
  -2  10  -1  141.59   18.10
   2  10   1  201.38   36.30
  -4 -10  -1  127.59   32.90
  -4 -10  -1  123.59   43.90
   4 -10   1  124.59   40.50
   4 -10   1  153.58   33.00
   4 -10   1  194.78   49.40
   4 -10   1  152.48   29.30
  -4 -10  -1  113.49   27.40
   4  10   1   95.19   40.30
   4  10   1  119.49   57.29
   6 -10   1  -13.60   90.29
   6 -10   1   89.99   72.89
  -5 -11   1   39.10   34.90
   5 -11  -1   67.59   40.30
   5 -11  -1   58.19   58.69
  -5 -11   1  128.29   54.49
  -5 -11   1   72.49   36.10
   5  11  -1   30.80   50.29
   5  11  -1  115.79   65.39
  -3 -11   1 1155.98   71.79
  -3 -11   1 1300.67   71.29
   3 -11  -1 1318.67   74.09
  -3 -11   1 1388.76   62.99
   3 -11  -1 1304.97   52.89
  -3 -11   1 1296.67   58.19
   3 -11  -1 1296.17   58.09
   3  11  -1 1234.58   78.79
   3  11  -1 1289.27   71.19
   1 -11  -1  254.17   39.30
   1 -11  -1  201.78   22.80
  -1 -11   1  243.08   31.60
   1 -11  -1  220.98   26.70
   1 -11  -1  213.08   24.90
   1 -11  -1  231.78   28.90
  -1 -11   1  173.08   25.30
  -1 -11   1  221.98   31.80
  -1  11   1  248.88   26.60
   1  11  -1  215.48   29.00
   1  11  -1  183.98   31.20
   1  11  -1  213.98   29.10
  -1  11   1  244.68   28.70
  -1  11   1  213.38   25.70
   1  11  -1  219.88   26.60
  -1 -11  -1   35.20   23.70
   1 -11   1   54.09   23.20
  -1 -11  -1   69.69   23.60
  -1 -11  -1   53.19   19.00
   1 -11   1   -1.90   13.40
  -1 -11  -1   58.09   20.50
  -1 -11  -1    6.90   26.10
   1 -11   1   61.49   17.40
  -1  11  -1   27.80   17.90
  -1  11  -1   35.50   14.10
   1  11   1   55.59   24.90
   1  11   1   25.70   24.20
   1  11   1   86.99   21.60
   1  11   1    5.00   31.90
   3 -11   1 1039.30   61.49
  -3 -11  -1  961.60   69.59
  -3 -11  -1 1058.99   52.39
   3 -11   1 1038.80   63.79
  -3 -11  -1 1120.59   56.89
   3  11   1  969.40   70.39
   3  11   1 1078.19   86.79
   5 -11   1   56.09   63.99
   5 -11   1   -2.80   51.89
  -5 -11  -1   62.49   57.39
  -5 -11  -1   20.50   42.10
   5  11   1  157.48   58.09
   5  11   1  174.68   84.69
  -6 -12   1  354.06   63.69
  -6 -12   1  181.48   80.89
   6 -12  -1  117.79   89.69
   6  12  -1  119.29  101.09
   4 -12  -1   63.49   30.50
  -4 -12   1   40.80   41.20
   4 -12  -1   46.60   38.10
  -4 -12   1   18.70   26.30
   4 -12  -1   56.99   29.60
  -4 -12   1    6.70   27.00
   4  12  -1   41.00   42.40
   4  12  -1  104.19   51.19
  -2 -12   1 2569.44   86.59
   2 -12  -1 2605.24   87.19
  -2 -12   1 2480.15   87.79
   2 -12  -1 2671.53   80.69
  -2 -12   1 2435.86   95.79
  -2 -12   1 2543.65   94.29
  -2  12   1 2492.55   72.59
   2  12  -1 2553.94   92.39
  -2  12   1 2586.34   75.09
   2  12  -1 2561.64   96.79
   0 -12   1  391.76   36.50
   0 -12  -1  339.67   40.30
   0 -12  -1  283.77   30.70
   0 -12   1  334.77   35.20
   0 -12  -1  326.97   34.50
   0 -12  -1  291.17   32.90
   0 -12   1  271.77   32.70
   0  12   1  320.07   31.10
   0  12  -1  287.27   33.00
   0  12  -1  326.27   35.00
   0  12   1  285.67   37.30
   0  12  -1  310.97   35.60
   2 -12   1   77.19   28.00
   2 -12   1  113.19   23.80
  -2 -12  -1   37.80   33.70
  -2 -12  -1  148.09   27.20
  -2 -12  -1  124.69   34.80
  -2 -12  -1  132.69   33.90
  -2 -12  -1   97.19   22.10
  -2  12  -1  130.09   17.00
   2  12   1   97.39   42.20
  -2  12  -1  121.49   20.60
   2  12   1   97.19   34.90
  -4 -12  -1 1519.05   65.89
   4 -12   1 1379.36   68.39
   4 -12   1 1459.15   94.59
  -4 -12  -1 1402.96   93.09
   4 -12   1 1365.46   81.69
  -4 -12  -1 1459.25   74.79
   4  12   1 1354.16   94.19
   4  12   1 1510.25  120.29
  -5 -13   1   45.10   59.49
  -5 -13   1  125.29   47.20
   5 -13  -1   54.49   65.39
   5  13  -1    9.50   73.29
   5  13  -1   65.99   59.79
   3 -13  -1   26.90   35.70
  -3 -13   1   35.20   34.90
  -3 -13   1    0.70   25.00
  -3 -13   1   63.89   36.20
   3 -13  -1   51.69   28.60
  -3 -13   1   31.30   25.80
   3 -13  -1   33.70   25.00
   3  13  -1   26.40   34.80
   3  13  -1   47.60   42.10
  -1 -13   1 1140.69   60.29
   1 -13  -1 1101.49   50.69
  -1 -13   1 1097.09   59.99
   1 -13  -1 1080.19   55.09
   1 -13  -1 1110.09   46.00
  -1 -13   1 1080.29   54.99
   1 -13  -1 1150.68   70.59
   1 -13  -1 1169.58   48.50
   1  13  -1 1065.49   59.99
  -1  13   1 1120.99   49.60
  -1  13   1 1117.89   52.79
  -1  13   1  994.40   50.19
  -1 -13  -1  471.25   55.49
   1 -13   1  555.84   34.00
  -1 -13  -1  600.34   42.60
  -1 -13  -1  558.74   43.10
   1 -13   1  634.74   47.40
   1 -13   1  608.24   36.40
  -1 -13  -1  637.94   48.60
  -1 -13  -1  532.05   47.50
   1  13   1  569.54   66.79
  -1  13  -1  599.84   42.00
   1  13   1  574.14   53.89
  -1  13  -1  619.54   34.90
   3 -13   1  276.57   39.20
  -3 -13  -1  184.48   47.20
   3 -13   1  304.37   43.10
  -3 -13  -1  280.47   36.10
  -3 -13  -1  215.68   34.40
   3 -13   1  292.77   42.30
   3  13   1  165.98   46.70
   3  13   1  323.97   61.49
   5 -13   1  285.57   60.39
  -5 -13  -1  310.57   73.39
  -5 -13  -1  205.68   53.29
   5 -13   1  253.87   80.89
   5  13   1  312.77   94.29
   5  13   1  244.58   67.39
   4 -14  -1  315.27   43.40
   4 -14  -1  365.96   43.00
   4 -14  -1  361.66   58.39
  -4 -14   1  404.06   45.00
  -4 -14   1  390.36   61.89
  -4 -14   1  277.07   41.00
   4  14  -1  260.87   53.89
   4  14  -1  260.27   67.59
  -2 -14   1  -36.90   33.50
   2 -14  -1   38.70   26.90
  -2 -14   1   31.20   30.20
   2 -14  -1   10.40   42.50
   2 -14  -1    9.90   22.30
  -2 -14   1   31.40   23.70
  -2 -14   1  -30.60   25.50
  -2 -14   1   16.80   26.10
   2  14  -1  -14.20   30.60
   2  14  -1   10.70   33.20
  -2  14   1   16.90   20.10
   0 -14   1  146.19   29.90
   0 -14   1  154.98   29.80
   0 -14   1  162.28   29.60
   0 -14  -1  132.09   28.80
   0 -14  -1  145.09   26.40
   0 -14  -1  176.78   29.60
   0 -14  -1  239.28   40.40
   0 -14  -1  177.58   30.20
   0  14  -1  248.98   49.40
   0  14   1  181.68   33.90
  -2 -14  -1  488.05   46.50
  -2 -14  -1  561.34   46.90
  -2 -14  -1  545.35   57.19
   2 -14   1  487.25   48.30
   2  14   1  608.14   81.59
   2  14   1  496.65   56.49
  -2  14  -1  478.85   31.50
  -2  14  -1  503.45   37.70
   4 -14   1   42.30   52.59
  -4 -14  -1  214.68   59.79
  -4 -14  -1  115.89   43.20
  -4 -14  -1   98.79   35.90
   4 -14   1   69.99   43.70
   4 -14   1   56.49   35.20
   4  14   1   67.29   55.29
   4  14   1  196.78   78.29
  -5 -15   1  313.77   54.19
   5 -15  -1  238.98   82.99
  -5 -15   1  314.87   73.59
   5  15  -1  273.47   93.59
   5  15  -1  335.97   75.39
   3 -15  -1  235.08   35.80
  -3 -15   1  276.67   62.49
  -3 -15   1  306.37   52.39
   3 -15  -1  217.38   47.50
  -3 -15   1  218.48   38.70
   3 -15  -1  274.57   40.40
  -3 -15   1  203.68   36.50
   3  15  -1  198.48   48.00
   3  15  -1  150.28   54.89
   1 -15  -1  296.47   32.40
   1 -15  -1  280.97   33.60
  -1 -15   1  250.77   38.30
  -1 -15   1  345.37   42.00
  -1 -15   1  288.77   40.00
   1 -15  -1  308.17   36.10
  -1 -15   1  304.27   44.70
   1 -15  -1  249.48   35.10
   1 -15  -1  373.36   52.49
  -1  15   1  283.97   32.70
   1  15  -1  267.57   41.10
   1 -15   1  623.44   49.99
  -1 -15  -1  681.33   56.39
  -1 -15  -1  597.34   48.70
  -1 -15  -1  632.34   55.99
  -1 -15  -1  476.15   61.69
  -1 -15  -1  607.24   46.40
   1 -15   1  628.24   39.60
   1 -15   1  550.04   39.50
   1  15   1  483.65   60.39
   1  15   1  673.33   71.39
  -1  15  -1  688.13   41.60
   3 -15   1  126.29   36.10
  -3 -15  -1  106.19   33.50
  -3 -15  -1  128.89   33.30
  -3 -15  -1   97.39   43.90
   3 -15   1   62.59   38.90
   3  15   1  219.78   49.60
   3  15   1  193.08   65.19
   5 -15   1  269.97   68.39
  -5 -15  -1  149.49   75.59
   5  15   1  135.39   90.79
   5  15   1  246.28  112.79
   4 -16  -1  826.22   92.39
   4 -16  -1  948.61   68.89
  -4 -16   1  896.51   68.09
   4 -16  -1  842.92   69.99
   4  16  -1  826.92  111.39
   4  16  -1  747.63   95.59
  -2 -16   1   55.39   27.80
  -2 -16   1   34.60   31.30
   2 -16  -1   43.90   28.30
   2 -16  -1   33.00   32.30
  -2 -16   1   15.10   35.20
   2 -16  -1   68.09   50.79
   2  16  -1    8.20   39.90
   2  16  -1   79.89   41.10
  -2  16   1   16.60   25.50
   0 -16   1  301.17   40.40
   0 -16  -1  312.27   37.70
   0 -16  -1  354.66   42.80
   0 -16   1  314.87   43.20
   0 -16  -1  257.27   36.10
   0 -16  -1  374.86   51.89
   0 -16   1  336.07   40.30
   0 -16  -1  365.66   41.30
   0  16   1  371.36   45.00
   0  16  -1  394.06   45.00
  -2 -16  -1  787.22   57.19
   2 -16   1  727.23   70.09
  -2 -16  -1  779.22   70.39
   2  16   1  917.51   95.69
   2  16   1  785.32   76.49
  -4 -16  -1   44.30   59.09
  -4 -16  -1   57.69   38.60
  -4 -16  -1   19.80   41.10
   4 -16   1   55.09   45.90
   4 -16   1  -18.80   43.70
   4  16   1   55.49   85.19
   4  16   1  -46.90   60.89
   3 -17  -1   18.10   46.10
  -3 -17   1   26.60   47.10
  -3 -17   1   59.69   35.80
   3 -17  -1   44.80   38.90
   3 -17  -1   50.59   34.80
  -3 -17   1   19.00   38.80
   3  17  -1  -10.40   58.59
   3  17  -1   56.59   48.90
   1 -17  -1  233.08   37.00
  -1 -17   1  239.28   42.80
  -1 -17   1  198.78   36.30
   1 -17  -1  163.38   50.99
   1 -17  -1  207.58   31.10
  -1 -17   1  238.18   52.49
   1 -17  -1  280.87   41.90
  -1 -17   1  228.98   38.70
   1 -17  -1  232.48   32.60
   1  17  -1  200.08   45.70
  -1  17   1  243.68   37.40
  -1 -17  -1  361.86   56.89
  -1 -17  -1  322.57   58.59
  -1 -17  -1  315.97   41.60
  -1 -17  -1  324.67   48.10
   1 -17   1  378.56   41.10
   1 -17   1  398.16   45.50
   1 -17   1  309.17   39.80
   1 -17   1  494.55   52.99
  -1 -17  -1  314.77   39.90
   1  17   1  413.36   66.49
   1  17   1  516.75   62.09
  -1  17  -1  339.87   38.60
   3 -17   1  193.38   48.80
  -3 -17  -1  201.68   56.59
  -3 -17  -1  281.77   42.60
  -3 -17  -1  304.77   50.99
   3 -17   1  303.57   47.00
   3  17   1  334.27   81.89
   3  17   1  273.87   65.29
  -4 -18   1   -6.70   40.90
  -4 -18   1   59.79   62.99
   4 -18  -1   24.30   46.50
  -4 -18   1   56.79   50.09
   4  18  -1   -9.20   70.69
  -2 -18   1  260.07   52.29
  -2 -18   1  289.77   46.30
   2 -18  -1  296.37   45.70
  -2 -18   1  267.97   46.30
   2 -18  -1  294.47   43.20
   2  18  -1  340.67   55.09
   2  18  -1  497.25   64.59
   0 -18   1   82.49   35.00
   0 -18   1  101.79   36.60
   0 -18  -1  131.29   35.30
   0 -18   1  171.58   67.99
   0 -18  -1   78.29   35.40
   0  18   1  116.49   42.20
   0  18  -1  129.39   41.60
  -2 -18  -1   78.39   39.20
   2 -18   1  193.58   44.90
   2 -18   1  203.18   45.40
  -2 -18  -1  209.88   48.40
  -2 -18  -1  101.59   38.60
   2  18   1   68.19   54.59
   2  18   1  134.09   68.49
   4 -18   1   40.80   50.49
   4 -18   1  246.58   64.79
  -4 -18  -1   35.50   53.39
  -4 -18  -1   20.20   74.79
   4  18   1  160.48  109.79
   4  18   1   42.80   76.39
   3 -19  -1  351.96   57.19
  -3 -19   1  356.06   53.09
  -3 -19   1  441.06   56.49
  -3 -19   1  350.96   63.39
   3 -19  -1  457.85   57.29
   3  19  -1  337.47   70.49
   1 -19  -1  249.18   51.99
  -1 -19   1  232.58   50.09
   1 -19  -1  238.98   47.30
   1 -19  -1  213.28   36.00
  -1 -19   1  287.97   47.30
  -1 -19   1  174.48   45.80
   1  19  -1  277.17   55.39
   1 -19   1  139.49   41.20
  -1 -19  -1  124.59   38.70
   1 -19   1  110.19   32.10
  -1 -19  -1  161.48   47.60
  -1 -19  -1  179.28   41.40
   1 -19   1  123.09   41.60
   1  19   1  173.58   56.89
  -3 -19  -1  289.77   50.39
   3 -19   1  477.55   65.09
  -3 -19  -1  288.57   66.59
   3 -19   1  395.86   59.19
  -3 -19  -1  382.36   56.59
   3  19   1  194.88   74.59
   3  19   1  570.54  108.49
   2 -20  -1  496.35   63.29
  -2 -20   1  670.63   74.89
  -2 -20   1  529.25   62.19
   2 -20  -1  605.44   70.39
  -2 -20   1  564.74   66.39
   2  20  -1  632.44   78.29
   0 -20  -1  231.38   50.19
   0 -20   1  254.77   43.20
   0 -20  -1  265.47   47.80
   0 -20   1  286.97   53.59
   0 -20   1  339.97   56.69
   0 -20  -1  149.49   42.50
  -2 -20  -1   10.70   39.00
   2 -20   1   44.40   48.20
   2 -20   1  -47.70   48.60
  -2 -20  -1  -20.70   52.09
  -2 -20  -1   -3.90   43.50
   2  20   1   83.99   88.99
   2  20   1   72.79   61.89
   3 -21  -1   72.29   59.99
  -3 -21   1  163.98   59.19
   3  21  -1   69.79   82.29
   1 -21  -1  226.58   40.20
  -1 -21   1  208.68   50.19
  -1 -21   1  237.98   53.39
  -1 -21   1  373.26   62.09
   1 -21  -1  392.26   58.79
   1 -21  -1  163.68   47.20
   1 -21   1  276.77   55.69
  -1 -21  -1  317.87   58.19
  -1 -21  -1  266.77   52.79
  -1 -21  -1  317.57   59.89
   1 -21   1  308.07   57.29
   1 -21   1  336.57   42.90
   2 -22  -1 -109.39   54.69
  -2 -22   1   16.40   55.19
  -2 -22   1   25.30   56.39
  -2 -22   1   -0.70   59.99
   2 -22  -1  136.19   53.89
   0 -22   1  208.28   50.39
   0 -22   1   48.50   49.00
   0 -22  -1  147.09   52.49
   0 -22  -1  186.18   54.79
   0 -22  -1  -15.00   49.20
   0 -22   1   -1.50   49.10
  -2 -22  -1  302.47   67.59
   2 -22   1  316.37   70.99
   2 -22   1  195.58   64.69
  -2 -22  -1  148.89   59.39
  -1 -23   1  100.49   75.79
  -1 -23   1  129.89   71.39
   1 -23  -1   82.09   57.09
  -1 -23   1  114.19   61.19
  -1 -23  -1   43.80   50.79
   1 -23   1  213.38   63.89
  -1 -23  -1  114.19   67.09
   6   0  -2   43.10   63.99
   6   0  -2  -43.70   42.10
   4   0  -2  764.52   48.40
   4   0  -2  812.72   58.09
  -4   0   2  704.53   30.40
  -4   0   2  775.92   53.49
   4   0  -2  714.33   59.79
  -2   0   2 4204.88  121.39
  -2   0   2 4163.38  117.09
   2   0  -2 4366.56  116.79
   2   0  -2 4301.97  110.49
   2   0  -2 3939.91  128.39
  -2   0   2 4278.47  110.09
   0   0  -2  182.88   19.30
   0   0  -2  224.48   30.70
   0   0   2  230.08   21.40
   0   0   2  239.08   18.60
   0   0  -2  218.18   24.10
   0   0   2  233.28   30.70
   0   0   2  174.28   22.30
   0   0  -2  198.48   22.60
   2   0   2 1196.18   55.09
   2   0   2 1211.88   47.00
   2   0   2 1155.18   68.69
   2   0   2 1182.28   42.90
  -2   0  -2 1182.18   42.50
  -2   0  -2 1159.88   51.69
   2   0   2 1202.68   52.09
  -2   0  -2 1240.98   54.79
  -2   0  -2 1203.98   60.49
   4   0   2 1018.80   67.29
   4   0   2  905.11   63.79
   4   0   2  998.70   42.50
  -4   0  -2  964.80   67.09
   4   0   2  974.80   89.99
   6   0   2   54.69   85.79
   6   0   2   22.20   59.99
   5  -1  -2  442.56   59.59
  -5  -1   2  468.05   57.69
   5  -1  -2  412.26   49.70
   5   1  -2  387.66   43.50
  -5   1   2  405.46   50.79
   5   1  -2  579.34   73.79
   5   1  -2  479.65   51.59
   5   1  -2  489.45   85.19
  -3  -1   2  196.08   19.30
  -3  -1   2  164.48   28.00
   3  -1  -2  207.38   22.40
  -3  -1   2  201.18   26.40
   3  -1  -2  217.78   27.80
   3  -1  -2  257.87   31.30
   3   1  -2  168.18   25.00
  -3   1   2  180.98   17.50
   3   1  -2  244.58   37.00
  -3   1   2  210.48   26.50
  -3   1   2  186.98   28.00
   3   1  -2  157.88   30.30
   1  -1  -2  259.27   20.50
  -1  -1   2  246.78   19.20
  -1  -1   2  273.47   23.60
  -1  -1   2  262.77   16.90
  -1  -1   2  259.07   28.30
   1  -1  -2  265.07   22.10
   1   1  -2  294.07   27.10
   1   1  -2  274.37   23.50
  -1   1   2  248.48   26.70
  -1   1   2  254.27   18.60
  -1   1   2  216.28   22.20
   1   1  -2  243.88   19.70
  -1  -1  -2 3062.69   91.19
  -1  -1  -2 3037.10   99.09
   1  -1   2 2984.30  100.89
  -1  -1  -2 3080.09   90.79
  -1  -1  -2 3043.80   83.59
   1  -1   2 2926.71   92.69
   1  -1   2 2849.81   83.19
   1   1   2 3042.60   89.59
  -1   1  -2 3054.79   83.99
   1   1   2 3125.99  104.69
  -1   1  -2 2794.12   88.19
  -1   1  -2 2882.91   90.39
  -1   1  -2 2953.60   96.19
   1   1   2 3118.49   93.99
   1   1   2 3109.49   83.89
   3  -1   2   33.90   24.30
   3  -1   2   50.29   17.50
   3  -1   2   47.50   25.40
  -3  -1  -2   78.69   28.90
   3  -1   2   89.39   36.80
  -3  -1  -2   62.39   15.90
   3   1   2  108.19   28.90
  -3   1  -2   57.89   28.00
   3   1   2   61.69   16.90
   3   1   2   47.20   25.60
   3   1   2   36.50   37.00
  -3   1  -2  -34.80   28.80
   5  -1   2  234.88   49.80
  -5  -1  -2  182.08   54.69
   5  -1   2  256.27   72.39
  -5   1  -2  199.28   49.60
   5   1   2  243.48   53.99
   5   1   2  127.99   62.29
  -6  -2   2  159.98   60.49
   6  -2  -2  321.57   74.99
   6  -2  -2  142.39   41.20
   6   2  -2  175.38   70.89
   6   2  -2  170.58   49.60
   4  -2  -2   71.79   24.50
   4  -2  -2   77.19   30.30
   4  -2  -2   48.90   13.60
  -4  -2   2   67.89   17.90
   4  -2  -2   33.00   30.00
   4   2  -2  113.49   21.00
  -4   2   2   81.19   24.60
  -4   2   2   94.39   28.00
   4   2  -2   60.19   25.10
   4   2  -2   21.90   32.00
   4   2  -2   78.99   33.20
  -2  -2   2   73.29   20.50
   2  -2  -2   75.29   15.70
  -2  -2   2   62.39   11.20
   2  -2  -2   71.89   14.50
  -2  -2   2   57.89   13.10
  -2  -2   2   71.99   17.20
   2  -2  -2   42.10   16.60
   2   2  -2   36.30   12.80
  -2   2   2   58.89   15.30
  -2   2   2   61.99   17.90
   2   2  -2   49.80   16.80
   2   2  -2   72.59   19.90
   2   2  -2   79.89   13.60
  -2   2   2   47.80   11.10
   0  -2   2   48.40   17.20
   0  -2  -2   59.39   12.50
   0  -2   2   69.69   20.00
   0  -2  -2   42.50   16.00
   0  -2  -2   66.69   15.80
   0  -2   2   53.69   12.30
   0  -2   2   69.09   15.50
   0  -2  -2   40.30   20.00
   0   2   2   62.89   12.00
   0   2   2   63.39   25.80
   0   2  -2   45.70   15.20
   0   2   2   72.99   15.80
   0   2  -2   57.69   13.20
   0   2   2   35.10   16.00
   0   2  -2   28.10   13.50
   2  -2   2  290.67   24.60
  -2  -2  -2  282.47   32.90
  -2  -2  -2  319.17   41.20
  -2  -2  -2  297.07   31.90
   2  -2   2  319.87   42.20
   2  -2   2  269.07   29.70
   2  -2   2  243.78   30.60
  -2  -2  -2  299.77   23.30
  -2   2  -2  258.07   22.20
   2   2   2  346.07   34.80
  -2   2  -2  233.78   29.50
   2   2   2  259.47   39.80
  -2   2  -2  242.28   30.70
  -2   2  -2  295.57   35.30
   2   2   2  295.77   35.00
   2   2   2  290.17   27.00
   2   2   2  317.27   24.10
   4  -2   2   46.00   19.60
   4  -2   2   84.79   32.30
  -4  -2  -2   -9.80   31.70
   4  -2   2   68.79   46.70
  -4  -2  -2   53.29   15.70
   4   2   2   44.90   30.50
  -4   2  -2   57.59   31.30
   4   2   2   48.60   19.60
   4   2   2   87.79   40.00
   4   2   2   75.79   39.80
   6  -2   2    3.70   56.79
   6  -2   2  119.99   93.99
   6   2   2   18.60   92.49
   6   2   2   76.69   66.89
   5  -3  -2   76.79   40.30
   5  -3  -2  -18.10   28.70
   5  -3  -2  -30.00   35.40
  -5  -3   2   14.40   39.90
   5   3  -2   11.00   42.10
   5   3  -2    6.70   48.20
   5   3  -2   53.79   33.50
   5   3  -2   18.10   30.10
  -5   3   2    6.70   30.10
  -3  -3   2   66.89   13.80
   3  -3  -2   73.49   22.20
  -3  -3   2   45.50   20.70
   3  -3  -2   49.90   17.50
   3  -3  -2   53.79   16.30
  -3  -3   2   85.49   28.00
  -3  -3   2   48.40   14.40
   3   3  -2   39.30   20.10
  -3   3   2   52.59   13.50
   3   3  -2   75.09   16.50
   3   3  -2   50.19   23.80
   3   3  -2   73.39   28.10
  -3   3   2   30.70   17.50
  -3   3   2    5.80   16.60
   1  -3  -2 3952.70  112.19
  -1  -3   2 3972.90  115.89
  -1  -3   2 3955.90  105.89
  -1  -3   2 4153.68  113.09
   1  -3  -2 4018.30  110.49
  -1  -3   2 3849.71  110.19
   1  -3  -2 4055.19  106.19
  -1   3   2 4002.50  110.49
  -1   3   2 4037.90  105.69
   1   3  -2 3943.01  115.59
  -1   3   2 3951.90  112.79
   1   3  -2 4148.38  106.39
   1   3  -2 3999.70  112.09
   1  -3   2   54.19   17.60
  -1  -3  -2   72.59   20.00
  -1  -3  -2   41.00   17.70
   1  -3   2   57.09   13.80
   1  -3   2   52.09   21.70
   1  -3   2   40.70   15.00
  -1  -3  -2   42.00   13.10
  -1  -3  -2   34.10   23.40
   1   3   2   45.80   11.80
   1   3   2   19.30   24.50
  -1   3  -2   66.19   18.70
   1   3   2   65.29   17.80
   1   3   2   69.09   19.90
  -1   3  -2   71.69   19.20
   1   3   2   34.30   11.60
  -1   3  -2   49.30   14.90
   3  -3   2  104.69   36.20
   3  -3   2   66.49   25.50
   3  -3   2   33.30   22.10
   3  -3   2   37.20   17.10
  -3  -3  -2   76.79   18.30
  -3  -3  -2   35.60   27.00
  -3   3  -2   61.09   23.30
  -3   3  -2   51.39   30.70
   3   3   2   34.40   23.90
   3   3   2   23.20   17.00
   3   3   2   21.10   37.10
  -3   3  -2   23.20   25.10
   3   3   2   48.20   30.20
   5  -3   2  585.44   83.29
  -5  -3  -2  653.73   80.89
   5  -3   2  646.64   68.09
   5   3   2  574.94   74.29
   5   3   2  645.44   91.69
  -6  -4   2 1751.72  114.59
   6  -4  -2 1839.92  135.29
   6   4  -2 1575.94  134.09
   6   4  -2 1776.02  103.09
   4  -4  -2   32.40   23.40
   4  -4  -2   10.50   16.80
  -4  -4   2    4.50   18.00
   4  -4  -2    6.70   28.50
  -4  -4   2    3.40   29.60
  -4  -4   2    9.70   16.30
   4  -4  -2   -5.60   19.30
   4   4  -2   49.00   34.50
  -4   4   2  -16.90   20.80
   4   4  -2   83.79   36.80
   4   4  -2  -25.80   22.30
  -4   4   2  -12.90   15.20
   4   4  -2   23.20   22.60
   2  -4  -2   56.29   15.30
   2  -4  -2   63.19   13.80
  -2  -4   2   67.99   14.80
  -2  -4   2   71.19   21.70
  -2  -4   2   64.99   13.60
   2  -4  -2   63.59   17.30
  -2  -4   2   48.90   18.60
  -2   4   2   78.29   17.10
   2   4  -2   95.39   20.90
   2   4  -2   61.59   14.70
  -2   4   2   71.49   14.10
  -2   4   2   85.89   18.60
   2   4  -2   45.10   22.10
   0  -4   2 8378.56  211.38
   0  -4  -2 8579.64  233.18
   0  -4  -2 8632.44  211.68
   0  -4  -2 8801.32  218.68
   0  -4   2 8469.55  213.58
   0  -4  -2 8175.68  215.98
   0  -4   2 8595.94  220.98
   0   4  -2 8455.65  216.68
   0   4   2 8683.43  237.88
   0   4   2 8373.26  219.38
   0   4   2 8739.73  207.68
   0   4   2 8471.35  216.68
   0   4  -2 8396.76  218.68
   0   4   2 8937.51  212.38
   0   4  -2 8684.83  216.18
   2  -4   2  109.59   22.70
   2  -4   2   38.20   18.00
   2  -4   2   42.90   26.70
  -2  -4  -2   66.39   25.80
  -2  -4  -2   32.80   20.20
  -2  -4  -2   38.20   21.30
  -2  -4  -2   48.50   15.40
   2  -4   2   51.69   16.20
  -2   4  -2   27.80   18.80
   2   4   2   42.60   21.30
   2   4   2   45.70   15.00
   2   4   2   87.89   35.80
   2   4   2   28.40   22.00
  -2   4  -2   95.29   21.40
  -2   4  -2   42.60   16.60
   2   4   2   95.59   20.70
  -4  -4  -2    4.80   18.10
  -4  -4  -2   15.70   35.80
   4  -4   2   56.79   30.10
   4  -4   2   75.89   45.80
   4  -4   2  -16.60   20.50
   4  -4   2   43.90   30.60
  -4   4  -2   42.60   28.90
   4   4   2   49.70   21.90
   4   4   2   31.60   52.89
   4   4   2  -18.10   43.70
   6  -4   2  677.73   80.39
   6  -4   2  259.37   99.19
   6   4   2  635.44   84.69
   6   4   2  499.75  123.99
   5  -5  -2   23.60   25.90
   5  -5  -2  -34.50   35.40
  -5  -5   2  -16.50   25.60
  -5  -5   2   49.90   15.90
   5  -5  -2   28.40   18.40
  -5  -5   2   49.10   40.90
   5   5  -2  -21.50   44.80
  -5   5   2    8.90   26.90
   5   5  -2   54.79   34.00
   5   5  -2   46.00   57.79
  -3  -5   2  100.59   29.40
   3  -5  -2   23.70   15.40
  -3  -5   2   50.59   18.70
   3  -5  -2   30.10   19.50
   3  -5  -2   29.90   15.20
  -3  -5   2   40.10   14.50
  -3  -5   2   34.20   24.30
   3   5  -2   89.69   19.60
  -3   5   2   49.40   18.50
  -3   5   2   64.59   16.80
   3   5  -2   63.39   25.80
   3   5  -2    1.30   19.30
  -3   5   2   40.10   18.20
   3   5  -2   34.60   28.60
   1  -5  -2 1454.25   49.40
  -1  -5   2 1377.06   58.79
  -1  -5   2 1459.35   49.10
  -1  -5   2 1510.55   56.09
   1  -5  -2 1401.86   70.29
  -1  -5   2 1467.45   50.09
   1  -5  -2 1458.45   53.09
   1  -5  -2 1466.95   51.99
  -1   5   2 1511.45   49.20
   1   5  -2 1439.26   59.09
   1   5  -2 1409.16   53.89
  -1   5   2 1430.06   54.99
   1   5  -2 1423.36   50.39
  -1   5   2 1417.16   51.09
  -1  -5  -2  206.18   34.50
  -1  -5  -2  154.28   24.10
  -1  -5  -2  176.18   24.10
   1  -5   2  210.58   20.90
  -1  -5  -2  171.78   20.00
   1  -5   2  178.98   21.80
  -1  -5  -2  164.08   19.70
   1  -5   2  196.08   27.70
   1  -5   2  152.48   23.10
   1   5   2  184.18   22.20
   1   5   2  184.58   26.50
   1   5   2  167.58   20.00
  -1   5  -2  141.69   22.90
   1   5   2  198.08   37.80
  -1   5  -2  168.78   20.80
   1   5   2  149.79   23.00
  -1   5  -2  154.88   23.40
   3  -5   2   49.90   24.30
   3  -5   2   31.70   34.50
  -3  -5  -2   13.70   28.20
   3  -5   2   48.80   19.70
  -3  -5  -2   13.50   19.60
   3  -5   2   13.90   20.60
   3   5   2   22.50   27.10
  -3   5  -2   34.60   22.60
  -3   5  -2   16.60   20.10
   3   5   2   12.00   29.90
   3   5   2   10.00   18.70
  -3   5  -2   45.40   26.40
   3   5   2   26.80   39.80
  -5  -5  -2  387.76   59.29
   5  -5   2  439.06   78.99
   5  -5   2  399.76   46.30
   5   5   2  260.87   54.39
   5   5   2  286.47   73.19
  -6  -6   2   68.79   59.79
   6  -6  -2  145.49   72.39
   6   6  -2  111.09   59.49
   6   6  -2  -33.60   65.79
   4  -6  -2  287.77   26.90
  -4  -6   2  287.07   44.80
   4  -6  -2  268.37   29.90
   4  -6  -2  248.28   46.60
  -4  -6   2  197.68   27.00
   4  -6  -2  265.07   28.10
  -4  -6   2  288.47   25.70
  -4   6   2  251.67   26.60
   4   6  -2  271.37   31.70
   4   6  -2  244.98   37.10
   4   6  -2  285.97   51.69
   4   6  -2  316.47   51.39
  -4   6   2  324.07   37.10
  -4   6   2  238.58   30.10
  -2  -6   2   15.60   19.30
   2  -6  -2   23.10   15.30
   2  -6  -2   23.40   14.10
  -2  -6   2  -13.90   18.90
  -2  -6   2   28.80   15.40
   2  -6  -2   43.30   15.30
  -2  -6   2   10.20   12.70
   2   6  -2   43.90   17.80
  -2   6   2   14.10   15.90
  -2   6   2   45.60   15.10
   2   6  -2   49.10   24.50
   2   6  -2   15.40   17.60
   2   6  -2   23.60   18.10
  -2   6   2    4.40   14.30
   0  -6  -2 1058.89   37.80
   0  -6   2 1066.49   41.80
   0  -6   2 1102.49   45.00
   0  -6  -2 1031.00   41.80
   0  -6  -2 1091.39   62.19
   0  -6  -2 1049.00   45.60
   0  -6  -2 1092.29   46.60
   0  -6   2 1048.30   47.70
   0   6   2 1061.59   50.29
   0   6  -2  989.60   40.00
   0   6  -2 1059.69   48.30
   0   6   2 1023.90   37.60
   0   6  -2 1066.69   44.60
   0   6   2  999.20   41.20
   0   6   2 1127.49   66.69
   0   6   2 1078.89   45.90
  -2  -6  -2  290.57   29.00
   2  -6   2  301.97   27.80
  -2  -6  -2  306.17   37.00
   2  -6   2  278.57   34.50
   2  -6   2  353.26   44.80
  -2  -6  -2  363.16   39.60
   2  -6   2  321.87   29.00
  -2  -6  -2  389.96   50.49
  -2  -6  -2  342.17   29.50
  -2   6  -2  330.97   33.40
  -2   6  -2  342.47   35.60
   2   6   2  332.57   30.70
   2   6   2  361.66   40.00
   2   6   2  352.76   42.10
   2   6   2  273.17   47.60
  -2   6  -2  317.57   28.50
   2   6   2  273.67   31.20
  -4  -6  -2  -23.30   34.50
   4  -6   2   26.80   30.30
   4  -6   2   67.89   27.70
  -4  -6  -2   24.80   20.80
   4  -6   2    9.70   44.30
   4  -6   2   28.50   29.20
   4   6   2   37.60   30.80
   4   6   2   77.19   56.79
   4   6   2   70.09   36.10
  -4   6  -2    1.90   27.10
   6  -6   2  411.76  102.59
   5  -7  -2  255.37   26.00
  -5  -7   2  295.57   56.79
   5  -7  -2  336.57   60.79
  -5  -7   2  222.58   35.20
  -5  -7   2  228.98   25.00
   5   7  -2  250.07   46.60
   5   7  -2  318.37   62.29
   3  -7  -2  955.00   40.30
   3  -7  -2 1031.20   39.50
   3  -7  -2 1080.89   44.80
  -3  -7   2  941.41   46.60
  -3  -7   2  966.30   41.30
  -3   7   2  955.60   43.30
   3   7  -2 1067.29   63.29
   3   7  -2  882.91   55.69
   3   7  -2  936.91   49.99
  -3   7   2  928.31   44.30
  -3   7   2  910.41   44.30
   3   7  -2 1044.90   67.49
  -1  -7   2  471.35   38.70
  -1  -7   2  448.46   28.10
   1  -7  -2  424.56   28.70
   1  -7  -2  436.26   30.00
  -1  -7   2  459.25   30.00
   1  -7  -2  424.06   20.60
   1  -7  -2  398.06   49.20
  -1  -7   2  454.75   35.00
   1  -7  -2  421.16   31.00
   1   7  -2  437.96   37.00
   1   7  -2  470.45   33.60
   1   7  -2  400.76   32.00
  -1   7   2  446.86   29.30
  -1   7   2  423.96   21.10
   1   7  -2  435.36   25.80
  -1   7   2  429.66   32.60
  -1   7   2  422.66   28.50
   1  -7   2  796.52   42.10
   1  -7   2  795.42   45.10
  -1  -7  -2  777.12   56.99
  -1  -7  -2  786.92   44.30
   1  -7   2  777.22   39.30
  -1  -7  -2  705.03   36.00
  -1  -7  -2  783.62   47.00
  -1  -7  -2  798.02   38.00
   1  -7   2  673.13   39.60
   1  -7   2  706.23   36.90
   1   7   2  735.23   47.50
   1   7   2  710.23   36.90
  -1   7  -2  780.62   33.70
   1   7   2  741.93   43.40
   1   7   2  680.53   62.39
  -1   7  -2  776.52   41.10
  -1   7  -2  721.93   36.30
   1   7   2  739.43   37.80
   3  -7   2  873.61   43.20
  -3  -7  -2  940.91   45.30
   3  -7   2  942.31   71.29
  -3  -7  -2 1025.10   66.49
   3  -7   2  926.01   50.39
   3  -7   2  918.21   46.70
   3   7   2 1019.40  110.89
   3   7   2  891.21   84.49
  -3   7  -2 1039.60   59.09
   3   7   2 1016.40   48.60
  -3   7  -2  977.90   47.10
  -3   7  -2  876.21   50.39
   3   7   2  932.71   66.59
   5  -7   2   59.99   65.59
  -5  -7  -2  134.29   56.79
   5   7   2   40.50   49.40
   5   7   2   37.30   75.99
  -6  -8   2   81.89   68.49
  -6  -8   2   23.20   42.10
   6  -8  -2 -100.19   72.79
   6   8  -2   24.10   59.99
   6   8  -2  -32.10   75.29
  -4  -8   2 1180.38   74.99
  -4  -8   2 1256.97   57.29
   4  -8  -2 1138.19   51.19
   4  -8  -2 1118.59   77.49
  -4  -8   2 1192.98   48.90
   4   8  -2 1163.08   70.39
   4   8  -2 1104.09   81.19
  -4   8   2 1076.79   54.49
  -4   8   2 1165.08   53.09
  -2  -8   2  888.31   51.49
   2  -8  -2  812.52   38.60
  -2  -8   2  947.61   44.60
   2  -8  -2  850.81   39.00
  -2  -8   2  857.51   54.89
   2  -8  -2  880.31   41.60
   2   8  -2  837.92   56.19
   2   8  -2  827.82   46.10
  -2   8   2  920.21   40.70
   2   8  -2  887.81   46.80
  -2   8   2  882.11   41.70
  -2   8   2  843.92   42.10
   2   8  -2  898.91   50.89
   0  -8  -2   76.69   32.20
   0  -8   2  103.09   20.00
   0  -8  -2  129.39   23.90
   0  -8  -2  111.99   21.00
   0  -8  -2  138.49   18.40
   0  -8   2   99.69   23.10
   0  -8  -2   97.29   21.90
   0   8   2  101.79   25.00
   0   8   2  137.69   19.10
   0   8   2  160.08   22.30
   0   8  -2  108.99   22.90
   0   8   2  151.48   38.90
   0   8   2   78.59   20.70
   0   8  -2  134.49   25.70
   2  -8   2 2042.60   71.29
  -2  -8  -2 2058.79   72.99
   2  -8   2 2060.99   66.79
  -2  -8  -2 2013.80   83.69
   2  -8   2 2084.29   70.99
   2  -8   2 2169.38   83.19
   2  -8   2 2197.78   82.19
  -2  -8  -2 2167.88   72.39
  -2  -8  -2 2187.68   86.19
  -2   8  -2 2159.78   69.39
   2   8   2 2057.49   72.19
  -2   8  -2 2042.10   72.79
   2   8   2 2005.40   84.99
   2   8   2 2068.69   87.79
  -2   8  -2 2107.09   71.99
   2   8   2 2259.17  108.09
  -4  -8  -2   80.39   44.60
   4  -8   2  112.59   34.70
   4  -8   2   71.59   49.10
  -4  -8  -2   91.69   27.70
   4   8   2   22.20   39.80
   4   8   2   20.60   55.49
  -5  -9   2   52.69   38.80
  -5  -9   2   16.20   26.50
   5  -9  -2   43.00   26.90
   5  -9  -2    9.90   47.20
  -5  -9   2  116.69   61.69
   5   9  -2   18.80   49.20
   5   9  -2    1.30   41.40
  -3  -9   2  680.43   58.29
   3  -9  -2  810.62   43.70
  -3  -9   2  733.43   45.70
  -3  -9   2  690.93   39.50
   3   9  -2  749.33   60.69
  -3   9   2  754.72   43.50
   3   9  -2  635.54   54.39
   3   9  -2  714.23   61.29
  -3   9   2  789.22   38.80
  -1  -9   2  150.78   23.20
   1  -9  -2  157.28   17.90
   1  -9  -2  183.68   38.60
   1  -9  -2  130.79   21.60
  -1  -9   2  207.98   29.90
   1  -9  -2  163.88   24.00
   1  -9  -2  187.98   24.20
  -1  -9   2  185.18   30.70
   1   9  -2  207.28   27.30
   1   9  -2  148.39   25.80
   1   9  -2  220.08   31.80
  -1   9   2  164.28   20.30
  -1   9   2  220.98   28.40
  -1   9   2  161.48   24.50
   1   9  -2  153.78   20.40
  -1   9   2  178.58   24.40
   1  -9   2  409.06   39.90
  -1  -9  -2  431.66   32.00
   1  -9   2  414.16   33.70
  -1  -9  -2  460.75   42.90
  -1  -9  -2  442.66   55.99
   1  -9   2  403.66   36.00
  -1  -9  -2  440.36   34.80
  -1  -9  -2  415.26   40.20
   1   9   2  487.65   65.09
   1   9   2  420.26   34.70
   1   9   2  387.56   33.20
   1   9   2  461.25   44.20
   1   9   2  461.25   46.60
  -1   9  -2  468.65   37.60
  -1   9  -2  391.36   30.90
  -3  -9  -2  207.68   29.90
  -3  -9  -2  202.68   39.80
   3  -9   2  247.48   32.50
  -3  -9  -2  213.18   32.60
   3  -9   2  158.68   41.40
   3   9   2  274.47   61.49
   3   9   2  161.78   32.70
  -3   9  -2  231.98   36.70
   3   9   2  210.38   41.70
  -3   9  -2  233.98   37.40
   5  -9   2  290.17   76.39
  -5  -9  -2  153.28   60.19
   5   9   2  202.58   84.59
   5   9   2  138.59   60.19
   6 -10  -2   13.30   86.09
  -6 -10   2  111.79   52.59
  -6 -10   2  186.78   75.59
   6  10  -2  145.39   66.29
   6  10  -2  308.37   93.59
  -4 -10   2  112.79   26.70
   4 -10  -2  165.68   29.60
  -4 -10   2   69.79   41.10
   4 -10  -2   45.10   41.80
  -4 -10   2   46.40   25.40
   4  10  -2  124.09   39.10
   4  10  -2   56.29   41.30
   2 -10  -2  140.79   25.20
   2 -10  -2  178.58   22.50
  -2 -10   2  225.18   31.10
   2 -10  -2  162.58   22.10
   2 -10  -2  183.18   41.40
  -2 -10   2  176.28   33.20
   2  10  -2  173.78   26.30
  -2  10   2  194.18   27.00
   2  10  -2  261.07   36.00
  -2  10   2  160.48   26.40
  -2  10   2  195.78   25.90
   2  10  -2  144.59   27.90
   0 -10  -2   56.19   19.50
   0 -10   2   38.50   21.30
   0 -10  -2   80.99   23.80
   0 -10  -2   94.29   36.00
   0 -10   2   70.79   25.30
   0 -10  -2   56.09   22.80
   0 -10  -2   59.19   16.60
   0 -10   2  120.29   24.70
   0  10   2  100.39   26.20
   0  10  -2   64.99   23.90
   0  10   2   79.29   20.20
   0  10   2   69.49   19.00
   0  10   2   65.59   24.10
   0  10  -2   46.00   22.90
   0  10   2   57.59   35.50
   2 -10   2  390.96   54.89
  -2 -10  -2  410.56   37.20
   2 -10   2  440.06   48.10
  -2 -10  -2  396.56   37.10
   2 -10   2  404.06   32.20
  -2 -10  -2  403.26   48.00
   2 -10   2  421.76   35.80
   2 -10   2  340.27   39.50
  -2  10  -2  435.26   33.70
   2  10   2  430.76   64.29
   2  10   2  444.06   51.69
   2  10   2  486.75   42.80
  -2  10  -2  445.76   41.80
   4 -10   2  157.68   56.89
  -4 -10  -2  183.68   48.90
   4 -10   2  237.58   51.89
  -4 -10  -2  148.59   32.10
   4  10   2  191.08   72.39
   4  10   2  131.99   50.09
   5 -11  -2  129.29   38.50
   5 -11  -2   65.49   55.89
  -5 -11   2  218.68   60.19
  -5 -11   2   98.29   38.50
  -5 -11   2  121.49   35.90
   5  11  -2   72.89   64.19
   5  11  -2   97.59   51.19
  -3 -11   2   36.30   25.00
   3 -11  -2   22.90   24.10
  -3 -11   2   30.70   32.60
   3  11  -2   62.19   35.50
  -3  11   2   67.39   23.40
   3  11  -2   41.10   31.40
  -3  11   2   32.50   20.60
   1 -11  -2 2803.72   89.79
   1 -11  -2 3042.40  121.29
  -1 -11   2 2867.51   99.29
  -1 -11   2 2789.72   93.79
   1 -11  -2 2851.41   92.59
  -1 -11   2 2824.62  102.29
   1 -11  -2 2928.31   84.89
   1 -11  -2 2978.10   91.59
  -1  11   2 2794.92   91.99
   1  11  -2 2897.31   97.59
  -1  11   2 2914.91   95.19
  -1  11   2 2850.11   84.69
  -1 -11  -2  147.79   43.80
  -1 -11  -2  149.69   32.10
  -1 -11  -2  133.49   30.80
  -1 -11  -2  110.19   23.00
  -1 -11  -2  135.59   26.40
   1 -11   2  125.49   27.40
   1 -11   2  153.58   27.10
   1 -11   2  153.68   25.70
  -1  11  -2  159.98   24.00
   1  11   2  164.18   49.20
  -1  11  -2  126.89   29.20
   1  11   2  166.48   36.90
   1  11   2   96.59   24.00
  -3 -11  -2   29.70   39.00
   3 -11   2  -16.60   32.40
  -3 -11  -2   23.00   27.50
   3 -11   2   71.29   41.00
  -3 -11  -2   38.40   27.10
   3  11   2  102.39   59.39
  -3  11  -2   33.80   21.80
   5 -11   2  519.55   90.69
  -5 -11  -2  413.46   76.39
   5 -11   2  544.25   80.49
   5  11   2  464.85   82.09
   5  11   2  826.32  126.69
   4 -12  -2  -50.69   44.40
   4 -12  -2   32.20   28.80
  -4 -12   2    8.80   44.00
  -4 -12   2   64.39   34.90
   4  12  -2   49.50   39.30
   4  12  -2  -49.60   48.10
  -2 -12   2  106.79   34.20
   2 -12  -2   96.99   22.30
  -2 -12   2  122.49   27.00
   2 -12  -2   99.09   19.50
   2 -12  -2   87.79   27.80
   2 -12  -2  121.29   21.20
  -2 -12   2  143.79   35.90
   2 -12  -2   72.59   48.70
   2  12  -2  137.29   27.30
  -2  12   2  121.59   24.60
  -2  12   2  113.29   24.00
   2  12  -2  146.59   35.60
  -2  12   2  118.59   27.70
   0 -12   2 2252.17   86.89
   0 -12  -2 2376.26   88.09
   0 -12  -2 2455.95   86.99
   0 -12  -2 2411.66   84.09
   0 -12   2 2391.36   87.89
   0 -12   2 2423.36   86.49
   0 -12  -2 2485.55  108.79
   0 -12  -2 2508.55   79.09
   0  12   2 2419.46   80.19
   0  12   2 2332.27   91.39
   0  12  -2 2451.65   86.99
   2 -12   2   49.50   19.10
  -2 -12  -2   51.69   24.30
  -2 -12  -2   40.90   25.30
  -2 -12  -2   48.10   32.10
   2 -12   2   52.09   27.90
  -2  12  -2  102.09   22.80
   2  12   2  110.99   38.90
   2  12   2   70.39   46.90
  -4 -12  -2  109.69   52.89
  -4 -12  -2  129.99   36.50
   4 -12   2   94.79   51.59
   4 -12   2   66.19   56.59
  -4 -12  -2   50.39   36.70
   4  12   2  137.49   56.19
   4  12   2  210.58   80.59
   5 -13  -2  202.48   67.09
  -5 -13   2  187.68   47.10
  -5 -13   2  296.67   71.69
   5  13  -2  251.27   68.49
   5  13  -2  261.87   78.29
  -3 -13   2  168.78   35.30
  -3 -13   2  159.08   42.50
   3 -13  -2  113.59   30.10
   3  13  -2   88.19   39.50
   3  13  -2  130.59   42.60
  -3  13   2  131.59   28.30
  -3  13   2  129.09   25.30
  -1 -13   2  337.97   41.50
   1 -13  -2  280.77   53.79
   1 -13  -2  346.67   39.40
  -1 -13   2  354.36   41.10
   1 -13  -2  305.87   34.70
   1 -13  -2  214.08   31.00
   1 -13  -2  352.76   38.30
  -1 -13   2  271.87   42.10
   1  13  -2  346.27   42.10
  -1  13   2  318.37   32.10
  -1  13   2  306.37   38.40
  -1 -13  -2  596.24   45.50
  -1 -13  -2  546.35   56.69
  -1 -13  -2  652.73   44.40
   1 -13   2  684.13   45.10
  -1 -13  -2  596.64   53.09
   1 -13   2  648.54   49.70
  -1  13  -2  653.53   42.00
   1  13   2  645.44   61.59
   1  13   2  683.43   83.79
   3 -13   2  129.69   44.20
  -3 -13  -2  123.09   31.90
  -3 -13  -2   95.49   45.60
  -3 -13  -2   77.29   31.50
   3 -13   2  114.29   46.80
   3  13   2  116.29   64.29
   3  13   2   69.39   45.30
  -5 -13  -2  173.98   77.89
   5 -13   2  172.68   72.19
   5  13   2   46.00  120.29
  -4 -14   2  156.38   43.80
   4 -14  -2  159.78   40.50
  -4 -14   2  209.18   42.30
  -4 -14   2  175.18   56.79
   4 -14  -2  236.08   59.19
   4  14  -2  101.89   51.69
   4  14  -2  179.28   59.89
   2 -14  -2  359.66   31.70
  -2 -14   2  375.96   53.49
   2 -14  -2  404.16   47.10
  -2 -14   2  307.57   37.60
   2 -14  -2  340.97   36.80
   2 -14  -2  368.46   39.30
  -2 -14   2  335.27   50.79
  -2  14   2  397.86   37.60
  -2  14   2  347.47   38.60
   2  14  -2  337.17   40.50
   2  14  -2  427.26   55.49
   0 -14   2  129.89   29.00
   0 -14  -2   94.29   27.60
   0 -14  -2  123.69   33.20
   0 -14  -2  105.79   47.50
   0 -14  -2   91.79   29.70
   0 -14   2  132.09   32.10
   0 -14  -2  121.29   26.80
   0 -14   2  171.58   33.70
   0  14   2  142.59   40.40
   0  14  -2  114.89   28.40
  -2 -14  -2  113.99   38.30
  -2 -14  -2  150.28   32.40
   2 -14   2  103.39   36.20
  -2 -14  -2   97.59   30.10
   2  14   2  111.59   56.09
   2  14   2  111.19   43.20
   4 -14   2  276.87   50.19
  -4 -14  -2  296.97   47.80
  -4 -14  -2  355.46   54.49
  -4 -14  -2  242.38   66.19
   4 -14   2  387.16   63.69
   4  14   2  474.65   78.89
   4  14   2  107.99   91.89
  -5 -15   2  498.45   64.49
   5 -15  -2  717.23   94.99
  -5 -15   2  399.66   84.89
   5  15  -2  399.36  100.09
   5  15  -2  337.57   79.79
  -3 -15   2  220.78   49.50
  -3 -15   2  217.78   42.90
   3  15  -2  128.49   50.79
   1 -15  -2   49.20   28.20
  -1 -15   2   89.59   39.30
  -1 -15   2   88.29   40.00
   1 -15  -2   63.69   28.40
   1 -15  -2   79.59   28.40
  -1 -15   2   99.19   34.30
   1 -15  -2   82.99   28.90
   1  15  -2   95.59   37.00
  -1  15   2   66.49   26.40
   1 -15   2  827.92   52.49
  -1 -15  -2  873.21   53.69
   1 -15   2  837.12   73.89
  -1 -15  -2  870.21   64.09
  -1 -15  -2  881.01   68.19
   1 -15   2  706.83   74.19
  -1  15  -2  934.81   52.49
   1  15   2  803.72   73.59
   1  15   2  916.81   97.39
  -3 -15  -2  171.98   39.50
   3 -15   2  256.67   53.59
  -3 -15  -2  170.48   40.10
  -3 -15  -2  215.08   54.69
   3  15   2  333.87   65.19
   3  15   2  148.09   70.99
  -4 -16   2  205.28   51.19
   4 -16  -2  233.08   49.50
   4 -16  -2  232.58   66.99
  -4 -16   2  312.57   49.80
  -4 -16   2  415.06   74.49
   4  16  -2  341.67   66.09
   4  16  -2  194.48   71.39
  -2 -16   2  461.25   58.39
   2 -16  -2  409.46   41.30
   2 -16  -2  406.36   47.60
   2 -16  -2  340.67   46.20
  -2 -16   2  428.76   53.69
   2  16  -2  379.46   53.79
  -2  16   2  391.76   47.40
  -2  16   2  406.26   47.60
   0 -16  -2    3.20   25.40
   0 -16   2  -12.80   39.10
   0 -16   2  -51.99   24.70
   0 -16   2   -5.10   29.10
   0 -16  -2   18.50   24.30
   0  16   2   51.69   40.00
   0  16  -2    6.80   33.60
  -2 -16  -2  477.45   61.59
  -2 -16  -2  537.75   56.39
   2 -16   2  555.84   64.49
  -2 -16  -2  568.74   57.69
   2  16   2  697.33   81.99
   4 -16   2  126.19   67.29
  -4 -16  -2    2.10   50.69
  -4 -16  -2   63.29   65.99
  -4 -16  -2   32.40   51.49
   4 -16   2  -48.30   49.00
   4  16   2   39.50   70.59
   4  16   2   -9.10   97.29
  -3 -17   2  579.44   72.39
   3 -17  -2  538.85   57.49
  -3 -17   2  604.24   69.09
  -3 -17   2  635.14   70.19
   3 -17  -2  548.45   60.09
   3  17  -2  535.85   71.89
  -1 -17   2  285.67   46.30
  -1 -17   2  152.38   34.40
   1 -17  -2  146.99   34.40
   1 -17  -2  200.78   36.30
   1 -17  -2  188.88   35.90
   1  17  -2  149.09   45.10
  -1  17   2  236.88   51.29
   1 -17   2  107.89   42.60
   1 -17   2  115.79   32.50
  -1 -17  -2  163.78   36.20
  -1 -17  -2   86.69   36.20
  -1 -17  -2   63.59   29.90
   1  17   2   31.60   48.20
   1  17   2  154.98   62.89
  -3 -17  -2  137.59   45.70
  -3 -17  -2  181.58   48.70
   3 -17   2  269.57   56.59
   3 -17   2  253.47   54.49
  -3 -17  -2  216.48   60.39
   3  17   2  352.86   94.69
   3  17   2  273.47   72.09
   4 -18  -2   45.60   66.99
  -4 -18   2   16.60   51.89
  -4 -18   2   50.39   70.79
   4 -18  -2   34.20   48.00
  -4 -18   2   26.40   52.69
   4  18  -2  152.88   73.79
   2 -18  -2  287.97   47.60
   2 -18  -2  259.37   40.50
  -2 -18   2  260.67   54.49
  -2 -18   2  218.48   43.40
   2  18  -2  193.68   51.09
   0 -18  -2  161.28   58.59
   0 -18   2  220.08   44.00
   0 -18   2  235.08   44.60
   0 -18  -2  273.07   46.60
   0 -18  -2  247.38   44.20
   0  18   2  255.77   55.39
   0  18  -2  226.88   47.10
  -2 -18  -2  292.57   50.09
  -2 -18  -2  165.78   57.09
  -2 -18  -2  200.68   43.70
   2 -18   2  189.58   51.89
   2  18   2  342.87   87.39
   2  18   2   70.09   58.59
  -3 -19   2  145.99   56.39
  -3 -19   2  131.49   64.59
  -3 -19   2  146.09   55.99
   3 -19  -2   96.89   52.69
   3  19  -2   49.90   64.89
  -1 -19   2  611.34   77.09
   1 -19  -2  764.62   62.69
   1 -19  -2  792.72   66.99
  -1 -19   2  844.02   73.29
   1 -19  -2  714.83   70.79
   1  19  -2  677.63   82.89
  -1 -19  -2   74.89   50.69
  -1 -19  -2  201.68   47.10
   1 -19   2  147.29   54.79
  -1 -19  -2  149.19   42.70
   1 -19   2  157.78   35.90
   1  19   2  105.49   63.79
  -3 -19  -2  135.09   54.89
   3 -19   2  198.58   60.59
   3 -19   2   71.39   64.19
  -3 -19  -2   24.00   56.09
   3  19   2  149.09   82.69
   3  19   2  173.78  110.59
  -2 -20   2   22.00   45.00
   2 -20  -2   26.80   47.00
  -2 -20   2   39.90   54.79
  -2 -20   2   78.99   52.79
   2 -20  -2   12.50   43.20
   2  20  -2  -16.30   62.49
   0 -20   2  446.06   61.39
   0 -20  -2  511.95   64.19
   0 -20  -2  610.74   74.79
   0 -20  -2  554.94   64.89
   0 -20   2  474.85   63.69
   0 -20   2  670.33   73.69
   2 -20   2   42.50   53.39
   2 -20   2  116.69   59.89
  -2 -20  -2  105.09   48.10
  -2 -20  -2  143.59   61.49
  -2 -20  -2  159.08   51.29
   2  20   2  105.49   75.49
   2  20   2  170.48  103.49
  -1 -21   2  109.29   57.49
  -1 -21   2  165.38   52.99
   1 -21  -2   67.89   54.69
   1 -21  -2  174.58   51.99
   1 -21  -2  125.19   45.10
  -1 -21   2  162.98   60.89
  -1 -21  -2  221.58   49.10
   1 -21   2  257.47   41.10
   1 -21   2  194.88   58.79
  -1 -21  -2  197.88   54.99
  -1 -21  -2  136.79   62.29
   1 -21   2  204.88   57.89
  -2 -22   2  285.87  120.89
   2 -22  -2  213.68  101.99
   0 -22  -2  170.38   50.99
   0 -22  -2  137.49   55.59
   0 -22   2  123.19   53.59
   0 -22   2  136.09   57.39
   0 -22   2  173.08   65.79
   0 -22  -2   17.80   57.19
   6   0  -3  269.67   72.69
   6   0  -3  208.88   52.39
   4   0  -3   34.50   34.70
   4   0  -3   20.10   24.60
   4   0  -3   64.19   19.30
   4   0  -3   -0.20   37.50
  -4   0   3   23.20   19.50
  -4   0   3    8.10   34.00
  -2   0   3 1986.80   67.19
   2   0  -3 2057.99   74.79
   2   0  -3 2100.39   80.29
   2   0  -3 1888.31   66.19
  -2   0   3 2127.19   83.09
  -2   0   3 2018.70   75.49
   0   0  -3  526.95   38.40
   0   0   3  517.95   32.40
   0   0   3  470.85   53.09
   0   0  -3  482.85   31.90
   0   0  -3  515.55   42.40
   0   0   3  527.85   43.00
   0   0  -3  548.75   52.99
   0   0   3  570.94   38.20
   2   0   3   33.10   28.20
  -2   0  -3  -11.20   16.80
   2   0   3   34.20   26.60
  -2   0  -3  -26.50   32.60
   2   0   3   15.10   19.70
   2   0   3    9.60   39.80
  -2   0  -3  -12.80   23.60
   4   0   3  323.17   52.39
  -4   0  -3  325.87   52.79
   4   0   3  355.16   72.89
   5  -1  -3   46.50   35.10
  -5  -1   3   35.50   44.60
   5  -1  -3   -7.70   41.40
  -5   1   3  -26.30   40.70
   5   1  -3   30.90   34.70
   5   1  -3  104.39   44.50
   3  -1  -3 2426.76   93.89
   3  -1  -3 2363.26   85.59
   3  -1  -3 2490.15   77.29
  -3  -1   3 2552.24   96.39
  -3  -1   3 2453.85   77.49
   3   1  -3 2359.66   85.99
  -3   1   3 2370.36   75.89
  -3   1   3 2391.36   93.99
   3   1  -3 2527.35   78.09
   3   1  -3 2485.65   97.99
   1  -1  -3   29.20   21.50
   1  -1  -3   31.30   16.00
  -1  -1   3   23.50   19.70
   1  -1  -3   64.89   29.00
  -1  -1   3   42.80   23.80
  -1  -1   3   15.80   15.20
  -1  -1   3   37.70   17.20
   1  -1  -3   25.70   18.00
   1   1  -3   53.79   24.10
   1   1  -3   11.10   16.70
  -1   1   3    3.50   17.80
   1   1  -3   39.10   15.10
  -1   1   3   31.80   23.40
  -1   1   3   12.50   13.60
   1   1  -3   24.70   27.40
   1  -1   3  288.97   29.40
  -1  -1  -3  382.26   47.30
  -1  -1  -3  273.27   29.50
   1  -1   3  371.86   40.90
   1  -1   3  316.57   47.50
  -1  -1  -3  332.77   39.60
  -1  -1  -3  331.37   38.00
   1  -1   3  309.97   38.50
  -1   1  -3  335.57   42.50
  -1   1  -3  333.87   38.40
   1   1   3  348.77   42.50
  -1   1  -3  285.37   29.00
   1   1   3  298.57   31.50
   1   1   3  290.47   35.30
  -1   1  -3  309.87   36.00
   1   1   3  308.77   48.40
   3  -1   3 1989.00   91.69
   3  -1   3 2046.20  114.19
  -3  -1  -3 2264.67   93.79
   3  -1   3 2009.00   75.79
  -3  -1  -3 2222.08   74.19
   3  -1   3 2226.48   89.79
   3   1   3 2153.08   92.89
   3   1   3 2129.39   94.09
   3   1   3 2107.99  118.69
   3   1   3 2049.70   74.59
  -3   1  -3 2052.69   73.39
  -3   1  -3 2092.19   89.39
   5  -1   3    4.40   81.69
   5  -1   3   59.19   57.09
   5   1   3  -53.79   79.59
   5   1   3   11.80   57.49
   6  -2  -3   33.20   62.29
   6  -2  -3   -7.80   43.60
   6   2  -3   10.60   47.80
   6   2  -3   61.59   72.79
   4  -2  -3  116.39   37.10
  -4  -2   3  135.89   24.20
   4  -2  -3  149.29   24.70
  -4  -2   3  105.69   39.90
   4  -2  -3   88.79   26.90
   4   2  -3   63.49   33.90
  -4   2   3  151.78   38.40
   4   2  -3   98.99   28.30
   4   2  -3  107.39   44.80
  -4   2   3  110.69   22.10
  -2  -2   3  442.46   40.40
   2  -2  -3  409.96   36.50
  -2  -2   3  514.55   47.00
   2  -2  -3  419.66   44.50
  -2  -2   3  459.35   33.70
  -2  -2   3  461.75   27.90
   2  -2  -3  427.06   32.20
  -2   2   3  482.35   32.40
  -2   2   3  507.55   44.20
   2   2  -3  515.55   47.20
   2   2  -3  416.86   31.20
   2   2  -3  422.06   38.60
  -2   2   3  434.16   37.30
   0  -2   3   -0.20   19.50
   0  -2   3   -2.90   21.70
   0  -2  -3    2.00   20.90
   0  -2   3  -13.40   15.10
   0  -2  -3    9.10   13.20
   0  -2  -3    3.10   17.50
   0  -2  -3   36.00   29.30
   0   2  -3   13.60   14.60
   0   2   3   14.30   14.70
   0   2   3    5.60   12.10
   0   2  -3   23.70   21.60
   0   2   3   -1.40   20.80
   0   2   3  -13.40   24.80
   0   2   3  -15.50   17.10
   0   2  -3  -10.90   16.10
   0   2  -3    1.50   25.60
   2  -2   3  323.27   50.39
  -2  -2  -3  229.68   39.20
   2  -2   3  279.67   29.70
   2  -2   3  304.07   38.00
   2  -2   3  240.48   38.30
  -2  -2  -3  271.87   29.50
  -2   2  -3  295.97   31.10
  -2   2  -3  300.37   38.90
   2   2   3  279.47   33.20
   2   2   3  248.88   38.70
   2   2   3  227.78   52.19
   2   2   3  258.17   37.40
  -2   2  -3  212.08   39.00
   4  -2   3  274.77   71.39
   4  -2   3  344.47   56.09
  -4  -2  -3  465.45   59.99
  -4  -2  -3  351.66   39.70
   4   2   3  256.07   72.89
   4   2   3  381.36   54.29
  -4   2  -3  251.07   49.50
   5  -3  -3  791.12  102.39
   5  -3  -3 1018.70   46.00
   5  -3  -3  962.20   87.49
  -5  -3   3  939.71   48.60
   5   3  -3 1045.70   88.59
  -5   3   3  837.92   71.89
  -3  -3   3   34.50   15.50
   3  -3  -3   28.60   23.30
   3  -3  -3   12.00   28.20
   3  -3  -3   26.90   18.80
  -3  -3   3   44.40   20.00
  -3  -3   3   95.59   34.30
  -3   3   3   30.00   28.70
   3   3  -3   46.70   24.90
   3   3  -3   70.99   34.60
  -3   3   3   31.20   19.50
   3   3  -3   -6.20   18.90
  -1  -3   3  592.74   34.40
   1  -3  -3  611.14   60.69
  -1  -3   3  609.74   35.20
   1  -3  -3  647.94   36.60
   1  -3  -3  640.54   42.30
  -1  -3   3  630.44   48.90
  -1  -3   3  614.24   43.80
   1  -3  -3  712.33   47.90
  -1   3   3  690.53   47.50
  -1   3   3  680.13   41.40
   1   3  -3  555.44   44.30
   1   3  -3  673.13   42.60
   1   3  -3  588.74   34.50
  -1   3   3  614.54   34.90
   1   3  -3  609.04   54.19
   1  -3   3 2100.59   70.69
  -1  -3  -3 2052.29   93.79
   1  -3   3 2015.20   81.89
   1  -3   3 2099.49   92.59
  -1  -3  -3 2086.59   82.09
  -1  -3  -3 2171.28   71.19
  -1  -3  -3 2014.00   79.69
   1  -3   3 2077.19   77.69
   1   3   3 2123.09   69.29
   1   3   3 2097.39  102.89
   1   3   3 2055.89   84.59
  -1   3  -3 2042.00   84.49
   1   3   3 2004.40   78.39
  -1   3  -3 2052.39   77.99
  -1   3  -3 1938.21   78.79
   1   3   3 2052.59   70.19
  -1   3  -3 2149.78   70.59
   3  -3   3   74.59   33.40
  -3  -3  -3  118.79   26.50
  -3  -3  -3  166.18   41.60
   3  -3   3  107.59   28.40
   3  -3   3  112.29   33.50
   3  -3   3   64.69   48.50
   3   3   3  155.98   38.80
   3   3   3  161.88   41.70
   3   3   3  105.99   52.69
  -3   3  -3  119.29   37.70
   3   3   3  125.09   29.70
   5  -3   3  129.09   56.59
  -5  -3  -3  262.77   68.99
   5  -3   3  251.97   88.19
   5   3   3  191.38   89.69
   5   3   3  352.26   70.89
  -6  -4   3   29.10   65.49
   6  -4  -3   18.50   42.10
   6  -4  -3   12.80   59.09
   6   4  -3   18.20   71.19
   6   4  -3    9.50   49.20
   4  -4  -3 2004.60   85.49
   4  -4  -3 1944.01   75.89
   4  -4  -3 1928.61   67.49
  -4  -4   3 1946.91   67.59
  -4  -4   3 2030.50   98.59
  -4  -4   3 2011.00   65.79
   4   4  -3 1947.71   84.89
   4   4  -3 1959.20   71.29
  -4   4   3 2007.40   68.39
   4   4  -3 1752.72  100.99
   4   4  -3 2001.30   96.69
  -4   4   3 1972.70   88.79
   2  -4  -3   39.10   25.80
   2  -4  -3   39.70   19.10
  -2  -4   3   13.20   21.70
   2  -4  -3   41.10   21.00
  -2  -4   3   22.60   16.60
  -2  -4   3   58.99   29.30
  -2  -4   3   79.09   18.70
   2   4  -3   17.80   28.60
  -2   4   3   70.19   23.10
  -2   4   3   59.09   17.40
  -2   4   3   30.10   27.20
   2   4  -3   44.30   22.90
   0  -4  -3   20.40   20.40
   0  -4  -3   58.09   22.20
   0  -4   3   72.29   18.80
   0  -4  -3   49.70   17.90
   0  -4   3   75.89   24.00
   0  -4   3   59.09   22.30
   0  -4   3   61.99   25.40
   0  -4  -3   48.90   34.30
   0   4   3   78.09   17.70
   0   4   3   69.29   36.50
   0   4   3   65.89   27.70
   0   4  -3   29.10   23.20
   0   4  -3   48.00   18.70
   0   4  -3   61.09   25.80
   0   4   3   63.99   15.00
   0   4  -3   41.50   21.10
   0   4   3   82.09   22.80
   2  -4   3 1228.78   60.69
   2  -4   3 1142.39   53.49
  -2  -4  -3 1322.07   69.09
   2  -4   3 1245.28   67.29
  -2  -4  -3 1235.38   54.09
   2  -4   3 1194.28   80.79
  -2   4  -3 1159.88   66.29
  -2   4  -3 1181.78   60.29
   2   4   3 1251.57   55.49
   2   4   3 1077.89   70.19
   2   4   3 1216.28   67.39
   2   4   3 1192.18   89.79
   4  -4   3   57.79   74.69
  -4  -4  -3   90.99   28.50
  -4  -4  -3   48.40   46.40
   4  -4   3   52.39   39.20
   4   4   3  -25.00   41.90
  -4   4  -3   43.30   44.80
   4   4   3   22.00   65.09
   5  -5  -3  594.34   41.90
   5  -5  -3  547.55   73.99
   5  -5  -3  440.96   50.69
  -5  -5   3  580.04   46.20
  -5  -5   3  395.56   62.09
   5   5  -3  605.94   76.69
   5   5  -3  345.07   51.79
   3  -5  -3  182.28   33.40
  -3  -5   3  135.99   23.70
  -3  -5   3  190.08   26.70
  -3  -5   3  140.49   37.60
   3  -5  -3  122.19   25.40
   3  -5  -3  144.49   25.00
   3   5  -3  153.28   31.80
   3   5  -3  126.89   35.70
   3   5  -3  156.08   25.90
  -3   5   3  204.58   25.70
   3   5  -3  174.68   42.50
  -3   5   3   81.49   61.39
  -1  -5   3  616.44   36.90
   1  -5  -3  701.63   47.40
   1  -5  -3  632.94   61.39
   1  -5  -3  677.33   38.30
  -1  -5   3  645.84   50.49
   1  -5  -3  624.34   42.00
  -1  -5   3  649.43   38.80
  -1  -5   3  624.14   45.70
   1   5  -3  611.84   44.50
   1   5  -3  631.54   52.99
   1   5  -3  700.43   49.50
  -1   5   3  634.44   42.40
  -1   5   3  603.34   30.00
  -1   5   3  588.64   36.60
  -1   5   3  655.53   46.70
   1  -5   3  697.73   46.00
  -1  -5  -3  695.43   51.19
   1  -5   3  716.53   52.89
  -1  -5  -3  738.33   51.79
  -1  -5  -3  809.12   69.09
  -1  -5  -3  766.42   41.70
   1  -5   3  771.82   42.40
   1  -5   3  721.13   60.19
  -1   5  -3  770.92   51.89
   1   5   3  733.53   76.19
  -1   5  -3  721.03   50.69
   1   5   3  719.13   38.80
   1   5   3  769.32   43.60
   1   5   3  679.23   50.39
   1   5   3  716.03   55.69
  -1   5  -3  797.92   47.70
   3  -5   3  411.86   49.00
  -3  -5  -3  292.57   47.00
   3  -5   3  287.17   47.20
   3  -5   3  340.17   38.30
  -3  -5  -3  343.67   38.60
   3  -5   3  429.06   64.09
   3   5   3  374.76   39.30
  -3   5  -3  451.45   49.20
   3   5   3  315.17   85.59
  -5  -5  -3   47.10   69.89
   5  -5   3  294.27   57.59
   5  -5   3  305.77   90.79
   5   5   3  118.09   64.99
   5   5   3   85.19   89.59
  -6  -6   3  -13.50   67.29
   6  -6  -3    5.60   63.49
   6  -6  -3   -5.60   37.00
   6   6  -3   31.50   53.09
   6   6  -3  -40.80   71.89
   4  -6  -3  193.98   30.40
  -4  -6   3  176.08   28.00
  -4  -6   3  235.08   46.30
  -4  -6   3  245.58   32.90
   4  -6  -3  189.78   36.00
   4  -6  -3  209.88   31.90
  -4   6   3  223.08   37.70
   4   6  -3  240.38   47.50
   4   6  -3  245.58   35.30
  -4   6   3  251.17   31.60
   2  -6  -3   74.39   27.60
   2  -6  -3   93.69   22.00
   2  -6  -3  102.39   25.10
  -2  -6   3   99.79   21.20
  -2  -6   3   54.99   19.40
  -2  -6   3  137.29   35.80
  -2  -6   3   77.89   27.40
   2   6  -3   98.89   25.20
  -2   6   3   64.59   22.00
   2   6  -3   81.19   27.00
   2   6  -3  100.99   34.40
  -2   6   3  110.29   24.80
  -2   6   3   76.89   31.20
   0  -6  -3    8.70   21.70
   0  -6   3   11.20   16.30
   0  -6   3   33.40   24.60
   0  -6  -3   -5.00   23.10
   0  -6   3   55.69   24.60
   0  -6   3   29.40   25.50
   0  -6  -3   15.80   17.80
   0  -6  -3   27.80   33.10
   0   6  -3   -2.50   20.60
   0   6   3   13.40   20.50
   0   6  -3    6.00   23.50
   0   6   3   17.20   25.40
   0   6   3   39.70   19.90
   0   6   3   34.00   14.50
   0   6   3  -29.70   33.40
   0   6  -3   14.30   23.00
  -2  -6  -3 1067.89   51.99
   2  -6   3 1218.58   59.19
   2  -6   3 1109.29   53.39
   2  -6   3 1120.69   80.29
   2  -6   3 1133.69   65.69
  -2  -6  -3 1104.59   68.69
  -2   6  -3 1090.09   60.99
   2   6   3 1229.68   95.49
   2   6   3 1081.19   54.79
  -2   6  -3 1091.79   62.69
   2   6   3 1074.79   70.39
   4  -6   3  219.88   67.69
   4  -6   3  115.99   49.50
  -4  -6  -3  167.28   34.00
  -4  -6  -3  190.88   54.29
   4   6   3   43.20   67.99
   4   6   3  183.18   51.29
   5  -7  -3  130.99   31.00
  -5  -7   3  120.09   56.19
   5  -7  -3  134.19   31.60
   5  -7  -3  160.88   60.09
  -5  -7   3  201.28   35.90
   5   7  -3   89.29   41.30
   5   7  -3    7.40   53.29
   3  -7  -3 1404.26   65.89
   3  -7  -3 1422.36   59.59
  -3  -7   3 1269.07   57.09
  -3  -7   3 1417.76   59.59
  -3  -7   3 1389.56   80.79
   3  -7  -3 1419.86   59.89
   3   7  -3 1364.66   73.29
   3   7  -3 1368.26   61.59
  -3   7   3 1322.37   59.89
  -3   7   3 1390.06   68.69
   1  -7  -3  463.35   39.60
   1  -7  -3  473.95   35.50
   1  -7  -3  497.95   66.09
  -1  -7   3  442.36   36.20
   1  -7  -3  462.35   45.50
  -1  -7   3  474.85   48.20
  -1  -7   3  435.46   46.40
  -1  -7   3  485.15   37.00
  -1   7   3  455.85   42.70
   1   7  -3  433.96   50.19
  -1   7   3  475.05   37.30
  -1   7   3  490.15   26.90
   1   7  -3  536.25   49.20
   1   7  -3  562.84   44.30
  -1   7   3  541.05   48.00
   1  -7   3  208.28   35.30
   1  -7   3  154.08   34.20
  -1  -7  -3  109.29   29.40
   1  -7   3  193.78   31.90
   1  -7   3   98.79   27.60
  -1  -7  -3  211.08   29.80
   1  -7   3  172.58   32.80
  -1  -7  -3  155.28   34.70
  -1   7  -3  143.99   28.50
  -1   7  -3   97.59   26.20
   1   7   3  151.58   30.20
   1   7   3  135.39   23.30
   1   7   3  257.67   39.00
   1   7   3   95.79   44.90
  -3  -7  -3  762.42   70.09
   3  -7   3  849.12   86.49
   3  -7   3  831.32   64.09
  -3  -7  -3  772.72   53.19
   3  -7   3  872.91   63.69
   3   7   3  691.93   67.69
   3   7   3  842.62  103.29
  -5  -7  -3  291.27   73.89
   5  -7   3  421.76   91.49
   5  -7   3  372.06   58.59
   5   7   3  403.36   76.69
   5   7   3  208.18  105.99
   6  -8  -3  -37.80   71.69
  -6  -8   3 -133.39   74.99
   6   8  -3   61.29   60.89
   6   8  -3  143.59   79.89
  -4  -8   3  244.18   34.20
   4  -8  -3  180.48   31.10
   4  -8  -3  283.97   35.30
   4  -8  -3  185.08   29.30
  -4  -8   3  209.78   36.10
  -4   8   3  205.18   35.80
   4   8  -3  230.48   41.20
   4   8  -3  161.28   48.80
  -4   8   3  148.09   38.70
  -2  -8   3 2442.46  109.29
  -2  -8   3 2499.05   83.09
  -2  -8   3 2424.16   94.69
   2  -8  -3 2485.95   84.29
  -2  -8   3 2312.17   97.39
   2  -8  -3 2542.65   83.69
   2  -8  -3 2436.16   99.39
   2   8  -3 2326.87   91.49
   2   8  -3 2339.37   86.19
  -2   8   3 2229.58  102.49
   2   8  -3 2252.27   84.99
   0  -8   3   43.70   25.50
   0  -8  -3   25.80   21.10
   0  -8  -3   54.69   26.40
   0  -8   3   45.90   27.50
   0  -8  -3   50.19   27.10
   0  -8   3   67.59   29.40
   0   8   3   70.99   44.00
   0   8   3  103.39   35.10
   0   8   3   70.59   19.60
   0   8  -3   47.50   26.40
   2  -8   3  221.08   44.50
   2  -8   3  273.37   36.90
   2  -8   3  238.18   38.10
  -2  -8  -3  221.98   31.70
  -2  -8  -3  203.68   40.30
  -2   8  -3  260.07   36.40
   2   8   3  174.58   40.50
   2   8   3  187.58   54.79
   4  -8   3  647.74   89.59
   4  -8   3  521.45   54.69
  -4  -8  -3  783.82   90.49
  -4  -8  -3  769.22   55.09
   4   8   3  571.44   95.29
   4   8   3  673.63   86.49
   5  -9  -3  -50.09   54.79
   5  -9  -3   18.90   34.40
  -5  -9   3   82.19   36.80
  -5  -9   3  102.19   53.59
   5   9  -3   75.99   58.69
   5   9  -3   30.60   47.80
   3  -9  -3  452.35   44.30
  -3  -9   3  429.66   42.80
   3  -9  -3  442.66   42.20
  -3  -9   3  475.25   58.99
   3  -9  -3  372.86   40.50
   3   9  -3  390.26   49.30
   3   9  -3  449.36   51.69
  -3   9   3  485.25   47.10
   1  -9  -3  450.25   44.50
  -1  -9   3  469.95   50.49
  -1  -9   3  487.15   48.60
   1  -9  -3  467.55   40.30
   1  -9  -3  444.06   42.50
   1  -9  -3  417.46   26.20
  -1  -9   3  454.55   41.50
   1   9  -3  367.16   44.50
   1   9  -3  507.75   44.60
  -1   9   3  449.66   29.60
  -1   9   3  504.05   52.89
   1  -9   3  173.18   33.90
   1  -9   3  157.98   33.50
  -1  -9  -3  173.98   34.70
  -1  -9  -3  170.88   30.50
  -1  -9  -3  143.49   24.30
  -1  -9  -3  144.59   35.10
   1  -9   3  164.08   33.10
  -1   9  -3  142.09   29.80
   1   9   3  111.79   47.50
   1   9   3  176.68   40.70
  -1   9  -3  128.59   23.70
   3  -9   3  610.94   55.49
  -3  -9  -3  530.85   50.39
   3  -9   3  687.63   74.19
  -3  -9  -3  535.85   65.69
  -3   9  -3  642.04   69.69
  -3   9  -3  558.94   54.19
   3   9   3  580.24   92.39
   3   9   3  664.43   72.19
   5  -9   3  -64.59   94.49
  -5  -9  -3   16.70   77.69
  -6 -10   3  143.99   70.29
  -6 -10   3   89.59   86.59
   6 -10  -3  -12.10   82.29
   6  10  -3   88.19   86.09
   4 -10  -3   87.89   29.80
  -4 -10   3   69.49   44.50
   4 -10  -3   28.80   23.20
  -4 -10   3   34.20   34.10
   4  10  -3   16.40   40.80
   4  10  -3    5.50   45.10
  -2 -10   3  439.66   55.19
  -2 -10   3  465.45   45.20
   2 -10  -3  404.86   42.10
  -2 -10   3  348.37   55.69
   2 -10  -3  395.06   41.30
   2 -10  -3  421.86   41.50
   2  10  -3  447.66   42.30
   2  10  -3  463.75   50.99
   0 -10  -3  345.77   45.00
   0 -10  -3  370.76   32.70
   0 -10   3  385.76   43.70
   0 -10   3  373.86   44.50
   0 -10  -3  291.07   35.80
   0 -10  -3  389.26   48.20
   0 -10   3  402.16   48.30
   0  10   3  395.66   49.10
   0  10   3  295.67   35.50
   0  10  -3  370.86   41.90
   2 -10   3   49.99   30.40
  -2 -10  -3   35.30   25.90
   2 -10   3   45.70   36.10
  -2 -10  -3   99.39   39.00
   2 -10   3   59.39   30.20
  -2  10  -3   92.39   29.20
  -2  10  -3   12.00   25.20
   2  10   3   85.69   38.30
   2  10   3  126.99   52.69
   4 -10   3  522.45   81.29
  -4 -10  -3  319.37   72.09
  -4 -10  -3  532.15   53.99
   4 -10   3  509.65   71.09
   4  10   3  805.22  113.69
   4  10   3  523.85   78.19
  -5 -11   3 1013.80  107.59
   5 -11  -3  972.50   66.09
  -5 -11   3 1005.10   76.29
   5 -11  -3  963.20  116.99
   5  11  -3  974.30   92.89
   5  11  -3  831.22  111.99
  -3 -11   3  229.68   35.90
   3 -11  -3  165.78   39.60
   3 -11  -3  170.18   34.30
   3 -11  -3  154.28   29.10
   3  11  -3  141.69   40.40
   3  11  -3  178.28   42.00
  -3  11   3  153.18   37.20
   1 -11  -3  407.86   42.30
  -1 -11   3  300.27   41.20
   1 -11  -3  350.46   29.90
  -1 -11   3  269.47   43.60
  -1 -11   3  264.17   36.40
   1 -11  -3  351.86   45.40
   1 -11  -3  263.57   32.90
   1  11  -3  330.67   44.30
  -1  11   3  329.37   45.10
  -1  11   3  272.27   33.40
  -1 -11  -3 1633.04   70.39
   1 -11   3 1655.93   75.99
   1 -11   3 1575.44   77.59
  -1 -11  -3 1652.13   66.19
  -1 -11  -3 1533.65   80.59
   1 -11   3 1689.23   78.79
  -1  11  -3 1773.32   74.79
   1  11   3 1782.02  114.89
   1  11   3 1649.63   88.79
   3 -11   3   77.19   32.50
   3 -11   3  -10.90   44.70
   3 -11   3   70.69   55.39
  -3 -11  -3   19.00   30.50
  -3 -11  -3  -12.00   47.10
   3  11   3  101.49   72.09
   3  11   3   49.40   44.80
  -4 -12   3  703.73   63.49
  -4 -12   3  478.85   69.99
   4 -12  -3  639.04   60.89
   4  12  -3  581.44   75.09
   4  12  -3  687.13   85.39
   2 -12  -3    9.00   25.30
   2 -12  -3   51.09   28.20
  -2 -12   3   45.80   27.40
  -2 -12   3   56.39   36.40
   2 -12  -3   27.90   27.60
   2  12  -3   64.19   27.30
  -2  12   3  102.49   62.49
   2  12  -3   93.69   35.70
   0 -12   3  195.08   31.90
   0 -12   3  310.97   42.40
   0 -12  -3  185.28   34.20
   0 -12  -3  269.27   35.80
   0 -12  -3  279.97   43.10
   0 -12   3  286.97   41.50
   0 -12  -3  237.68   31.10
   0  12  -3  263.57   40.00
   0  12   3  328.77   49.80
   0  12   3  278.57   33.30
  -2 -12  -3  328.67   52.09
  -2 -12  -3  392.76   43.30
   2 -12   3  302.57   39.80
   2 -12   3  313.77   48.20
  -2 -12  -3  358.16   51.19
   2  12   3  361.26   57.09
   2  12   3  252.97   68.59
  -2  12  -3  368.56   41.30
   4 -12   3  110.19   66.99
  -4 -12  -3   92.79   45.20
  -4 -12  -3  119.09   70.49
   4  12   3   80.39   61.59
   4  12   3   59.69   92.79
   5 -13  -3  174.88   75.39
  -5 -13   3  222.78   51.89
  -5 -13   3  259.97   79.99
   5  13  -3  203.28   64.69
   5  13  -3  162.88   80.99
   3 -13  -3  109.59   28.70
  -3 -13   3  136.49   36.20
  -3 -13   3   61.49   43.30
   3  13  -3  121.99   42.20
   3  13  -3   97.49   43.30
  -1 -13   3    9.50   36.70
   1 -13  -3   52.29   31.40
  -1 -13   3   15.90   29.40
   1 -13  -3   45.00   27.00
   1 -13  -3   54.79   33.50
   1 -13  -3   44.00   22.00
  -1 -13   3  -15.30   31.00
   1  13  -3   52.49   35.80
  -1  13   3   19.30   39.10
  -1  13   3   -4.80   22.70
  -1 -13  -3  177.18   42.20
  -1 -13  -3  129.39   36.40
   1 -13   3   71.59   57.09
   1 -13   3  143.99   36.20
   1 -13   3  125.79   35.50
  -1 -13  -3  125.09   30.30
   1  13   3  119.29   45.60
   1  13   3  209.78   62.39
  -1  13  -3  184.18   37.40
   3 -13   3  421.06   59.39
  -3 -13  -3  338.47   45.80
  -3 -13  -3  268.27   44.20
  -3 -13  -3  252.47   64.29
   3  13   3  373.46   69.79
   3  13   3  244.08   88.99
   4 -14  -3  171.18   45.00
  -4 -14   3  180.68   62.49
  -4 -14   3  245.38   50.09
   4  14  -3   53.59   51.99
   4  14  -3   -4.30   64.49
   2 -14  -3  148.89   33.10
  -2 -14   3   85.19   34.80
   2 -14  -3  137.49   24.30
   2 -14  -3  167.58   35.20
   2  14  -3  101.79   39.70
  -2  14   3  105.19   68.49
   0 -14  -3  499.45   57.19
   0 -14  -3  465.65   55.59
   0 -14  -3  417.36   46.90
   0 -14   3  436.36   59.19
   0 -14  -3  452.95   43.90
   0 -14   3  446.96   48.70
   0  14  -3  444.56   57.09
   0  14   3  562.04   65.29
  -2 -14  -3  461.45   53.49
  -2 -14  -3  266.17   56.49
   2 -14   3  368.16   42.70
   2 -14   3  322.27   53.19
  -2 -14  -3  325.67   43.10
   2  14   3  431.96   64.39
   2  14   3  414.96   84.39
  -4 -14  -3  149.69   75.79
  -4 -14  -3   24.00   52.19
   4 -14   3 -118.39   63.19
   4  14   3  -33.30  106.89
   4  14   3   -0.90   72.79
  -3 -15   3 1309.67   97.89
  -3 -15   3 1371.56   84.69
   3 -15  -3 1430.66   78.99
   3  15  -3 1349.47   94.19
   3  15  -3 1331.17   90.79
  -1 -15   3   -0.40   59.19
   1 -15  -3   79.29   37.20
   1 -15  -3    1.00   28.10
   1 -15  -3   54.29   26.70
  -1 -15   3   83.29   36.90
  -1  15   3  143.39   36.90
  -1  15   3  123.29   47.00
   1  15  -3  105.19   42.70
  -1 -15  -3   19.50   31.00
  -1 -15  -3   -2.30   30.20
  -1 -15  -3  -43.60   37.70
   1 -15   3   37.60   33.10
   1  15   3   61.39   58.19
   1  15   3   24.20   45.30
  -1  15  -3   85.99   36.40
   3 -15   3  829.12   96.59
  -3 -15  -3  895.71   75.09
  -3 -15  -3  758.32   79.29
  -3 -15  -3  675.03   85.79
   3  15   3 1178.18  153.08
   3  15   3  877.41  109.29
  -4 -16   3   -2.10   66.99
  -4 -16   3   96.39   54.59
   4 -16  -3  107.39   49.40
   4  16  -3 -111.59   58.49
   2 -16  -3  461.65   45.30
  -2 -16   3  502.55   63.69
   2 -16  -3  423.16   51.09
  -2 -16   3  415.66   53.99
   2  16  -3  628.14   69.69
   0 -16   3   60.09   38.30
   0 -16   3   46.30   37.50
   0 -16  -3  -16.10   29.80
   0 -16  -3  -27.20   36.40
   0 -16  -3    5.50   28.80
   0  16  -3   33.00   40.50
   0  16   3   87.49   49.40
  -2 -16  -3   40.50   40.70
   2 -16   3   83.59   33.60
  -2 -16  -3  -89.99   50.19
   2 -16   3   14.60   41.30
  -2 -16  -3   31.00   45.70
   2  16   3   72.39   81.79
   2  16   3  119.09   58.79
  -3 -17   3   70.09   46.40
  -3 -17   3  -25.50   54.49
   3 -17  -3  132.59   47.50
   3  17  -3   17.40   57.69
   1 -17  -3  482.75   57.09
  -1 -17   3  317.17   51.39
   1 -17  -3  307.07   46.80
   1 -17  -3  404.16   49.20
  -1 -17   3  382.16   58.19
  -1  17   3  535.15   70.69
   1  17  -3  457.05   61.59
  -1 -17  -3  100.69   50.29
  -1 -17  -3  130.59   37.90
  -1 -17  -3  143.49   44.90
   1 -17   3  207.48   42.20
   1 -17   3  147.79   54.59
   1  17   3  181.38   58.89
  -3 -17  -3  151.48   51.79
  -3 -17  -3  220.28   85.59
   3 -17   3  217.88   67.49
  -3 -17  -3  182.98   58.19
   3  17   3  139.49  108.39
   3  17   3  188.08   79.49
   2 -18  -3  161.58   50.69
  -2 -18   3  115.89   47.20
   2 -18  -3  132.19   41.60
  -2 -18   3  167.28   58.89
   2  18  -3  176.08   59.59
   0 -18  -3  467.15   56.79
   0 -18  -3  487.55   59.49
   0 -18   3  569.74   74.19
   0 -18   3  467.45   60.49
   0 -18  -3  524.05   63.29
   0  18   3  462.55   76.29
  -2 -18  -3  135.59   63.19
   2 -18   3  289.27   62.19
  -2 -18  -3  120.99   53.79
  -2 -18  -3  194.68   53.59
   2  18   3  209.58  107.69
   2  18   3   78.89   73.59
  -3 -19   3   41.00   77.09
  -3 -19   3   45.30   57.69
   3 -19  -3   46.70   54.19
   3  19  -3   73.89   74.39
   1 -19  -3  168.58   50.29
   1 -19  -3  190.88   52.99
  -1 -19   3  107.69   48.90
   1 -19  -3   81.19   46.80
  -1 -19   3  234.08   59.19
   1 -19   3  437.86   71.09
   1 -19   3  539.65   56.19
  -1 -19  -3  430.56   68.79
  -1 -19  -3  296.07   55.19
  -1 -19  -3  424.66   55.69
   1  19   3  462.55   87.99
  -2 -20   3    7.30   65.39
   2 -20  -3  -76.69   49.90
   2 -20  -3   25.40   45.30
  -2 -20   3   95.29   64.89
   2  20  -3   20.70   72.69
   0 -20  -3  127.99   49.10
   0 -20   3  139.19   56.39
   0 -20  -3  106.99   59.29
   0 -20  -3  102.49   45.00
   0 -20   3   97.89   53.69
  -1 -21   3  181.18   68.29
   1 -21  -3   81.49   56.09
   6   0  -4  430.86   66.99
   6   0  -4  442.06   90.89
   4   0  -4   57.79   26.70
   4   0  -4   10.80   48.30
  -4   0   4   14.20   43.60
   4   0  -4   19.40   30.10
   2   0  -4  235.68   44.00
   2   0  -4  224.58   31.20
  -2   0   4  220.98   46.30
  -2   0   4  157.18   21.10
   2   0  -4  184.38   32.70
   0   0  -4  782.12   46.10
   0   0  -4  669.93   55.29
   0   0  -4  733.73   74.59
   0   0   4  711.83   61.59
   0   0   4  746.13   56.39
   2   0   4  132.49   41.60
  -2   0  -4   92.19   25.80
   2   0   4  128.99   54.79
   2   0   4  152.78   45.70
  -2   0  -4  143.99   40.40
   4   0   4  -88.09   76.19
   4   0   4   62.19   58.49
  -4   0  -4   67.19   63.49
   5  -1  -4  -73.79   51.59
  -5  -1   4   24.40   53.99
   5  -1  -4   89.29   40.50
   5   1  -4   -6.40   39.20
   5   1  -4   -1.20   50.89
  -5   1   4  196.48   58.29
   3  -1  -4   26.90   23.10
  -3  -1   4    7.40   38.80
   3  -1  -4   -6.70   39.40
   3  -1  -4  -14.10   24.50
   3   1  -4   80.59   42.80
   3   1  -4   -6.60   21.60
   3   1  -4   57.79   29.10
  -3   1   4   52.69   40.90
   1  -1  -4 3162.38   97.69
   1  -1  -4 2914.21  104.49
  -1  -1   4 2876.41   93.99
   1  -1  -4 3140.69  114.19
  -1  -1   4 2937.01  115.59
  -1   1   4 3125.19  117.19
   1   1  -4 2863.01  114.29
   1   1  -4 2975.60  106.39
   1   1  -4 3040.70   96.79
   1   1  -4 2865.31  126.49
   1  -1   4   92.09   34.00
   1  -1   4   75.79   34.50
  -1  -1  -4   38.90   31.70
  -1  -1  -4   95.59   24.20
   1  -1   4   56.89   45.60
  -1   1  -4   31.50   30.40
   1   1   4   83.99   34.80
   1   1   4  105.19   34.90
  -1   1  -4   64.29   23.90
   1   1   4  105.79   48.90
   3  -1   4  -34.00   41.00
  -3  -1  -4   34.30   45.00
   3  -1   4  -21.30   62.69
  -3  -1  -4   21.70   27.70
   3   1   4   43.10   44.40
   3   1   4   26.90   65.19
  -3   1  -4  -20.40   28.40
  -3   1  -4   93.39   47.30
   6  -2  -4  256.47   80.79
   6  -2  -4   35.80   52.19
   6   2  -4  216.88   76.59
   6   2  -4  223.48   60.29
  -4  -2   4   61.39   45.10
   4  -2  -4   17.90   31.40
   4  -2  -4   84.89   28.50
  -4   2   4   71.39   48.10
   4   2  -4   25.20   29.00
   4   2  -4   63.09   42.60
  -2  -2   4  140.19   22.90
   2  -2  -4  166.78   28.40
   2  -2  -4  158.68   32.10
   2  -2  -4  207.98   41.70
  -2  -2   4  110.49   35.50
   2   2  -4  143.79   34.40
   2   2  -4  113.19   24.70
  -2   2   4  203.58   41.90
   2   2  -4  142.49   39.30
   0  -2  -4 1335.47   57.89
   0  -2   4 1340.87   70.89
   0  -2   4 1292.57   78.19
   0  -2  -4 1248.98   68.39
   0   2  -4 1180.48   56.19
   0   2   4 1340.07   52.49
   0   2  -4 1189.48   82.39
   0   2   4 1386.76   76.49
   0   2  -4 1189.98   67.29
   2  -2   4  148.69   41.20
  -2  -2  -4  120.39   39.90
   2  -2   4   68.39   51.89
  -2  -2  -4   88.29   26.00
   2  -2   4   74.89   37.40
  -2   2  -4   62.49   37.30
  -2   2  -4  111.59   26.90
   2   2   4  117.79   54.59
   2   2   4   90.69   70.59
   4  -2   4   70.59   57.39
  -4  -2  -4   20.10   36.70
   4  -2   4  155.88   77.89
  -4  -2  -4   20.90   55.79
   4   2   4  -48.70   57.39
   4   2   4  148.69   87.69
   5  -3  -4  456.75   73.29
   5  -3  -4  458.05   49.00
   5  -3  -4  561.74   64.69
  -5  -3   4  485.75   74.09
   5   3  -4  406.46   69.49
  -5   3   4  499.45   71.39
   5   3  -4  427.06   57.69
  -3  -3   4  560.04   67.29
   3  -3  -4  619.44   50.69
   3  -3  -4  597.74   46.70
   3  -3  -4  655.43   68.79
  -3  -3   4  590.14   38.70
  -3   3   4  633.04   67.79
   3   3  -4  598.24   54.69
   1  -3  -4   87.69   34.00
  -1  -3   4   56.69   35.80
  -1  -3   4   33.60   33.10
  -1  -3   4   21.90   24.80
   1  -3  -4   40.80   21.00
   1  -3  -4  100.59   28.40
   1   3  -4   77.19   29.70
   1   3  -4   60.99   20.60
   1   3  -4   96.09   40.80
  -1   3   4   83.19   34.70
  -1   3   4   72.29   18.90
  -1  -3  -4 1405.86   61.09
  -1  -3  -4 1458.35   75.39
   1  -3   4 1299.17   95.39
   1  -3   4 1222.28   75.29
   1  -3   4 1204.08   73.09
   1   3   4 1176.98  100.89
  -1   3  -4 1399.16   60.99
  -1   3  -4 1348.27   73.69
  -1   3  -4 1385.36   82.89
   1   3   4 1357.66   78.99
  -3  -3  -4  427.26   47.00
  -3  -3  -4  381.26   57.39
   3  -3   4  209.08   84.59
   3  -3   4  373.36   55.29
   3   3   4  247.58   54.49
   3   3   4  370.86   78.89
  -3   3  -4  349.67   54.39
   6  -4  -4   77.79   81.19
   6  -4  -4   54.59   50.09
   6   4  -4  100.49   87.79
   6   4  -4   66.29   59.09
  -4  -4   4   96.89   26.70
   4  -4  -4   51.79   29.80
   4  -4  -4   10.00   29.90
  -4  -4   4   81.49   45.00
  -4   4   4   95.99   50.09
   4   4  -4   55.09   35.80
   2  -4  -4  379.76   38.10
  -2  -4   4  423.56   38.70
   2  -4  -4  432.96   51.09
  -2  -4   4  361.26   50.89
   2  -4  -4  359.26   42.20
   2   4  -4  278.27   39.60
   2   4  -4  356.36   54.79
  -2   4   4  421.06   56.49
   0  -4  -4  109.79   24.20
   0  -4   4   71.69   34.10
   0  -4   4   94.29   31.40
   0  -4  -4  116.89   31.50
   0  -4   4  116.09   33.00
   0  -4  -4   30.90   67.59
   0   4   4   82.19   36.40
   0   4   4  174.98   23.60
   0   4  -4  129.39   32.70
   0   4  -4   95.09   40.20
   0   4  -4  123.19   24.90
   2  -4   4  113.79   54.19
  -2  -4  -4  128.39   40.70
   2  -4   4  190.08   43.70
  -2  -4  -4  109.99   31.00
  -2   4  -4   78.39   38.80
   2   4   4   57.59   46.90
  -4  -4  -4   24.40   63.99
  -4  -4  -4   76.89   37.20
   4  -4   4  -25.10   83.69
   4  -4   4   34.80   57.19
   4   4   4   17.10   59.99
   4   4   4   -1.60   81.99
   5  -5  -4  320.17   47.30
  -5  -5   4  421.16   74.69
   5  -5  -4  413.36   50.09
   5  -5  -4  354.26   71.29
   5   5  -4  433.96   71.99
   5   5  -4  250.37   52.99
   3  -5  -4  379.36   40.80
   3  -5  -4  447.06   54.59
   3  -5  -4  428.16   49.90
  -3  -5   4  284.27   33.30
  -3   5   4  358.96   57.79
   3   5  -4  369.86   47.00
   1  -5  -4  434.06   46.00
  -1  -5   4  442.46   54.59
   1  -5  -4  462.85   41.90
   1  -5  -4  482.15   55.19
  -1  -5   4  480.35   52.49
  -1  -5   4  464.05   45.00
  -1   5   4  480.95   55.39
   1   5  -4  462.55   51.79
   1   5  -4  463.55   56.19
  -1   5   4  462.85   29.80
   1  -5   4 1590.34   83.39
  -1  -5  -4 1532.15   67.19
   1  -5   4 1493.35   79.59
   1  -5   4 1407.66   93.99
  -1  -5  -4 1520.25   81.69
  -1   5  -4 1597.04   78.39
   1   5   4 1452.15   88.09
  -1   5  -4 1437.86   84.19
   1   5   4 1440.86  109.09
   3  -5   4  124.89   48.20
   3  -5   4   62.99   66.99
  -3  -5  -4   74.69   65.19
  -3  -5  -4   74.99   34.00
   3   5   4   78.49   47.80
  -3   5  -4   83.29   48.00
   3   5   4  109.79   73.99
   6  -6  -4   56.09   46.70
  -6  -6   4 -121.39   81.29
   6   6  -4 -220.88   83.19
   4  -6  -4   96.09   33.00
  -4  -6   4  142.19   33.30
   4  -6  -4  108.99   35.00
  -4  -6   4  103.39   51.59
   4   6  -4  126.79   54.99
   4   6  -4  105.89   40.10
  -4   6   4  118.09   51.59
  -2  -6   4  678.03   66.59
   2  -6  -4  568.64   50.69
  -2  -6   4  698.83   48.30
   2  -6  -4  742.83   49.99
   2  -6  -4  612.54   63.29
   2   6  -4  749.13   75.49
   2   6  -4  605.64   56.19
  -2   6   4  580.44   66.69
   0  -6  -4   75.59   44.60
   0  -6  -4  103.99   26.40
   0  -6   4  107.09   39.90
   0  -6   4  104.89   35.40
   0  -6   4   80.39   30.20
   0  -6  -4  101.89   31.10
   0   6  -4   93.89   33.80
   0   6  -4  173.98   39.90
   0   6   4  101.19   40.60
   0   6   4   78.09   21.90
   2  -6   4  124.59   57.69
  -2  -6  -4  160.68   33.90
  -2  -6  -4  116.09   44.00
   2  -6   4   99.09   42.90
   2   6   4  140.39   45.70
  -2   6  -4  167.28   41.90
   2   6   4  130.09   58.39
  -4  -6  -4  327.37   70.89
  -4  -6  -4  462.15   52.39
   4  -6   4  719.93  105.59
   4  -6   4  491.75   72.59
   4   6   4  372.46   75.89
   4   6   4  332.27  105.39
   5  -7  -4   39.80   63.29
   5  -7  -4   58.19   36.80
   5  -7  -4   25.50   38.00
  -5  -7   4   30.30   35.00
   5   7  -4   13.60   49.70
   5   7  -4   -2.20   62.09
  -3  -7   4  198.38   49.80
   3  -7  -4  253.47   37.40
   3  -7  -4  199.38   47.20
   3  -7  -4  248.28   40.30
  -3  -7   4  241.98   35.40
  -3   7   4  192.88   50.89
   3   7  -4  224.38   47.10
   1  -7  -4 1586.24   67.29
  -1  -7   4 1521.35   83.49
  -1  -7   4 1615.14   86.99
   1  -7  -4 1420.76   80.99
  -1  -7   4 1582.74   72.99
   1  -7  -4 1582.54   74.89
   1   7  -4 1669.43   79.69
   1   7  -4 1698.13   85.39
  -1   7   4 1600.04   85.69
  -1   7   4 1512.55   56.99
  -1  -7  -4  329.27   41.60
  -1  -7  -4  250.47   46.30
   1  -7   4  316.37   48.40
   1  -7   4  336.87   46.30
   1  -7   4  272.07   48.30
  -1   7  -4  402.66   48.60
  -1   7  -4  333.57   46.50
   1   7   4  397.36   57.79
   1   7   4  286.77   64.29
  -3  -7  -4  209.68   44.80
  -3  -7  -4  258.47   57.99
   3  -7   4  229.28   73.79
   3  -7   4  316.07   56.29
   3   7   4  228.88   60.99
  -3   7  -4  210.58   59.29
   3   7   4  207.08   82.89
   4  -8  -4   58.99   35.60
   4  -8  -4   30.30   32.10
  -4  -8   4    9.90   48.30
  -4  -8   4   57.39   33.80
  -4   8   4   94.59   56.69
   4   8  -4   20.60   39.90
   4   8  -4   39.60   45.10
   2  -8  -4  486.95   51.79
   2  -8  -4  650.23   61.29
  -2  -8   4  371.36   51.69
   2  -8  -4  472.05   45.90
  -2  -8   4  493.45   47.70
  -2   8   4  575.24   62.69
   2   8  -4  478.35   60.59
   2   8  -4  493.35   55.89
   0  -8   4 1109.19   65.39
   0  -8  -4 1174.58   61.29
   0  -8  -4 1043.50   67.09
   0  -8   4 1045.20   74.29
   0  -8   4 1101.79   73.39
   0   8   4 1028.80   81.09
   0   8   4 1122.29   55.09
   0   8  -4 1031.30   71.29
   0   8  -4 1115.69   68.29
   2  -8   4  113.69   43.00
   2  -8   4   33.10   55.89
  -2  -8  -4   69.79   42.40
   2  -8   4   98.89   44.60
   2   8   4  112.89   48.00
  -2   8  -4  123.69   41.80
  -2   8  -4  110.09   43.10
   2   8   4   84.99   58.59
  -4  -8  -4   82.49   70.59
   4  -8   4  192.98   92.99
  -4  -8  -4   54.29   44.70
   4  -8   4  -18.30   57.29
   4   8   4  -17.20   67.89
   4   8   4  -51.59   93.99
  -5  -9   4   37.30   65.09
   5  -9  -4   47.00   42.70
   5  -9  -4   24.30   35.10
   5   9  -4   74.19   55.59
   5   9  -4  -91.99   71.59
   3  -9  -4  106.19   33.80
  -3  -9   4   21.90   41.20
  -3  -9   4   69.29   32.30
  -3   9   4   46.80   47.80
   3   9  -4   72.39   38.30
   3   9  -4   52.79   37.70
  -1  -9   4  536.15   61.09
   1  -9  -4  572.64   52.99
  -1  -9   4  562.14   50.89
   1  -9  -4  599.74   58.69
  -1  -9   4  584.84   81.49
   1  -9  -4  538.75   48.20
   1   9  -4  517.85   59.19
  -1   9   4  500.05   38.80
   1   9  -4  529.15   61.69
  -1   9   4  549.05   70.59
   1  -9   4  223.58   45.20
   1  -9   4  232.68   40.30
  -1  -9  -4  151.98   39.00
  -1  -9  -4  108.39   53.69
   1   9   4  227.68   70.39
  -1   9  -4  179.38   42.30
  -1   9  -4  107.29   36.40
   1   9   4  285.87   54.59
   3  -9   4    2.50   65.29
   3  -9   4   62.69   49.10
  -3  -9  -4  -24.90   51.79
   3  -9   4   22.20   51.09
  -3  -9  -4   95.19   37.60
   3   9   4   53.59   61.09
   3   9   4  105.59   83.09
   4 -10  -4  148.39   39.10
   4 -10  -4  111.29   35.30
  -4 -10   4  180.68   41.70
  -4 -10   4  152.68   59.39
   4  10  -4   97.29   49.60
   4  10  -4   92.49   58.59
  -2 -10   4   62.69   30.60
   2 -10  -4  -18.70   49.50
  -2 -10   4   -4.60   35.20
   2  10  -4   93.19   37.80
  -2  10   4   52.99   42.90
   2  10  -4   14.00   32.60
   2  10  -4   78.99   50.09
   0 -10   4  928.41   75.39
   0 -10  -4 1009.00   58.39
   0 -10  -4  929.81   69.49
   0 -10   4 1005.40   76.29
   0 -10   4  866.41   89.49
   0  10  -4  922.41   59.29
   0  10  -4 1028.10   71.09
   0  10   4  987.10   84.19
  -2 -10  -4   86.19   33.10
   2 -10   4  128.39   55.79
   2 -10   4  124.39   44.30
  -2 -10  -4   46.50   41.60
   2 -10   4   52.29   44.70
   2  10   4   27.00   49.30
  -2  10  -4   31.10   42.20
   2  10   4 -126.09   61.09
   4 -10   4   21.20   55.09
   4 -10   4  266.67  113.49
  -4 -10  -4  -12.50   66.89
  -4 -10  -4  -20.60   55.99
  -5 -11   4  356.56   87.29
  -5 -11   4  346.27   57.79
   5  11  -4  468.35   92.79
   5  11  -4  374.16   73.09
   3 -11  -4  566.64   57.89
   3 -11  -4  725.83   62.19
  -3 -11   4  725.13   83.79
   3  11  -4  674.33   73.09
  -3  11   4  754.42   74.69
   3  11  -4  644.54   74.09
   1 -11  -4   20.90   42.50
   1 -11  -4    2.10   26.00
   1 -11  -4  -11.40   29.50
  -1 -11   4   -0.30   36.30
  -1 -11   4   34.70   36.80
   1  11  -4   35.10   36.60
  -1  11   4   12.90   45.80
  -1  11   4   19.80   24.60
   1  11  -4    7.80   34.30
   1 -11   4  636.94   71.09
  -1 -11  -4  833.92   74.89
  -1 -11  -4  570.24   56.29
   1 -11   4  620.74   65.89
  -1  11  -4  566.74   67.99
   1  11   4  635.74   74.49
   1  11   4  542.95   81.99
  -3 -11  -4  535.35   61.59
  -3 -11  -4  438.96   73.89
   3 -11   4  449.76   72.59
   3 -11   4  484.45   63.19
   3  11   4  413.36   81.79
   3  11   4  399.66   99.89
   4 -12  -4  167.48   46.70
   4 -12  -4  148.49   36.50
  -4 -12   4  190.88   49.60
   4  12  -4  292.57   70.39
   4  12  -4  195.78   60.79
  -2 -12   4   31.30   33.80
   2 -12  -4   40.50   36.00
  -2 -12   4   98.29   47.00
   2 -12  -4   45.80   32.40
   2  12  -4   33.20   35.00
   2  12  -4   84.49   41.80
  -2  12   4   50.29   46.80
   0 -12  -4  195.28   44.90
   0 -12   4  228.28   41.90
   0 -12   4  179.18   49.20
   0 -12  -4  203.88   37.50
   0  12  -4  250.87   49.40
   0  12   4  203.28   56.39
   2 -12   4  169.68   47.30
  -2 -12  -4  111.69   42.50
  -2 -12  -4  126.69   50.99
   2 -12   4  154.58   51.19
   2  12   4  -47.10   74.39
   2  12   4   64.79   56.69
  -3 -13   4   90.89   53.29
   3 -13  -4  104.29   43.20
  -3 -13   4    4.00   41.40
   3 -13  -4  154.48   39.20
   3  13  -4   78.89   52.99
   3  13  -4  167.28   55.39
  -1 -13   4   50.39   45.40
  -1 -13   4  111.69   37.00
   1 -13  -4  119.99   39.10
   1 -13  -4  127.49   40.30
  -1  13   4  133.69   53.19
   1  13  -4   90.69   45.10
  -1 -13  -4  276.87   44.80
  -1 -13  -4  407.36   59.89
   1 -13   4  302.67   51.89
   1 -13   4  290.57   53.89
   1  13   4  447.76   85.49
   1  13   4  416.76   70.39
  -1  13  -4  373.36   59.99
  -3 -13  -4   66.29   52.29
   3 -13   4  -24.20   60.99
  -3 -13  -4  -15.30   64.89
   3 -13   4   13.70   48.20
   3  13   4    4.40   69.59
   3  13   4  144.79  107.39
   4 -14  -4  356.56   56.99
  -4 -14   4  347.27   80.39
   4  14  -4  363.06   78.79
  -2 -14   4  395.66   64.09
  -2 -14   4  453.45   55.39
   2 -14  -4  441.36   54.99
   2 -14  -4  467.05   57.09
   2  14  -4  550.64   67.69
  -2  14   4  554.44   93.99
   0 -14  -4  -10.00   38.60
   0 -14   4   26.70   44.60
   0 -14  -4   61.49   48.20
   0 -14   4   63.29   45.40
   0  14   4    9.30   53.09
   0  14  -4  -44.60   43.40
  -2 -14  -4  525.55   60.59
   2 -14   4  627.24   76.69
  -2 -14  -4  417.76   70.09
   2 -14   4  416.06   66.39
   2  14   4  560.24  112.19
   2  14   4  660.93   89.79
  -3 -15   4   52.89   48.60
  -3 -15   4   76.09   57.19
   3 -15  -4  -39.70   48.00
   3 -15  -4   87.69   39.30
   3  15  -4  -14.00   57.09
  -1 -15   4 1392.26   89.69
   1 -15  -4 1516.05   89.69
   1 -15  -4 1474.75   85.89
  -1 -15   4 1486.95   99.19
  -1  15   4 1487.55  117.79
   1  15  -4 1461.55   98.19
   1 -15   4  132.89   53.19
  -1 -15  -4  -38.70   49.90
  -1 -15  -4   54.19   47.50
   1 -15   4   96.49   49.10
   1  15   4   71.39   62.39
   2 -16  -4   75.69   49.20
   2 -16  -4   24.40   45.80
  -2 -16   4  108.69   49.99
   2  16  -4   68.19   56.19
   0 -16  -4  159.08   54.79
   0 -16   4  171.98   56.89
   0 -16  -4  132.99   39.40
   0 -16  -4  162.78   49.00
   0 -16   4  111.99   47.20
   0  16   4  181.68   74.29
  -2 -16  -4  -29.00   68.49
   2 -16   4   19.20   71.39
  -2 -16  -4   32.00   49.10
   2  16   4   83.39   82.89
   2  16   4  154.78  100.59
   3 -17  -4  -23.40   59.39
   3 -17  -4   25.90   44.60
  -3 -17   4  -26.30   55.49
  -3 -17   4   39.10   77.29
   3  17  -4    7.60   74.19
   1 -17  -4  147.19   48.60
   1 -17  -4  166.18   54.29
  -1 -17   4  132.19   52.89
   1  17  -4  124.89   62.99
  -1 -17  -4  119.29   46.00
  -1 -17  -4   69.99   62.09
   1 -17   4  160.18   62.89
  -1 -17  -4   -3.00   54.09
   1  17   4  147.59   85.79
  -2 -18   4  201.68   73.29
   2 -18  -4  212.68   62.19
   2 -18  -4  178.28   56.99
  -2 -18   4  125.79   57.89
   2  18  -4  247.58   76.89
   0 -18  -4  370.76   72.69
   0 -18  -4  231.18   59.39
   0 -18  -4  417.96   50.39
   0 -18   4  313.77   64.69
   0 -18   4  284.47   67.79
  -1 -19   4  -69.29   65.39
  -1 -19   4   87.99   84.49
   1 -19  -4  -77.29   56.49
   4   0  -5  319.57   53.49
   4   0  -5  225.68   42.10
  -4   0   5  301.37   71.69
  -2   0   5  279.47   58.49
   2   0  -5  177.88   39.30
   2   0  -5  153.88   39.10
  -2   0   5  189.18   32.60
   0   0  -5   60.29   26.30
   0   0   5   20.40   46.60
   0   0  -5   32.00   34.60
  -2   0  -5  138.09   37.00
  -2   0  -5  193.18   89.69
   2   0   5  129.09   79.99
   2   0   5  125.89   52.49
   5  -1  -5  638.44   90.69
  -5  -1   5  704.93   94.29
   5  -1  -5  522.75   67.39
   5   1  -5  473.45   67.89
   5   1  -5  633.04   92.19
   3  -1  -5   70.99   34.70
  -3  -1   5  229.58   59.99
   3  -1  -5   81.49   32.50
   3   1  -5  104.79   36.50
  -3   1   5  223.58   57.39
   3   1  -5  102.19   39.70
  -1  -1   5  151.78   45.70
   1  -1  -5  125.39   30.60
  -1  -1   5  168.88   36.80
  -1   1   5  273.37   57.69
   1   1  -5  149.59   29.10
   1   1  -5  185.98   40.30
  -1  -1  -5  770.42   73.89
  -1  -1  -5  757.02   55.59
   1  -1   5  647.04   90.29
   1  -1   5  814.42   80.49
   1   1   5  677.43   78.09
  -1   1  -5  752.02   75.49
   1   1   5  677.33   89.59
  -1   1  -5  789.32   54.59
   3  -1   5  137.89   64.19
   3  -1   5  136.39   97.99
  -3  -1  -5  154.88   65.19
  -3  -1  -5  148.69   43.40
   3   1   5  362.26  105.69
   3   1   5   93.49   62.49
  -3   1  -5  166.48   67.79
   4  -2  -5  498.25   53.29
   4  -2  -5  472.75   58.79
  -4   2   5  464.55   77.09
   4   2  -5  357.36   54.59
   2  -2  -5  304.27   46.90
   2  -2  -5  290.47   37.20
  -2  -2   5  322.87   59.29
  -2  -2   5  294.77   35.30
   2   2  -5  306.77   39.70
   2   2  -5  377.26   51.89
  -2   2   5  290.27   57.39
   0  -2  -5   39.60   25.10
   0  -2   5   27.20   42.50
   0   2  -5   12.10   22.80
   0   2  -5   63.39   36.30
   2  -2   5  781.62  106.29
   2  -2   5  838.92   91.19
  -2  -2  -5  902.31   88.69
  -2  -2  -5  963.40   64.89
  -2   2  -5  955.20   64.69
  -2   2  -5  850.41   85.29
   2   2   5  826.82  112.39
   2   2   5  777.62   87.59
   5  -3  -5  -24.60   50.29
  -5  -3   5   92.89   75.39
   5  -3  -5   24.30   41.30
   5   3  -5   12.40   64.89
   5   3  -5  -51.29   47.90
   3  -3  -5 1021.00   63.59
   3  -3  -5 1021.60   73.39
  -3  -3   5 1053.89   56.39
   3   3  -5  974.20   76.09
  -3   3   5 1151.88   95.79
   1  -3  -5  141.39   40.60
  -1  -3   5  228.68   88.09
   1  -3  -5  138.69   30.40
  -1  -3   5  204.18   38.50
   1   3  -5  153.18   39.30
  -1   3   5  137.99   49.90
   1   3  -5  186.08   34.10
  -1   3   5  206.08   29.40
  -1  -3  -5  100.49   31.50
   1  -3   5  127.29   49.30
  -1  -3  -5  167.78   45.10
   1   3   5   74.39   47.90
  -1   3  -5  101.99   41.70
  -1   3  -5   63.69   30.80
   1   3   5  116.39   63.29
  -3  -3  -5  582.44   84.29
  -3  -3  -5  664.33   65.99
   3  -3   5  571.44   85.69
   3  -3   5  402.36  109.79
   3   3   5  637.54  115.19
  -3   3  -5  707.93   88.29
   3   3   5  372.16   78.79
   4  -4  -5  359.76   55.49
   4  -4  -5  402.16   48.50
  -4  -4   5  407.56   73.29
  -4   4   5  565.04   83.69
   4   4  -5  483.45   65.19
  -2  -4   5  170.48   33.50
   2  -4  -5  183.38   36.20
  -2  -4   5  159.78   51.79
   2  -4  -5  129.89   37.00
   2   4  -5  185.48   41.60
  -2   4   5  202.48   55.59
   0  -4   5    0.60   39.00
   0  -4  -5    6.50   27.30
   0  -4  -5   61.29   37.30
   0  -4   5  -24.40   36.40
   0   4  -5  -13.90   34.90
  -2  -4  -5  331.97   45.90
  -2  -4  -5  341.17   63.49
   2  -4   5  240.88   82.89
   2  -4   5  367.26   67.49
   2   4   5  128.59   61.19
  -2   4  -5  309.47   58.99
   2   4   5  353.96   95.19
   5  -5  -5   79.79   44.30
  -5  -5   5  310.87   84.09
   5  -5  -5  111.79   55.19
   5   5  -5   49.50   58.89
   5   5  -5  134.49   70.89
   3  -5  -5  990.70   75.69
  -3  -5   5  895.01   60.59
  -3  -5   5  886.71   91.79
   3  -5  -5  960.50   64.39
   3   5  -5  991.50   78.29
  -3   5   5  881.01   96.89
   1  -5  -5   27.90   32.40
   1  -5  -5   38.20   29.90
  -1  -5   5   68.89   42.60
  -1  -5   5   20.60   33.90
  -1   5   5  -13.60   43.90
   1   5  -5   26.60   38.00
  -1   5   5   69.79   25.50
  -1  -5  -5  277.77   43.10
  -1  -5  -5  215.98   51.29
   1  -5   5  355.76   62.29
   1   5   5  217.58   74.39
  -1   5  -5  283.37   52.69
   1   5   5  262.37   59.69
   3  -5   5  703.93   90.79
   3  -5   5  674.13  109.49
  -3  -5  -5  655.23   92.29
  -3  -5  -5  860.21   74.39
   3   5   5  523.65   88.29
   3   5   5  660.13  120.69
   4  -6  -5   32.90   37.30
  -4  -6   5  -35.80   60.09
   4  -6  -5   40.80   46.80
  -4  -6   5   64.89   41.60
   4   6  -5   26.20   46.90
   4   6  -5   11.60   56.79
  -4   6   5   21.90   82.89
   2  -6  -5  442.76   49.99
  -2  -6   5  412.86   64.09
  -2  -6   5  471.35   49.80
   2  -6  -5  518.05   61.69
   2   6  -5  346.57   50.59
  -2   6   5  553.84   73.19
   0  -6  -5  299.37   39.90
   0  -6  -5  359.46   54.19
   0  -6   5  326.97   58.09
   0  -6   5  322.57   61.09
   0   6  -5  380.76   54.79
   2  -6   5   74.99   70.89
  -2  -6  -5  115.29   60.19
   2  -6   5   66.69   52.39
  -2  -6  -5  142.79   43.00
  -2   6  -5  103.29   54.89
   2   6   5  164.78   88.19
   2   6   5  124.59   67.69
   5  -7  -5  371.26   61.99
  -5  -7   5  512.85   99.79
   5   7  -5  381.16   83.09
   5   7  -5  595.44   95.89
  -3  -7   5   17.90   52.19
   3  -7  -5    5.20   40.70
  -3  -7   5   30.90   37.40
   3  -7  -5   -2.60   34.40
  -3   7   5  128.59   61.49
   3   7  -5   40.40   44.60
  -1  -7   5  481.95   52.99
   1  -7  -5  457.15   56.69
  -1  -7   5  472.05   67.89
   1  -7  -5  443.86   52.09
   1   7  -5  515.95   64.59
  -1   7   5  501.15   47.10
  -1   7   5  420.86   66.89
   1  -7   5  433.66   66.19
  -1  -7  -5  367.96   46.80
  -1  -7  -5  439.96   63.29
   1  -7   5  500.35   58.29
   1   7   5  421.86   92.19
  -1   7  -5  402.46   58.59
   1   7   5  577.64   76.79
  -3  -7  -5  255.47   79.89
   3  -7   5  331.97   76.99
   3  -7   5  262.87  100.69
  -3  -7  -5  355.26   57.69
   3   7   5  326.27  115.29
   3   7   5  162.58   81.99
   4  -8  -5  381.26   53.49
  -4  -8   5  411.26   56.19
   4  -8  -5  253.77   53.09
  -4  -8   5  324.87   77.89
   4   8  -5  290.77   68.29
   4   8  -5  279.57   59.89
   2  -8  -5    5.90   38.10
  -2  -8   5   -4.80   35.70
   2  -8  -5   -1.40   35.70
  -2  -8   5   15.90   49.90
   2   8  -5  -57.19   40.40
  -2   8   5    0.90   54.59
   0  -8  -5  318.07   55.89
   0  -8  -5  211.18   41.60
   0  -8   5  277.27   45.00
   0  -8   5  336.67   58.99
   0   8   5  307.17   68.29
   0   8  -5  292.37   55.49
   2  -8   5  192.28   62.89
   2  -8   5  209.98   61.39
  -2  -8  -5  172.48   48.40
  -2  -8  -5  276.47   77.19
   2   8   5  179.08   72.39
   2   8   5  251.47   96.89
  -2   8  -5  193.38   71.59
   3  -9  -5   27.20   42.10
  -3  -9   5  -67.69   50.39
  -3  -9   5  156.58   61.49
   3  -9  -5   47.50   42.90
   3   9  -5  126.79   51.49
   3   9  -5   50.69   51.39
  -3   9   5  -32.80   66.09
  -1  -9   5  332.77   45.90
   1  -9  -5  328.97   45.50
   1  -9  -5  259.97   50.09
  -1  -9   5  253.87   60.99
  -1   9   5  342.47   65.39
   1   9  -5  423.76   76.99
  -1  -9  -5   76.59   42.40
  -1  -9  -5   38.50   51.19
   1  -9   5   77.39   53.29
   1  -9   5   89.49   48.50
   1   9   5   28.10   73.49
   1   9   5   56.39   58.99
  -1   9  -5   57.59   51.19
  -3  -9  -5   56.09   52.69
  -3  -9  -5  224.98   79.79
   3  -9   5   68.19   68.59
   3   9   5  156.58  117.69
   4 -10  -5  464.65   61.99
  -4 -10   5  329.47   85.49
  -4 -10   5  579.54   67.09
   4 -10  -5  520.65   62.79
   4  10  -5  567.94   80.99
   4  10  -5  430.16   72.19
   2 -10  -5   62.59   41.80
  -2 -10   5  -75.19   50.19
   2 -10  -5   16.80   39.70
  -2 -10   5   44.40   40.10
  -2  10   5  125.59   62.29
   2  10  -5   26.30   46.70
   0 -10  -5  139.29   48.80
   0 -10   5   78.59   52.29
   0 -10  -5  150.98   43.50
   0 -10   5   93.59   48.10
   0  10  -5   28.00   45.50
   0  10   5  144.59   61.09
   2 -10   5  744.03   84.39
  -2 -10  -5  893.41  110.19
   2 -10   5  741.43   87.19
  -2 -10  -5  800.62   80.59
   2  10   5  726.83  102.99
   2  10   5  776.52  134.89
  -3 -11   5  579.14   87.39
   3 -11  -5  666.33   81.59
   3 -11  -5  838.32   84.69
  -3 -11   5  636.94   65.79
   3  11  -5  692.33   84.59
   3  11  -5  679.83   86.69
  -1 -11   5  205.88   52.69
   1 -11  -5  219.48   52.39
  -1 -11   5  203.48   55.29
   1 -11  -5  177.28   41.30
  -1  11   5  121.69   62.89
   1  11  -5  280.57   60.19
  -1 -11  -5   40.10   46.80
   1 -11   5  -45.10   54.09
   1 -11   5   96.69   58.89
  -1 -11  -5  -22.60   54.09
   1  11   5   79.99   70.59
  -1  11  -5   18.40   54.39
   4 -12  -5  213.28   56.49
  -4 -12   5  185.18   85.39
  -4 -12   5  280.07   66.69
   4 -12  -5  289.57   62.19
   4  12  -5  289.17   77.09
   2 -12  -5  283.57   57.29
  -2 -12   5  154.58   51.39
   2 -12  -5  130.99   47.20
  -2 -12   5  191.08   65.09
  -2  12   5  251.67   79.19
   2  12  -5   84.79   56.09
   0 -12  -5   73.29   41.80
   0 -12   5   80.89   41.20
   0 -12  -5  139.19   56.19
   0 -12   5  156.98   61.99
   0  12   5  223.18   75.99
   0  12  -5  166.88   61.99
  -2 -12  -5  166.78   75.29
  -2 -12  -5  173.78   62.19
   2 -12   5  285.27   76.49
   2 -12   5  196.08   71.99
   2  12   5  390.16  128.69
   2  12   5  338.07   89.39
  -3 -13   5   24.30   53.89
   3 -13  -5  290.97   59.59
   3 -13  -5  229.58   59.29
  -3 -13   5  199.28   75.89
   3  13  -5  211.88   71.89
  -1 -13   5  -66.59   55.39
   1 -13  -5  -74.39   41.60
  -1 -13   5  -28.00   48.40
   1 -13  -5  -82.69   46.40
   1  13  -5  -37.80   52.59
  -1  13   5  142.59   73.49
  -1 -13  -5    6.30   62.59
   1 -13   5   84.49   59.29
  -1 -13  -5  -31.40   47.40
   1 -13   5  -11.40   60.89
   1  13   5  172.58   84.29
  -2 -14   5  687.63   75.09
  -2 -14   5  687.83   89.09
   2 -14  -5  866.11   93.39
   2 -14  -5  567.84   69.59
   2  14  -5  597.64   82.59
   0 -14   5  233.88   57.89
   0 -14  -5  164.58   51.59
   0 -14   5  257.47   67.89
   0 -14  -5  361.86   67.29
   0  14   5  388.36   87.69
   1 -15  -5  -39.40   47.20
   1 -15  -5   45.00   58.49
  -1 -15   5  -61.19   65.59
  -1 -15   5  -50.49   56.39
   1  15  -5  202.18   70.09
  -1 -15  -5  503.55  120.99
   1 -15   5  527.85   80.29
   1  15   5  507.85  105.59
  -2 -16   5  131.29   66.29
   2 -16  -5   -3.70   61.59
   2  16  -5  165.78   76.19
   0 -16   5  -14.40   74.79
   0  16   5   89.89  133.49
  -4   0   6   29.30   82.59
   4   0  -6   19.70   59.19
   4   0  -6   43.20   48.50
   2   0  -6   75.69   49.50
   2   0  -6   54.79   36.40
  -2   0   6  -64.19   62.19
  -2   0   6   30.60   43.10
   0   0   6  728.53   96.49
   0   0  -6  722.83   84.69
   0   0  -6  645.64   66.39
   2   0   6  135.89  109.59
  -2   0  -6  -55.69   69.29
   2   0   6  170.28   83.09
  -2   0  -6  119.69   50.59
   3  -1  -6  133.19   50.69
   3  -1  -6   99.59   42.80
  -3  -1   6  247.88   79.69
  -3   1   6  138.39   71.29
   3   1  -6  118.09   53.69
   3   1  -6  135.69   45.70
  -1  -1   6  347.97   74.09
  -1  -1   6  324.27   53.29
   1  -1  -6  277.07   46.90
   1  -1  -6  300.67   57.09
   1   1  -6  273.37   45.20
   1   1  -6  153.78   53.69
  -1   1   6  113.49   63.69
  -1   1   6  273.17   52.59
  -1  -1  -6   82.49   63.09
  -1  -1  -6  308.67   50.19
   1  -1   6  220.98   76.09
   1   1   6  145.29   72.29
  -1   1  -6  205.58   67.49
  -1   1  -6  171.98   46.90
  -4  -2   6  -73.79   78.39
   4  -2  -6   77.49   48.50
   4  -2  -6   49.60   63.39
   4   2  -6  103.49   63.19
  -4   2   6  185.48   88.59
   2  -2  -6  404.06   67.19
  -2  -2   6  386.06   72.79
   2  -2  -6  479.85   58.39
  -2  -2   6  471.45   50.29
  -2   2   6  568.14   86.39
   2   2  -6  445.56   68.49
   2   2  -6  517.35   57.69
   0  -2  -6  546.25   64.69
   0  -2   6  424.46   79.19
   0  -2  -6  533.85   73.09
   0  -2   6  674.83   70.99
   0   2  -6  601.84   76.79
   0   2   6  600.44   85.89
   0   2  -6  539.85   63.79
  -2  -2  -6   43.30   75.39
  -2  -2  -6  116.09   49.70
   2  -2   6  -45.50   97.49
   2  -2   6  -40.40   78.69
   2   2   6 -267.17  103.99
  -2   2  -6   45.30   71.09
   2   2   6   42.70   84.99
   3  -3  -6    5.20   49.30
   3  -3  -6  109.69   45.80
  -3  -3   6  105.09   75.39
   3   3  -6  153.38   59.19
  -3   3   6   52.89   71.99
  -1  -3   6  414.86   76.69
   1  -3  -6  450.85   67.19
   1  -3  -6  435.46   53.29
   1   3  -6  709.13   66.09
  -1   3   6  550.54   87.39
   1   3  -6  452.25   65.39
   1  -3   6  148.09   70.09
  -1  -3  -6  270.87   71.79
  -1  -3  -6  166.78   49.60
  -1   3  -6  138.39   63.59
   1   3   6  284.17   80.89
   4  -4  -6   -2.90   60.39
   4  -4  -6   90.49   52.69
  -4  -4   6  112.79   87.19
   4   4  -6  -52.39   62.19
   2  -4  -6  632.24   82.09
  -2  -4   6  697.23   89.29
  -2  -4   6  513.75   56.79
   2  -4  -6  726.83   69.49
   2   4  -6  667.43   79.19
  -2   4   6  483.15   85.89
   0  -4   6  279.07   72.29
   0  -4  -6  261.97   46.00
   0  -4   6  320.77   60.89
   0  -4  -6  124.49   58.59
   0   4  -6   70.29   57.49
   0   4   6  180.68   71.19
  -2  -4  -6   71.99   52.49
   2  -4   6  215.78  118.19
  -2  -4  -6  149.69   79.09
   2   4   6  179.68  110.79
   2   4   6  -27.10  105.19
  -2   4  -6   36.90   74.79
   3  -5  -6   42.00   53.59
  -3  -5   6  167.68   79.79
   3  -5  -6   50.19   47.00
   3   5  -6  152.88   62.69
  -3   5   6  135.19   84.39
   1  -5  -6  510.05   59.49
  -1  -5   6  555.84   65.59
  -1  -5   6  481.15   79.59
   1  -5  -6  391.86   65.29
  -1   5   6  433.76   84.29
   1   5  -6  496.05   70.79
  -1  -5  -6   79.79   44.40
  -1  -5  -6  -65.59   62.99
   1  -5   6   20.50   63.09
   1  -5   6   21.00   66.19
   1   5   6  152.88   74.69
  -1   5  -6   32.80   58.99
   4  -6  -6  113.69   55.29
   4  -6  -6  116.69   70.09
  -4  -6   6   41.20   87.29
   4   6  -6   87.99   82.19
  -2  -6   6   23.60   48.00
   2  -6  -6   36.70   49.40
   2  -6  -6  102.09   48.20
  -2  -6   6  -88.89   63.69
   2   6  -6   -5.60   54.59
  -2   6   6  166.48   73.79
   0  -6   6  689.53   91.29
   0  -6  -6  615.54   71.09
   0  -6  -6  476.95   76.39
   0  -6   6  673.53   73.69
   0   6   6  712.63   96.69
   0   6  -6  454.35   75.39
  -3  -7   6  217.38   81.79
   3  -7  -6  163.38   62.89
   3  -7  -6  129.79   55.59
  -3   7   6  220.58   89.69
   3   7  -6  207.88   64.59
   1  -7  -6  247.48   62.39
   1  -7  -6  104.29   45.60
  -1  -7   6  283.37   60.99
  -1  -7   6  194.48   70.19
   1   7  -6  191.08   64.59
  -1   7   6  183.48   78.59
  -1  -7  -6  341.77   60.99
   1  -7   6  474.65   71.29
  -1  -7  -6  393.86   80.59
   1  -7   6  288.37   79.69
  -1   7  -6  309.37   74.79
   1   7   6  397.26   88.89
  -2  -8   6  118.19   53.49
   2  -8  -6   48.70   46.50
   2  -8  -6  107.49   54.49
  -2  -8   6  146.99   69.69
  -2   8   6   45.80   85.79
   2   8  -6   96.09   65.09
   0  -8   6  201.88   61.19
   0  -8  -6  227.58   53.99
   0  -8   6  178.08   68.89
   0  -8  -6  175.48   61.49
   0   8  -6  175.88   67.89
   0   8   6  208.38   81.79
  -3  -9   6    7.90   62.99
  -3  -9   6   12.30   81.29
   3  -9  -6  -42.10   61.59
   3  -9  -6  167.58   58.09
   3   9  -6    9.90   64.59
  -1  -9   6  135.99   52.89
   1  -9  -6  112.49   47.90
   1  -9  -6  163.38   59.69
  -1  -9   6  174.68   75.89
   1   9  -6   60.69   66.89
  -1   9   6   73.49   81.49
  -1  -9  -6  470.55   70.19
  -1  -9  -6  424.66  132.89
   1  -9   6  419.76  107.79
   1  -9   6  284.97   73.09
   1   9   6  249.58   91.79
  -2 -10   6  482.25   72.39
  -2 -10   6  532.45   91.39
   2 -10  -6  580.44   78.09
  -2  10   6  528.85  105.79
   2  10  -6  625.14   87.79
   0 -10   6  158.38   77.49
   0 -10   6  102.79   66.79
   0 -10  -6   67.69   51.39
   0 -10  -6  -84.79   68.99
   0  10  -6   81.69   71.19
   0  10   6   44.50   83.89
  -1 -11   6  381.26   69.89
  -1 -11   6  294.07   97.59
   1 -11  -6  500.05  110.69
   1 -11  -6  279.97   68.69
  -1  11   6  275.27   97.39
   1  11  -6  342.17   85.39
   0   0   0    0.00    0.00
_computing_structure_solution     'SHELXT 2014/5 (Sheldrick, 2014)'
;
_shelx_hkl_checksum              451
_shelx_res_file
;
    C2_a.res created by SHELXL-2014/7
TITL C2_a.res in Cm
REM Old TITL C2 in C2
REM SHELXT solution in Cm
REM R1 0.053,  Rweak 0.019,  Alpha 0.004,  Orientation as input
REM Flack x =  0.191 ( 0.036 ) from Parsons' quotients
REM Formula found by SHELXT:  Al4 Cr
CELL  0.71073   5.1574  17.4130   5.1107   90.000  100.357   90.000
ZERR    8.000   0.0006   0.0022   0.0007    0.000    0.004    0.000
LATT -7
SYMM X, -Y, Z
SFAC AL CR
UNIT 24 6
TEMP 20
L.S. 10
LIST 6
ACTA
TWIN
FMAP 2
PLAN 20
WGHT    0.032000    2.418400
BASF   0.16365
FVAR       0.40824
CR1   2    0.925294    0.363252    0.808907    11.00000    0.00511    0.00719 =
         0.00112   -0.00003   -0.00121   -0.00017
AL1   1    0.765501    0.500000   -0.004842    10.50000    0.00676    0.00896 =
         0.01304    0.00000    0.00514    0.00000
CR2   2    0.272752    0.500000    0.149460    10.50000    0.00886    0.00575 =
         0.00174    0.00000    0.00086    0.00000
AL2   1    0.117743    0.500000    0.635301    10.50000    0.01562    0.01141 =
         0.00184    0.00000   -0.00098    0.00000
AL4   1    0.433178    0.381664   -0.077114    11.00000    0.01162    0.01098 =
         0.00656   -0.00069    0.00136   -0.00034
AL3   1    0.075278    0.377290    0.324332    11.00000    0.01193    0.01023 =
         0.00535   -0.00069    0.00332   -0.00154
AL5   1    0.600079    0.423545    0.455754    11.00000    0.00868    0.01681 =
         0.00793    0.00492   -0.00055   -0.00025
AL6   1    0.571541    0.266416    0.562092    11.00000    0.01378    0.01321 =
         0.01118   -0.00316    0.00290   -0.00175
AL7   1    0.739064    0.253798    1.076013    11.00000    0.00298    0.01259 =
         0.01114    0.00465    0.00313    0.00262
HKLF 4
REM  C2_a.res in Cm
REM R1 =  0.0466 for     967 Fo > 4sig(Fo)  and  0.0721 for all    1200 data
REM     74 parameters refined using      2 restraints
END
WGHT      0.0320      2.4184
REM Highest difference peak  0.848,  deepest hole -1.203,  1-sigma level  0.214
Q1    1   0.9101  0.3099  0.8451  11.00000  0.05    0.85
Q2    1   0.9979  0.5000  0.0889  10.50000  0.05    0.82
Q3    1   0.5917  0.3653  0.2810  11.00000  0.05    0.77
Q4    1   0.7582  0.3423  0.4409  11.00000  0.05    0.77
Q5    1   0.5977  0.5000 -0.2883  10.50000  0.05    0.72
Q6    1   0.2494  0.5000  0.6874  10.50000  0.05    0.72
Q7    1   0.9268  0.4140  0.7958  11.00000  0.05    0.69
Q8    1   0.6132  0.2457  1.1296  11.00000  0.05    0.67
Q9    1   0.4561  0.2145  0.5401  11.00000  0.05    0.67
Q10   1   0.7284  0.1878  1.1758  11.00000  0.05    0.65
Q11   1   0.7034  0.5000  0.6126  10.50000  0.05    0.65
Q12   1   0.7861  0.2918  0.7375  11.00000  0.05    0.64
Q13   1   0.2565  0.4452  0.1493  11.00000  0.05    0.64
Q14   1   0.7496  0.2276  1.2912  11.00000  0.05    0.63
Q15   1   0.7680  0.2798  1.1723  11.00000  0.05    0.63
Q16   1   0.1439  0.4332  0.8385  11.00000  0.05    0.63
Q17   1   0.6150  0.3210  0.4237  11.00000  0.05    0.63
Q18   1   0.7266  0.3729  0.8810  11.00000  0.05    0.61
Q19   1   0.4609  0.3332 -0.1193  11.00000  0.05    0.61
Q20   1   0.5935  0.3221  0.5908  11.00000  0.05    0.61
;
_shelx_res_checksum              48236
loop_
_space_group_symop_operation_xyz
'x, y, z'
'x, -y, z'
'x+1/2, y+1/2, z'
'x+1/2, -y+1/2, z'
loop_
_atom_site_type_symbol
_atom_site_label
_atom_site_fract_x
_atom_site_fract_y
_atom_site_fract_z
_atom_site_U_iso_or_equiv
_atom_site_adp_type
_atom_site_calc_flag
_atom_site_occupancy
Cr Cr1 0.9253(3) 0.36325(9) 0.8089(3) 0.0047(4) Uani d 1
Al Al1 0.7655(11) 0.5 -0.0048(11) 0.0092(13) Uani d 1
Cr Cr2 0.2728(5) 0.5 0.1495(5) 0.0055(6) Uani d 1
Al Al2 0.1177(11) 0.5 0.6353(10) 0.0099(13) Uani d 1
Al Al4 0.4332(8) 0.3817(2) -0.0771(7) 0.0098(9) Uani d 1
Al Al3 0.0753(7) 0.3773(2) 0.3243(7) 0.0090(9) Uani d 1
Al Al5 0.6001(9) 0.4235(2) 0.4558(8) 0.0114(8) Uani d 1
Al Al6 0.5715(7) 0.2664(2) 0.5621(8) 0.0126(9) Uani d 1
Al Al7 0.7391(7) 0.2538(2) 1.0760(8) 0.0087(8) Uani d 1
loop_
_atom_site_aniso_label
_atom_site_aniso_U_11
_atom_site_aniso_U_22
_atom_site_aniso_U_33
_atom_site_aniso_U_12
_atom_site_aniso_U_13
_atom_site_aniso_U_23
Cr1 0.0051(10) 0.0072(8) 0.0011(8) -0.0002(8) -0.0012(7) 0.0000(7)
Al1 0.007(3) 0.009(3) 0.013(3) 0 0.005(2) 0
Cr2 0.0089(16) 0.0057(11) 0.0017(14) 0 0.0009(11) 0
Al2 0.016(4) 0.011(3) 0.002(3) 0 -0.001(2) 0
Al4 0.012(2) 0.0110(18) 0.007(2) -0.0003(14) 0.0014(17) -0.0007(15)
Al3 0.012(2) 0.0102(18) 0.005(2) -0.0015(14) 0.0033(17) -0.0007(14)
Al5 0.0087(16) 0.0168(18) 0.0079(17) -0.0003(15) -0.0006(13) 0.0049(15)
Al6 0.014(2) 0.0132(18) 0.011(2) -0.0018(15) 0.0029(18) -0.0032(16)
Al7 0.0030(19) 0.0126(17) 0.011(2) 0.0026(15) 0.0031(14) 0.0046(14)
loop_
_atom_type_symbol
_atom_type_description
_atom_type_scat_dispersion_real
_atom_type_scat_dispersion_imag
_atom_type_scat_source
Al Al 0.0645 0.0514 'International Tables Vol C Tables 4.2.6.8 and 6.1.1.4'
Cr Cr 0.3209 0.6236 'International Tables Vol C Tables 4.2.6.8 and 6.1.1.4'
loop_
_geom_angle_atom_site_label_1
_geom_angle_atom_site_label_2
_geom_angle_atom_site_label_3
_geom_angle_site_symmetry_1
_geom_angle_site_symmetry_3
_geom_angle
Al5 Cr1 Al4 . 1_656 129.56(15)
Al5 Cr1 Al3 . 1_656 137.30(14)
Al4 Cr1 Al3 1_656 1_656 70.10(12)
Al5 Cr1 Al7 . . 115.17(14)
Al4 Cr1 Al7 1_656 . 114.91(13)
Al3 Cr1 Al7 1_656 . 67.32(13)
Al5 Cr1 Al6 . . 66.46(13)
Al4 Cr1 Al6 1_656 . 140.34(15)
Al3 Cr1 Al6 1_656 . 126.53(15)
Al7 Cr1 Al6 . . 59.83(12)
Al5 Cr1 Al4 . 1_556 64.48(14)
Al4 Cr1 Al4 1_656 1_556 151.41(17)
Al3 Cr1 Al4 1_656 1_556 83.80(14)
Al7 Cr1 Al4 . 1_556 62.09(13)
Al6 Cr1 Al4 . 1_556 65.53(13)
Al5 Cr1 Al3 . 1_655 64.23(13)
Al4 Cr1 Al3 1_656 1_655 75.77(13)
Al3 Cr1 Al3 1_656 1_655 145.25(18)
Al7 Cr1 Al3 . 1_655 136.50(13)
Al6 Cr1 Al3 . 1_655 84.71(13)
Al4 Cr1 Al3 1_556 1_655 127.55(13)
Al5 Cr1 Al1 . 1_556 71.19(15)
Al4 Cr1 Al1 1_656 1_556 99.70(15)
Al3 Cr1 Al1 1_656 1_556 67.87(15)
Al7 Cr1 Al1 . 1_556 106.78(14)
Al6 Cr1 Al1 . 1_556 119.74(17)
Al4 Cr1 Al1 1_556 1_556 58.29(14)
Al3 Cr1 Al1 1_655 1_556 112.82(14)
Al5 Cr1 Al6 . 4 102.70(13)
Al4 Cr1 Al6 1_656 4 81.72(14)
Al3 Cr1 Al6 1_656 4 118.74(12)
Al7 Cr1 Al6 . 4 78.41(12)
Al6 Cr1 Al6 . 4 58.63(6)
Al4 Cr1 Al6 1_556 4 122.44(13)
Al3 Cr1 Al6 1_655 4 60.90(13)
Al1 Cr1 Al6 1_556 4 173.15(16)
Al5 Cr1 Al2 . 1_655 68.74(15)
Al4 Cr1 Al2 1_656 1_655 64.12(15)
Al3 Cr1 Al2 1_656 1_655 100.53(14)
Al7 Cr1 Al2 . 1_655 166.17(15)
Al6 Cr1 Al2 . 1_655 130.59(15)
Al4 Cr1 Al2 1_556 1_655 111.51(15)
Al3 Cr1 Al2 1_655 1_655 57.33(13)
Al1 Cr1 Al2 1_556 1_655 61.01(13)
Al6 Cr1 Al2 4 1_655 114.33(15)
Al5 Cr1 Al7 . 4 157.49(13)
Al4 Cr1 Al7 1_656 4 60.64(11)
Al3 Cr1 Al7 1_656 4 62.45(12)
Al7 Cr1 Al7 . 4 56.73(6)
Al6 Cr1 Al7 . 4 93.29(13)
Al4 Cr1 Al7 1_556 4 117.42(13)
Al3 Cr1 Al7 1_655 4 105.89(12)
Al1 Cr1 Al7 1_556 4 130.20(15)
Al6 Cr1 Al7 4 4 56.31(12)
Al2 Cr1 Al7 1_655 4 124.73(15)
Cr2 Al1 Al4 1_655 . 129.13(11)
Cr2 Al1 Al4 1_655 2_565 129.13(11)
Al4 Al1 Al4 . 2_565 101.4(2)
Cr2 Al1 Cr1 1_655 1_554 75.88(13)
Al4 Al1 Cr1 . 1_554 60.44(11)
Al4 Al1 Cr1 2_565 1_554 148.1(2)
Cr2 Al1 Cr1 1_655 2_564 75.88(13)
Al4 Al1 Cr1 . 2_564 148.1(2)
Al4 Al1 Cr1 2_565 2_564 60.44(11)
Cr1 Al1 Cr1 1_554 2_564 120.3(2)
Cr2 Al1 Cr2 1_655 . 146.5(2)
Al4 Al1 Cr2 . . 56.19(11)
Al4 Al1 Cr2 2_565 . 56.19(11)
Cr1 Al1 Cr2 1_554 . 116.29(13)
Cr1 Al1 Cr2 2_564 . 116.29(13)
Cr2 Al1 Al2 1_655 1_654 57.52(17)
Al4 Al1 Al2 . 1_654 112.66(15)
Al4 Al1 Al2 2_565 1_654 112.65(15)
Cr1 Al1 Al2 1_554 1_654 60.20(12)
Cr1 Al1 Al2 2_564 1_654 60.20(12)
Cr2 Al1 Al2 . 1_654 156.0(2)
Cr2 Al1 Al5 1_655 2_565 100.2(2)
Al4 Al1 Al5 . 2_565 100.83(18)
Al4 Al1 Al5 2_565 2_565 59.47(12)
Cr1 Al1 Al5 1_554 2_565 144.40(18)
Cr1 Al1 Al5 2_564 2_565 91.89(10)
Cr2 Al1 Al5 . 2_565 50.84(13)
Al2 Al1 Al5 1_654 2_565 146.48(16)
Cr2 Al1 Al5 1_655 . 100.2(2)
Al4 Al1 Al5 . . 59.47(12)
Al4 Al1 Al5 2_565 . 100.83(18)
Cr1 Al1 Al5 1_554 . 91.89(10)
Cr1 Al1 Al5 2_564 . 144.40(18)
Cr2 Al1 Al5 . . 50.84(13)
Al2 Al1 Al5 1_654 . 146.48(16)
Al5 Al1 Al5 2_565 . 53.45(17)
Cr2 Al1 Al3 1_655 2_665 54.72(12)
Al4 Al1 Al3 . 2_665 153.4(2)
Al4 Al1 Al3 2_565 2_665 77.94(11)
Cr1 Al1 Al3 1_554 2_665 130.5(2)
Cr1 Al1 Al3 2_564 2_665 54.08(10)
Cr2 Al1 Al3 . 2_665 105.18(15)
Al2 Al1 Al3 1_654 2_665 91.45(17)
Al5 Al1 Al3 2_565 2_665 55.51(13)
Al5 Al1 Al3 . 2_665 94.30(18)
Cr2 Al1 Al3 1_655 1_655 54.72(12)
Al4 Al1 Al3 . 1_655 77.94(11)
Al4 Al1 Al3 2_565 1_655 153.4(2)
Cr1 Al1 Al3 1_554 1_655 54.08(10)
Cr1 Al1 Al3 2_564 1_655 130.5(2)
Cr2 Al1 Al3 . 1_655 105.18(15)
Al2 Al1 Al3 1_654 1_655 91.45(17)
Al5 Al1 Al3 2_565 1_655 94.30(18)
Al5 Al1 Al3 . 1_655 55.51(13)
Al3 Al1 Al3 2_665 1_655 91.0(2)
Al5 Cr2 Al5 . 2_565 65.10(18)
Al5 Cr2 Al4 . . 67.40(13)
Al5 Cr2 Al4 2_565 . 118.54(17)
Al5 Cr2 Al4 . 2_565 118.54(17)
Al5 Cr2 Al4 2_565 2_565 67.40(13)
Al4 Cr2 Al4 . 2_565 106.5(2)
Al5 Cr2 Al1 . 1_455 136.77(15)
Al5 Cr2 Al1 2_565 1_455 136.77(15)
Al4 Cr2 Al1 . 1_455 104.58(13)
Al4 Cr2 Al1 2_565 1_455 104.58(13)
Al5 Cr2 Al3 . . 66.69(13)
Al5 Cr2 Al3 2_565 . 119.39(15)
Al4 Cr2 Al3 . . 70.93(11)
Al4 Cr2 Al3 2_565 . 173.21(17)
Al1 Cr2 Al3 1_455 . 70.59(12)
Al5 Cr2 Al3 . 2_565 119.39(15)
Al5 Cr2 Al3 2_565 2_565 66.69(13)
Al4 Cr2 Al3 . 2_565 173.21(17)
Al4 Cr2 Al3 2_565 2_565 70.92(11)
Al1 Cr2 Al3 1_455 2_565 70.59(12)
Al3 Cr2 Al3 . 2_565 110.9(2)
Al5 Cr2 Al2 . 1_554 133.53(15)
Al5 Cr2 Al2 2_565 1_554 133.53(15)
Al4 Cr2 Al2 . 1_554 67.12(12)
Al4 Cr2 Al2 2_565 1_554 67.12(12)
Al1 Cr2 Al2 1_455 1_554 65.38(17)
Al3 Cr2 Al2 . 1_554 106.21(13)
Al3 Cr2 Al2 2_565 1_554 106.21(12)
Al5 Cr2 Al2 . . 72.78(16)
Al5 Cr2 Al2 2_565 . 72.78(16)
Al4 Cr2 Al2 . . 125.27(10)
Al4 Cr2 Al2 2_565 . 125.27(10)
Al1 Cr2 Al2 1_455 . 80.38(19)
Al3 Cr2 Al2 . . 59.44(11)
Al3 Cr2 Al2 2_565 . 59.44(11)
Al2 Cr2 Al2 1_554 . 145.8(3)
Al5 Cr2 Al1 . . 68.08(16)
Al5 Cr2 Al1 2_565 . 68.08(16)
Al4 Cr2 Al1 . . 59.35(11)
Al4 Cr2 Al1 2_565 . 59.35(11)
Al1 Cr2 Al1 1_455 . 146.5(2)
Al3 Cr2 Al1 . . 122.06(10)
Al3 Cr2 Al1 2_565 . 122.06(10)
Al2 Cr2 Al1 1_554 . 81.1(2)
Al2 Cr2 Al1 . . 133.15(19)
Cr2 Al2 Al3 1_556 . 125.62(10)
Cr2 Al2 Al3 1_556 2_565 125.62(10)
Al3 Al2 Al3 . 2_565 107.6(2)
Cr2 Al2 Cr2 1_556 . 145.8(3)
Al3 Al2 Cr2 . . 57.50(10)
Al3 Al2 Cr2 2_565 . 57.50(10)
Cr2 Al2 Cr1 1_556 1_455 74.99(13)
Al3 Al2 Cr1 . 1_455 60.38(9)
Al3 Al2 Cr1 2_565 1_455 152.3(2)
Cr2 Al2 Cr1 . 1_455 117.84(11)
Cr2 Al2 Cr1 1_556 2_465 74.99(13)
Al3 Al2 Cr1 . 2_465 152.3(2)
Al3 Al2 Cr1 2_565 2_465 60.38(9)
Cr2 Al2 Cr1 . 2_465 117.84(11)
Cr1 Al2 Cr1 1_455 2_465 117.5(2)
Cr2 Al2 Al1 1_556 1_456 57.10(17)
Al3 Al2 Al1 . 1_456 113.55(14)
Al3 Al2 Al1 2_565 1_456 113.55(14)
Cr2 Al2 Al1 . 1_456 157.1(3)
Cr1 Al2 Al1 1_455 1_456 58.79(11)
Cr1 Al2 Al1 2_465 1_456 58.79(11)
Cr2 Al2 Al4 1_556 2_566 55.88(12)
Al3 Al2 Al4 . 2_566 150.1(2)
Al3 Al2 Al4 2_565 2_566 72.86(11)
Cr2 Al2 Al4 . 2_566 103.51(17)
Cr1 Al2 Al4 1_455 2_566 130.8(2)
Cr1 Al2 Al4 2_465 2_566 54.77(10)
Al1 Al2 Al4 1_456 2_566 92.21(16)
Cr2 Al2 Al4 1_556 1_556 55.88(12)
Al3 Al2 Al4 . 1_556 72.86(11)
Al3 Al2 Al4 2_565 1_556 150.1(2)
Cr2 Al2 Al4 . 1_556 103.51(17)
Cr1 Al2 Al4 1_455 1_556 54.77(10)
Cr1 Al2 Al4 2_465 1_556 130.8(2)
Al1 Al2 Al4 1_456 1_556 92.21(16)
Al4 Al2 Al4 2_566 1_556 92.1(2)
Cr2 Al2 Al5 1_556 1_455 114.0(2)
Al3 Al2 Al5 . 1_455 58.76(12)
Al3 Al2 Al5 2_565 1_455 101.71(18)
Cr2 Al2 Al5 . 1_455 96.44(18)
Cr1 Al2 Al5 1_455 1_455 50.56(11)
Cr1 Al2 Al5 2_465 1_455 97.43(19)
Al1 Al2 Al5 1_456 1_455 63.38(18)
Al4 Al2 Al5 2_566 1_455 151.1(2)
Al4 Al2 Al5 1_556 1_455 103.40(12)
Cr2 Al2 Al5 1_556 2_465 114.0(2)
Al3 Al2 Al5 . 2_465 101.71(18)
Al3 Al2 Al5 2_565 2_465 58.76(12)
Cr2 Al2 Al5 . 2_465 96.44(18)
Cr1 Al2 Al5 1_455 2_465 97.43(19)
Cr1 Al2 Al5 2_465 2_465 50.56(11)
Al1 Al2 Al5 1_456 2_465 63.38(18)
Al4 Al2 Al5 2_566 2_465 103.40(12)
Al4 Al2 Al5 1_556 2_465 151.1(2)
Al5 Al2 Al5 1_455 2_465 53.13(18)
Cr2 Al4 Cr1 . 1_454 78.87(14)
Cr2 Al4 Al1 . . 64.46(15)
Cr1 Al4 Al1 1_454 . 136.39(17)
Cr2 Al4 Cr1 . 1_554 125.33(17)
Cr1 Al4 Cr1 1_454 1_554 151.41(17)
Al1 Al4 Cr1 . 1_554 61.28(11)
Cr2 Al4 Al7 . 4_454 113.50(17)
Cr1 Al4 Al7 1_454 4_454 63.33(12)
Al1 Al4 Al7 . 4_454 152.67(18)
Cr1 Al4 Al7 1_554 4_454 111.30(15)
Cr2 Al4 Al7 . 1_554 137.10(18)
Cr1 Al4 Al7 1_454 1_554 117.76(18)
Al1 Al4 Al7 . 1_554 105.31(14)
Cr1 Al4 Al7 1_554 1_554 57.20(10)
Al7 Al4 Al7 4_454 1_554 56.10(9)
Cr2 Al4 Al5 . 1_554 110.56(17)
Cr1 Al4 Al5 1_454 1_554 107.18(16)
Al1 Al4 Al5 . 1_554 67.96(17)
Cr1 Al4 Al5 1_554 1_554 53.28(13)
Al7 Al4 Al5 4_454 1_554 131.25(17)
Al7 Al4 Al5 1_554 1_554 101.88(17)
Cr2 Al4 Al5 . . 54.64(13)
Cr1 Al4 Al5 1_454 . 111.79(18)
Al1 Al4 Al5 . . 65.55(16)
Cr1 Al4 Al5 1_554 . 95.93(16)
Al7 Al4 Al5 4_454 . 90.61(17)
Al7 Al4 Al5 1_554 . 82.78(15)
Al5 Al4 Al5 1_554 . 132.8(2)
Cr2 Al4 Al2 . 1_554 57.00(13)
Cr1 Al4 Al2 1_454 1_554 61.11(13)
Al1 Al4 Al2 . 1_554 78.84(17)
Cr1 Al4 Al2 1_554 1_554 116.13(19)
Al7 Al4 Al2 4_454 1_554 124.41(18)
Al7 Al4 Al2 1_554 1_554 165.8(2)
Al5 Al4 Al2 1_554 1_554 66.73(17)
Al5 Al4 Al2 . 1_554 111.02(18)
Cr2 Al4 Al6 . 1_554 167.55(18)
Cr1 Al4 Al6 1_454 1_554 97.20(15)
Al1 Al4 Al6 . 1_554 113.44(16)
Cr1 Al4 Al6 1_554 1_554 55.75(10)
Al7 Al4 Al6 4_454 1_554 74.30(14)
Al7 Al4 Al6 1_554 1_554 55.14(13)
Al5 Al4 Al6 1_554 1_554 59.02(12)
Al5 Al4 Al6 . 1_554 136.94(19)
Al2 Al4 Al6 1_554 1_554 110.72(16)
Cr2 Al4 Al3 . . 54.88(12)
Cr1 Al4 Al3 1_454 . 55.28(12)
Al1 Al4 Al3 . . 112.64(17)
Cr1 Al4 Al3 1_554 . 148.85(17)
Al7 Al4 Al3 4_454 . 58.63(13)
Al7 Al4 Al3 1_554 . 100.16(16)
Al5 Al4 Al3 1_554 . 156.84(19)
Al5 Al4 Al3 . . 57.35(14)
Al2 Al4 Al3 1_554 . 90.38(17)
Al6 Al4 Al3 1_554 . 132.06(19)
Cr2 Al3 Cr1 . 1_454 78.09(12)
Cr2 Al3 Al2 . . 63.06(14)
Cr1 Al3 Al2 1_454 . 131.01(16)
Cr2 Al3 Cr1 . 1_455 125.32(15)
Cr1 Al3 Cr1 1_454 1_455 145.25(18)
Al2 Al3 Cr1 . 1_455 62.30(11)
Cr2 Al3 Al5 . 1_455 105.24(15)
Cr1 Al3 Al5 1_454 1_455 99.00(15)
Al2 Al3 Al5 . 1_455 66.54(15)
Cr1 Al3 Al5 1_455 1_455 53.19(12)
Cr2 Al3 Al6 . 4_455 157.66(18)
Cr1 Al3 Al6 1_454 4_455 109.33(15)
Al2 Al3 Al6 . 4_455 118.01(14)
Cr1 Al3 Al6 1_455 4_455 59.94(11)
Al5 Al3 Al6 1_455 4_455 94.56(15)
Cr2 Al3 Al5 . . 54.60(13)
Cr1 Al3 Al5 1_454 . 111.56(17)
Al2 Al3 Al5 . . 69.54(16)
Cr1 Al3 Al5 1_455 . 103.18(15)
Al5 Al3 Al5 1_455 . 136.00(19)
Al6 Al3 Al5 4_455 . 103.72(16)
Cr2 Al3 Al7 . 4_454 110.15(17)
Cr1 Al3 Al7 1_454 4_454 61.92(12)
Al2 Al3 Al7 . 4_454 157.80(19)
Cr1 Al3 Al7 1_455 4_454 119.51(15)
Al5 Al3 Al7 1_455 4_454 133.98(17)
Al6 Al3 Al7 4_455 4_454 59.59(13)
Al5 Al3 Al7 . 4_454 89.19(16)
Cr2 Al3 Al7 . 1_454 134.37(17)
Cr1 Al3 Al7 1_454 1_454 56.42(11)
Al2 Al3 Al7 . 1_454 146.85(17)
Cr1 Al3 Al7 1_455 1_454 94.91(14)
Al5 Al3 Al7 1_455 1_454 80.61(14)
Al6 Al3 Al7 4_455 1_454 58.34(12)
Al5 Al3 Al7 . 1_454 142.75(18)
Al7 Al3 Al7 4_454 1_454 53.63(8)
Cr2 Al3 Al1 . 1_455 54.69(12)
Cr1 Al3 Al1 1_454 1_455 58.06(12)
Al2 Al3 Al1 . 1_455 74.92(14)
Cr1 Al3 Al1 1_455 1_455 111.29(16)
Al5 Al3 Al1 1_455 1_455 61.57(16)
Al6 Al3 Al1 4_455 1_455 147.27(18)
Al5 Al3 Al1 . 1_455 109.01(16)
Al7 Al3 Al1 4_454 1_455 119.87(16)
Al7 Al3 Al1 1_454 1_455 93.81(16)
Cr2 Al3 Al4 . . 54.20(12)
Cr1 Al3 Al4 1_454 . 54.62(12)
Al2 Al3 Al4 . . 113.30(17)
Cr1 Al3 Al4 1_455 . 158.64(17)
Al5 Al3 Al4 1_455 . 146.91(18)
Al6 Al3 Al4 4_455 . 112.03(17)
Al5 Al3 Al4 . . 57.78(13)
Al7 Al3 Al4 4_454 . 55.96(13)
Al7 Al3 Al4 1_454 . 96.45(16)
Al1 Al3 Al4 1_455 . 85.95(14)
Cr1 Al5 Cr2 . . 171.39(18)
Cr1 Al5 Al5 . 2_565 115.19(9)
Cr2 Al5 Al5 . 2_565 57.45(9)
Cr1 Al5 Al3 . 1_655 62.58(13)
Cr2 Al5 Al3 . 1_655 122.34(19)
Al5 Al5 Al3 2_565 1_655 106.88(10)
Cr1 Al5 Al4 . 1_556 62.24(13)
Cr2 Al5 Al4 . 1_556 113.8(2)
Al5 Al5 Al4 2_565 1_556 105.23(11)
Al3 Al5 Al4 1_655 1_556 123.76(18)
Cr1 Al5 Al3 . . 123.80(17)
Cr2 Al5 Al3 . . 58.71(14)
Al5 Al5 Al3 2_565 . 106.79(10)
Al3 Al5 Al3 1_655 . 136.00(19)
Al4 Al5 Al3 1_556 . 72.16(16)
Cr1 Al5 Al6 . . 59.63(11)
Cr2 Al5 Al6 . . 126.52(17)
Al5 Al5 Al6 2_565 . 167.87(12)
Al3 Al5 Al6 1_655 . 80.95(15)
Al4 Al5 Al6 1_556 . 62.68(14)
Al3 Al5 Al6 . . 71.44(14)
Cr1 Al5 Al4 . . 130.56(18)
Cr2 Al5 Al4 . . 57.96(13)
Al5 Al5 Al4 2_565 . 105.09(11)
Al3 Al5 Al4 1_655 . 79.60(16)
Al4 Al5 Al4 1_556 . 132.8(2)
Al3 Al5 Al4 . . 64.86(14)
Al6 Al5 Al4 . . 85.21(15)
Cr1 Al5 Al1 . . 121.2(2)
Cr2 Al5 Al1 . . 61.08(15)
Al5 Al5 Al1 2_565 . 63.27(8)
Al3 Al5 Al1 1_655 . 62.91(15)
Al4 Al5 Al1 1_556 . 168.50(18)
Al3 Al5 Al1 . . 110.15(19)
Al6 Al5 Al1 . . 128.82(17)
Al4 Al5 Al1 . . 54.98(14)
Cr1 Al5 Al2 . 1_655 60.70(12)
Cr2 Al5 Al2 . 1_655 115.24(16)
Al5 Al5 Al2 2_565 1_655 63.43(9)
Al3 Al5 Al2 1_655 1_655 54.70(14)
Al4 Al5 Al2 1_556 1_655 104.59(18)
Al3 Al5 Al2 . 1_655 168.98(19)
Al6 Al5 Al2 . 1_655 116.93(16)
Al4 Al5 Al2 . 1_655 121.2(2)
Al1 Al5 Al2 . 1_655 70.93(17)
Al7 Al6 Cr1 . . 59.92(12)
Al7 Al6 Al6 . 4_455 97.34(13)
Cr1 Al6 Al6 . 4_455 136.96(18)
Al7 Al6 Al6 . 4 80.56(13)
Cr1 Al6 Al6 . 4 63.02(12)
Al6 Al6 Al6 4_455 4 155.0(3)
Al7 Al6 Cr1 . 4_455 62.68(13)
Cr1 Al6 Cr1 . 4_455 121.88(17)
Al6 Al6 Cr1 4_455 4_455 58.35(14)
Al6 Al6 Cr1 4 4_455 99.80(19)
Al7 Al6 Al7 . 4_454 157.7(2)
Cr1 Al6 Al7 . 4_454 140.64(18)
Al6 Al6 Al7 4_455 4_454 61.74(11)
Al6 Al6 Al7 4 4_454 114.75(13)
Cr1 Al6 Al7 4_455 4_454 97.46(15)
Al7 Al6 Al7 . 1_554 142.0(2)
Cr1 Al6 Al7 . 1_554 100.29(16)
Al6 Al6 Al7 4_455 1_554 116.29(12)
Al6 Al6 Al7 4 1_554 61.50(12)
Cr1 Al6 Al7 4_455 1_554 119.89(15)
Al7 Al6 Al7 4_454 1_554 55.37(10)
Al7 Al6 Al3 . 4 109.57(18)
Cr1 Al6 Al3 . 4 136.57(17)
Al6 Al6 Al3 4_455 4 83.61(18)
Al6 Al6 Al3 4 4 73.86(18)
Cr1 Al6 Al3 4_455 4 59.16(13)
Al7 Al6 Al3 4_454 4 63.06(13)
Al7 Al6 Al3 1_554 4 60.76(12)
Al7 Al6 Al5 . . 104.89(15)
Cr1 Al6 Al5 . . 53.91(11)
Al6 Al6 Al5 4_455 . 107.3(2)
Al6 Al6 Al5 4 . 97.3(2)
Cr1 Al6 Al5 4_455 . 156.61(19)
Al7 Al6 Al5 4_454 . 89.76(16)
Al7 Al6 Al5 1_554 . 82.42(16)
Al3 Al6 Al5 4 . 142.13(18)
Al7 Al6 Al4 . 1_556 59.71(13)
Cr1 Al6 Al4 . 1_556 58.72(13)
Al6 Al6 Al4 4_455 1_556 78.34(14)
Al6 Al6 Al4 4 1_556 120.11(16)
Cr1 Al6 Al4 4_455 1_556 99.03(15)
Al7 Al6 Al4 4_454 1_556 118.28(17)
Al7 Al6 Al4 1_554 1_556 140.71(17)
Al3 Al6 Al4 4 1_556 157.15(18)
Al5 Al6 Al4 . 1_556 58.30(13)
Al7 Al7 Al7 4_455 4 174.1(3)
Al7 Al7 Al6 4_455 . 81.67(12)
Al7 Al7 Al6 4 . 98.83(12)
Al7 Al7 Cr1 4_455 . 119.74(17)
Al7 Al7 Cr1 4 . 65.06(13)
Al6 Al7 Cr1 . . 60.25(12)
Al7 Al7 Al4 4_455 4_556 111.92(19)
Al7 Al7 Al4 4 4_556 62.50(16)
Al6 Al7 Al4 . 4_556 81.79(16)
Cr1 Al7 Al4 . 4_556 106.91(15)
Al7 Al7 Al4 4_455 1_556 61.40(14)
Al7 Al7 Al4 4 1_556 124.2(2)
Al6 Al7 Al4 . 1_556 65.15(14)
Cr1 Al7 Al4 . 1_556 60.70(13)
Al4 Al7 Al4 4_556 1_556 146.7(2)
Al7 Al7 Al6 4_455 4_556 116.73(12)
Al7 Al7 Al6 4 4_556 62.43(12)
Al6 Al7 Al6 . 4_556 161.1(2)
Cr1 Al7 Al6 . 4_556 109.43(16)
Al4 Al7 Al6 4_556 4_556 87.00(15)
Al4 Al7 Al6 1_556 4_556 125.86(18)
Al7 Al7 Al6 4_455 1_556 62.19(12)
Al7 Al7 Al6 4 1_556 118.33(12)
Al6 Al7 Al6 . 1_556 142.0(2)
Cr1 Al7 Al6 . 1_556 127.48(16)
Al4 Al7 Al6 4_556 1_556 120.85(16)
Al4 Al7 Al6 1_556 1_556 86.33(16)
Al6 Al7 Al6 4_556 1_556 56.76(11)
Al7 Al7 Cr1 4_455 4_455 58.21(12)
Al7 Al7 Cr1 4 4_455 116.89(18)
Al6 Al7 Cr1 . 4_455 61.01(13)
Cr1 Al7 Cr1 . 4_455 120.55(16)
Al4 Al7 Cr1 4_556 4_455 56.03(11)
Al4 Al7 Cr1 1_556 4_455 101.43(14)
Al6 Al7 Cr1 4_556 4_455 123.63(16)
Al6 Al7 Cr1 1_556 4_455 104.35(14)
Al7 Al7 Al3 4_455 4_556 65.02(15)
Al7 Al7 Al3 4 4_556 109.8(2)
Al6 Al7 Al3 . 4_556 116.62(18)
Cr1 Al7 Al3 . 4_556 172.32(17)
Al4 Al7 Al3 4_556 4_556 65.41(12)
Al4 Al7 Al3 1_556 4_556 125.43(18)
Al6 Al7 Al3 4_556 4_556 71.38(15)
Al6 Al7 Al3 1_556 4_556 59.65(13)
Cr1 Al7 Al3 4_455 4_556 55.63(11)
Al7 Al7 Al3 4_455 1_656 123.73(19)
Al7 Al7 Al3 4 1_656 61.35(15)
Al6 Al7 Al3 . 1_656 116.01(16)
Cr1 Al7 Al3 . 1_656 56.26(11)
Al4 Al7 Al3 4_556 1_656 122.91(17)
Al4 Al7 Al3 1_556 1_656 78.04(15)
Al6 Al7 Al3 4_556 1_656 58.60(13)
Al6 Al7 Al3 1_556 1_656 78.95(15)
Cr1 Al7 Al3 4_455 1_656 176.65(17)
Al3 Al7 Al3 4_556 1_656 127.4(2)
loop_
_geom_bond_atom_site_label_1
_geom_bond_atom_site_label_2
_geom_bond_site_symmetry_2
_geom_bond_distance
Cr1 Al5 . 2.467(5)
Cr1 Al4 1_656 2.599(5)
Cr1 Al3 1_656 2.620(4)
Cr1 Al7 . 2.625(4)
Cr1 Al6 . 2.634(4)
Cr1 Al4 1_556 2.723(5)
Cr1 Al3 1_655 2.735(4)
Cr1 Al1 1_556 2.745(3)
Cr1 Al6 4 2.757(4)
Cr1 Al2 1_655 2.786(3)
Cr1 Al7 4 2.800(4)
Al1 Cr2 1_655 2.593(6)
Al1 Al4 . 2.663(5)
Al1 Al4 2_565 2.663(5)
Al1 Cr1 1_554 2.745(3)
Al1 Cr1 2_564 2.745(3)
Al1 Cr2 . 2.793(6)
Al1 Al2 1_654 2.808(7)
Al1 Al5 2_565 2.960(7)
Al1 Al5 . 2.960(7)
Al1 Al3 2_665 2.997(5)
Al1 Al3 1_655 2.997(5)
Cr2 Al5 . 2.474(5)
Cr2 Al5 2_565 2.474(5)
Cr2 Al4 . 2.572(4)
Cr2 Al4 2_565 2.572(4)
Cr2 Al1 1_455 2.593(6)
Cr2 Al3 . 2.594(4)
Cr2 Al3 2_565 2.594(4)
Cr2 Al2 1_554 2.606(6)
Cr2 Al2 . 2.742(6)
Al2 Cr2 1_556 2.606(6)
Al2 Al3 . 2.648(4)
Al2 Al3 2_565 2.648(4)
Al2 Cr1 1_455 2.786(3)
Al2 Cr1 2_465 2.786(3)
Al2 Al1 1_456 2.808(7)
Al2 Al4 2_566 2.862(6)
Al2 Al4 1_556 2.862(6)
Al2 Al5 1_455 2.977(7)
Al2 Al5 2_465 2.977(7)
Al4 Cr1 1_454 2.599(5)
Al4 Cr1 1_554 2.723(5)
Al4 Al7 4_454 2.731(5)
Al4 Al7 1_554 2.759(6)
Al4 Al5 1_554 2.777(6)
Al4 Al5 . 2.801(5)
Al4 Al2 1_554 2.862(6)
Al4 Al6 1_554 2.900(5)
Al4 Al3 . 2.997(5)
Al3 Cr1 1_454 2.620(4)
Al3 Cr1 1_455 2.735(4)
Al3 Al5 1_455 2.775(6)
Al3 Al6 4_455 2.783(5)
Al3 Al5 . 2.788(6)
Al3 Al7 4_454 2.814(5)
Al3 Al7 1_454 2.907(5)
Al3 Al1 1_455 2.997(5)
Al5 Al5 2_565 2.663(7)
Al5 Al3 1_655 2.775(6)
Al5 Al4 1_556 2.777(6)
Al5 Al6 . 2.799(5)
Al5 Al2 1_655 2.977(7)
Al6 Al7 . 2.622(5)
Al6 Al6 4_455 2.6413(17)
Al6 Al6 4 2.6413(17)
Al6 Cr1 4_455 2.757(4)
Al6 Al7 4_454 2.776(5)
Al6 Al7 1_554 2.782(5)
Al6 Al3 4 2.783(5)
Al6 Al4 1_556 2.900(5)
Al7 Al7 4_455 2.5821(5)
Al7 Al7 4 2.5821(5)
Al7 Al4 4_556 2.731(5)
Al7 Al4 1_556 2.759(6)
Al7 Al6 4_556 2.776(5)
Al7 Al6 1_556 2.782(5)
Al7 Cr1 4_455 2.800(4)
Al7 Al3 4_556 2.814(5)
Al7 Al3 1_656 2.907(5)

_cod_database_fobs_code 1548892
