#------------------------------------------------------------------------------
#$Date: 2018-01-26 11:07:28 +0200 (Fri, 26 Jan 2018) $
#$Revision: 205738 $
#$URL: file:///home/coder/svn-repositories/cod/cif/1/54/87/1548793.cif $
#------------------------------------------------------------------------------
#
# This file is available in the Crystallography Open Database (COD),
# http://www.crystallography.net/. The original data for this entry
# were provided by IUCr Journals, http://journals.iucr.org/.
#
# The file may be used within the scientific community so long as
# proper attribution is given to the journal article from which the
# data were obtained.
#
data_1548793
loop_
_publ_author_name
'Atalay, \,Sehriman'
'Ger\,ceker, Semra'
'Meral, Seher'
'B\"ulb\"ul, Hakan'
_publ_section_title
;
 2-{(<i>E</i>)-[(3-Chloro-4-methylphenyl)imino]methyl}-4-(trifluoromethoxy)phenol
;
_journal_issue                   12
_journal_name_full               IUCrData
_journal_page_first              x171725
_journal_paper_doi               10.1107/S2414314617017254
_journal_volume                  2
_journal_year                    2017
_chemical_formula_iupac          'C15 H11 Cl F3 N O2'
_chemical_formula_moiety         'C15 H11 Cl F3 N O2'
_chemical_formula_sum            'C15 H11 Cl F3 N O2'
_chemical_formula_weight         329.70
_chemical_name_common
2-{(E)-[(3-chloro-4-methylphenyl)imino]methyl}-4-(trifluoromethoxy)phenol
_chemical_name_systematic
2-{(<i>E</i>)-[(3-Chloro-4-methylphenyl)imino]methyl}-4-(trifluoromethoxy)phenol
_space_group_crystal_system      triclinic
_space_group_IT_number           2
_space_group_name_Hall           '-P 1'
_space_group_name_H-M_alt        'P -1'
_symmetry_space_group_name_Hall  '-P 1'
_symmetry_space_group_name_H-M   'P -1'
_atom_sites_solution_hydrogens   geom
_atom_sites_solution_primary     direct
_audit_creation_method           SHELXL-2016/6
_cell_angle_alpha                86.984(8)
_cell_angle_beta                 86.173(7)
_cell_angle_gamma                78.096(8)
_cell_formula_units_Z            2
_cell_length_a                   4.5971(4)
_cell_length_b                   6.4372(7)
_cell_length_c                   25.237(2)
_cell_measurement_reflns_used    4834
_cell_measurement_temperature    293(2)
_cell_measurement_theta_max      27.42
_cell_measurement_theta_min      1.62
_cell_volume                     728.56(12)
_computing_cell_refinement
;
X-AREA (Stoe & Cie, 2002)
;
_computing_data_collection
;
X-AREA (Stoe & Cie, 2002)
;
_computing_data_reduction
;
X-RED32 (Stoe & Cie, 2002)
;
_computing_molecular_graphics
;
ORTEP-3 for Windows (Farrugia, 2012)
;
_computing_publication_material
;
WinGX (Farrugia, 2012)
;
_computing_structure_refinement
;
SHELXL2016 (Sheldrick, 2015b)
;
_computing_structure_solution
;
SHELXT (Sheldrick, 2015a)
;
_diffrn_ambient_temperature      293(2)
_diffrn_detector_area_resol_mean 6.67
_diffrn_measured_fraction_theta_full 1.000
_diffrn_measured_fraction_theta_max 1.000
_diffrn_measurement_device_type  'Stoe IPDS 2'
_diffrn_measurement_method       'rotation method'
_diffrn_radiation_type           MoK\a
_diffrn_radiation_wavelength     0.71073
_diffrn_reflns_av_R_equivalents  0.0498
_diffrn_reflns_limit_h_max       5
_diffrn_reflns_limit_h_min       -5
_diffrn_reflns_limit_k_max       7
_diffrn_reflns_limit_k_min       -7
_diffrn_reflns_limit_l_max       29
_diffrn_reflns_limit_l_min       -29
_diffrn_reflns_number            6174
_diffrn_reflns_theta_full        24.999
_diffrn_reflns_theta_max         24.999
_diffrn_reflns_theta_min         1.619
_exptl_absorpt_coefficient_mu    0.301
_exptl_absorpt_correction_T_max  0.9864
_exptl_absorpt_correction_T_min  0.9066
_exptl_absorpt_correction_type   integration
_exptl_absorpt_process_details
;
(X-AREA; Stoe & Cie, 2002)
;
_exptl_crystal_colour            'light yellow'
_exptl_crystal_density_diffrn    1.503
_exptl_crystal_description       plate
_exptl_crystal_F_000             336
_exptl_crystal_size_max          0.420
_exptl_crystal_size_mid          0.237
_exptl_crystal_size_min          0.050
_refine_diff_density_max         0.440
_refine_diff_density_min         -0.286
_refine_ls_extinction_method     none
_refine_ls_goodness_of_fit_ref   0.886
_refine_ls_hydrogen_treatment    constr
_refine_ls_matrix_type           full
_refine_ls_number_parameters     228
_refine_ls_number_reflns         2581
_refine_ls_number_restraints     96
_refine_ls_restrained_S_all      0.945
_refine_ls_R_factor_all          0.1316
_refine_ls_R_factor_gt           0.0605
_refine_ls_shift/su_max          0.000
_refine_ls_shift/su_mean         0.000
_refine_ls_structure_factor_coef Fsqd
_refine_ls_weighting_details
'w=1/[\s^2^(Fo^2^)+(0.0980P)^2^] where P=(Fo^2^+2Fc^2^)/3'
_refine_ls_weighting_scheme      calc
_refine_ls_wR_factor_gt          0.1534
_refine_ls_wR_factor_ref         0.1811
_reflns_number_gt                1173
_reflns_number_total             2581
_reflns_threshold_expression     'I > 2\s(I)'
_cod_data_source_file            hb4186sup1.cif
_cod_data_source_block           I
_cod_original_cell_volume        728.57(12)
_cod_database_code               1548793
_shelx_space_group_comment
;
The symmetry employed for this shelxl refinement is uniquely defined
by the following loop, which should always be used as a source of
symmetry information in preference to the above space-group names.
They are only intended as comments.
;
_shelx_hkl_file
;
  -1   0   0 3085.05   24.88   0
  -1   0   0 3295.59   24.01   0
   1   0   0 3036.75   23.56   0
   1   0   0 3269.49   23.64   0
  -2   0   0   24.44    4.51   0
  -2   0   0   25.44    3.09   0
   2   0   0   27.17    4.19   0
   2   0   0   29.55    4.17   0
   3   0   0   89.16    4.92   0
  -3   0   0   81.41    5.06   0
  -3   0   0   86.90    4.99   0
   4   0   0    4.44    4.16   0
  -4   0   0    2.42    4.42   0
  -4   0   0    3.04    4.13   0
   5   0   0    0.28    4.76   0
  -5   0   0   -0.25    4.93   0
  -5   0   0    0.96    4.96   0
   5  -1   0    1.83    3.39   0
   5  -1   0   -0.98    3.47   0
   4  -1   0    3.60    4.15   0
   3  -1   0   24.87    3.92   0
   3  -1   0   23.45    3.87   0
   2  -1   0   25.00    4.43   0
   2  -1   0   24.59    4.52   0
   1  -1   0    8.95    4.59   0
   1  -1   0    7.19    4.72   0
   1  -1   0   10.82    4.95   0
   0   1   0 2556.49   21.87   0
   0  -1   0 2400.45   20.57   0
   1   1   0  332.84    7.47   0
  -1  -1   0  358.93    7.47   0
  -2  -1   0  120.29    4.22   0
   2   1   0  116.82    4.08   0
  -2  -1   0  120.12    4.30   0
  -3  -1   0    6.32    2.77   0
  -3  -1   0    7.90    2.86   0
   3   1   0    9.32    3.98   0
  -4  -1   0    3.59    3.98   0
   4   1   0    1.47    4.08   0
  -4  -1   0    3.77    3.05   0
  -5  -1   0    2.71    4.78   0
  -5  -1   0   -1.12    4.77   0
   5   1   0   -0.47    4.69   0
   5  -2   0    2.28    3.63   0
   5  -2   0    2.66    5.24   0
   4  -2   0    4.51    4.55   0
   4  -2   0    2.37    3.35   0
   4  -2   0    2.62    4.32   0
   3  -2   0    5.61    3.93   0
   3  -2   0    4.75    3.97   0
   3  -2   0    5.87    4.00   0
   2  -2   0   17.13    4.21   0
   2  -2   0   20.40    3.99   0
   2  -2   0   16.71    4.00   0
   1  -2   0  380.61    6.57   0
  -1   2   0  391.29    7.49   0
   0   2   0  606.72    8.31   0
   0  -2   0  595.80    8.20   0
  -1  -2   0   91.58    4.34   0
   1   2   0  102.95    5.71   0
   2   2   0   77.83    4.79   0
  -2  -2   0   77.44    4.58   0
  -3  -2   0    2.57    3.74   0
   3   2   0    1.38    3.08   0
  -3  -2   0   -0.04    3.76   0
  -4  -2   0   13.86    4.21   0
  -4  -2   0   13.12    4.24   0
   4   2   0   15.10    4.33   0
  -5  -2   0    2.71    3.30   0
  -5  -2   0    4.95    4.83   0
   5   2   0    6.20    4.68   0
   4  -3   0    3.92    4.58   0
   4  -3   0    3.81    4.63   0
   4  -3   0    1.91    5.03   0
   3  -3   0    1.98    4.09   0
   3  -3   0    4.84    3.13   0
   3  -3   0    5.00    4.46   0
   2  -3   0    4.97    4.05   0
   2  -3   0    6.05    3.97   0
   2  -3   0    6.66    3.76   0
   1  -3   0   35.93    3.11   0
  -1   3   0   32.25    3.88   0
   0  -3   0    7.83    4.11   0
   0   3   0    6.42    3.91   0
  -1  -3   0   68.44    3.71   0
   1   3   0   84.28    4.93   0
   2   3   0   20.99    4.39   0
  -2  -3   0   17.46    3.13   0
  -3  -3   0    5.16    3.75   0
   3   3   0    2.60    3.77   0
  -4  -3   0   -1.45    3.04   0
   4   3   0    4.72    4.27   0
  -4  -3   0    6.96    2.92   0
  -5  -3   0    8.78    4.72   0
  -5  -3   0    7.35    4.67   0
   5   3   0    8.67    3.58   0
   4  -4   0    3.16    4.85   0
   4  -4   0    1.51    5.04   0
   4  -4   0    0.42    5.19   0
   3  -4   0    9.67    4.99   0
   3  -4   0   10.30    3.41   0
   3  -4   0    8.69    4.70   0
   2  -4   0    0.20    4.03   0
   1  -4   0    6.01    4.41   0
  -1   4   0    7.08    3.82   0
   0   4   0    3.87    3.84   0
   0  -4   0   -1.05    2.92   0
   1   4   0    4.33    4.21   0
  -1  -4   0    6.88    4.30   0
  -2  -4   0   32.25    4.14   0
   2   4   0   36.48    4.48   0
   3   4   0   13.29    4.49   0
  -3  -4   0   11.70    3.02   0
  -4  -4   0   -0.82    4.20   0
   4   4   0    0.78    4.48   0
   5   4   0    6.81    4.75   0
  -5  -4   0    4.74    4.80   0
  -5  -4   0    3.81    3.48   0
   3  -5   0    0.84    3.40   0
   3  -5   0    2.93    3.64   0
   3  -5   0   -0.80    3.26   0
   2  -5   0    2.68    3.20   0
  -2   5   0    5.49    4.35   0
  -1   5   0    0.63    4.08   0
   1  -5   0   -1.00    4.25   0
   0  -5   0    3.36    2.82   0
   0   5   0    0.86    2.66   0
   1   5   0   72.87    3.63   0
  -1  -5   0   75.56    3.65   0
   2   5   0  108.22    5.21   0
  -2  -5   0  118.34    3.99   0
   3   5   0    6.23    3.13   0
  -3  -5   0    5.69    2.97   0
  -4  -5   0   -0.22    3.07   0
   4   5   0   -1.69    4.56   0
  -5  -5   0    1.80    3.69   0
  -5  -5   0   -0.57    5.01   0
   5   5   0    0.64    5.13   0
   3  -6   0    1.70    4.10   0
   3  -6   0   -1.20    5.75   0
   3  -6   0    3.84    5.46   0
   2  -6   0    6.17    4.80   0
  -2   6   0    8.54    4.90   0
  -1   6   0   12.32    4.30   0
   1  -6   0   17.04    4.38   0
   0  -6   0   -0.42    4.25   0
   0   6   0   -2.26    4.08   0
  -1  -6   0   23.53    3.12   0
   1   6   0   16.73    4.30   0
  -2  -6   0   52.81    4.74   0
   2   6   0   45.81    3.65   0
   3   6   0    3.83    4.51   0
  -3  -6   0    5.81    4.54   0
  -4  -6   0    5.43    4.92   0
   4   6   0    0.49    4.86   0
  -2   7   0   -2.70    4.02   0
   2  -7   0    2.24    3.93   0
  -1   7   0    0.80    3.36   0
   1  -7   0   -0.22    3.43   0
   0  -7   0    3.32    3.33   0
   0   7   0    2.96    3.22   0
   1   7   0    2.19    3.35   0
  -1  -7   0    5.79    4.72   0
   2   7   0    5.65    3.30   0
  -2  -7   0    4.30    3.29   0
   3   7   0    3.06    3.49   0
  -3  -7   0    0.25    3.39   0
   4   7   0    3.88    3.61   0
  -4  -7   0    5.55    5.32   0
   0  -8   0    4.00    5.28   0
   0   8   0    3.88    5.33   0
   1   8   0    1.29    3.69   0
  -1  -8   0    2.67    3.51   0
   2   8   0    4.57    3.59   0
  -2  -8   0    4.10    3.69   0
  -2  -8   1   -3.04    3.71   0
   2   8  -1   -0.72    5.21   0
   1   8  -1    5.04    3.49   0
  -1  -8   1    5.54    3.78   0
   0  -8   1    6.92    5.21   0
   0   8  -1   -2.61    3.87   0
   4   7  -1   -1.93    3.66   0
  -4  -7   1   -2.61    3.65   0
  -3  -7   1   -2.45    4.66   0
   3   7  -1    1.10    4.85   0
   2   7  -1    6.58    3.36   0
  -2  -7   1    2.14    3.37   0
   1   7  -1    5.27    4.52   0
  -1  -7   1    6.28    4.43   0
   0   7  -1   -0.66    4.48   0
   0  -7   1    0.88    3.40   0
   1  -7   1    2.53    3.49   0
  -1   7  -1   -0.03    4.59   0
  -2   7  -1    1.82    3.73   0
  -4  -6   1    1.22    3.30   0
   4   6  -1   -1.53    3.22   0
   3   6  -1   -1.24    4.40   0
  -3  -6   1   -0.80    3.18   0
  -2  -6   1    4.03    4.41   0
   2   6  -1    4.80    4.42   0
  -1  -6   1   10.87    4.33   0
   1   6  -1    5.17    4.21   0
   0   6  -1    4.15    3.98   0
   0  -6   1    6.19    4.24   0
   1  -6   1    6.65    4.57   0
  -1   6  -1    7.79    4.36   0
   2  -6   1    6.41    4.88   0
  -2   6  -1    1.01    4.80   0
   3  -6   1   -3.03    4.13   0
   3  -6   1    3.87    5.61   0
   3  -6   1    3.62    5.21   0
  -5  -5   1    1.72    5.00   0
   5   5  -1   -2.95    4.88   0
  -5  -5   1    2.52    5.25   0
   4   5  -1    2.45    4.63   0
  -4  -5   1   -1.63    3.31   0
   3   5  -1    0.10    4.39   0
  -3  -5   1    7.15    4.21   0
  -2  -5   1    2.18    3.07   0
   2   5  -1    0.56    3.18   0
   1   5  -1   13.55    3.09   0
  -1  -5   1   17.58    4.44   0
   0   5  -1   22.46    3.17   0
   0  -5   1   28.74    3.32   0
  -1   5  -1    3.75    3.94   0
   1  -5   1    1.14    4.17   0
   2  -5   1    1.53    4.23   0
  -2   5  -1   -0.27    2.87   0
   3  -5   1    2.17    3.29   0
   3  -5   1    0.23    3.55   0
   3  -5   1    1.24    5.18   0
  -5  -4   1    6.82    5.21   0
   5   4  -1   11.74    3.74   0
  -5  -4   1   12.48    4.99   0
  -4  -4   1    6.44    4.21   0
   4   4  -1    6.35    4.35   0
   3   4  -1   -0.87    3.05   0
  -3  -4   1    2.17    2.75   0
   2   4  -1   17.88    3.24   0
  -2  -4   1   22.67    4.22   0
  -1  -4   1    0.34    3.09   0
   1   4  -1    8.38    4.09   0
   0  -4   1   77.98    4.67   0
   0   4  -1   78.14    3.69   0
  -1   4  -1   41.60    4.06   0
   1  -4   1   41.36    3.11   0
   2  -4   1    7.24    3.03   0
   3  -4   1   -2.22    3.46   0
   3  -4   1    2.05    3.04   0
   3  -4   1   -1.88    4.77   0
   4  -4   1   -2.10    5.12   0
   4  -4   1   -2.33    5.03   0
   4  -4   1   -3.18    5.07   0
  -5  -3   1   11.38    3.27   0
  -5  -3   1   18.73    5.06   0
   5   3  -1   15.78    4.78   0
  -4  -3   1    5.59    4.16   0
   4   3  -1    3.15    3.05   0
  -4  -3   1    1.75    2.91   0
  -3  -3   1   51.66    4.05   0
   3   3  -1   46.81    3.31   0
   2   3  -1  205.35    4.67   0
  -2  -3   1  220.98    5.72   0
   1   3  -1  230.50    5.84   0
  -1  -3   1  203.58    4.79   0
   0  -3   1   50.36    4.36   0
   0   3  -1   43.81    3.19   0
   1  -3   1  104.49    4.53   0
  -1   3  -1  103.53    4.51   0
   2  -3   1    1.38    2.91   0
   2  -3   1    2.48    4.07   0
   3  -3   1    5.68    4.19   0
   3  -3   1    3.99    4.37   0
   3  -3   1    5.03    4.20   0
   4  -3   1    3.57    4.72   0
   4  -3   1    5.64    4.78   0
   4  -3   1    2.32    4.76   0
  -5  -2   1   -1.41    5.03   0
  -5  -2   1    3.47    4.82   0
   5   2  -1   -2.10    5.02   0
   4   2  -1    7.34    3.05   0
  -4  -2   1    6.77    4.16   0
  -4  -2   1    4.39    2.94   0
  -3  -2   1   19.21    3.93   0
  -3  -2   1   20.33    3.84   0
   3   2  -1   20.86    2.93   0
   2   2  -1   40.52    3.32   0
  -2  -2   1   43.79    3.22   0
  -1  -2   1    6.99    3.50   0
   1   2  -1    7.24    4.80   0
   0   2  -1  693.97    9.28   0
   0  -2   1  665.75    9.29   0
  -1   2  -1 1887.51   13.73   0
   1  -2   1 1825.81   12.92   0
   2  -2   1   96.37    5.28   0
   2  -2   1  103.08    3.94   0
   2  -2   1   92.29    4.57   0
   3  -2   1    6.29    4.14   0
   3  -2   1    6.92    3.93   0
   3  -2   1    8.79    4.03   0
   4  -2   1    8.66    4.44   0
   4  -2   1    5.61    4.68   0
   4  -2   1    7.77    4.86   0
   5  -2   1    1.24    5.02   0
   5  -2   1   -0.98    4.84   0
   5   1  -1    5.49    4.87   0
  -5  -1   1    3.83    5.14   0
  -5  -1   1    7.55    4.97   0
   4   1  -1    4.35    4.13   0
  -4  -1   1    0.25    4.07   0
  -4  -1   1    2.17    4.23   0
   3   1  -1    2.42    2.69   0
  -3  -1   1    3.12    2.71   0
  -3  -1   1    3.21    2.74   0
   2   1  -1  294.55    6.33   0
  -2  -1   1  288.00    6.31   0
  -2  -1   1  300.86    6.41   0
   1   1  -1   69.22    6.32   0
  -1  -1   1   67.96    4.81   0
   0  -1   1  370.98    9.57   0
   0   1  -1  355.26    8.35   0
   1  -1   1   65.60    4.25   0
   1  -1   1   70.23    4.64   0
   2  -1   1  342.96    7.77   0
   2  -1   1  349.84    6.78   0
   3  -1   1    8.99    4.02   0
  -3   1  -1    9.24    3.14   0
   3  -1   1   12.51    3.72   0
   4  -1   1   41.62    4.54   0
   5  -1   1    2.80    4.89   0
   5  -1   1    0.03    5.06   0
  -5   0   1    2.48    4.79   0
   5   0  -1   -0.21    4.77   0
  -5   0   1    1.27    3.75   0
   4   0  -1   -0.90    4.25   0
  -4   0   1   -1.73    4.25   0
  -4   0   1    4.15    4.31   0
  -3   0   1  168.73    5.55   0
  -3   0   1  149.78    5.54   0
   3   0  -1  170.54    5.44   0
  -2   0   1  722.57    9.63   0
  -2   0   1  729.19    9.41   0
   2   0  -1  778.58    9.77   0
   2   0  -1  743.16    9.40   0
  -1   0   1   25.26    5.88   0
  -1   0   1   25.31    5.80   0
   1   0  -1   15.36    5.66   0
   1   0  -1   16.06    4.26   0
   1   0   1  573.06   10.69   0
   1   0   1  538.07   12.05   0
  -1   0  -1  555.41    9.69   0
  -1   0  -1  552.96   12.32   0
  -2   0  -1    1.17    3.97   0
   2   0   1    1.65    3.67   0
  -2   0  -1   -0.63    3.73   0
  -3   0  -1  480.00    7.69   0
   3   0   1  467.56    6.50   0
  -3   0  -1  461.28    8.08   0
  -4   0  -1    6.99    4.29   0
   4   0   1    8.34    4.11   0
  -4   0  -1    7.47    4.36   0
   5   0   1    0.25    4.70   0
  -5   0  -1    0.66    5.00   0
  -5   0  -1    6.88    4.92   0
   5  -1  -1    2.34    4.99   0
   5  -1  -1    3.17    4.63   0
   4  -1  -1    4.82    4.37   0
   4  -1  -1    9.11    3.12   0
   3  -1  -1   37.05    4.09   0
   3  -1  -1   35.72    4.24   0
   2  -1  -1    1.76    3.76   0
   2  -1  -1    3.24    4.09   0
   1  -1  -1  534.92   10.59   0
   1  -1  -1  519.45    9.38   0
   1  -1  -1  496.22    9.80   0
   0   1   1   20.30    6.65   0
   0  -1  -1   22.36    6.72   0
   1   1   1  364.44    7.53   0
  -1  -1  -1  364.24    7.34   0
   2   1   1  156.60    5.39   0
  -2  -1  -1  159.88    4.54   0
   3   1   1  112.02    4.67   0
  -3  -1  -1   97.24    4.70   0
  -3  -1  -1  101.74    4.01   0
  -4  -1  -1   15.65    4.12   0
  -4  -1  -1   17.10    4.31   0
   4   1   1   17.03    4.24   0
   5   1   1    4.43    5.00   0
  -5  -1  -1    0.80    3.49   0
  -5  -1  -1   -1.43    5.13   0
   5  -2  -1    5.99    5.01   0
   5  -2  -1    2.65    5.03   0
   4  -2  -1    0.45    4.57   0
   4  -2  -1    4.03    4.38   0
   4  -2  -1    3.09    3.31   0
   3  -2  -1    4.07    3.92   0
   3  -2  -1    3.67    3.89   0
   3  -2  -1    3.40    4.02   0
   2  -2  -1  140.12    5.13   0
   2  -2  -1  147.16    5.42   0
   2  -2  -1  131.23    4.38   0
   1  -2  -1   11.71    3.29   0
  -1   2   1   14.76    4.40   0
   0  -2  -1   12.70    5.23   0
   0   2   1   12.65    5.16   0
  -1  -2  -1   55.76    5.14   0
   1   2   1   45.53    3.94   0
  -2  -2  -1   22.96    4.04   0
   2   2   1   25.14    4.21   0
  -3  -2  -1   49.03    4.10   0
   3   2   1   46.28    4.40   0
  -3  -2  -1   44.83    3.21   0
  -4  -2  -1    3.65    4.01   0
  -4  -2  -1   -0.22    3.98   0
   4   2   1    3.54    3.00   0
  -5  -2  -1    4.18    3.43   0
   5   2   1    3.54    4.64   0
  -5  -2  -1    7.03    4.98   0
   4  -3  -1   -0.01    4.82   0
   4  -3  -1    3.21    4.73   0
   4  -3  -1    0.99    4.77   0
   3  -3  -1   52.94    4.98   0
   3  -3  -1   54.55    4.68   0
   3  -3  -1   48.92    4.81   0
   2  -3  -1    1.60    4.01   0
   2  -3  -1    3.19    3.86   0
   2  -3  -1    0.73    2.98   0
   1  -3  -1    1.29    3.84   0
  -1   3   1    4.82    3.61   0
   0   3   1    9.36    4.02   0
   0  -3  -1   12.18    4.27   0
   1   3   1   78.38    5.12   0
  -1  -3  -1   73.58    3.80   0
   2   3   1   30.79    4.66   0
  -2  -3  -1   30.42    4.22   0
   3   3   1   45.53    3.14   0
  -3  -3  -1   56.02    4.14   0
  -4  -3  -1   -3.07    3.06   0
  -4  -3  -1   -0.05    4.15   0
   4   3   1    2.91    4.28   0
   5   3   1    4.24    4.68   0
  -5  -3  -1    0.21    4.75   0
  -5  -3  -1    3.24    3.51   0
   4  -4  -1    5.50    5.26   0
   4  -4  -1    1.72    5.26   0
   4  -4  -1    2.12    5.14   0
   3  -4  -1    9.56    4.67   0
   3  -4  -1   10.44    4.91   0
   3  -4  -1    5.88    4.57   0
   2  -4  -1   -0.02    4.25   0
   1  -4  -1   11.84    3.21   0
  -1   4   1   17.06    3.96   0
   0  -4  -1    7.68    3.89   0
   0   4   1    6.50    3.86   0
  -1  -4  -1    3.29    4.32   0
   1   4   1    2.48    3.01   0
   2   4   1    6.94    3.07   0
  -2  -4  -1    0.48    2.78   0
  -3  -4  -1    4.05    3.03   0
   3   4   1    7.91    4.35   0
   4   4   1   11.20    3.09   0
  -4  -4  -1   12.32    3.05   0
   5   4   1   -0.41    4.83   0
  -5  -4  -1    0.89    4.75   0
  -5  -4  -1    2.84    4.78   0
   3  -5  -1   10.70    5.01   0
   3  -5  -1   -1.43    5.04   0
   3  -5  -1    0.30    5.11   0
   2  -5  -1   12.93    4.48   0
  -2   5   1    9.60    4.42   0
  -1   5   1   35.08    3.19   0
   1  -5  -1   31.85    3.31   0
   0   5   1   32.69    3.10   0
   0  -5  -1   36.25    4.19   0
   1   5   1   17.64    4.22   0
  -1  -5  -1   18.76    4.25   0
  -2  -5  -1   31.77    4.48   0
   2   5   1   40.32    4.65   0
  -3  -5  -1   10.10    3.03   0
   3   5   1    6.50    3.03   0
  -4  -5  -1    6.38    4.49   0
   4   5   1    5.60    3.19   0
  -5  -5  -1    5.30    5.07   0
   5   5   1    3.63    3.62   0
  -5  -5  -1    3.83    5.11   0
   3  -6  -1    0.19    5.47   0
   3  -6  -1    0.62    3.97   0
   3  -6  -1   -0.02    5.64   0
   2  -6  -1    5.70    4.66   0
  -2   6   1    2.45    3.24   0
  -1   6   1   25.07    3.37   0
   1  -6  -1   22.07    4.75   0
   0  -6  -1    1.38    4.39   0
   0   6   1    7.36    4.03   0
   1   6   1   22.39    4.34   0
  -1  -6  -1   19.00    3.32   0
  -2  -6  -1    3.54    4.55   0
   2   6   1    3.52    3.43   0
  -3  -6  -1    3.15    4.54   0
   3   6   1   -2.21    4.42   0
   4   6   1   12.74    3.44   0
  -4  -6  -1    0.96    4.79   0
   2  -7  -1    3.25    3.71   0
  -2   7   1    1.05    5.43   0
  -1   7   1    3.25    4.80   0
   1  -7  -1   -1.39    3.52   0
   0   7   1    7.27    4.43   0
   0  -7  -1    0.48    3.33   0
  -1  -7  -1    3.00    3.30   0
   1   7   1    6.30    3.13   0
  -2  -7  -1    0.62    3.28   0
   2   7   1   -2.21    4.69   0
   3   7   1    2.61    3.41   0
  -3  -7  -1    2.39    3.41   0
  -4  -7  -1   -2.62    3.59   0
   4   7   1   -4.69    3.74   0
   0   8   1    3.17    3.72   0
   0  -8  -1    1.17    5.08   0
   1   8   1    2.93    5.12   0
  -1  -8  -1    3.93    3.79   0
  -2  -8  -1   -0.88    5.24   0
   2   8   1    2.72    3.70   0
   2   8  -2    5.10    5.08   0
  -2  -8   2    1.06    5.19   0
   1   8  -2    1.33    5.08   0
  -1  -8   2    2.30    5.28   0
   0  -8   2    0.54    3.81   0
   0   8  -2    0.27    5.21   0
  -3  -7   2    5.49    5.04   0
   3   7  -2    5.68    4.84   0
  -2  -7   2    8.10    4.88   0
   2   7  -2    3.56    3.39   0
   1   7  -2    2.97    4.53   0
  -1  -7   2    3.83    4.62   0
   0   7  -2    3.89    4.55   0
   0  -7   2    3.56    4.70   0
  -1   7  -2    3.32    3.38   0
   1  -7   2    3.98    3.48   0
  -4  -6   2    1.09    4.82   0
   4   6  -2    2.41    3.43   0
  -3  -6   2    1.87    3.06   0
   3   6  -2    3.68    3.24   0
  -2  -6   2    5.33    4.36   0
   2   6  -2    2.42    4.38   0
   1   6  -2    2.74    4.33   0
  -1  -6   2    9.19    4.48   0
   0  -6   2    1.45    4.37   0
   0   6  -2    2.26    4.03   0
  -1   6  -2    1.07    2.98   0
   1  -6   2   -2.59    4.56   0
   2  -6   2    2.22    4.74   0
  -2   6  -2    4.14    3.48   0
   3  -6   2    4.35    4.08   0
   3  -6   2   -1.91    5.31   0
   3  -6   2   -2.24    5.68   0
  -5  -5   2    2.30    3.64   0
   5   5  -2    4.94    4.99   0
  -5  -5   2   -0.22    3.57   0
   4   5  -2    7.77    4.41   0
  -4  -5   2    4.26    4.39   0
  -3  -5   2    3.80    4.08   0
   3   5  -2    7.53    4.28   0
  -2  -5   2   41.22    3.31   0
   2   5  -2   46.54    4.42   0
  -1  -5   2  118.98    5.18   0
   1   5  -2  128.11    5.12   0
   0   5  -2   10.49    2.98   0
   0  -5   2   12.08    4.41   0
   1  -5   2   10.92    4.25   0
  -1   5  -2    7.31    2.81   0
   2  -5   2    4.59    4.23   0
   3  -5   2   -1.58    3.72   0
   3  -5   2    3.56    5.16   0
   3  -5   2    1.07    3.30   0
   5   4  -2    0.91    5.00   0
  -5  -4   2    5.82    4.87   0
  -5  -4   2    7.00    5.01   0
  -4  -4   2    2.01    4.22   0
  -4  -4   2   -0.22    4.24   0
   4   4  -2   -1.01    3.07   0
   3   4  -2   17.62    4.28   0
  -3  -4   2   18.07    2.92   0
  -2  -4   2  103.51    3.80   0
   2   4  -2  108.05    4.98   0
  -1  -4   2    0.97    4.15   0
   1   4  -2    6.48    2.86   0
   0  -4   2   16.28    3.14   0
   0   4  -2   25.64    3.97   0
  -1   4  -2   36.46    2.99   0
   1  -4   2   34.22    4.18   0
   2  -4   2   13.78    2.94   0
   3  -4   2    1.97    3.25   0
   3  -4   2    1.65    3.45   0
   3  -4   2    3.09    4.67   0
   4  -4   2    0.94    5.46   0
   4  -4   2    0.54    3.44   0
   4  -4   2    0.31    5.18   0
   5   3  -2   17.71    4.85   0
  -5  -3   2   15.97    3.84   0
  -5  -3   2   18.68    4.90   0
  -4  -3   2    8.50    4.27   0
   4   3  -2    1.98    4.64   0
  -4  -3   2    2.63    2.99   0
  -3  -3   2   39.93    3.39   0
   3   3  -2   39.87    3.43   0
   2   3  -2 1004.41    8.55   0
  -2  -3   2 1055.83    8.91   0
   1   3  -2  113.32    5.22   0
  -1  -3   2  103.51    4.33   0
   0   3  -2   18.09    2.98   0
   0  -3   2   14.55    4.24   0
   1  -3   2    3.00    2.68   0
  -1   3  -2    4.73    3.60   0
   2  -3   2   75.89    3.70   0
   2  -3   2   84.38    4.71   0
   3  -3   2    5.91    4.25   0
   3  -3   2    4.84    4.09   0
   3  -3   2    5.07    4.67   0
   4  -3   2   11.52    4.82   0
   4  -3   2   10.24    3.43   0
   4  -3   2   13.13    4.88   0
  -5  -2   2    6.79    3.45   0
   5   2  -2    8.45    4.84   0
  -5  -2   2    5.12    3.48   0
   4   2  -2   11.70    4.22   0
  -4  -2   2    7.12    4.11   0
  -4  -2   2    2.07    4.05   0
  -3  -2   2   12.42    2.91   0
   3   2  -2   16.41    3.11   0
  -3  -2   2   10.63    2.87   0
   2   2  -2   63.19    4.52   0
  -2  -2   2   54.64    3.29   0
  -1  -2   2  143.21    5.85   0
   1   2  -2  140.52    4.75   0
   0  -2   2  460.36    8.16   0
   0   2  -2  471.70    7.89   0
   1  -2   2   37.67    4.89   0
  -1   2  -2   34.69    4.99   0
   2  -2   2    0.85    4.08   0
   2  -2   2   -0.41    2.76   0
   2  -2   2    1.24    2.53   0
   3  -2   2   33.95    4.36   0
   3  -2   2   30.92    3.16   0
   3  -2   2   30.41    4.31   0
   4  -2   2  124.52    5.73   0
   4  -2   2  135.11    4.56   0
   4  -2   2  138.27    6.03   0
   5  -2   2    3.28    5.15   0
   5  -2   2   -2.21    5.40   0
   5   1  -2    5.25    4.69   0
  -5  -1   2   -0.95    5.02   0
  -5  -1   2    0.22    4.83   0
  -4  -1   2    6.62    2.88   0
   4   1  -2    6.82    3.05   0
  -4  -1   2    6.18    2.89   0
  -3  -1   2   31.41    3.95   0
  -3  -1   2   27.95    3.05   0
   3   1  -2   28.23    4.29   0
   2   1  -2    8.86    4.02   0
  -2  -1   2    5.99    3.80   0
  -2  -1   2   12.99    4.25   0
   1   1  -2   92.56    6.45   0
  -1  -1   2   85.16    5.05   0
   0  -1   2   44.44    6.02   0
   0   1  -2   44.78    5.86   0
   1  -1   2  914.24   11.55   0
   1  -1   2  832.64   10.23   0
   2  -1   2   10.85    4.25   0
   2  -1   2    9.39    2.79   0
   3  -1   2    2.65    3.64   0
  -3   1  -2    4.26    2.99   0
   3  -1   2    2.51    4.06   0
   4  -1   2   48.34    4.31   0
   5  -1   2    2.43    4.85   0
   5  -1   2    4.91    5.01   0
  -5   0   2   -0.24    5.07   0
  -5   0   2   -0.33    4.90   0
   5   0  -2    1.82    3.33   0
   4   0  -2    0.39    4.28   0
  -4   0   2   -0.65    4.49   0
  -4   0   2   -0.05    4.41   0
   3   0  -2   22.24    3.16   0
   3   0  -2   27.19    4.25   0
  -3   0   2   26.17    4.34   0
  -3   0   2   21.33    3.15   0
  -2   0   2   52.27    4.37   0
   2   0  -2   55.42    5.14   0
   2   0  -2   47.38    3.47   0
  -2   0   2   55.90    4.99   0
  -1   0   2 1405.32   14.82   0
   1   0  -2 1389.38   13.99   0
  -1   0   2 1367.75   17.79   0
   1   0  -2 1368.12   17.70   0
   0   0   2    3.81    6.57   0
   0   0   2    3.05    7.01   0
   0   0  -2    4.42    6.86   0
   0   0  -2    4.46    6.93   0
  -1   0  -2  832.26   15.80   0
   1   0   2  896.50   11.37   0
  -1   0  -2  944.15   12.30   0
  -2   0  -2   10.99    4.31   0
  -2   0  -2   10.18    3.87   0
   2   0   2    7.12    3.84   0
   3   0   2   -0.17    3.98   0
  -3   0  -2    4.62    4.13   0
  -3   0  -2    3.32    4.07   0
  -4   0  -2    4.61    4.13   0
  -4   0  -2    7.42    4.44   0
   4   0   2    0.30    4.12   0
  -5   0  -2    2.60    4.92   0
   5   0   2   -0.23    4.64   0
  -5   0  -2    3.31    4.81   0
   5  -1  -2    1.76    3.43   0
   5  -1  -2    2.81    4.92   0
   4  -1  -2    1.76    4.31   0
   4  -1  -2   -0.43    4.34   0
   3  -1  -2   10.01    2.80   0
  -3   1   2   10.45    3.07   0
   3  -1  -2   12.12    3.94   0
   2  -1  -2    0.04    3.70   0
   2  -1  -2    2.11    3.90   0
   1  -1  -2  111.63    5.75   0
   1  -1  -2  104.09    6.10   0
   1  -1  -2  117.30    6.72   0
   0  -1  -2 1532.37   18.29   0
   0   1   2 1482.42   18.06   0
  -1  -1  -2  425.57    8.59   0
   1   1   2  418.47    8.66   0
  -2  -1  -2   19.50    3.99   0
   2   1   2   16.55    4.06   0
  -3  -1  -2   43.31    4.29   0
  -3  -1  -2   46.66    4.07   0
   3   1   2   42.54    3.34   0
   4   1   2    8.78    3.02   0
  -4  -1  -2   10.11    4.37   0
  -4  -1  -2    8.89    4.14   0
  -5  -1  -2   -0.84    4.89   0
   5   1   2    3.12    3.08   0
  -5  -1  -2    2.75    3.39   0
   5  -2  -2    0.71    5.26   0
   5  -2  -2   -1.82    5.19   0
   4  -2  -2   19.00    4.69   0
   4  -2  -2   24.81    4.62   0
   4  -2  -2   23.22    4.74   0
   3  -2  -2   84.13    4.90   0
   3  -2  -2   87.55    4.93   0
   3  -2  -2   87.20    5.01   0
   2  -2  -2    0.07    2.68   0
   2  -2  -2    1.29    4.12   0
   2  -2  -2    2.84    3.98   0
   1  -2  -2  231.09    6.76   0
  -1   2   2  238.92    6.66   0
   0   2   2  877.03   10.70   0
   0  -2  -2  819.61    9.78   0
   1   2   2  206.08    5.34   0
  -1  -2  -2  219.10    6.28   0
   2   2   2   30.87    4.26   0
  -2  -2  -2   33.86    4.07   0
   3   2   2    5.20    3.79   0
  -3  -2  -2    2.97    3.64   0
   4   2   2    5.52    4.06   0
  -4  -2  -2    0.13    2.90   0
  -4  -2  -2   -1.51    2.96   0
  -5  -2  -2    2.10    4.83   0
  -5  -2  -2   -2.77    4.66   0
   5   2   2    2.73    4.80   0
   4  -3  -2   14.68    4.94   0
   4  -3  -2   11.22    4.75   0
   4  -3  -2   13.38    4.87   0
   3  -3  -2  116.18    5.45   0
   3  -3  -2  114.13    5.22   0
   3  -3  -2  117.39    5.61   0
   2  -3  -2    1.70    3.93   0
   2  -3  -2    1.12    2.96   0
   2  -3  -2    3.11    3.82   0
  -1   3   2    6.47    4.02   0
   1  -3  -2    8.48    4.12   0
   0  -3  -2  192.93    4.81   0
   0   3   2  203.97    5.75   0
   1   3   2   54.66    4.60   0
  -1  -3  -2   48.30    3.51   0
   2   3   2    0.65    4.43   0
  -2  -3  -2   -1.10    4.03   0
   3   3   2    0.13    4.07   0
  -3  -3  -2    5.21    3.76   0
   4   3   2   -1.65    2.91   0
  -4  -3  -2    1.47    3.84   0
  -4  -3  -2   -2.65    4.27   0
  -5  -3  -2    8.36    4.84   0
   5   3   2    6.47    4.76   0
  -5  -3  -2    7.31    4.84   0
   4  -4  -2    5.63    5.17   0
   4  -4  -2    7.00    4.93   0
   4  -4  -2    5.10    5.32   0
   3  -4  -2    3.21    4.41   0
   3  -4  -2    1.37    4.50   0
   3  -4  -2    3.27    4.39   0
   2  -4  -2   10.93    4.23   0
  -1   4   2    9.45    4.09   0
   1  -4  -2   11.48    4.51   0
   0   4   2   38.03    3.11   0
   0  -4  -2   37.68    4.19   0
  -1  -4  -2   47.07    3.26   0
   1   4   2   47.85    4.47   0
  -2  -4  -2  103.39    4.57   0
   2   4   2  101.89    4.90   0
   3   4   2   68.31    3.80   0
  -3  -4  -2   83.36    3.75   0
   4   4   2    3.04    3.05   0
  -4  -4  -2   -0.00    2.87   0
  -5  -4  -2    1.98    4.50   0
  -5  -4  -2    6.54    3.33   0
   5   4   2   -1.22    5.11   0
   3  -5  -2    4.16    5.08   0
   3  -5  -2    3.35    4.81   0
   3  -5  -2    2.67    4.91   0
   2  -5  -2    8.29    4.58   0
  -2   5   2    4.81    3.28   0
   1  -5  -2   22.74    4.46   0
  -1   5   2   24.15    4.26   0
   0   5   2   22.36    3.17   0
   0  -5  -2   25.82    3.25   0
  -1  -5  -2    9.21    4.32   0
   1   5   2   -0.74    4.31   0
   2   5   2   96.47    4.99   0
  -2  -5  -2   98.86    4.98   0
  -3  -5  -2    7.58    3.00   0
   3   5   2    6.04    4.36   0
  -4  -5  -2    3.21    4.37   0
   4   5   2    1.22    3.21   0
   5   5   2   -1.07    3.61   0
  -5  -5  -2    8.17    4.98   0
  -5  -5  -2    3.02    3.58   0
   3  -6  -2   -1.65    6.02   0
   3  -6  -2    0.38    5.58   0
   3  -6  -2    0.49    5.45   0
   2  -6  -2    1.27    3.59   0
  -2   6   2    1.41    3.58   0
   1  -6  -2    1.86    3.46   0
  -1   6   2    3.78    4.11   0
   0   6   2   12.93    2.88   0
   0  -6  -2   11.03    3.12   0
  -1  -6  -2   23.36    3.35   0
   1   6   2   24.24    4.48   0
   2   6   2  134.88    4.28   0
  -2  -6  -2  152.33    5.45   0
   3   6   2    2.49    4.56   0
  -3  -6  -2    8.95    4.52   0
   4   6   2   -0.44    3.50   0
  -4  -6  -2   -2.56    3.44   0
   1  -7  -2    2.32    3.49   0
  -1   7   2    6.42    4.74   0
   0   7   2    4.34    4.58   0
   0  -7  -2    3.01    4.59   0
   1   7   2    3.05    4.42   0
  -1  -7  -2    5.38    4.57   0
  -2  -7  -2    0.11    3.37   0
   2   7   2   14.82    4.81   0
  -3  -7  -2    1.32    4.81   0
   3   7   2   -3.90    3.47   0
   4   7   2    2.71    5.07   0
  -4  -7  -2   -2.49    3.70   0
   0   8   2    2.61    5.38   0
   0  -8  -2    4.54    5.42   0
  -1  -8  -2   -0.60    5.27   0
   1   8   2    2.35    3.69   0
  -2  -8  -2    1.46    5.28   0
   2   8   2    6.96    5.21   0
  -2  -8   3   -5.01    5.14   0
   2   8  -3    3.05    3.68   0
  -1  -8   3    3.96    5.28   0
   1   8  -3   -1.28    5.26   0
   3   7  -3    3.69    4.87   0
  -3  -7   3   -0.50    3.54   0
   2   7  -3    6.44    3.42   0
  -2  -7   3   13.27    4.87   0
   1   7  -3    0.51    4.67   0
  -1  -7   3    1.75    4.75   0
   0  -7   3    5.51    4.63   0
   0   7  -3    1.42    3.27   0
  -1   7  -3    1.39    4.73   0
   1  -7   3    1.11    4.94   0
   4   6  -3   -1.26    3.67   0
  -4  -6   3   -5.56    5.20   0
   3   6  -3   -1.05    3.33   0
  -3  -6   3    4.97    4.45   0
   2   6  -3   -4.19    4.40   0
  -2  -6   3   -0.58    3.16   0
  -1  -6   3   45.43    3.43   0
   1   6  -3   42.17    4.53   0
   0  -6   3    7.04    4.57   0
   0   6  -3    8.24    3.20   0
  -1   6  -3    4.78    4.40   0
   1  -6   3   10.84    4.46   0
   2  -6   3    6.47    4.93   0
   3  -6   3    4.17    4.07   0
   3  -6   3    4.91    5.30   0
   3  -6   3    3.92    5.79   0
  -5  -5   3    4.63    3.66   0
  -5  -5   3    5.96    5.17   0
   5   5  -3    3.70    4.99   0
  -4  -5   3   22.43    4.66   0
   4   5  -3   16.24    3.47   0
   3   5  -3    5.93    3.00   0
  -3  -5   3   14.39    4.38   0
  -2  -5   3   14.72    3.23   0
   2   5  -3   21.34    4.28   0
   1   5  -3  203.79    5.68   0
  -1  -5   3  188.41    5.61   0
   0   5  -3   20.77    4.28   0
   0  -5   3   22.47    4.53   0
   1  -5   3    3.42    4.07   0
  -1   5  -3    2.03    2.73   0
   2  -5   3   10.25    3.15   0
   3  -5   3    4.31    5.26   0
   3  -5   3   -0.17    3.76   0
   3  -5   3    4.34    4.78   0
  -5  -4   3    7.72    4.98   0
   5   4  -3   -0.42    5.07   0
  -5  -4   3    2.41    5.05   0
  -4  -4   3   -1.06    3.02   0
  -4  -4   3    1.77    4.18   0
   4   4  -3    1.58    4.32   0
  -3  -4   3   21.23    3.12   0
   3   4  -3   17.53    3.00   0
   2   4  -3    2.90    3.96   0
  -2  -4   3    3.58    3.02   0
   1   4  -3   23.82    4.24   0
  -1  -4   3   18.11    4.29   0
   0  -4   3  135.91    5.13   0
   0   4  -3  147.33    4.84   0
  -1   4  -3   48.12    3.03   0
   1  -4   3   51.35    4.15   0
   2  -4   3    8.79    2.97   0
   3  -4   3    3.01    4.48   0
   3  -4   3    0.70    3.19   0
   3  -4   3    7.07    4.24   0
   4  -4   3    0.46    5.14   0
   4  -4   3    2.47    5.01   0
   4  -4   3    1.29    3.46   0
   5   3  -3   19.72    3.56   0
  -5  -3   3   22.23    5.11   0
  -5  -3   3   20.28    5.10   0
  -4  -3   3   76.53    4.64   0
   4   3  -3   69.67    4.88   0
  -4  -3   3   74.87    3.81   0
  -3  -3   3    3.71    3.02   0
   3   3  -3    7.44    4.07   0
   2   3  -3   16.94    4.57   0
  -2  -3   3   21.54    4.52   0
   1   3  -3   57.93    4.94   0
  -1  -3   3   51.63    4.51   0
   0  -3   3   74.58    3.58   0
   0   3  -3   77.56    4.41   0
   1  -3   3   27.79    4.02   0
  -1   3  -3   22.66    3.78   0
   2  -3   3    2.20    2.50   0
   2  -3   3    2.23    2.73   0
   3  -3   3    6.57    4.27   0
   3  -3   3    7.69    2.87   0
   3  -3   3    4.17    4.18   0
   4  -3   3   -1.95    4.91   0
   4  -3   3   -0.16    4.69   0
   4  -3   3   -0.75    4.71   0
   5   2  -3   -3.20    4.67   0
  -5  -2   3   -2.12    4.66   0
  -5  -2   3    3.22    4.83   0
  -4  -2   3    3.12    4.20   0
   4   2  -3    6.60    4.39   0
  -4  -2   3    1.72    2.96   0
   3   2  -3   24.31    3.25   0
  -3  -2   3   30.75    3.17   0
  -3  -2   3   24.94    2.83   0
  -2  -2   3   62.62    4.41   0
   2   2  -3   59.04    4.53   0
  -1  -2   3   10.25    3.47   0
   1   2  -3   10.22    3.32   0
   0  -2   3   19.11    4.93   0
   0   2  -3   21.97    3.36   0
  -1   2  -3  836.08    9.08   0
   1  -2   3  836.10    8.99   0
   2  -2   3   33.81    3.08   0
   2  -2   3   29.95    4.32   0
   2  -2   3   27.29    3.95   0
   3  -2   3   -1.10    3.98   0
   3  -2   3    3.83    4.03   0
   3  -2   3    1.33    4.08   0
   4  -2   3    6.05    4.29   0
   4  -2   3    3.22    4.70   0
   4  -2   3    1.51    4.48   0
   5  -2   3    3.31    5.02   0
   5  -2   3    1.35    5.11   0
   5   1  -3    1.00    3.31   0
  -5  -1   3    3.36    4.76   0
  -5  -1   3    2.63    4.92   0
  -4  -1   3    8.04    4.22   0
   4   1  -3    8.94    4.33   0
  -4  -1   3    7.67    4.31   0
   3   1  -3   16.30    4.09   0
  -3  -1   3   19.35    3.98   0
  -3  -1   3   13.19    3.90   0
  -2  -1   3   34.84    4.36   0
   2   1  -3   31.41    4.72   0
  -2  -1   3   32.90    3.94   0
  -1  -1   3   43.06    6.05   0
   1   1  -3   39.30    4.54   0
   0  -1   3 1100.64   12.50   0
   0   1  -3 1207.45   13.63   0
   1  -1   3   48.73    4.09   0
   1  -1   3   42.94    4.82   0
   2  -1   3   46.81    4.94   0
   2  -1   3   53.72    4.02   0
   3  -1   3   43.14    3.36   0
   3  -1   3   37.48    4.42   0
  -3   1  -3   42.13    4.61   0
   4  -1   3    8.41    4.37   0
   5  -1   3    1.35    3.53   0
   5  -1   3    1.98    3.49   0
  -5   0   3    4.63    5.09   0
   5   0  -3    6.51    4.74   0
  -5   0   3    2.67    5.22   0
   4   0  -3    2.75    4.24   0
  -4   0   3    2.45    4.55   0
  -4   0   3    2.67    4.26   0
   3   0  -3  113.94    4.93   0
  -3   0   3  109.05    4.99   0
  -3   0   3  119.33    5.25   0
   3   0  -3  120.43    5.17   0
  -2   0   3  689.31    8.84   0
   2   0  -3  719.47    8.76   0
  -2   0   3  751.40   10.76   0
   2   0  -3  706.20   10.15   0
  -1   0   3  149.72    6.34   0
  -1   0   3  142.77    7.56   0
   1   0  -3  139.25    7.62   0
   1   0  -3  153.20    5.33   0
   0   0   3   29.34    5.51   0
   0   0   3   30.32    7.02   0
   0   0  -3   32.52    7.30   0
   0   0  -3   32.70    7.05   0
  -1   0  -3  981.14   12.03   0
  -1   0  -3  856.81   17.96   0
   1   0   3  965.44   11.91   0
  -2   0  -3  133.67    6.79   0
  -2   0  -3  141.96    5.06   0
   2   0   3  133.55    4.95   0
  -3   0  -3    4.22    2.68   0
  -3   0  -3    9.02    4.02   0
   3   0   3    8.27    3.81   0
  -4   0  -3    1.38    4.24   0
   4   0   3    2.10    2.89   0
  -4   0  -3    0.94    4.26   0
  -5   0  -3   -2.80    5.01   0
  -5   0  -3    1.61    4.81   0
   5   0   3   -3.51    4.88   0
   5  -1  -3    0.12    4.97   0
   5  -1  -3    0.03    4.90   0
   4  -1  -3    0.64    4.28   0
   4  -1  -3    0.06    4.22   0
   4  -1  -3    0.92    4.11   0
   3  -1  -3    1.26    3.94   0
  -3   1   3    1.91    3.88   0
   3  -1  -3    1.79    4.04   0
   2  -1  -3   68.76    4.48   0
  -2   1   3   61.08    3.30   0
   2  -1  -3   68.11    5.16   0
   2  -1  -3   64.88    4.88   0
   1  -1  -3  485.10   11.39   0
   1  -1  -3  455.38   10.52   0
   1  -1  -3  458.34    7.65   0
   0  -1  -3  471.63   11.35   0
   0   1   3  466.73   11.21   0
  -1  -1  -3  159.60    5.48   0
   1   1   3  174.66    6.93   0
  -2  -1  -3  176.55    4.37   0
   2   1   3  171.94    4.39   0
  -3  -1  -3    4.82    3.98   0
  -3  -1  -3    5.56    3.81   0
   3   1   3    2.99    4.05   0
  -4  -1  -3   14.55    4.30   0
  -4  -1  -3   13.93    3.02   0
   4   1   3   11.05    4.20   0
  -5  -1  -3    1.66    4.83   0
   5   1   3    0.41    3.04   0
  -5  -1  -3    2.95    4.91   0
   5  -2  -3    0.45    5.17   0
   5  -2  -3    1.18    5.40   0
   5  -2  -3    2.01    5.20   0
   4  -2  -3    8.71    4.48   0
   4  -2  -3    9.13    4.47   0
   4  -2  -3   10.53    4.32   0
   3  -2  -3  347.43    7.17   0
   3  -2  -3  331.05    6.89   0
   3  -2  -3  319.22    5.81   0
   2  -2  -3   74.32    4.91   0
   2  -2  -3   69.96    4.73   0
   2  -2  -3   70.93    4.46   0
   1  -2  -3   13.84    4.48   0
  -1   2   3   12.09    4.43   0
   0   2   3   -6.88    5.50   0
   0  -2  -3    5.98    3.89   0
  -1  -2  -3    0.54    4.48   0
   1   2   3    2.31    4.61   0
  -2  -2  -3   85.95    3.50   0
   2   2   3   87.38    4.67   0
   3   2   3   17.37    3.98   0
  -3  -2  -3   20.78    3.73   0
  -4  -2  -3   -3.26    4.22   0
  -4  -2  -3    1.21    3.81   0
   4   2   3    1.58    4.23   0
  -5  -2  -3   -0.87    4.37   0
  -5  -2  -3    2.04    4.95   0
   5   2   3    3.88    4.41   0
   4  -3  -3    1.12    4.84   0
   4  -3  -3   -1.50    4.92   0
   4  -3  -3    1.33    4.74   0
   3  -3  -3   96.10    5.46   0
   3  -3  -3   87.56    5.26   0
   3  -3  -3   84.30    5.21   0
   2  -3  -3   12.39    4.26   0
   2  -3  -3    8.90    4.04   0
   2  -3  -3   10.28    3.94   0
   1  -3  -3  341.69    6.92   0
  -1   3   3  339.66    6.80   0
   0  -3  -3  691.65    8.36   0
   0   3   3  658.14    7.67   0
   1   3   3  244.00    5.79   0
  -1  -3  -3  245.52    5.87   0
   2   3   3   -1.35    3.09   0
  -2  -3  -3    1.53    2.90   0
   3   3   3  133.00    4.13   0
  -3  -3  -3  129.91    4.02   0
   4   3   3    5.06    2.90   0
  -4  -3  -3    4.50    4.27   0
  -4  -3  -3   13.57    4.01   0
  -5  -3  -3    2.48    3.24   0
  -5  -3  -3    1.04    3.50   0
   5   3   3    5.35    4.60   0
   4  -4  -3   -0.25    5.11   0
   4  -4  -3    4.75    5.17   0
   4  -4  -3    3.14    5.44   0
   3  -4  -3    3.50    4.63   0
   3  -4  -3    1.26    4.38   0
   3  -4  -3   -0.67    3.50   0
   2  -4  -3    3.50    4.18   0
   1  -4  -3    0.06    4.27   0
  -1   4   3    2.58    2.75   0
   0   4   3   18.69    3.04   0
   0  -4  -3   14.21    4.20   0
  -1  -4  -3   58.67    4.52   0
   1   4   3   61.25    4.61   0
   2   4   3   42.75    4.35   0
  -2  -4  -3   35.93    3.13   0
   3   4   3  185.04    5.49   0
  -3  -4  -3  182.23    4.34   0
  -4  -4  -3    5.59    4.08   0
   4   4   3    8.00    4.42   0
   5   4   3    5.52    4.72   0
  -5  -4  -3    1.35    3.47   0
  -5  -4  -3    3.96    4.83   0
   3  -5  -3   -3.00    4.76   0
   3  -5  -3    4.03    5.00   0
   3  -5  -3   -2.23    3.52   0
   2  -5  -3    2.52    3.11   0
  -2   5   3   -0.68    3.21   0
   1  -5  -3    4.79    3.13   0
  -1   5   3    2.74    4.03   0
   0  -5  -3    5.29    4.06   0
   0   5   3   -0.99    2.76   0
  -1  -5  -3    0.25    2.94   0
   1   5   3   -0.76    4.19   0
  -2  -5  -3   -1.24    4.26   0
   2   5   3    2.96    4.13   0
  -3  -5  -3    6.92    2.94   0
   3   5   3    5.06    4.41   0
   4   5   3    0.95    3.30   0
  -4  -5  -3   -2.86    4.55   0
  -5  -5  -3    1.99    3.43   0
  -5  -5  -3    1.39    5.02   0
   5   5   3    5.63    5.09   0
   3  -6  -3   -1.04    5.75   0
   3  -6  -3   -3.04    5.55   0
   3  -6  -3    4.60    5.71   0
  -2   6   3   -0.92    4.83   0
   2  -6  -3    6.48    5.04   0
   1  -6  -3    3.68    4.64   0
  -1   6   3   -0.50    2.97   0
   0   6   3    8.85    4.19   0
   0  -6  -3    0.73    4.41   0
  -1  -6  -3    4.48    4.07   0
   1   6   3   -0.52    4.02   0
   2   6   3    8.11    4.48   0
  -2  -6  -3    4.46    3.28   0
  -3  -6  -3    2.56    4.44   0
   3   6   3    2.00    4.46   0
  -4  -6  -3    1.48    3.26   0
   4   6   3    1.68    3.42   0
   1  -7  -3   -4.31    4.94   0
  -1   7   3   -0.59    3.42   0
   0  -7  -3    3.34    4.76   0
   0   7   3    4.21    3.19   0
   1   7   3   -1.70    4.61   0
  -1  -7  -3   -2.02    4.48   0
  -2  -7  -3    2.04    3.35   0
   2   7   3   -0.28    4.61   0
   3   7   3   -0.28    4.83   0
  -3  -7  -3   -1.91    4.84   0
   4   7   3    2.67    5.32   0
  -4  -7  -3   -2.22    5.34   0
   0   8   3    2.64    3.77   0
   0  -8  -3    5.88    5.31   0
  -1  -8  -3    2.41    5.02   0
   1   8   3   -0.01    5.24   0
   2   8   3    1.28    5.15   0
  -2  -8  -3    2.19    5.23   0
  -2  -8   4    2.18    3.89   0
   2   8  -4    1.74    3.73   0
  -1  -8   4   -0.49    3.60   0
   1   8  -4   -0.16    3.59   0
   3   7  -4    2.71    4.81   0
  -3  -7   4    4.31    4.82   0
   2   7  -4    3.53    3.33   0
  -2  -7   4   -0.46    3.48   0
   1   7  -4    4.57    4.68   0
  -1  -7   4    5.73    3.43   0
   0  -7   4    2.82    4.71   0
   0   7  -4   -0.27    3.13   0
  -1   7  -4   -1.03    4.80   0
   1  -7   4    3.97    4.93   0
  -4  -6   4    1.51    3.40   0
   4   6  -4    1.86    3.28   0
  -3  -6   4    1.26    4.66   0
   3   6  -4   -0.55    3.25   0
   2   6  -4   -0.54    4.48   0
  -2  -6   4   -1.67    3.24   0
  -1  -6   4    2.22    3.20   0
   1   6  -4    5.81    4.42   0
   0   6  -4    8.17    3.15   0
   0  -6   4   14.61    4.63   0
   1  -6   4    7.39    4.41   0
  -1   6  -4    4.47    2.95   0
   2  -6   4    1.89    3.31   0
   3  -6   4    1.35    5.88   0
  -5  -5   4   -0.40    3.75   0
  -5  -5   4    0.88    5.29   0
   5   5  -4    1.20    3.66   0
  -4  -5   4    5.85    3.47   0
   4   5  -4   12.80    4.90   0
  -3  -5   4   19.34    4.35   0
   3   5  -4   15.66    3.20   0
   2   5  -4    9.02    3.07   0
  -2  -5   4    6.18    3.01   0
   1   5  -4  137.75    4.28   0
  -1  -5   4  146.76    5.52   0
   0  -5   4   30.79    4.56   0
   0   5  -4   23.87    4.30   0
  -1   5  -4    7.81    3.82   0
   1  -5   4   10.18    4.13   0
   2  -5   4   38.85    3.34   0
   3  -5   4    2.91    4.98   0
   3  -5   4    8.29    5.35   0
   3  -5   4    7.70    3.79   0
  -5  -4   4    1.31    3.56   0
   5   4  -4    2.02    3.71   0
  -5  -4   4    1.68    4.96   0
  -4  -4   4   -0.80    4.36   0
  -4  -4   4    4.65    4.42   0
   4   4  -4   -3.32    3.10   0
  -3  -4   4    6.56    2.94   0
   3   4  -4    7.95    4.27   0
  -2  -4   4   22.74    4.13   0
   2   4  -4   21.12    3.19   0
  -1  -4   4  119.42    3.89   0
   1   4  -4  127.64    3.88   0
   0   4  -4    7.69    2.83   0
   0  -4   4    4.79    4.44   0
   1  -4   4    1.35    3.76   0
  -1   4  -4    2.85    2.51   0
   2  -4   4   -1.90    4.04   0
   3  -4   4    0.39    3.44   0
   3  -4   4    3.17    4.15   0
   3  -4   4    3.77    4.93   0
   4  -4   4    2.41    4.80   0
   4  -4   4   -2.84    5.02   0
   4  -4   4    0.41    5.15   0
  -5  -3   4    3.32    4.99   0
  -5  -3   4    1.70    3.47   0
   5   3  -4    7.07    4.60   0
  -4  -3   4   -0.63    2.96   0
   4   3  -4    0.36    3.11   0
  -4  -3   4   -1.17    4.24   0
  -3  -3   4   31.59    2.87   0
  -3  -3   4   33.04    3.18   0
   3   3  -4   36.76    4.57   0
   2   3  -4   65.82    4.56   0
  -2  -3   4   62.65    3.42   0
  -1  -3   4  331.03    6.39   0
   1   3  -4  310.26    5.32   0
   0   3  -4    3.24    3.96   0
   0  -3   4    2.24    4.34   0
  -1   3  -4    0.08    3.58   0
   1  -3   4    0.03    3.81   0
   2  -3   4   15.52    3.75   0
   2  -3   4   11.48    4.11   0
   3  -3   4    6.06    4.26   0
   3  -3   4    5.25    2.92   0
   3  -3   4    7.22    4.09   0
   4  -3   4   18.10    4.73   0
   4  -3   4   15.92    5.00   0
   4  -3   4   15.13    4.90   0
  -5  -2   4   -0.44    3.50   0
   5   2  -4    5.21    4.84   0
  -5  -2   4    5.45    4.89   0
  -4  -2   4    2.13    2.93   0
   4   2  -4   -2.01    4.55   0
  -4  -2   4    0.88    4.24   0
  -3  -2   4    7.26    3.67   0
  -3  -2   4    7.13    2.93   0
   3   2  -4    9.58    4.32   0
   2   2  -4  208.10    4.94   0
  -2  -2   4  227.33    5.88   0
   1   2  -4  177.53    4.97   0
  -1  -2   4  175.11    6.17   0
   0   2  -4  185.29    4.82   0
   0  -2   4  182.95    5.94   0
  -1   2  -4   71.37    4.39   0
   1  -2   4   63.81    4.27   0
   2  -2   4   -0.04    3.77   0
   2  -2   4    1.03    3.76   0
   2  -2   4    2.55    3.49   0
   3  -2   4   17.08    2.89   0
   3  -2   4   13.99    5.30   0
   3  -2   4   15.79    3.89   0
   4  -2   4   30.32    4.94   0
   4  -2   4   30.67    3.68   0
   4  -2   4   30.61    4.68   0
   5  -2   4    1.09    3.44   0
   5  -2   4    4.51    3.64   0
  -5  -1   4   18.72    4.81   0
  -5  -1   4   21.36    5.26   0
   5   1  -4   14.90    5.04   0
  -4  -1   4    8.52    4.44   0
  -4  -1   4    6.87    2.87   0
   4   1  -4    4.67    3.19   0
  -3  -1   4    4.40    3.86   0
   3   1  -4    6.64    4.20   0
  -3  -1   4    6.19    3.63   0
   2   1  -4   10.59    4.54   0
  -2  -1   4   10.02    4.11   0
  -2  -1   4   12.30    2.60   0
  -1  -1   4  387.87    6.87   0
  -1  -1   4  402.83    9.09   0
   1   1  -4  401.08    8.89   0
   0  -1   4 1545.75   15.03   0
   0   1  -4 1442.78   13.57   0
   1  -1   4  779.31    9.04   0
   1  -1   4  905.35   10.48   0
   2  -1   4  128.43    6.84   0
   2  -1   4  133.30    4.94   0
  -3   1  -4    8.66    3.97   0
   3  -1   4   13.21    3.70   0
   4  -1   4   10.28    3.10   0
   5  -1   4    0.52    3.43   0
   5  -1   4    5.56    4.81   0
  -5   0   4    5.49    5.00   0
   5   0  -4    9.30    4.85   0
  -5   0   4    8.21    5.10   0
  -4   0   4    3.20    4.37   0
   4   0  -4    5.32    4.47   0
  -4   0   4   -0.92    4.46   0
   3   0  -4   16.92    4.06   0
  -3   0   4   17.50    3.94   0
  -3   0   4   15.87    4.10   0
   3   0  -4   14.81    2.79   0
   2   0  -4  295.32    7.43   0
  -2   0   4  283.40    5.66   0
  -2   0   4  308.07    7.64   0
   2   0  -4  292.81    6.25   0
  -1   0   4 1012.52   10.93   0
   1   0  -4 1059.79   11.08   0
   1   0  -4  999.11   18.25   0
  -1   0   4 1046.83   18.65   0
   0   0   4  171.40    9.14   0
   0   0  -4  170.99    8.52   0
   0   0   4  167.47    8.54   0
   0   0  -4  172.38    8.95   0
  -1   0  -4 3029.88   18.23   0
   1   0   4 3153.43   19.60   0
  -2   0  -4   20.31    2.89   0
  -2   0  -4   19.04    4.52   0
   2   0   4   18.06    3.81   0
  -3   0  -4   24.14    4.02   0
  -3   0  -4   21.25    4.24   0
   3   0   4   20.15    3.94   0
   4   0   4   22.18    4.23   0
  -4   0  -4   20.42    4.53   0
  -4   0  -4   18.45    4.53   0
   5   0   4   -0.25    3.34   0
  -5   0  -4   -1.49    5.04   0
  -5   0  -4    1.50    4.85   0
   5  -1  -4    1.88    4.94   0
   5  -1  -4    5.42    4.90   0
   4  -1  -4    4.84    4.30   0
   4  -1  -4    0.67    4.24   0
   4  -1  -4    1.33    4.14   0
   3  -1  -4    2.40    3.98   0
  -3   1   4    2.22    4.00   0
   3  -1  -4    0.49    4.09   0
  -2   1   4  125.18    4.75   0
   2  -1  -4  128.43    4.87   0
   2  -1  -4  128.79    5.97   0
   2  -1  -4  120.28    6.03   0
   1  -1  -4  343.08   10.54   0
   1  -1  -4  361.25   10.66   0
   1  -1  -4  338.59    6.43   0
   0  -1  -4 4719.07   30.98   0
   0   1   4 4238.54   28.99   0
  -1  -1  -4 9633.69   32.58   0
   1   1   4 9999.99   32.57   0
  -2  -1  -4  165.44    4.96   0
   2   1   4  177.18    5.13   0
   3   1   4   63.99    4.27   0
  -3  -1  -4   59.79    4.62   0
  -3  -1  -4   61.62    4.12   0
  -4  -1  -4    4.83    4.00   0
  -4  -1  -4    6.65    4.14   0
   4   1   4    6.36    4.18   0
  -5  -1  -4    0.49    4.95   0
   5   1   4   -1.02    3.22   0
  -5  -1  -4    2.06    4.79   0
   5  -2  -4    2.78    5.15   0
   5  -2  -4    0.18    5.20   0
   5  -2  -4    3.41    5.39   0
   4  -2  -4    2.56    4.46   0
   4  -2  -4    4.73    4.58   0
   4  -2  -4    1.61    4.40   0
   3  -2  -4   -0.66    3.42   0
   3  -2  -4    1.73    4.31   0
   3  -2  -4    5.88    4.35   0
   2  -2  -4    7.89    3.99   0
   2  -2  -4    5.35    4.15   0
   2  -2  -4    6.45    3.69   0
  -1   2   4  111.74    5.52   0
   1  -2  -4  107.96    5.79   0
   0   2   4 1900.50   15.11   0
   0  -2  -4 1916.59   15.16   0
  -1  -2  -4   52.50    4.66   0
   1   2   4   45.22    3.69   0
   2   2   4   14.48    2.92   0
  -2  -2  -4   12.17    2.76   0
   3   2   4   53.63    3.15   0
  -3  -2  -4   53.99    4.13   0
  -4  -2  -4    1.74    4.29   0
   4   2   4   -1.86    4.11   0
  -4  -2  -4   -0.81    4.09   0
  -5  -2  -4    4.06    4.56   0
   5   2   4    6.87    4.69   0
  -5  -2  -4    1.86    4.91   0
   4  -3  -4    6.86    4.76   0
   4  -3  -4    1.02    3.48   0
   4  -3  -4    2.25    4.64   0
   3  -3  -4   38.80    4.84   0
   3  -3  -4   50.31    4.91   0
   3  -3  -4   46.22    4.72   0
   2  -3  -4   27.68    4.22   0
   2  -3  -4   30.18    4.21   0
   2  -3  -4   32.80    4.44   0
   1  -3  -4   41.17    4.82   0
  -1   3   4   35.65    4.43   0
   0  -3  -4  638.67    8.09   0
   0   3   4  592.94    7.27   0
   1   3   4   16.63    4.36   0
  -1  -3  -4   15.20    4.06   0
  -2  -3  -4    4.82    4.06   0
   2   3   4    1.91    4.50   0
  -3  -3  -4    0.93    2.81   0
   3   3   4    0.56    4.17   0
   4   3   4    7.90    4.26   0
  -4  -3  -4   11.80    3.99   0
  -5  -3  -4    2.67    4.58   0
  -5  -3  -4    2.25    4.89   0
   5   3   4   -0.94    4.70   0
   4  -4  -4    1.48    5.34   0
   4  -4  -4   -0.74    4.95   0
   4  -4  -4    1.81    4.91   0
   3  -4  -4    6.92    4.79   0
   3  -4  -4    5.46    4.68   0
   3  -4  -4    6.13    4.52   0
   2  -4  -4    6.10    4.17   0
  -1   4   4    1.78    4.07   0
   1  -4  -4    4.88    4.21   0
   0   4   4    2.10    4.10   0
   0  -4  -4    2.70    4.11   0
  -1  -4  -4   14.60    4.15   0
   1   4   4   11.77    2.98   0
   2   4   4    9.56    2.89   0
  -2  -4  -4   15.92    3.86   0
   3   4   4   -3.02    4.30   0
  -3  -4  -4    5.30    4.10   0
  -4  -4  -4   -0.42    4.32   0
   4   4   4   -2.55    4.38   0
   5   4   4    2.36    4.84   0
  -5  -4  -4    2.55    3.43   0
  -5  -4  -4    0.84    4.93   0
   3  -5  -4    1.00    4.91   0
   3  -5  -4    1.28    3.55   0
   3  -5  -4    0.99    3.57   0
   2  -5  -4    1.68    4.49   0
  -2   5   4    5.64    4.69   0
  -1   5   4   -0.26    3.95   0
   1  -5  -4    3.04    4.19   0
   0  -5  -4    5.40    4.27   0
   0   5   4    6.94    3.95   0
  -1  -5  -4   -1.28    4.02   0
   1   5   4   -4.32    4.23   0
  -2  -5  -4    8.04    3.01   0
   2   5   4    6.77    3.21   0
  -3  -5  -4   -2.06    4.25   0
   3   5   4   -0.11    4.43   0
   4   5   4   -0.90    3.25   0
  -4  -5  -4   -1.99    3.18   0
   5   5   4   -0.25    5.12   0
  -5  -5  -4    3.00    5.03   0
   3  -6  -4    3.15    4.00   0
   3  -6  -4    7.16    5.69   0
   3  -6  -4    6.05    5.45   0
   2  -6  -4   -1.68    4.95   0
  -2   6   4    0.31    5.05   0
   1  -6  -4    4.62    4.70   0
  -1   6   4    1.35    4.66   0
   0  -6  -4   -4.17    4.38   0
   0   6   4   -0.09    4.19   0
   1   6   4   10.76    3.05   0
  -1  -6  -4   12.68    3.98   0
  -2  -6  -4   11.90    3.16   0
   2   6   4    7.16    4.57   0
  -3  -6  -4   -2.35    4.46   0
   3   6   4    0.41    4.52   0
  -4  -6  -4   10.92    4.73   0
   4   6   4   -0.62    3.42   0
   1  -7  -4    3.19    4.94   0
  -1   7   4   -0.50    4.92   0
   0   7   4    3.26    4.49   0
   0  -7  -4   -0.92    4.57   0
   1   7   4   -0.84    3.23   0
  -1  -7  -4    9.39    4.60   0
   2   7   4   -0.57    3.29   0
  -2  -7  -4   -1.08    3.30   0
   3   7   4    4.99    4.79   0
  -3  -7  -4    6.45    4.93   0
  -4  -7  -4    2.16    5.23   0
   4   7   4    0.35    5.20   0
   0   8   4   -4.56    5.37   0
   0  -8  -4    0.96    5.25   0
  -1  -8  -4    3.52    5.09   0
   1   8   4    2.11    5.12   0
   2   8   4    3.93    3.81   0
  -2  -8  -4    3.05    5.51   0
  -1  -8   5    9.42    5.28   0
   1   8  -5    8.56    3.61   0
  -3  -7   5    4.94    5.06   0
   3   7  -5   -1.51    4.98   0
   2   7  -5    3.94    3.37   0
  -2  -7   5   -1.05    3.48   0
  -1  -7   5    3.85    3.30   0
   1   7  -5   -0.55    4.57   0
   0   7  -5   15.04    4.74   0
   0  -7   5   11.45    3.60   0
  -1   7  -5    1.67    3.33   0
   1  -7   5   10.14    4.82   0
  -4  -6   5    2.10    4.98   0
   4   6  -5    4.63    4.99   0
  -3  -6   5    4.53    3.04   0
   3   6  -5    4.82    4.47   0
  -2  -6   5    4.59    4.51   0
   2   6  -5   10.37    4.38   0
   1   6  -5   35.32    4.46   0
  -1  -6   5   28.71    3.38   0
   0   6  -5   -0.60    2.97   0
   0  -6   5   -1.97    3.20   0
  -1   6  -5    5.46    4.11   0
   1  -6   5    2.23    3.25   0
   2  -6   5    4.09    4.84   0
  -5  -5   5   -2.70    5.40   0
  -5  -5   5    3.77    5.29   0
   5   5  -5    6.71    5.21   0
   4   5  -5   -2.26    4.52   0
  -4  -5   5    1.51    4.56   0
  -4  -5   5   -2.57    4.58   0
  -3  -5   5   -0.36    2.98   0
   3   5  -5    6.12    4.12   0
   2   5  -5    4.92    4.09   0
  -2  -5   5    2.73    2.88   0
   1   5  -5  118.16    3.99   0
  -1  -5   5  134.60    5.22   0
   0   5  -5  122.37    4.81   0
   0  -5   5  113.70    5.09   0
  -1   5  -5    7.19    3.84   0
   1  -5   5    4.19    4.07   0
   2  -5   5   -1.39    4.34   0
   3  -5   5    0.68    4.97   0
   3  -5   5   -0.27    5.19   0
   3  -5   5    1.94    4.67   0
   5   4  -5    0.37    5.16   0
  -5  -4   5    2.79    4.72   0
  -5  -4   5    5.23    5.16   0
  -4  -4   5   16.90    4.91   0
  -4  -4   5   16.43    4.44   0
   4   4  -5   23.43    4.88   0
   3   4  -5   11.71    4.32   0
  -3  -4   5   12.19    2.93   0
  -2  -4   5    4.69    3.91   0
   2   4  -5    5.42    3.92   0
  -1  -4   5   54.57    3.40   0
   1   4  -5   61.74    4.31   0
   0   4  -5   88.41    4.38   0
   0  -4   5   77.17    4.60   0
   1  -4   5    1.16    3.74   0
  -1   4  -5    2.89    3.53   0
   2  -4   5    0.64    4.17   0
   3  -4   5   -1.33    3.02   0
   3  -4   5    2.44    3.13   0
   3  -4   5    0.71    5.89   0
   4  -4   5    2.15    3.44   0
   4  -4   5    3.07    6.48   0
   4  -4   5    4.37    5.08   0
  -5  -3   5    3.54    3.40   0
   5   3  -5    8.95    5.04   0
  -5  -3   5    4.07    4.89   0
  -4  -3   5   56.25    3.56   0
   4   3  -5   67.37    5.12   0
  -4  -3   5   61.31    4.94   0
   3   3  -5    9.03    4.46   0
  -3  -3   5    8.53    3.85   0
  -3  -3   5    8.50    2.88   0
   2   3  -5   65.03    4.40   0
  -2  -3   5   56.61    4.58   0
   1   3  -5   40.71    3.29   0
  -1  -3   5   40.33    3.33   0
   0   3  -5  113.42    3.78   0
   0  -3   5  120.94    4.92   0
  -1   3  -5   91.57    4.36   0
   1  -3   5   92.52    4.52   0
   2  -3   5   34.91    3.93   0
   2  -3   5   32.83    3.88   0
   3  -3   5   14.85    3.04   0
   3  -3   5    7.76    5.39   0
   3  -3   5    8.20    2.96   0
   4  -3   5    3.21    4.75   0
   4  -3   5    1.30    4.45   0
   4  -3   5    5.16    4.79   0
  -5  -2   5   -0.90    5.00   0
  -5  -2   5    1.81    4.71   0
   5   2  -5    3.98    4.96   0
  -4  -2   5    6.86    4.06   0
  -4  -2   5    5.47    4.43   0
   4   2  -5    5.72    4.45   0
  -3  -2   5   58.33    3.63   0
   3   2  -5   61.32    4.72   0
  -3  -2   5   58.14    4.02   0
  -2  -2   5    4.02    3.81   0
   2   2  -5    2.03    3.03   0
  -2  -2   5    4.06    2.65   0
   1   2  -5  294.32    5.74   0
  -1  -2   5  314.69    6.81   0
   0  -2   5   56.85    3.64   0
   0   2  -5   59.14    4.41   0
  -1   2  -5   47.05    3.91   0
   1  -2   5   50.63    4.09   0
   2  -2   5   27.18    4.10   0
   2  -2   5   27.58    5.29   0
   2  -2   5   25.11    3.84   0
   3  -2   5    8.45    2.72   0
   3  -2   5   15.15    4.13   0
   3  -2   5    8.26    5.10   0
   4  -2   5   11.85    3.10   0
   4  -2   5    9.33    4.55   0
   5  -2   5    8.22    5.14   0
   5  -2   5    6.17    5.09   0
  -5  -1   5    6.56    4.93   0
   5   1  -5    6.40    4.88   0
  -5  -1   5    8.43    4.79   0
   4   1  -5    1.52    4.44   0
  -4  -1   5   -0.40    4.31   0
  -4  -1   5    1.22    4.16   0
  -3  -1   5   12.80    3.74   0
   3   1  -5   13.60    4.18   0
  -3  -1   5   13.80    3.91   0
   2   1  -5   13.67    4.52   0
  -2  -1   5   13.09    4.18   0
  -2  -1   5   10.55    3.65   0
   1   1  -5   96.38    6.16   0
  -1  -1   5   89.22    6.22   0
  -1  -1   5  101.72    5.18   0
   0   1  -5   19.63    3.53   0
   0  -1   5   22.34    5.17   0
   1  -1   5    6.44    3.14   0
   1  -1   5    5.83    4.13   0
   2  -1   5  310.07    9.87   0
   2  -1   5  323.84    5.59   0
  -3   1  -5    4.18    3.00   0
   3  -1   5    3.12    2.68   0
   4  -1   5   -0.38    4.37   0
   5  -1   5    2.71    4.71   0
   5  -1   5    4.08    4.75   0
  -5   0   5   -2.61    5.05   0
   5   0  -5    3.27    4.77   0
  -5   0   5    3.96    4.96   0
   4   0  -5    3.77    4.05   0
  -4   0   5    2.58    4.29   0
  -4   0   5    0.27    4.14   0
  -3   0   5   12.61    3.96   0
   3   0  -5   17.48    4.13   0
   3   0  -5   18.01    3.99   0
  -3   0   5   15.80    4.00   0
  -2   0   5   78.55    5.20   0
   2   0  -5   74.69    3.61   0
   2   0  -5   78.32    5.38   0
  -2   0   5   72.96    4.47   0
   1   0  -5    2.19    4.51   0
  -1   0   5    2.60    6.48   0
  -1   0   5    4.27    3.06   0
   1   0  -5    2.31    6.28   0
   0   0   5  444.19   10.59   0
   0   0   5  459.90   11.44   0
   0   0  -5  457.85   11.43   0
   0   0  -5  460.20   10.59   0
  -1   0  -5 5701.85   24.76   0
   1   0   5 5542.85   24.94   0
  -2   0  -5  249.19    7.99   0
  -2   0  -5  245.58    5.08   0
   2   0   5  261.92    5.80   0
   3   0   5   58.98    4.20   0
  -3   0  -5   61.57    3.31   0
  -3   0  -5   59.11    4.80   0
   4   0   5    4.16    4.28   0
  -4   0  -5    8.49    5.08   0
  -4   0  -5    5.92    3.12   0
   5   0   5    4.49    3.48   0
  -5   0  -5    4.24    5.05   0
   5  -1  -5    0.17    4.72   0
   5  -1  -5   -0.78    4.79   0
   4  -1  -5    1.86    4.33   0
   4  -1  -5    0.44    4.02   0
   4  -1  -5   -0.66    4.18   0
   3  -1  -5    4.97    4.11   0
  -3   1   5    7.15    4.10   0
   3  -1  -5    3.46    4.22   0
   3  -1  -5    3.80    4.90   0
  -2   1   5 1104.79   10.04   0
   2  -1  -5 1192.38   10.30   0
   2  -1  -5 1118.25   14.18   0
   2  -1  -5 1242.77   15.04   0
   1  -1  -5  562.42   14.35   0
   1  -1  -5  623.65   15.49   0
   1  -1  -5  589.15    7.83   0
   0  -1  -5   45.93    5.94   0
   0   1   5   47.57    6.62   0
   1   1   5 5646.21   23.98   0
  -1  -1  -5 5236.88   22.43   0
   2   1   5  101.55    3.81   0
  -2  -1  -5  107.45    4.65   0
   3   1   5   97.19    4.44   0
  -3  -1  -5   90.91    5.00   0
  -3  -1  -5  102.40    4.38   0
  -4  -1  -5   22.09    4.29   0
  -4  -1  -5   28.56    4.61   0
   4   1   5   26.42    3.06   0
  -5  -1  -5    4.35    3.39   0
   5   1   5   -0.58    3.06   0
  -5  -1  -5    3.20    4.88   0
   5  -2  -5    1.52    5.33   0
   5  -2  -5   -0.91    5.43   0
   5  -2  -5    1.72    5.31   0
   4  -2  -5    0.71    3.16   0
   4  -2  -5    1.26    4.52   0
   4  -2  -5   -0.07    4.56   0
   3  -2  -5   28.12    4.47   0
   3  -2  -5   28.81    3.24   0
   3  -2  -5   31.97    5.41   0
   2  -2  -5   26.62    3.89   0
   2  -2  -5   27.80    4.33   0
   2  -2  -5   25.54    4.16   0
   1  -2  -5  173.11    6.39   0
  -1   2   5  172.55    6.53   0
   0  -2  -5   82.13    5.62   0
   0   2   5   85.27    5.70   0
   1   2   5    4.07    3.23   0
  -1  -2  -5    6.07    4.32   0
  -2  -2  -5   24.56    4.28   0
   2   2   5   23.14    4.18   0
  -3  -2  -5    6.51    2.80   0
   3   2   5    5.47    4.00   0
  -4  -2  -5    4.86    4.40   0
  -4  -2  -5    4.89    2.74   0
   4   2   5    6.53    3.92   0
  -5  -2  -5    1.36    4.53   0
  -5  -2  -5    3.90    4.86   0
   5   2   5    1.03    4.56   0
   4  -3  -5    3.85    5.03   0
   4  -3  -5    1.22    4.59   0
   4  -3  -5    0.97    4.84   0
   3  -3  -5    6.58    3.22   0
   3  -3  -5    5.49    4.36   0
   3  -3  -5    6.73    4.42   0
   2  -3  -5    7.04    2.88   0
   2  -3  -5    9.28    4.23   0
   2  -3  -5   11.19    4.15   0
   1  -3  -5   17.61    4.56   0
  -1   3   5   20.44    4.32   0
   0   3   5    2.35    4.00   0
   0  -3  -5    5.88    4.17   0
  -1  -3  -5   65.81    3.50   0
   1   3   5   68.29    3.70   0
  -2  -3  -5    8.25    3.95   0
   2   3   5    8.61    3.09   0
  -3  -3  -5    5.42    3.97   0
   3   3   5   -0.45    4.17   0
   4   3   5   -1.58    4.02   0
  -4  -3  -5    1.30    2.89   0
  -5  -3  -5    5.95    4.83   0
  -5  -3  -5    2.04    4.62   0
   5   3   5   -1.47    4.59   0
   4  -4  -5   -1.26    5.38   0
   4  -4  -5    3.43    5.29   0
   4  -4  -5    1.69    5.29   0
   3  -4  -5   -0.24    4.68   0
   3  -4  -5    1.70    4.47   0
   3  -4  -5    0.96    4.51   0
   2  -4  -5   32.85    4.68   0
   2  -4  -5   28.38    4.19   0
  -1   4   5    3.13    3.70   0
   1  -4  -5    0.41    4.26   0
   0   4   5   27.99    4.44   0
   0  -4  -5   29.03    4.15   0
  -1  -4  -5   -2.88    4.01   0
   1   4   5    3.55    4.08   0
  -2  -4  -5   26.31    2.85   0
   2   4   5   22.66    4.54   0
  -3  -4  -5    3.87    4.06   0
   3   4   5   -3.50    4.26   0
   4   4   5    5.57    4.28   0
  -4  -4  -5    1.42    4.14   0
   5   4   5   -1.19    4.99   0
  -5  -4  -5    0.94    5.07   0
  -5  -4  -5   -1.34    4.84   0
   3  -5  -5    5.42    5.05   0
   3  -5  -5    4.07    4.95   0
   3  -5  -5    0.66    4.93   0
  -2   5   5    2.38    4.69   0
   2  -5  -5    6.79    4.71   0
  -1   5   5   -1.91    4.19   0
   1  -5  -5    2.98    4.42   0
   0  -5  -5    1.02    2.88   0
   0   5   5    4.10    4.12   0
  -1  -5  -5   -2.36    2.78   0
   1   5   5    1.27    4.03   0
  -2  -5  -5    4.90    4.16   0
   2   5   5    9.25    3.05   0
  -3  -5  -5   26.04    4.39   0
   3   5   5   30.83    4.54   0
  -4  -5  -5    2.38    3.14   0
   4   5   5   -1.10    3.25   0
   5   5   5    2.17    5.25   0
  -5  -5  -5    0.85    5.06   0
   2  -6  -5    3.28    4.93   0
  -2   6   5    0.30    5.14   0
   1  -6  -5   17.85    4.82   0
  -1   6   5   15.58    4.72   0
   0  -6  -5   30.66    4.64   0
   0   6   5   24.62    4.50   0
  -1  -6  -5    3.97    2.99   0
   1   6   5    2.80    2.99   0
   2   6   5   12.42    4.44   0
  -2  -6  -5   20.09    3.20   0
  -3  -6  -5   29.89    4.76   0
   3   6   5   23.51    3.49   0
  -4  -6  -5    1.72    4.73   0
   4   6   5    5.03    4.89   0
   1  -7  -5   -1.30    3.50   0
  -1   7   5    1.27    3.74   0
   0  -7  -5    6.98    3.50   0
   0   7   5    3.38    3.49   0
  -1  -7  -5    7.36    4.44   0
   1   7   5    3.10    3.29   0
  -2  -7  -5    0.34    3.27   0
   2   7   5    1.59    3.43   0
   3   7   5    6.70    5.00   0
  -3  -7  -5    3.75    4.83   0
  -4  -7  -5    3.61    3.75   0
   4   7   5    3.11    3.70   0
   0  -8  -5   -2.18    5.46   0
   0   8   5   -0.21    3.80   0
  -1  -8  -5    5.76    5.25   0
   1   8   5    3.12    3.80   0
   2   8   5    4.02    5.32   0
  -2  -8  -5   -2.53    5.32   0
  -1  -8   6    0.65    5.49   0
   1   8  -6   -3.90    5.35   0
  -3  -7   6   -0.48    3.50   0
   3   7  -6    2.74    5.00   0
  -2  -7   6    2.83    4.90   0
   2   7  -6    2.42    3.26   0
   1   7  -6    1.13    3.30   0
  -1  -7   6    6.10    4.77   0
   0   7  -6    0.97    4.34   0
   0  -7   6    3.17    3.23   0
  -1   7  -6    4.79    4.97   0
   1  -7   6    4.00    3.56   0
   4   6  -6    2.02    5.10   0
  -4  -6   6   -2.12    3.60   0
  -3  -6   6    1.86    3.34   0
   3   6  -6    0.43    4.43   0
  -2  -6   6    2.96    4.47   0
   2   6  -6    3.79    3.04   0
  -1  -6   6   16.96    4.76   0
   1   6  -6    3.47    4.42   0
   0   6  -6    0.51    4.17   0
   0  -6   6    4.84    3.14   0
  -1   6  -6    2.75    4.21   0
   1  -6   6    3.17    3.23   0
   2  -6   6    6.99    4.48   0
  -5  -5   6   -0.94    5.20   0
  -5  -5   6    2.18    5.43   0
   5   5  -6    3.32    5.39   0
   4   5  -6   -1.01    3.17   0
  -4  -5   6    0.90    3.27   0
  -4  -5   6    1.72    4.66   0
   3   5  -6    5.76    3.06   0
  -3  -5   6    6.09    3.10   0
   2   5  -6    0.73    2.99   0
  -2  -5   6   -2.12    3.05   0
  -1  -5   6   12.53    4.39   0
   1   5  -6   17.65    4.29   0
   0   5  -6   -0.76    4.04   0
   0  -5   6   -1.17    3.03   0
  -1   5  -6    8.04    2.65   0
   1  -5   6    9.00    3.00   0
   2  -5   6    1.88    4.17   0
   3  -5   6   -0.09    4.77   0
   3  -5   6    1.55    5.28   0
   3  -5   6    6.62    5.30   0
   5   4  -6    1.85    3.66   0
  -5  -4   6    5.22    4.93   0
  -5  -4   6    3.72    3.80   0
  -4  -4   6    3.60    4.32   0
  -4  -4   6   -1.06    2.97   0
   4   4  -6    2.25    2.98   0
   3   4  -6    5.31    3.01   0
  -3  -4   6    3.92    2.98   0
  -2  -4   6  110.47    4.67   0
   2   4  -6  111.24    4.49   0
   1   4  -6    1.29    2.74   0
  -1  -4   6   -0.58    3.15   0
   0  -4   6   58.09    4.40   0
   0   4  -6   55.24    4.21   0
   1  -4   6    7.24    2.94   0
  -1   4  -6    9.45    3.87   0
   2  -4   6    2.58    2.70   0
   2  -4   6    4.77    3.98   0
   3  -4   6    8.15    4.39   0
   3  -4   6    8.41    4.91   0
   3  -4   6    5.94    4.73   0
   4  -4   6    0.89    4.97   0
   4  -4   6    1.02    5.11   0
   4  -4   6    0.83    5.20   0
  -5  -3   6   -2.25    5.01   0
   5   3  -6   -0.38    3.68   0
  -5  -3   6    1.06    5.08   0
  -4  -3   6    8.07    3.25   0
  -4  -3   6   11.00    3.03   0
   4   3  -6    3.96    4.49   0
  -3  -3   6   20.70    3.27   0
   3   3  -6   27.37    4.79   0
  -3  -3   6   21.88    4.13   0
  -2  -3   6  158.12    5.24   0
   2   3  -6  167.24    5.20   0
   1   3  -6  894.65    8.13   0
  -1  -3   6  918.54    8.91   0
   0   3  -6   20.30    4.11   0
   0  -3   6   23.28    3.05   0
  -1   3  -6  151.89    4.84   0
   1  -3   6  134.11    4.06   0
   2  -3   6    1.18    2.68   0
   2  -3   6    5.01    3.54   0
   3  -3   6    1.08    5.25   0
   3  -3   6   -0.90    4.08   0
   3  -3   6    0.40    3.07   0
   4  -3   6    3.55    5.87   0
   4  -3   6    3.04    3.33   0
   4  -3   6    5.74    4.97   0
  -5  -2   6    2.17    3.47   0
   5   2  -6   -0.53    5.00   0
  -5  -2   6    4.63    4.64   0
   4   2  -6    2.21    4.44   0
  -4  -2   6    7.72    3.95   0
  -4  -2   6    0.06    4.50   0
  -3  -2   6   36.32    3.18   0
  -3  -2   6   34.44    4.00   0
   3   2  -6   38.52    4.39   0
  -2  -2   6  197.71    5.63   0
  -2  -2   6  198.06    5.23   0
   2   2  -6  202.62    4.92   0
   1   2  -6  462.38    6.86   0
  -1  -2   6  499.65    7.73   0
   0   2  -6   59.45    4.36   0
   0  -2   6   58.20    4.58   0
  -1   2  -6   33.03    4.00   0
   1  -2   6   31.72    3.05   0
   2  -2   6  241.14    7.70   0
   2  -2   6  262.49    5.85   0
   2  -2   6  237.44    4.72   0
   3  -2   6    5.80    4.04   0
   3  -2   6    5.56    2.68   0
   3  -2   6    2.84    4.06   0
   4  -2   6   -0.29    2.94   0
   4  -2   6    0.52    3.18   0
   5  -2   6    1.05    5.11   0
   5  -2   6    1.87    5.30   0
   5   1  -6    1.82    4.77   0
  -5  -1   6    1.67    5.02   0
  -5  -1   6    2.54    3.30   0
   4   1  -6    1.13    4.42   0
  -4  -1   6    1.35    4.39   0
  -4  -1   6   -1.60    4.29   0
   3   1  -6    1.64    4.04   0
  -3  -1   6    1.53    3.62   0
  -3  -1   6    2.72    3.58   0
  -2  -1   6  114.48    5.57   0
   2   1  -6  110.08    5.71   0
  -2  -1   6  108.33    3.79   0
  -1  -1   6  712.53   10.84   0
   1   1  -6  724.61   10.81   0
  -1  -1   6  697.83    8.41   0
   0  -1   6  856.11   12.22   0
   0   1  -6  835.63    9.81   0
   0  -1   6  816.60   10.11   0
   1  -1   6  879.48    9.14   0
   1  -1   6  829.73    9.33   0
   2  -1   6   30.86    3.14   0
  -3   1  -6    4.80    2.55   0
   3  -1   6    6.14    3.69   0
   4  -1   6    3.47    2.94   0
   5  -1   6   14.89    4.95   0
   5  -1   6   12.39    5.12   0
  -5   0   6    8.37    3.70   0
  -5   0   6    9.89    4.85   0
   5   0  -6    3.69    5.26   0
  -4   0   6   10.88    4.31   0
  -4   0   6   12.85    3.03   0
   4   0  -6   10.32    4.34   0
  -3   0   6    1.86    3.62   0
   3   0  -6    2.93    4.03   0
   3   0  -6    2.82    3.69   0
  -3   0   6    0.49    4.02   0
   2   0  -6  369.16    6.41   0
  -2   0   6  348.47    6.45   0
   2   0  -6  351.02    8.52   0
  -2   0   6  373.32    9.48   0
  -1   0   6   31.66    3.31   0
   1   0  -6   35.14    3.39   0
   1   0  -6   35.76    7.55   0
  -1   0   6   33.70    7.51   0
   0   0   6  343.36    8.90   0
   0   0  -6  320.08    7.87   0
   0   0   6  362.42    9.66   0
  -1   0  -6    3.95    4.61   0
   1   0   6    1.26    3.30   0
  -2   0  -6   62.17    3.40   0
   2   0   6   70.48    3.53   0
  -2   0  -6   69.86    6.34   0
  -3   0  -6    1.28    3.66   0
  -3   0  -6    1.82    4.00   0
   3   0   6    2.12    2.55   0
   4   0   6   28.76    4.10   0
  -4   0  -6   36.38    4.40   0
  -4   0  -6   26.09    5.82   0
   5   0   6    2.57    4.79   0
  -5   0  -6    4.40    3.66   0
   5  -1  -6    2.86    4.90   0
   5  -1  -6    0.84    5.15   0
   4  -1  -6    3.36    4.32   0
   4  -1  -6    3.67    4.14   0
   4  -1  -6    3.66    4.48   0
   3  -1  -6    3.05    4.06   0
   3  -1  -6    1.76    2.62   0
  -3   1   6    1.82    3.95   0
   3  -1  -6    2.62    3.85   0
   2  -1  -6   40.36    4.30   0
   2  -1  -6   37.72    4.62   0
  -2   1   6   39.33    4.24   0
   2  -1  -6   39.18    4.76   0
   1  -1  -6  186.51   11.90   0
   1  -1  -6  170.93    4.74   0
   1  -1  -6  167.87   11.34   0
   0  -1  -6  129.51    6.91   0
   0   1   6  127.67    6.95   0
   1   1   6 1572.05   13.20   0
  -1  -1  -6 1638.14   13.19   0
   2   1   6    2.16    4.08   0
  -2  -1  -6    2.33    3.81   0
   3   1   6    4.00    3.73   0
  -3  -1  -6    1.03    3.91   0
  -3  -1  -6    4.88    3.70   0
  -4  -1  -6   46.23    4.64   0
   4   1   6   48.00    3.51   0
  -4  -1  -6   44.66    4.91   0
   5   1   6    2.08    4.60   0
  -5  -1  -6    2.20    4.84   0
  -5  -1  -6    0.43    4.53   0
   5  -2  -6    1.21    3.86   0
   5  -2  -6    5.04    6.60   0
   5  -2  -6   -2.06    6.66   0
   4  -2  -6    3.20    4.32   0
   4  -2  -6    0.17    4.64   0
   4  -2  -6   -0.93    5.33   0
   3  -2  -6    4.57    2.87   0
   3  -2  -6    4.94    4.09   0
   3  -2  -6    5.26    3.99   0
   2  -2  -6   19.93    2.93   0
   2  -2  -6   22.99    5.07   0
   2  -2  -6   17.91    4.29   0
   1  -2  -6    0.77    4.42   0
  -1   2   6    0.67    3.94   0
   0  -2  -6   54.29    4.85   0
   0   2   6   48.25    5.35   0
   1   2   6   25.16    3.32   0
  -1  -2  -6   25.03    3.33   0
   2   2   6   30.94    3.25   0
  -2  -2  -6   32.56    4.17   0
   3   2   6   17.01    3.99   0
  -3  -2  -6   17.85    2.93   0
  -4  -2  -6    1.28    4.33   0
   4   2   6    2.05    4.00   0
  -4  -2  -6    3.23    3.87   0
  -5  -2  -6   -0.63    3.40   0
  -5  -2  -6    5.83    4.99   0
   5   2   6    1.18    4.57   0
   4  -3  -6    0.47    4.99   0
   4  -3  -6    1.72    4.73   0
   4  -3  -6    1.85    4.77   0
   3  -3  -6    9.46    3.00   0
   3  -3  -6    7.20    4.36   0
   3  -3  -6   10.92    4.36   0
   2  -3  -6    1.48    4.01   0
   2  -3  -6    2.72    5.12   0
   2  -3  -6    2.30    4.25   0
   1  -3  -6   47.91    4.88   0
  -1   3   6   49.70    4.62   0
   0   3   6    3.89    4.43   0
   0  -3  -6    7.27    4.19   0
   1   3   6   -0.58    2.88   0
  -1  -3  -6    4.00    3.92   0
   2   3   6   27.92    4.34   0
  -2  -3  -6   29.52    3.01   0
   3   3   6   11.52    4.26   0
  -3  -3  -6   12.62    3.94   0
   4   3   6    8.44    3.14   0
  -4  -3  -6   10.25    3.00   0
   5   3   6    3.80    4.64   0
  -5  -3  -6    6.27    4.93   0
  -5  -3  -6    3.74    3.33   0
   4  -4  -6    0.15    5.46   0
   4  -4  -6    1.42    6.55   0
   4  -4  -6    1.05    6.56   0
   3  -4  -6    3.95    4.48   0
   3  -4  -6    2.07    4.64   0
   3  -4  -6    0.32    4.40   0
   2  -4  -6   -0.68    4.51   0
   2  -4  -6   -0.29    4.10   0
  -1   4   6    1.06    3.82   0
   1  -4  -6    2.71    4.43   0
   0   4   6    9.42    3.12   0
   0  -4  -6   10.39    4.32   0
  -1  -4  -6   13.72    4.08   0
   1   4   6   12.28    3.16   0
  -2  -4  -6   -4.75    3.89   0
   2   4   6   -0.28    4.10   0
  -3  -4  -6    4.17    4.04   0
   3   4   6    1.65    4.24   0
   4   4   6    4.10    4.21   0
  -4  -4  -6    3.08    4.19   0
   5   4   6   -1.83    4.85   0
  -5  -4  -6    4.03    4.96   0
  -5  -4  -6    1.46    3.59   0
   3  -5  -6   13.97    5.17   0
   3  -5  -6   12.92    5.07   0
   3  -5  -6    9.54    5.29   0
  -2   5   6    6.78    4.47   0
   2  -5  -6    3.93    4.56   0
  -1   5   6   -0.39    3.03   0
   1  -5  -6    1.84    4.45   0
   0   5   6    1.57    4.04   0
   0  -5  -6    3.21    4.23   0
  -1  -5  -6   41.76    4.22   0
   1   5   6   37.29    4.35   0
  -2  -5  -6   22.22    4.25   0
   2   5   6   22.02    3.22   0
  -3  -5  -6    7.25    4.21   0
   3   5   6    5.69    4.38   0
  -4  -5  -6    2.74    3.29   0
   4   5   6   -5.23    4.69   0
   5   5   6    0.69    5.05   0
  -5  -5  -6    3.23    3.78   0
  -2   6   6    2.02    5.08   0
   2  -6  -6   -0.46    4.87   0
  -1   6   6    7.50    4.82   0
   1  -6  -6   10.33    4.74   0
   0  -6  -6   40.84    4.64   0
   0   6   6   29.58    3.36   0
  -1  -6  -6    6.01    4.22   0
   1   6   6    6.04    2.95   0
   2   6   6    4.43    4.54   0
  -2  -6  -6   12.66    4.31   0
  -3  -6  -6   17.08    4.66   0
   3   6   6   15.32    3.48   0
  -4  -6  -6    0.30    4.88   0
   4   6   6    1.53    4.85   0
  -1   7   6    0.16    5.22   0
   1  -7  -6   -3.10    5.25   0
   0   7   6    1.09    4.71   0
   0  -7  -6    2.93    4.72   0
   1   7   6   -2.81    4.65   0
  -1  -7  -6    5.04    3.11   0
   2   7   6   13.07    4.60   0
  -2  -7  -6    4.63    3.34   0
   3   7   6    6.23    3.61   0
  -3  -7  -6    6.49    5.06   0
   4   7   6    3.40    3.94   0
  -1  -8  -6    1.40    3.55   0
   1   8   6    2.24    5.17   0
   2   8   6   -5.00    5.46   0
  -2  -8  -6    3.55    5.43   0
  -3  -7   7   -4.52    4.96   0
   3   7  -7   -3.65    3.38   0
  -2  -7   7    1.48    3.43   0
   2   7  -7    0.82    3.31   0
   1   7  -7   -0.74    3.37   0
  -1  -7   7   -1.33    4.80   0
   0  -7   7    4.84    4.90   0
   0   7  -7    6.72    3.35   0
   1  -7   7    1.41    5.11   0
  -1   7  -7    2.81    3.52   0
  -4  -6   7    2.16    4.98   0
  -4  -6   7   -0.31    5.17   0
   4   6  -7   -0.77    3.44   0
   3   6  -7    3.63    4.50   0
  -3  -6   7    7.15    4.84   0
   2   6  -7    7.48    3.15   0
  -2  -6   7    9.51    3.26   0
   1   6  -7   28.97    3.27   0
  -1  -6   7   23.38    4.72   0
   0  -6   7   -0.34    4.45   0
   0   6  -7    1.66    4.23   0
   1  -6   7    4.90    4.44   0
  -1   6  -7    4.86    3.14   0
   2  -6   7    3.77    3.34   0
   5   5  -7    1.03    3.80   0
  -4  -5   7    7.14    4.89   0
  -4  -5   7    3.44    4.68   0
   4   5  -7    7.13    4.84   0
   3   5  -7   -1.68    4.29   0
  -3  -5   7    1.55    4.24   0
   2   5  -7   -5.30    4.16   0
  -2  -5   7   -0.99    4.16   0
  -1  -5   7    5.86    4.41   0
   1   5  -7   17.88    4.08   0
   0  -5   7   73.21    3.61   0
   0   5  -7   73.11    4.52   0
   1  -5   7   16.74    2.89   0
  -1   5  -7   14.88    2.90   0
   2  -5   7   19.55    3.30   0
   3  -5   7    2.70    5.01   0
   3  -5   7    4.57    4.96   0
   3  -5   7   -2.47    4.70   0
  -5  -4   7    1.68    5.02   0
  -5  -4   7    3.59    5.26   0
   5   4  -7   -1.06    5.38   0
   4   4  -7    2.53    4.26   0
  -4  -4   7    2.44    4.58   0
  -4  -4   7    3.64    4.35   0
   3   4  -7   19.90    3.17   0
  -3  -4   7   27.48    4.30   0
   2   4  -7   21.32    4.17   0
  -2  -4   7   19.30    4.26   0
   1   4  -7   40.45    3.16   0
  -1  -4   7   37.52    3.24   0
   0   4  -7   75.12    3.36   0
   0  -4   7   80.23    4.48   0
  -1   4  -7    6.74    3.77   0
   1  -4   7    1.07    2.85   0
   2  -4   7    2.09    3.95   0
   2  -4   7    4.26    3.90   0
   3  -4   7   10.52    3.16   0
   3  -4   7    7.45    5.77   0
   3  -4   7    8.89    4.35   0
   4  -4   7    3.28    3.65   0
   4  -4   7   -0.19    6.54   0
   4  -4   7    0.10    5.24   0
  -5  -3   7   -2.22    5.06   0
   5   3  -7   -1.49    5.01   0
  -5  -3   7    2.64    3.55   0
  -4  -3   7  106.53    5.63   0
  -4  -3   7   97.83    4.11   0
   4   3  -7  113.24    5.62   0
  -3  -3   7   49.42    3.44   0
  -3  -3   7   58.35    4.56   0
   3   3  -7   54.10    4.84   0
  -2  -3   7    3.34    4.10   0
   2   3  -7    2.29    2.79   0
   1   3  -7  318.72    5.37   0
  -1  -3   7  346.82    6.52   0
   0  -3   7  185.75    4.33   0
   0   3  -7  207.15    5.16   0
  -1   3  -7   12.27    3.73   0
   1  -3   7   11.70    2.83   0
   2  -3   7   36.34    3.84   0
   2  -3   7   28.53    3.73   0
   3  -3   7    3.32    4.03   0
   3  -3   7    4.15    4.25   0
   3  -3   7    1.64    5.29   0
   4  -3   7    0.79    4.35   0
   4  -3   7    1.92    3.52   0
  -5  -2   7    4.19    5.08   0
  -5  -2   7   -1.23    4.73   0
   5   2  -7    3.91    4.97   0
  -4  -2   7  178.63    5.71   0
   4   2  -7  203.40    6.02   0
  -4  -2   7  200.92    6.26   0
  -3  -2   7   46.04    3.64   0
  -3  -2   7   52.27    3.11   0
   3   2  -7   58.20    4.71   0
   2   2  -7    2.73    3.13   0
  -2  -2   7    3.82    3.84   0
  -2  -2   7    3.35    4.35   0
  -1  -2   7  347.57    6.15   0
   1   2  -7  332.66    5.89   0
   0  -2   7    3.47    3.87   0
   0   2  -7    2.77    3.66   0
   1  -2   7   10.23    3.91   0
   2  -2   7  106.86    7.61   0
   2  -2   7  107.64    4.53   0
   2  -2   7  114.75    3.86   0
   3  -2   7   27.30    4.10   0
   3  -2   7   22.01    5.28   0
   3  -2   7   25.18    4.07   0
   4  -2   7    0.94    4.44   0
   4  -2   7   -2.03    4.44   0
   5  -2   7    9.36    5.20   0
   5  -2   7    8.63    5.09   0
   5   1  -7    5.87    5.12   0
  -5  -1   7    5.03    5.19   0
  -5  -1   7    0.86    4.76   0
  -4  -1   7   -0.82    3.00   0
   4   1  -7    5.98    4.37   0
  -4  -1   7    3.10    5.20   0
   3   1  -7   41.21    4.52   0
  -3  -1   7   40.17    3.87   0
  -3  -1   7   36.13    4.25   0
  -2  -1   7   28.29    3.89   0
  -2  -1   7   30.64    5.56   0
   2   1  -7   30.36    4.87   0
  -1  -1   7   55.85    4.32   0
   1   1  -7   53.92    5.20   0
  -1  -1   7   53.46    5.44   0
   0   1  -7  566.28    8.71   0
   0  -1   7  500.50    7.86   0
   0  -1   7  542.48    9.74   0
   1  -1   7   38.04    4.27   0
   1  -1   7   31.81    7.32   0
   1  -1   7   34.46    4.08   0
   2  -1   7  366.06    5.70   0
   3  -1   7   11.39    3.88   0
   4  -1   7    5.24    4.22   0
   5  -1   7   11.13    5.07   0
   5  -1   7   11.03    5.02   0
   5   0  -7   -1.78    5.06   0
  -5   0   7    3.10    3.54   0
   4   0  -7    3.02    4.33   0
  -4   0   7    7.98    4.16   0
  -4   0   7    1.10    5.33   0
  -3   0   7    6.23    4.16   0
   3   0  -7    3.41    4.29   0
   3   0  -7    4.70    2.51   0
  -3   0   7    4.44    2.69   0
   2   0  -7    6.80    2.62   0
   2   0  -7    5.90    4.30   0
  -2   0   7    7.50    2.66   0
  -2   0   7    5.96    4.01   0
  -1   0   7    1.54    2.67   0
   1   0  -7    0.50    5.72   0
  -1   0   7    0.50    6.67   0
   1   0  -7    1.88    2.76   0
   0   0   7   70.36    5.87   0
   0   0  -7   69.56    5.50   0
   0   0   7   65.90    5.40   0
  -1   0  -7 1978.57   26.78   0
   1   0   7 2150.12   15.11   0
  -1   0  -7 1952.39   13.58   0
  -2   0  -7   15.79    3.84   0
   2   0   7   11.87    4.05   0
  -2   0  -7   15.23    5.93   0
  -3   0  -7    3.66    2.59   0
  -3   0  -7    1.96    4.94   0
   3   0   7    3.87    3.59   0
  -4   0  -7    6.18    4.09   0
  -4   0  -7    4.10    5.21   0
   4   0   7    2.38    2.85   0
   5   0   7    2.32    4.70   0
  -5   0  -7   -0.09    3.29   0
   5  -1  -7    0.64    5.01   0
   5  -1  -7    2.26    6.24   0
   4  -1  -7    1.07    4.26   0
   4  -1  -7    0.05    5.46   0
   4  -1  -7    1.83    5.19   0
   3  -1  -7   17.47    4.22   0
   3  -1  -7   20.70    5.20   0
   3  -1  -7   16.42    2.71   0
  -3   1   7   21.32    4.05   0
   2  -1  -7   80.24    6.16   0
  -2   1   7   82.00    4.49   0
   2  -1  -7   84.57    4.51   0
   2  -1  -7   77.00    6.09   0
   1  -1  -7    3.35    3.79   0
   0   1   7   41.03    5.55   0
   0  -1  -7   41.91    5.08   0
   1   1   7  111.59    4.38   0
  -1  -1  -7  128.19    4.44   0
  -2  -1  -7  168.50    4.20   0
   2   1   7  176.53    5.19   0
   3   1   7   39.85    4.15   0
  -3  -1  -7   36.01    4.11   0
  -3  -1  -7   37.23    4.37   0
   4   1   7    2.07    3.94   0
  -4  -1  -7    2.93    4.19   0
  -4  -1  -7    3.72    4.03   0
  -5  -1  -7    2.30    4.65   0
  -5  -1  -7    4.05    5.04   0
   5   1   7    3.88    4.50   0
   5  -2  -7   -0.15    5.41   0
   5  -2  -7    0.08    6.55   0
   5  -2  -7    1.84    5.65   0
   4  -2  -7    3.46    4.53   0
   4  -2  -7    1.98    4.66   0
   4  -2  -7    1.03    4.42   0
   3  -2  -7    6.03    4.90   0
   3  -2  -7    4.01    2.93   0
   3  -2  -7    6.66    4.86   0
   2  -2  -7  193.24    5.22   0
   2  -2  -7  185.94    7.38   0
   2  -2  -7  200.23    7.52   0
   1  -2  -7    2.90    2.63   0
  -1   2   7    4.74    4.03   0
   1  -2  -7    4.07    5.31   0
   0   2   7   84.37    5.45   0
   0  -2  -7   81.25    5.30   0
  -1  -2  -7  482.07    6.78   0
   1   2   7  511.72    7.02   0
   2   2   7   29.37    4.38   0
  -2  -2  -7   26.09    4.11   0
   3   2   7    0.63    3.93   0
  -3  -2  -7    1.02    2.59   0
   4   2   7   -0.36    4.13   0
  -4  -2  -7    4.79    4.39   0
  -4  -2  -7    2.25    3.93   0
  -5  -2  -7    4.44    4.62   0
   5   2   7    0.09    4.55   0
  -5  -2  -7    0.43    4.87   0
   4  -3  -7    2.53    4.95   0
   4  -3  -7    1.21    4.69   0
   4  -3  -7    0.60    4.77   0
   3  -3  -7   65.66    5.46   0
   3  -3  -7   67.96    5.43   0
   3  -3  -7   81.34    4.84   0
   2  -3  -7  450.65    8.64   0
   2  -3  -7  520.47    9.39   0
   2  -3  -7  478.27    7.09   0
  -1   3   7    0.72    4.08   0
   1  -3  -7   -0.45    4.44   0
   0   3   7   49.62    4.75   0
   0  -3  -7   44.81    4.76   0
  -1  -3  -7   80.21    4.55   0
   1   3   7   77.11    4.86   0
  -2  -3  -7   68.92    3.37   0
   2   3   7   73.64    4.57   0
   3   3   7    0.71    4.16   0
  -3  -3  -7    0.76    3.93   0
   4   3   7    2.70    2.77   0
  -4  -3  -7    0.92    2.91   0
  -5  -3  -7    0.35    4.62   0
  -5  -3  -7    2.36    4.99   0
   5   3   7    0.75    3.24   0
   4  -4  -7    9.40    5.38   0
   4  -4  -7   -0.18    5.31   0
   4  -4  -7    2.28    5.35   0
   3  -4  -7    0.45    4.51   0
   3  -4  -7    0.61    4.44   0
   3  -4  -7   -1.62    4.42   0
   2  -4  -7   85.67    3.62   0
   2  -4  -7   79.26    4.97   0
   1  -4  -7   20.13    4.48   0
  -1   4   7   20.91    4.14   0
   0   4   7   45.52    3.54   0
   0  -4  -7   51.29    4.54   0
  -1  -4  -7   16.39    3.96   0
   1   4   7   16.70    3.14   0
  -2  -4  -7    6.09    2.80   0
   2   4   7   13.81    4.17   0
  -3  -4  -7    9.58    2.97   0
   3   4   7   11.56    4.31   0
  -4  -4  -7   16.77    4.35   0
   4   4   7   16.04    3.28   0
   5   4   7    1.11    3.34   0
  -5  -4  -7    4.75    5.07   0
  -5  -4  -7   -2.44    3.52   0
   3  -5  -7   10.08    5.28   0
   3  -5  -7    7.88    3.75   0
   3  -5  -7    6.44    5.11   0
  -2   5   7   -1.80    4.77   0
   2  -5  -7    2.17    4.45   0
   2  -5  -7   -0.60    4.76   0
  -1   5   7    1.67    4.18   0
   1  -5  -7    2.16    4.36   0
   0   5   7    5.51    4.23   0
   0  -5  -7    5.39    4.30   0
   1   5   7   14.29    4.36   0
  -1  -5  -7   16.99    4.08   0
  -2  -5  -7   11.45    3.00   0
   2   5   7   10.10    3.11   0
   3   5   7   -3.40    4.56   0
  -3  -5  -7   -0.57    4.29   0
  -4  -5  -7   12.89    4.58   0
   4   5   7   11.56    4.80   0
   5   5   7    1.09    3.50   0
  -5  -5  -7    3.66    5.14   0
   2  -6  -7    1.10    3.61   0
  -2   6   7    0.10    5.17   0
   1  -6  -7    5.79    4.39   0
  -1   6   7    4.85    4.42   0
   0  -6  -7    2.13    4.34   0
   0   6   7    3.59    4.26   0
   1   6   7    1.58    4.26   0
  -1  -6  -7    3.14    3.03   0
   2   6   7   -1.86    4.40   0
  -2  -6  -7    2.60    4.28   0
  -3  -6  -7   39.80    4.69   0
   3   6   7   32.90    4.77   0
  -4  -6  -7    0.13    4.74   0
   4   6   7    2.92    4.75   0
   1  -7  -7   -0.63    5.11   0
  -1   7   7    1.71    4.93   0
   0  -7  -7    4.12    4.70   0
   0   7   7    2.32    3.18   0
  -1  -7  -7    4.28    3.17   0
   1   7   7    2.60    3.23   0
   2   7   7    6.32    4.78   0
  -2  -7  -7    2.43    3.21   0
   3   7   7   14.35    4.93   0
  -3  -7  -7    6.46    5.06   0
  -1  -8  -7    1.72    3.72   0
   1   8   7    1.83    3.71   0
   2   8   7   -2.23    3.92   0
  -2  -8  -7   -0.07    5.53   0
  -3  -7   8   -1.59    3.67   0
   3   7  -8    5.08    3.82   0
  -2  -7   8   -0.30    5.13   0
   2   7  -8    4.50    3.26   0
   1   7  -8    1.69    3.28   0
  -1  -7   8   -1.13    3.43   0
   0   7  -8    4.99    3.31   0
   0  -7   8   -2.81    3.48   0
   1  -7   8   -1.42    3.53   0
  -1   7  -8   -1.16    4.88   0
  -4  -6   8    5.12    3.74   0
   4   6  -8    2.04    3.67   0
  -4  -6   8    4.95    5.26   0
   3   6  -8    3.60    3.28   0
  -3  -6   8   -2.56    3.30   0
  -2  -6   8    7.07    3.36   0
   2   6  -8    6.13    4.19   0
  -1  -6   8   12.79    3.28   0
   1   6  -8    8.31    3.13   0
   0  -6   8    4.74    4.59   0
   0   6  -8    3.43    4.23   0
  -1   6  -8    2.29    3.06   0
   1  -6   8    3.47    3.26   0
   2  -6   8    4.56    4.72   0
  -4  -5   8    9.70    4.76   0
  -4  -5   8   -0.33    4.76   0
   4   5  -8   -2.40    3.36   0
   3   5  -8   17.54    3.35   0
  -3  -5   8   13.28    4.60   0
   2   5  -8   13.92    4.20   0
  -2  -5   8   12.24    4.09   0
  -1  -5   8   23.92    3.25   0
   1   5  -8   23.24    3.09   0
   0  -5   8   40.07    4.52   0
   0   5  -8   37.65    4.28   0
  -1   5  -8   11.71    4.03   0
   1  -5   8   11.83    4.23   0
   2  -5   8   -1.91    4.24   0
   2  -5   8    0.50    2.99   0
   3  -5   8    1.18    3.49   0
   3  -5   8    2.89    6.36   0
   3  -5   8   -0.28    4.83   0
   5   4  -8   -1.02    5.14   0
  -5  -4   8    2.37    3.47   0
  -5  -4   8   -2.06    5.43   0
   4   4  -8    2.74    4.70   0
  -4  -4   8    2.09    3.28   0
  -4  -4   8    1.30    4.54   0
   3   4  -8   55.88    4.63   0
  -3  -4   8   56.39    4.75   0
  -3  -4   8   46.64    3.40   0
  -2  -4   8    7.93    4.16   0
   2   4  -8   13.35    2.95   0
  -1  -4   8    4.76    2.90   0
   1   4  -8    8.78    3.66   0
   0  -4   8   28.79    4.49   0
   0   4  -8   32.51    2.97   0
   1  -4   8    5.18    4.26   0
  -1   4  -8   18.46    3.95   0
   2  -4   8    5.87    4.06   0
   2  -4   8    7.75    2.80   0
   3  -4   8    8.59    4.49   0
   3  -4   8    8.10    5.78   0
   3  -4   8    9.32    4.59   0
   4  -4   8    2.98    7.35   0
   4  -4   8    4.03    5.48   0
   4  -4   8    1.72    4.92   0
  -5  -3   8    4.98    4.96   0
  -5  -3   8    1.24    5.12   0
   5   3  -8    0.34    5.03   0
  -4  -3   8    4.36    4.73   0
  -4  -3   8    5.76    3.26   0
   4   3  -8   10.43    4.64   0
   3   3  -8   23.11    3.17   0
  -3  -3   8   24.59    4.44   0
  -3  -3   8   24.32    4.18   0
   2   3  -8  243.00    5.78   0
  -2  -3   8  222.96    5.82   0
   1   3  -8    4.33    3.82   0
  -1  -3   8    6.19    4.20   0
   0  -3   8    8.85    4.16   0
   0   3  -8    7.73    2.69   0
   1  -3   8   15.82    3.91   0
  -1   3  -8   17.16    3.67   0
   2  -3   8    2.44    3.71   0
   2  -3   8    2.68    2.94   0
   3  -3   8    1.10    5.26   0
   3  -3   8    0.63    2.78   0
   3  -3   8   -3.32    4.20   0
   4  -3   8   -1.25    3.23   0
   4  -3   8    3.61    4.53   0
  -5  -2   8    1.11    3.42   0
  -5  -2   8   -0.15    4.95   0
   5   2  -8    1.99    4.82   0
  -4  -2   8   -1.08    2.88   0
   4   2  -8    2.04    4.42   0
  -4  -2   8   -3.10    4.42   0
  -3  -2   8   61.33    4.59   0
  -3  -2   8   57.62    3.28   0
   3   2  -8   65.69    4.85   0
   2   2  -8   25.99    4.42   0
  -2  -2   8   23.02    2.99   0
  -2  -2   8   29.94    4.66   0
  -1  -2   8 1323.47   11.22   0
  -1  -2   8 1367.76   11.12   0
   1   2  -8 1250.35   10.23   0
   0   2  -8  251.02    5.50   0
   0  -2   8  251.41    5.63   0
   1  -2   8  151.50    4.06   0
   2  -2   8   11.80    5.72   0
   2  -2   8   12.53    3.94   0
   2  -2   8   15.16    3.87   0
   3  -2   8   17.48    4.23   0
   3  -2   8   12.80    4.20   0
   4  -2   8    2.44    4.41   0
   4  -2   8    4.73    4.30   0
   5  -2   8    5.52    5.00   0
   5  -2   8    8.23    3.90   0
  -5  -1   8   -0.98    5.08   0
  -5  -1   8    3.76    3.58   0
   5   1  -8    2.05    4.82   0
  -4  -1   8    5.73    4.15   0
   4   1  -8    3.00    4.37   0
  -4  -1   8    4.40    5.31   0
  -3  -1   8    1.45    3.69   0
  -3  -1   8    5.13    3.96   0
   3   1  -8    5.87    4.35   0
   2   1  -8  122.29    5.85   0
  -2  -1   8  133.34    6.72   0
  -2  -1   8  129.44    4.66   0
  -1  -1   8   94.86    5.93   0
  -1  -1   8  106.15    4.74   0
   1   1  -8  107.51    5.54   0
   0  -1   8  271.25    7.03   0
   0  -1   8  254.69    5.80   0
   0   1  -8  274.51    6.56   0
   1  -1   8  117.89    4.73   0
   1  -1   8  113.17    8.79   0
   1  -1   8  124.43    4.10   0
   2  -1   8  137.19    4.11   0
   3  -1   8    3.64    2.51   0
   4  -1   8   -1.63    2.88   0
   5  -1   8    3.77    4.91   0
   5  -1   8    0.35    4.98   0
  -5   0   8    5.21    4.94   0
   5   0  -8    1.00    5.00   0
  -4   0   8    6.47    5.74   0
  -4   0   8    9.36    4.42   0
   4   0  -8    9.68    5.85   0
  -3   0   8    8.05    3.78   0
   3   0  -8    9.18    5.28   0
  -3   0   8    9.78    4.23   0
   3   0  -8   10.24    3.65   0
   2   0  -8    1.68    2.60   0
  -2   0   8    5.47    2.62   0
  -2   0   8    1.95    4.46   0
   2   0  -8   -0.06    4.75   0
   1   0  -8   66.24    7.12   0
  -1   0   8   62.80    3.52   0
   1   0  -8   64.36    3.59   0
  -1   0   8   62.09    7.90   0
   0   0   8  408.92    8.89   0
   0   0   8  366.42    7.49   0
   0   0  -8  420.84    8.48   0
   1   0   8 1223.93   11.76   0
  -1   0  -8 1217.13   10.69   0
  -1   0  -8 1160.54   18.80   0
  -2   0  -8  391.90    6.55   0
   2   0   8  364.32    5.63   0
  -2   0  -8  355.96   13.82   0
  -3   0  -8    7.59    3.97   0
  -3   0  -8    5.66    5.15   0
   3   0   8    6.63    2.82   0
  -4   0  -8    5.06    5.26   0
  -4   0  -8    7.68    3.09   0
   4   0   8    6.23    4.14   0
   5   0   8   -0.16    3.32   0
  -5   0  -8   -2.16    4.74   0
   5  -1  -8    2.49    6.25   0
   5  -1  -8    1.62    6.34   0
   4  -1  -8    3.80    4.42   0
   4  -1  -8    2.87    5.17   0
   4  -1  -8    2.78    3.06   0
  -3   1   8    7.45    3.74   0
   3  -1  -8    9.89    2.73   0
   3  -1  -8    6.61    4.68   0
   3  -1  -8    9.72    4.86   0
   2  -1  -8  152.49    4.18   0
   2  -1  -8  146.86    8.78   0
   2  -1  -8  153.05    9.44   0
  -2   1   8  142.97    4.95   0
   1  -1  -8 1010.95    9.65   0
   0   1   8    6.75    4.60   0
   0  -1  -8    6.61    4.26   0
   1   1   8   35.92    3.40   0
  -1  -1  -8   41.25    4.46   0
   2   1   8   22.15    3.13   0
  -2  -1  -8   19.95    4.35   0
   3   1   8   18.11    3.80   0
  -3  -1  -8   14.44    2.93   0
  -3  -1  -8   18.09    4.98   0
  -4  -1  -8    1.45    4.12   0
   4   1   8    1.76    3.84   0
  -4  -1  -8   -0.53    2.68   0
  -5  -1  -8    2.06    4.93   0
  -5  -1  -8    0.58    3.17   0
   5   1   8    2.59    3.15   0
   5  -2  -8    0.39    6.53   0
   5  -2  -8    0.95    5.59   0
   5  -2  -8    0.95    5.52   0
   4  -2  -8    4.30    4.68   0
   4  -2  -8    1.82    5.70   0
   4  -2  -8   -0.04    4.61   0
   3  -2  -8    1.27    2.84   0
   3  -2  -8    1.27    4.99   0
   3  -2  -8    1.68    3.98   0
   2  -2  -8   21.94    5.53   0
   2  -2  -8   18.19    2.81   0
   2  -2  -8   22.13    5.17   0
  -1   2   8    1.03    4.67   0
   1  -2  -8    1.71    3.89   0
   1  -2  -8    0.22    4.11   0
   0  -2  -8  311.02    7.44   0
   0   2   8  289.95    7.49   0
  -1  -2  -8    3.25    3.82   0
   1   2   8    1.15    4.03   0
   2   2   8  188.78    5.47   0
  -2  -2  -8  189.42    4.38   0
   3   2   8   15.47    2.93   0
  -3  -2  -8   14.00    3.68   0
  -4  -2  -8    1.51    4.05   0
   4   2   8    3.38    2.91   0
  -4  -2  -8    1.70    4.01   0
   5   2   8    2.03    3.47   0
  -5  -2  -8    2.07    4.96   0
  -5  -2  -8    0.40    4.71   0
   4  -3  -8    0.30    5.87   0
   4  -3  -8    0.49    4.98   0
   4  -3  -8    1.23    4.96   0
   3  -3  -8    2.10    4.49   0
   3  -3  -8    1.19    4.30   0
   3  -3  -8    1.76    5.42   0
   2  -3  -8  103.62    6.82   0
   2  -3  -8  108.66    3.95   0
   2  -3  -8  113.29    6.15   0
  -1   3   8   17.96    4.17   0
   1  -3  -8   23.26    5.28   0
   0   3   8  150.88    5.84   0
   0  -3  -8  139.76    4.40   0
  -1  -3  -8  688.97    7.86   0
   1   3   8  592.17    7.00   0
  -2  -3  -8   10.49    3.79   0
   2   3   8   11.13    4.18   0
   3   3   8    4.27    4.08   0
  -3  -3  -8    6.32    2.82   0
   4   3   8    1.83    3.10   0
  -4  -3  -8    3.94    4.22   0
   5   3   8    2.37    3.46   0
  -5  -3  -8    4.51    5.02   0
  -5  -3  -8    1.86    3.38   0
   4  -4  -8    2.68    6.48   0
   4  -4  -8    2.18    5.43   0
   4  -4  -8   -0.37    6.55   0
   3  -4  -8    3.43    5.76   0
   3  -4  -8    3.69    4.70   0
   3  -4  -8    8.02    4.70   0
   2  -4  -8    2.71    3.09   0
   2  -4  -8    4.16    4.34   0
   1  -4  -8   16.08    4.33   0
  -1   4   8   15.70    4.18   0
   0   4   8   42.29    4.84   0
   0  -4  -8   45.89    4.62   0
  -1  -4  -8   67.67    4.41   0
   1   4   8   67.11    4.64   0
   2   4   8   -0.55    4.05   0
  -2  -4  -8   -1.33    3.93   0
  -3  -4  -8   14.40    2.97   0
   3   4   8   14.79    4.29   0
   4   4   8   22.89    3.42   0
  -4  -4  -8   21.22    3.34   0
   5   4   8   -2.01    4.64   0
  -5  -4  -8    1.49    5.24   0
  -5  -4  -8    1.13    3.44   0
   3  -5  -8    2.89    4.94   0
   3  -5  -8    2.82    5.18   0
   3  -5  -8    5.15    5.00   0
   2  -5  -8    3.02    2.97   0
   2  -5  -8    2.81    4.38   0
  -2   5   8    4.40    4.47   0
  -1   5   8    9.26    4.39   0
   1  -5  -8    5.72    4.66   0
   0  -5  -8   11.21    4.14   0
   0   5   8    6.61    4.24   0
   1   5   8    3.27    4.15   0
  -1  -5  -8    8.63    4.04   0
  -2  -5  -8    2.39    4.03   0
   2   5   8    4.75    3.06   0
  -3  -5  -8    6.72    4.34   0
   3   5   8    4.68    3.29   0
   4   5   8    1.25    4.67   0
  -4  -5  -8    1.97    4.69   0
   5   5   8   -2.63    3.79   0
  -5  -5  -8    6.25    5.18   0
   2  -6  -8    4.44    4.85   0
   2  -6  -8    3.41    4.88   0
  -2   6   8   -1.78    5.02   0
   1  -6  -8   -0.28    4.62   0
  -1   6   8    0.77    3.26   0
   0  -6  -8   -0.69    3.15   0
   0   6   8    3.34    4.38   0
   1   6   8    0.78    4.30   0
  -1  -6  -8   -2.10    4.22   0
  -2  -6  -8    2.04    2.94   0
   2   6   8   -1.62    3.04   0
  -3  -6  -8    0.22    4.55   0
   3   6   8    5.42    4.68   0
  -4  -6  -8    2.16    4.80   0
   4   6   8    1.46    3.47   0
   1  -7  -8    3.67    5.18   0
  -1   7   8    0.26    5.38   0
   0  -7  -8    3.38    3.28   0
   0   7   8    4.09    4.60   0
  -1  -7  -8    1.70    4.60   0
   1   7   8   -0.42    4.72   0
  -2  -7  -8    0.48    4.67   0
   2   7   8    4.77    3.45   0
   3   7   8    4.42    4.89   0
  -3  -7  -8    3.68    4.97   0
  -1  -8  -8    0.61    3.75   0
   1   8   8    2.25    5.09   0
   2   8   8    8.20    5.36   0
   3   7  -9    3.03    3.50   0
  -3  -7   9    1.32    5.35   0
  -2  -7   9   -2.62    4.96   0
   2   7  -9   -0.47    3.46   0
   1   7  -9    0.89    3.31   0
  -1  -7   9    2.24    4.82   0
   0   7  -9    5.24    3.30   0
   0  -7   9    3.82    4.96   0
   1  -7   9    0.14    5.17   0
  -1   7  -9    2.93    4.87   0
  -4  -6   9    2.19    5.26   0
  -4  -6   9    3.34    5.26   0
   4   6  -9   -0.18    5.08   0
  -3  -6   9   11.55    4.84   0
   3   6  -9    6.45    4.74   0
   2   6  -9    4.82    4.44   0
  -2  -6   9    4.98    4.47   0
  -1  -6   9   -0.47    4.64   0
   1   6  -9    2.52    3.04   0
   0  -6   9   10.76    4.57   0
   0   6  -9   13.98    4.17   0
  -1   6  -9    3.36    4.50   0
   1  -6   9    7.27    4.51   0
   2  -6   9    4.86    3.59   0
   2  -6   9    5.41    3.57   0
  -4  -5   9    1.79    5.00   0
   4   5  -9    1.27    4.66   0
  -4  -5   9    9.34    4.83   0
   3   5  -9    7.01    4.56   0
  -3  -5   9   -0.51    3.24   0
   2   5  -9   15.75    2.99   0
  -2  -5   9   14.68    3.17   0
   1   5  -9    1.09    3.99   0
  -1  -5   9    4.18    4.28   0
   0  -5   9  125.03    4.99   0
   0   5  -9  139.31    4.82   0
  -1   5  -9    1.51    4.31   0
   1  -5   9    2.64    3.24   0
   2  -5   9   -2.93    4.25   0
   2  -5   9   -0.98    2.94   0
   3  -5   9    4.56    3.43   0
   3  -5   9    4.32    3.51   0
   3  -5   9    1.38    5.36   0
   5   4  -9   -0.86    5.27   0
  -5  -4   9    1.77    3.76   0
  -5  -4   9    2.60    5.40   0
   4   4  -9    5.59    4.87   0
  -4  -4   9    9.98    4.56   0
  -4  -4   9    7.09    4.86   0
  -3  -4   9   -0.74    4.21   0
   3   4  -9    6.05    4.35   0
  -3  -4   9   -0.62    3.08   0
   2   4  -9    2.89    3.92   0
  -2  -4   9    4.59    2.96   0
   1   4  -9   -3.56    2.56   0
  -1  -4   9   -1.76    2.89   0
   0  -4   9  346.47    5.39   0
   0   4  -9  358.59    6.08   0
   1  -4   9  102.11    3.86   0
  -1   4  -9  122.13    4.73   0
   2  -4   9    8.51    2.84   0
   2  -4   9    6.77    4.00   0
   3  -4   9    3.83    5.85   0
   3  -4   9    2.67    2.91   0
   3  -4   9    5.68    4.68   0
   4  -4   9    2.74    5.11   0
   4  -4   9    2.84    5.38   0
  -5  -3   9    3.12    3.46   0
   5   3  -9    2.33    5.09   0
  -5  -3   9    3.38    5.06   0
   4   3  -9    1.83    4.42   0
  -4  -3   9    2.37    4.56   0
  -4  -3   9   -0.21    4.35   0
  -3  -3   9   13.97    4.14   0
   3   3  -9   11.50    4.33   0
  -3  -3   9   11.31    4.27   0
   2   3  -9    4.15    4.14   0
  -2  -3   9   -0.17    3.16   0
  -2  -3   9    2.05    3.75   0
  -1  -3   9    2.84    3.90   0
   1   3  -9   -0.74    3.68   0
   0   3  -9    5.58    3.77   0
   0  -3   9    6.68    4.22   0
   1  -3   9   -0.97    2.59   0
  -1   3  -9   -0.95    3.55   0
   2  -3   9    6.94    4.15   0
   2  -3   9    4.56    2.78   0
   3  -3   9    2.49    6.00   0
   3  -3   9    2.56    4.13   0
   3  -3   9    6.79    4.16   0
   4  -3   9    4.00    4.65   0
   4  -3   9   -0.24    3.43   0
  -5  -2   9    3.29    4.81   0
   5   2  -9    6.56    4.98   0
  -5  -2   9    5.35    5.17   0
  -4  -2   9   -0.81    2.81   0
   4   2  -9    5.51    4.36   0
  -4  -2   9   -0.22    4.30   0
   3   2  -9    2.82    4.02   0
  -3  -2   9    5.19    3.97   0
  -3  -2   9    2.16    4.04   0
   2   2  -9   30.15    4.45   0
  -2  -2   9   32.16    4.00   0
  -2  -2   9   30.25    4.79   0
  -1  -2   9   60.69    3.51   0
  -1  -2   9   58.32    3.30   0
   1   2  -9   67.48    4.27   0
   0  -2   9  139.39    4.14   0
   0   2  -9  145.21    4.80   0
   1  -2   9    1.47    4.00   0
   2  -2   9   50.37    3.94   0
   2  -2   9   50.99    7.90   0
   2  -2   9   53.23    4.19   0
   3  -2   9   34.19    4.24   0
   3  -2   9   33.68    4.10   0
   4  -2   9    5.26    4.61   0
   4  -2   9   -2.17    4.52   0
   5  -2   9    2.67    3.64   0
   5  -2   9    4.73    5.25   0
   5   1  -9    1.31    5.05   0
  -5  -1   9    2.44    4.91   0
  -5  -1   9    2.91    5.03   0
  -4  -1   9   39.37    3.40   0
  -4  -1   9   40.07    4.79   0
   4   1  -9   46.63    4.78   0
   3   1  -9    1.82    5.47   0
  -3  -1   9    3.17    4.09   0
  -3  -1   9    2.73    3.84   0
  -2  -1   9   83.26    3.59   0
  -2  -1   9   86.10    5.34   0
   2   1  -9   91.45    6.23   0
  -1  -1   9  214.44    6.92   0
   1   1  -9  214.14    6.57   0
   1   1  -9  240.68    5.54   0
  -1  -1   9  226.14    5.52   0
   0  -1   9    3.30    4.27   0
   0   1  -9    3.05    3.84   0
   0  -1   9    3.77    3.76   0
   1  -1   9   18.33    6.09   0
   1  -1   9   18.79    2.83   0
   1  -1   9   17.51    2.71   0
   2  -1   9    9.68    2.93   0
   3  -1   9   38.56    3.28   0
   4  -1   9   16.29    4.41   0
   5  -1   9    3.64    3.42   0
   5  -1   9    8.28    4.91   0
  -5   0   9    5.42    5.01   0
   5   0  -9    2.13    5.35   0
  -4   0   9   30.05    6.05   0
   4   0  -9   36.51    3.40   0
  -4   0   9   26.61    3.24   0
   4   0  -9   31.89    5.84   0
   3   0  -9    5.14    3.97   0
  -3   0   9    4.49    2.87   0
  -3   0   9    7.56    5.02   0
   3   0  -9    5.39    4.35   0
  -2   0   9    5.70    3.76   0
   2   0  -9    3.16    5.44   0
  -2   0   9    2.63    5.01   0
   2   0  -9    3.02    3.86   0
   1   0  -9  161.04    4.36   0
  -1   0   9  144.62    4.37   0
  -1   0   9  141.02    8.47   0
   0   0  -9  202.91    5.54   0
   0   0   9  189.49    5.65   0
   0   0   9  210.61    6.75   0
   0   0   9  219.03    6.46   0
  -1   0  -9   94.78    6.84   0
  -1   0  -9   87.80    3.86   0
   1   0   9   96.91    4.93   0
   2   0   9   56.13    3.45   0
  -2   0  -9   53.48    9.10   0
  -2   0  -9   63.40    4.45   0
  -3   0  -9   26.38    6.36   0
  -3   0  -9   26.08    4.22   0
   3   0   9   27.46    4.03   0
  -4   0  -9   13.27    4.03   0
   4   0   9    6.44    2.98   0
   5   0   9    6.71    4.85   0
  -5   0  -9    1.90    4.86   0
   5  -1  -9    0.14    4.97   0
   5  -1  -9    3.02    6.46   0
   4  -1  -9    4.64    3.15   0
   4  -1  -9    1.16    5.39   0
   4  -1  -9    1.97    5.26   0
   3  -1  -9    5.13    4.72   0
   3  -1  -9    5.57    2.74   0
  -3   1   9    9.21    3.85   0
   3  -1  -9    4.30    4.94   0
   2  -1  -9   -3.10    3.76   0
  -2   1   9    4.25    3.81   0
   1  -1  -9   37.66    4.35   0
   0   1   9    7.28    4.34   0
   0  -1  -9    8.13    4.11   0
   0  -1  -9    8.23    4.31   0
  -1  -1  -9  876.33    9.47   0
   1   1   9  780.25    8.60   0
  -2  -1  -9 1966.50   11.45   0
   2   1   9 1822.85   11.63   0
   3   1   9   22.69    2.91   0
  -3  -1  -9   24.83    5.18   0
  -3  -1  -9   25.15    2.83   0
   4   1   9   15.07    2.93   0
  -4  -1  -9   12.92    4.60   0
  -4  -1  -9   10.72    4.05   0
   5   1   9   -3.20    4.64   0
  -5  -1  -9   -1.36    4.72   0
  -5  -1  -9    2.57    4.94   0
   4  -2  -9    3.54    4.77   0
   4  -2  -9    0.85    5.52   0
   4  -2  -9    1.41    5.79   0
   3  -2  -9    5.50    5.15   0
   3  -2  -9    9.20    3.99   0
   3  -2  -9    1.77    5.26   0
   2  -2  -9    8.74    3.75   0
   2  -2  -9    8.28    5.70   0
   2  -2  -9    7.91    6.17   0
  -1   2   9  108.18    6.76   0
   1  -2  -9  114.45    4.56   0
   1  -2  -9  112.92    6.60   0
   0   2   9  211.96    7.08   0
   0  -2  -9  212.24    6.58   0
   1   2   9   81.68    3.73   0
  -1  -2  -9   88.14    3.58   0
   2   2   9  563.79    7.52   0
  -2  -2  -9  592.71    7.40   0
   3   2   9    0.59    2.86   0
  -3  -2  -9    3.93    3.71   0
  -4  -2  -9    2.11    4.38   0
   4   2   9    2.37    2.77   0
  -4  -2  -9    3.55    2.98   0
   5   2   9    2.81    4.56   0
  -5  -2  -9   -0.83    5.12   0
  -5  -2  -9    3.42    4.59   0
   4  -3  -9    0.42    6.03   0
   4  -3  -9    2.27    5.04   0
   4  -3  -9   -0.32    5.96   0
   3  -3  -9    1.28    3.00   0
   3  -3  -9   -0.38    5.56   0
   3  -3  -9    1.32    5.42   0
   2  -3  -9  241.62    5.41   0
   2  -3  -9  222.63    8.15   0
   2  -3  -9  238.54    8.43   0
  -1   3   9  133.27    6.46   0
   1  -3  -9  135.34    5.81   0
   0  -3  -9    9.15    4.06   0
   0   3   9    7.45    4.44   0
  -1  -3  -9  406.81    6.56   0
   1   3   9  380.10    6.69   0
  -2  -3  -9   44.90    4.21   0
   2   3   9   40.64    4.46   0
   3   3   9    1.36    4.22   0
  -3  -3  -9    1.86    2.77   0
   4   3   9    9.87    4.47   0
  -4  -3  -9   12.01    4.35   0
  -5  -3  -9    1.46    5.01   0
   5   3   9   -2.60    4.47   0
  -5  -3  -9   -2.25    4.52   0
   4  -4  -9    3.76    3.93   0
   4  -4  -9   -0.04    6.42   0
   4  -4  -9    0.95    5.30   0
   3  -4  -9   -1.01    3.15   0
   3  -4  -9    1.09    4.53   0
   3  -4  -9    2.74    4.88   0
   2  -4  -9   38.43    4.57   0
   2  -4  -9   39.70    5.57   0
  -1   4   9    5.53    4.16   0
   1  -4  -9    1.42    4.07   0
   0   4   9    6.15    4.19   0
   0  -4  -9   -2.04    4.28   0
  -1  -4  -9   18.61    4.02   0
   1   4   9   15.99    4.38   0
  -2  -4  -9    9.01    3.87   0
   2   4   9    2.47    4.18   0
  -3  -4  -9    4.57    3.88   0
   3   4   9    3.17    4.17   0
   4   4   9    5.97    4.56   0
  -4  -4  -9   10.16    3.11   0
   5   4   9   -3.42    4.79   0
  -5  -4  -9    0.80    3.77   0
  -5  -4  -9    3.38    4.93   0
   3  -5  -9   -0.19    3.69   0
   3  -5  -9    0.57    5.11   0
   3  -5  -9   -1.85    5.10   0
   2  -5  -9   -0.49    4.46   0
  -2   5   9   -1.01    4.50   0
   2  -5  -9    0.46    4.47   0
  -1   5   9    9.23    4.53   0
   1  -5  -9   10.97    4.67   0
   0   5   9   -0.11    2.97   0
   0  -5  -9    0.64    2.97   0
   1   5   9    2.35    4.19   0
  -1  -5  -9    3.85    2.92   0
  -2  -5  -9    3.03    2.87   0
   2   5   9    0.42    4.34   0
  -3  -5  -9   -1.46    2.99   0
   3   5   9    6.87    3.23   0
   4   5   9   -0.02    3.36   0
  -4  -5  -9   -3.28    4.71   0
   5   5   9   -1.15    5.32   0
  -5  -5  -9   -0.83    3.80   0
   2  -6  -9    3.28    3.49   0
   2  -6  -9    3.88    5.02   0
  -2   6   9    1.75    4.94   0
  -1   6   9    2.53    4.59   0
   1  -6  -9    0.37    4.69   0
   0  -6  -9    4.34    4.44   0
   0   6   9    1.37    4.52   0
   1   6   9    1.14    2.99   0
  -1  -6  -9    1.58    2.94   0
  -2  -6  -9    5.34    4.21   0
   2   6   9    4.05    4.40   0
  -3  -6  -9    2.53    4.63   0
   3   6   9    0.08    3.37   0
  -4  -6  -9    0.66    3.50   0
   4   6   9    0.28    5.05   0
   1  -7  -9   -2.27    5.18   0
  -1   7   9    3.72    5.38   0
   0  -7  -9    5.95    4.95   0
   0   7   9    2.74    3.40   0
  -1  -7  -9    0.55    4.67   0
   1   7   9    4.52    4.74   0
  -2  -7  -9    1.26    4.64   0
   2   7   9    2.42    4.65   0
  -3  -7  -9    1.71    4.93   0
   3   7   9    3.24    3.58   0
   1   8   9   -0.91    3.78   0
  -1  -8  -9    4.31    5.34   0
  -3  -7  10    1.92    3.89   0
   3   7 -10   -2.15    5.21   0
  -2  -7  10    2.43    5.10   0
   2   7 -10    4.82    3.48   0
   1   7 -10    2.90    3.53   0
  -1  -7  10    6.15    3.46   0
   0  -7  10   -3.17    3.58   0
   0   7 -10    0.47    5.03   0
   1  -7  10    8.84    3.75   0
  -1   7 -10    3.94    3.68   0
  -4  -6  10    5.46    5.26   0
   4   6 -10    2.06    5.21   0
  -4  -6  10    4.72    3.61   0
  -3  -6  10   -0.46    3.56   0
   3   6 -10    5.57    4.59   0
  -2  -6  10   -0.86    3.10   0
   2   6 -10    3.49    4.11   0
   1   6 -10   -0.32    2.99   0
  -1  -6  10   -2.15    3.11   0
   0  -6  10    2.55    4.48   0
   0   6 -10   -1.83    4.37   0
  -1   6 -10    7.37    4.52   0
   1  -6  10    8.33    3.28   0
   2  -6  10    3.86    5.08   0
   2  -6  10    3.75    4.92   0
  -4  -5  10   -0.41    3.58   0
   4   5 -10    0.93    3.51   0
  -4  -5  10    1.57    4.90   0
  -3  -5  10   -4.23    4.43   0
   3   5 -10    2.25    3.16   0
  -3  -5  10    3.11    4.43   0
  -2  -5  10    3.19    4.28   0
   2   5 -10    5.87    3.81   0
   1   5 -10    8.19    4.13   0
  -1  -5  10   18.17    4.35   0
   0  -5  10    2.66    4.33   0
   0   5 -10    7.88    3.99   0
   1  -5  10   21.90    4.46   0
  -1   5 -10   19.30    4.26   0
   2  -5  10    1.75    3.20   0
   2  -5  10   -0.50    4.29   0
   3  -5  10    1.82    5.48   0
   3  -5  10    5.66    5.07   0
   3  -5  10    6.31    5.00   0
   5   4 -10    2.32    5.44   0
  -5  -4  10   -0.32    5.27   0
  -5  -4  10    1.21    3.90   0
   4   4 -10    5.15    3.35   0
  -4  -4  10    3.55    4.74   0
  -4  -4  10    7.86    3.37   0
   3   4 -10    2.84    4.35   0
  -3  -4  10    0.29    4.15   0
  -3  -4  10   -1.25    4.37   0
   2   4 -10    3.89    3.72   0
  -2  -4  10   -3.21    3.05   0
   1   4 -10   11.23    3.93   0
  -1  -4  10   10.65    4.15   0
   0  -4  10   21.12    4.36   0
   0   4 -10   17.29    4.02   0
  -1   4 -10   36.74    3.12   0
   1  -4  10   36.34    4.38   0
   2  -4  10    1.62    4.15   0
   2  -4  10    7.32    4.33   0
   3  -4  10    5.34    3.40   0
   3  -4  10    3.10    3.15   0
   3  -4  10    3.00    5.81   0
   4  -4  10    1.35    3.69   0
   4  -4  10    1.76    5.29   0
   5   3 -10    1.75    5.47   0
  -5  -3  10    2.42    5.18   0
  -5  -3  10   -0.51    5.37   0
   4   3 -10   -0.42    3.08   0
  -4  -3  10   -0.71    4.32   0
  -4  -3  10   -2.75    4.50   0
  -3  -3  10   34.25    4.60   0
  -3  -3  10   31.13    3.12   0
   3   3 -10   34.43    4.52   0
  -2  -3  10   49.56    3.22   0
   2   3 -10   53.66    4.63   0
  -2  -3  10   53.27    4.82   0
  -1  -3  10   46.01    4.39   0
   1   3 -10   48.32    4.12   0
   0   3 -10   13.38    2.69   0
   0  -3  10   15.04    3.07   0
   1  -3  10   38.74    3.98   0
  -1   3 -10   39.35    3.88   0
   2  -3  10    5.12    2.96   0
   2  -3  10    8.49    2.85   0
   3  -3  10    1.72    7.28   0
   3  -3  10    2.80    4.16   0
   3  -3  10    2.45    4.06   0
   4  -3  10    1.43    3.52   0
   4  -3  10    4.20    4.58   0
  -5  -2  10    1.83    5.06   0
  -5  -2  10   -0.67    5.07   0
   5   2 -10    0.85    5.29   0
  -4  -2  10   17.05    4.58   0
  -4  -2  10   15.53    4.56   0
   4   2 -10   18.57    4.84   0
   3   2 -10  118.02    5.30   0
  -3  -2  10  112.27    5.44   0
  -3  -2  10  116.68    4.92   0
   2   2 -10  163.09    5.63   0
  -2  -2  10  160.13    5.73   0
  -2  -2  10  147.43    4.10   0
  -1  -2  10  211.25    5.77   0
  -1  -2  10  200.74    4.68   0
   1   2 -10  221.48    5.52   0
   0  -2  10  430.13    8.07   0
   0   2 -10  428.65    6.03   0
   0  -2  10  449.65    6.89   0
   1  -2  10  333.80    6.27   0
   1  -2  10  297.29    6.06   0
   2  -2  10   40.47    4.04   0
   2  -2  10   47.58    3.02   0
   3  -2  10   -0.07    4.10   0
   3  -2  10    3.61    4.10   0
   4  -2  10    0.00    4.61   0
   4  -2  10   -1.38    4.27   0
   5  -2  10    2.83    3.78   0
   5  -2  10    4.08    5.21   0
  -5  -1  10   -0.41    4.96   0
  -5  -1  10    4.90    6.23   0
   5   1 -10    2.68    4.82   0
  -4  -1  10    3.65    4.18   0
  -4  -1  10    0.29    4.39   0
   4   1 -10    1.43    5.50   0
   3   1 -10    1.72    4.47   0
  -3  -1  10    2.40    2.78   0
  -3  -1  10    2.42    4.06   0
   2   1 -10   79.15    3.46   0
  -2  -1  10   74.16    3.46   0
  -2  -1  10   72.56    5.23   0
   2   1 -10   71.33    5.25   0
   1   1 -10    7.20    2.69   0
   1   1 -10    9.52    4.12   0
  -1  -1  10    8.65    4.48   0
  -1  -1  10    9.10    2.65   0
   0  -1  10  141.89    5.81   0
   0  -1  10  148.41    5.24   0
   1  -1  10   65.90    4.32   0
   1  -1  10   68.81    6.42   0
   1  -1  10   72.99    4.46   0
   2  -1  10  163.31    5.05   0
   3  -1  10   22.04    4.24   0
   4  -1  10   -0.33    4.25   0
   5  -1  10    5.57    3.45   0
   5  -1  10    1.43    3.53   0
  -5   0  10   -0.16    5.16   0
   5   0 -10   -0.03    6.17   0
   5   0 -10    3.94    6.26   0
   4   0 -10   -0.82    4.27   0
   4   0 -10   -1.69    5.54   0
  -4   0  10    1.41    5.57   0
  -4   0  10    5.55    4.20   0
   3   0 -10    3.98    2.85   0
  -3   0  10    4.05    3.82   0
  -3   0  10    3.52    5.60   0
   3   0 -10    2.56    5.08   0
   2   0 -10   19.43    3.95   0
  -2   0  10   16.57    3.89   0
   2   0 -10   16.53    5.71   0
  -2   0  10   17.57    5.60   0
  -1   0  10   33.48    6.03   0
  -1   0  10   37.30    3.05   0
   1   0 -10   40.72    3.09   0
  -1   0  10   35.33    5.86   0
   0   0  10  448.35    7.96   0
   0   0  10  447.64    8.76   0
   0   0  10  367.62    7.33   0
   0   0 -10  466.26    7.96   0
  -1   0 -10  301.67    9.15   0
  -1   0 -10  328.77    6.32   0
   1   0  10  307.67    6.32   0
  -2   0 -10   43.92    4.39   0
   2   0  10   45.13    4.45   0
  -3   0 -10    0.28    2.81   0
   3   0  10   -0.27    2.85   0
  -4   0 -10    0.69    3.01   0
   4   0  10    2.48    4.05   0
   5   0  10   -0.06    4.73   0
  -5   0 -10    2.13    3.27   0
   5  -1 -10    1.99    7.18   0
   5  -1 -10    1.50    6.37   0
   4  -1 -10    6.62    4.48   0
   4  -1 -10    4.17    5.70   0
   4  -1 -10    3.86    5.50   0
   3  -1 -10    2.63    2.85   0
   3  -1 -10    1.74    5.45   0
  -3   1  10    4.08    3.86   0
   3  -1 -10    2.68    6.53   0
  -2   1  10    0.37    3.73   0
   2  -1 -10    0.41    3.66   0
   1  -1 -10 1357.04   10.83   0
   0   1  10  223.47    7.19   0
   0  -1 -10  237.53    5.95   0
   0  -1 -10  200.61    6.68   0
   1   1  10   50.99    3.49   0
  -1  -1 -10   66.11    4.44   0
  -2  -1 -10  316.66    6.25   0
   2   1  10  302.76    6.35   0
   3   1  10   23.37    4.19   0
  -3  -1 -10   24.06    2.80   0
   4   1  10    4.16    4.14   0
  -4  -1 -10    3.13    5.48   0
  -4  -1 -10    1.45    4.03   0
  -5  -1 -10    4.33    5.11   0
  -5  -1 -10    4.84    3.55   0
   5   1  10    5.78    3.46   0
   4  -2 -10    0.72    4.47   0
   4  -2 -10    0.88    6.56   0
   4  -2 -10    1.47    5.70   0
   3  -2 -10    8.08    7.06   0
   3  -2 -10    7.96    4.15   0
   3  -2 -10    9.92    6.95   0
   2  -2 -10   12.54    7.75   0
   2  -2 -10   12.02    2.80   0
   2  -2 -10   11.36    7.63   0
   1  -2 -10  232.35    8.63   0
  -1   2  10  235.23    9.50   0
   1  -2 -10  251.46    5.62   0
   0  -2 -10    0.90    4.12   0
   0   2  10    2.56    4.57   0
   1   2  10   81.09    4.61   0
  -1  -2 -10   92.27    4.31   0
   2   2  10   -4.06    3.92   0
  -2  -2 -10   -1.03    2.71   0
   3   2  10    4.87    3.94   0
  -3  -2 -10    1.47    3.86   0
  -4  -2 -10    5.19    4.29   0
   4   2  10    1.40    4.21   0
  -4  -2 -10    5.50    3.00   0
  -5  -2 -10    0.03    5.25   0
   5   2  10    6.13    4.79   0
  -5  -2 -10    7.69    4.85   0
   4  -3 -10   -0.87    6.21   0
   4  -3 -10    1.03    6.24   0
   4  -3 -10    5.92    5.01   0
   3  -3 -10    3.77    4.22   0
   3  -3 -10    0.13    5.16   0
   3  -3 -10   -0.45    5.32   0
   2  -3 -10    9.56    4.03   0
   2  -3 -10   12.00    4.46   0
   2  -3 -10   10.91    5.30   0
  -1   3  10    8.23    4.12   0
   1  -3 -10    8.36    4.25   0
   0  -3 -10   79.52    4.80   0
   0   3  10   73.95    5.06   0
  -1  -3 -10   45.59    3.16   0
   1   3  10   52.62    4.62   0
   2   3  10   13.62    4.40   0
  -2  -3 -10   14.27    2.90   0
   3   3  10    5.16    2.94   0
  -3  -3 -10    4.29    3.99   0
   4   3  10    1.02    4.39   0
  -4  -3 -10    3.88    4.32   0
  -5  -3 -10   -0.66    4.89   0
   5   3  10    2.70    3.40   0
  -5  -3 -10    5.58    4.59   0
   4  -4 -10   -1.44    6.78   0
   4  -4 -10    1.09    3.85   0
   4  -4 -10    1.24    6.56   0
   3  -4 -10    2.79    4.60   0
   3  -4 -10    1.12    4.69   0
   3  -4 -10    1.76    5.67   0
   2  -4 -10    1.60    3.96   0
   2  -4 -10    0.21    4.32   0
  -1   4  10    2.01    4.30   0
   1  -4 -10    1.85    4.44   0
   0   4  10    5.92    4.25   0
   0  -4 -10    3.66    3.01   0
  -1  -4 -10   42.52    4.22   0
   1   4  10   30.84    4.49   0
  -2  -4 -10    1.84    2.66   0
   2   4  10    0.49    4.23   0
   3   4  10   15.95    3.10   0
  -3  -4 -10   13.43    4.17   0
   4   4  10   -7.81    4.40   0
  -4  -4 -10    1.89    2.92   0
   5   4  10    3.76    3.52   0
  -5  -4 -10   -0.72    4.98   0
   3  -5 -10    1.61    5.13   0
   3  -5 -10    0.84    6.39   0
   3  -5 -10    0.14    5.16   0
  -2   5  10    3.57    4.58   0
   2  -5 -10   -0.85    4.53   0
   2  -5 -10   -3.55    4.63   0
  -1   5  10   11.08    4.59   0
   1  -5 -10   10.26    4.63   0
   0   5  10    7.23    4.32   0
   0  -5 -10    5.36    3.17   0
  -1  -5 -10    9.80    4.14   0
   1   5  10    9.85    4.36   0
  -2  -5 -10    3.42    4.05   0
   2   5  10    3.94    4.25   0
  -3  -5 -10   -2.20    3.03   0
   3   5  10   -1.38    4.44   0
   4   5  10    3.61    4.80   0
  -4  -5 -10    9.23    4.59   0
   5   5  10   -5.82    3.77   0
  -5  -5 -10    1.03    3.64   0
   2  -6 -10   -0.45    5.05   0
   2  -6 -10    5.91    5.32   0
  -2   6  10    1.17    5.19   0
   1  -6 -10    2.88    4.70   0
  -1   6  10    0.34    4.72   0
   0  -6 -10   10.97    4.69   0
   0   6  10    2.35    5.03   0
  -1  -6 -10   14.94    4.35   0
   1   6  10   11.17    4.49   0
  -2  -6 -10    8.82    4.36   0
   2   6  10    6.02    4.45   0
  -3  -6 -10    3.94    3.06   0
   3   6  10    3.03    3.32   0
   4   6  10    1.09    5.04   0
  -4  -6 -10    4.90    3.56   0
   1  -7 -10    0.83    3.63   0
  -1   7  10    1.85    3.72   0
   0  -7 -10    8.37    5.05   0
   0   7  10    8.89    5.01   0
   1   7  10   13.15    3.64   0
  -1  -7 -10   16.15    5.12   0
   2   7  10    3.50    4.78   0
  -2  -7 -10    2.20    4.68   0
  -3  -7 -10    1.91    4.79   0
   3   7  10    0.86    4.90   0
   2   7 -11    9.99    3.53   0
  -2  -7  11    9.82    3.70   0
   1   7 -11    5.41    3.40   0
  -1  -7  11    4.53    5.11   0
   0   7 -11    7.89    4.96   0
   0  -7  11    0.56    5.15   0
  -1   7 -11    2.24    5.10   0
   1  -7  11    3.59    5.22   0
  -4  -6  11    4.73    5.41   0
  -4  -6  11    1.37    5.33   0
   4   6 -11    4.74    3.70   0
  -3  -6  11    0.92    3.42   0
  -3  -6  11    7.81    4.72   0
   3   6 -11    0.08    3.57   0
  -2  -6  11   -1.48    4.31   0
   2   6 -11    0.54    2.94   0
   1   6 -11    2.47    4.32   0
  -1  -6  11    0.38    4.61   0
   0  -6  11    6.25    4.54   0
   0   6 -11   12.72    4.24   0
   1  -6  11    3.62    4.73   0
  -1   6 -11   -2.80    3.24   0
   2  -6  11    5.52    5.07   0
   2  -6  11   -1.05    3.44   0
  -4  -5  11    2.73    4.92   0
  -4  -5  11    0.39    4.95   0
   4   5 -11    0.80    4.87   0
  -3  -5  11    4.82    3.17   0
  -3  -5  11    3.54    3.37   0
   3   5 -11    0.55    4.35   0
  -2  -5  11    5.28    4.35   0
   2   5 -11    7.33    2.91   0
   1   5 -11    1.19    2.65   0
  -1  -5  11    3.38    3.03   0
   0   5 -11   78.16    3.55   0
   0  -5  11   87.75    4.77   0
   1  -5  11   12.16    3.25   0
  -1   5 -11   13.86    2.98   0
   2  -5  11   -2.94    4.64   0
   2  -5  11    6.26    4.51   0
   3  -5  11    0.61    6.53   0
   3  -5  11    4.71    5.09   0
   3  -5  11    5.87    4.82   0
   5   4 -11    5.77    5.44   0
  -5  -4  11   -0.07    5.25   0
  -5  -4  11   -0.41    5.57   0
   4   4 -11    4.14    3.48   0
  -4  -4  11    4.17    4.66   0
  -4  -4  11    4.08    4.93   0
  -3  -4  11    3.33    2.98   0
  -3  -4  11   -1.99    4.38   0
   3   4 -11    3.72    4.29   0
  -2  -4  11   -0.66    2.74   0
  -2  -4  11   -2.08    4.30   0
   2   4 -11    5.53    3.95   0
   1   4 -11    5.32    2.57   0
  -1  -4  11    7.61    2.81   0
   0   4 -11   -2.20    2.72   0
   0  -4  11    0.45    3.03   0
  -1   4 -11   26.34    2.90   0
   1  -4  11   31.13    4.25   0
   2  -4  11   14.19    3.23   0
   2  -4  11   14.14    3.14   0
   3  -4  11    3.10    4.47   0
   3  -4  11    1.92    6.86   0
   3  -4  11    9.05    4.73   0
   4  -4  11   -0.37    3.54   0
   4  -4  11    2.77    5.45   0
  -5  -3  11    2.04    5.25   0
   5   3 -11    0.48    5.10   0
  -5  -3  11    2.53    5.41   0
  -4  -3  11    7.02    4.74   0
  -4  -3  11    9.18    4.32   0
   4   3 -11    6.11    4.50   0
   3   3 -11   -0.39    3.14   0
  -3  -3  11    0.76    2.78   0
  -3  -3  11    1.66    3.15   0
  -2  -3  11   21.12    4.05   0
   2   3 -11   24.77    3.26   0
  -2  -3  11   28.18    4.70   0
  -1  -3  11   60.03    4.91   0
  -1  -3  11   46.04    3.17   0
   1   3 -11   57.01    4.02   0
   0  -3  11   17.50    4.10   0
   0   3 -11   19.80    3.77   0
   1  -3  11    0.84    3.84   0
  -1   3 -11   -1.52    2.45   0
   2  -3  11    7.56    2.86   0
   2  -3  11    7.03    4.10   0
   3  -3  11    3.28    3.07   0
   3  -3  11    6.94    4.29   0
   4  -3  11   -1.17    3.40   0
   4  -3  11    2.07    3.54   0
   5   2 -11    2.31    5.05   0
  -5  -2  11    2.57    3.53   0
  -5  -2  11    0.30    5.18   0
   4   2 -11   14.26    4.44   0
  -4  -2  11   15.47    4.39   0
  -4  -2  11   14.80    4.68   0
  -3  -2  11  181.14    6.17   0
   3   2 -11  181.95    6.18   0
  -3  -2  11  174.90    5.41   0
  -2  -2  11    4.98    3.63   0
  -2  -2  11    5.79    4.21   0
   2   2 -11    4.26    3.97   0
  -1  -2  11  142.42    4.19   0
  -1  -2  11  150.20    5.45   0
   1   2 -11  160.61    5.17   0
   0   2 -11  638.06    7.70   0
   0  -2  11  633.66    8.85   0
   0  -2  11  618.14    7.67   0
   1  -2  11    0.88    3.57   0
   1  -2  11    4.87    3.97   0
   1  -2  11    0.26    3.85   0
   2  -2  11   -1.00    3.84   0
   2  -2  11    3.24    3.89   0
   3  -2  11    4.48    3.97   0
   3  -2  11    0.90    2.70   0
   4  -2  11    2.14    3.22   0
   4  -2  11    2.58    2.99   0
   5  -2  11    2.55    3.76   0
   5  -2  11    0.18    5.47   0
  -5  -1  11    3.21    3.76   0
  -5  -1  11    3.93    6.64   0
   5   1 -11    3.85    6.36   0
  -4  -1  11    0.71    4.17   0
  -4  -1  11    6.23    5.32   0
   4   1 -11    3.60    4.51   0
  -3  -1  11   23.60    3.04   0
   3   1 -11   19.69    4.60   0
  -3  -1  11   21.80    5.54   0
   2   1 -11   36.46    4.08   0
  -2  -1  11   27.45    2.94   0
  -2  -1  11   28.20    4.55   0
   2   1 -11   31.44    4.24   0
   1   1 -11    3.13    3.94   0
   1   1 -11    2.82    3.66   0
  -1  -1  11    4.05    4.52   0
  -1  -1  11    5.35    3.56   0
   0  -1  11    2.76    3.70   0
   0  -1  11    2.43    2.66   0
   1  -1  11   43.00    5.65   0
   1  -1  11   46.79    3.95   0
   1  -1  11   51.07    4.17   0
   2  -1  11    1.08    3.72   0
   3  -1  11    7.01    4.13   0
   4  -1  11    5.20    4.41   0
   5  -1  11   -0.33    3.50   0
   5  -1  11    3.93    5.13   0
  -5   0  11   -0.42    3.71   0
   5   0 -11    1.94    6.48   0
   5   0 -11    1.52    6.21   0
   4   0 -11   31.08    4.68   0
  -4   0  11   33.62    4.53   0
   4   0 -11   32.95    6.13   0
   3   0 -11   59.68    6.92   0
   3   0 -11   61.10    3.57   0
  -3   0  11   55.64    4.47   0
  -3   0  11   59.01    7.00   0
  -2   0  11   39.12    3.01   0
   2   0 -11   40.65    4.15   0
   2   0 -11   38.29    7.02   0
  -2   0  11   38.95    7.83   0
  -1   0  11   90.15    4.49   0
  -1   0  11   91.51    6.75   0
   1   0 -11   95.29    4.48   0
  -1   0  11   85.91    6.93   0
   0   0 -11   -0.75    3.75   0
   0   0  11    2.06    2.65   0
   0   0  11    0.07    3.84   0
   0   0  11    0.98    4.13   0
  -1   0 -11  220.78    7.79   0
  -1   0 -11  233.97    5.61   0
   1   0  11  198.94    4.73   0
  -2   0 -11  163.41    4.30   0
   2   0  11  168.08    5.18   0
  -3   0 -11   33.77    4.38   0
   3   0  11   37.46    3.16   0
  -4   0 -11    6.73    4.41   0
   4   0  11   11.89    4.40   0
   5   0  11    4.48    3.42   0
  -5   0 -11    1.23    3.58   0
   5  -1 -11    1.27    7.59   0
   5  -1 -11   -1.17    7.85   0
   4  -1 -11    5.32    4.59   0
   4  -1 -11    6.01    6.55   0
   4  -1 -11    6.68    6.65   0
   3  -1 -11    1.39    2.61   0
  -3   1  11    0.61    2.69   0
  -2   1  11    7.45    2.62   0
   2  -1 -11    4.41    2.78   0
   1  -1 -11  133.32    4.04   0
   0   1  11  102.99    5.73   0
   0  -1 -11  115.82    4.83   0
   0  -1 -11  113.54    5.57   0
  -1  -1 -11   16.67    3.78   0
   1   1  11   19.12    3.84   0
  -2  -1 -11  900.36    8.62   0
   2   1  11  788.15    7.89   0
   3   1  11    8.39    2.87   0
  -3  -1 -11    5.86    2.78   0
   4   1  11   -3.51    2.98   0
  -4  -1 -11    0.54    5.37   0
  -4  -1 -11    0.62    3.12   0
   5   1  11    2.43    4.72   0
  -5  -1 -11    2.37    6.21   0
  -5  -1 -11    3.68    4.96   0
   4  -2 -11   -0.22    8.84   0
   4  -2 -11    0.58    4.70   0
   4  -2 -11    0.20    8.82   0
   3  -2 -11    6.65    3.97   0
   2  -2 -11    5.63    4.06   0
   1  -2 -11    4.15    5.14   0
  -1   2  11    4.22    4.73   0
   1  -2 -11    3.75    3.86   0
   0   2  11   27.60    4.91   0
   0  -2 -11   32.31    4.49   0
   1   2  11   42.27    4.33   0
  -1  -2 -11   39.25    2.95   0
   2   2  11  275.86    5.13   0
  -2  -2 -11  252.55    4.76   0
   3   2  11   26.66    4.33   0
  -3  -2 -11   25.08    4.18   0
  -4  -2 -11    1.50    4.54   0
   4   2  11    1.76    3.15   0
  -4  -2 -11    4.39    4.11   0
  -5  -2 -11    3.12    5.19   0
   5   2  11   -2.13    4.54   0
  -5  -2 -11    2.70    3.45   0
   4  -3 -11    3.73    3.61   0
   4  -3 -11    2.91    8.04   0
   4  -3 -11    1.39    8.18   0
   3  -3 -11    0.81    6.67   0
   3  -3 -11    0.97    6.93   0
   3  -3 -11   -1.46    4.38   0
   2  -3 -11   12.33    2.97   0
   2  -3 -11   12.27    5.36   0
   2  -3 -11   11.77    5.20   0
  -1   3  11   14.65    4.37   0
   1  -3 -11   18.36    2.91   0
   1  -3 -11   11.79    4.39   0
   0  -3 -11    3.90    4.03   0
   0   3  11    4.99    4.50   0
  -1  -3 -11   90.54    4.47   0
   1   3  11   86.24    4.85   0
   2   3  11   68.91    4.37   0
  -2  -3 -11   65.05    4.22   0
   3   3  11   -1.03    4.15   0
  -3  -3 -11    1.83    3.85   0
   4   3  11    1.91    3.13   0
  -4  -3 -11   -2.30    4.39   0
   5   3  11    2.66    4.84   0
  -5  -3 -11    4.45    6.19   0
  -5  -3 -11    1.93    3.48   0
   4  -4 -11    0.31    7.87   0
   4  -4 -11    0.04    7.95   0
   3  -4 -11    3.13    3.39   0
   3  -4 -11    6.62    5.95   0
   3  -4 -11    4.26    5.87   0
   2  -4 -11   26.80    3.16   0
   2  -4 -11   25.08    5.76   0
  -1   4  11   66.66    6.06   0
   1  -4 -11   70.44    4.94   0
   0  -4 -11    2.51    4.05   0
   0   4  11    6.67    4.08   0
  -1  -4 -11   -0.57    2.96   0
   1   4  11    3.06    4.48   0
  -2  -4 -11    0.29    3.61   0
   2   4  11    2.70    4.04   0
   3   4  11    0.97    4.23   0
  -3  -4 -11    6.44    2.81   0
   4   4  11    2.52    3.23   0
  -4  -4 -11    3.21    3.02   0
   5   4  11    2.50    4.85   0
  -5  -4 -11   -0.26    3.57   0
   3  -5 -11    2.77    6.45   0
   3  -5 -11    3.07    3.56   0
   3  -5 -11    3.32    6.27   0
   2  -5 -11    9.05    4.67   0
   2  -5 -11   10.13    4.85   0
  -1   5  11    4.08    4.50   0
   1  -5 -11    5.49    4.50   0
   0  -5 -11    1.45    4.22   0
   0   5  11   -0.95    4.35   0
  -1  -5 -11    7.33    4.08   0
   1   5  11    2.64    4.28   0
   2   5  11    2.41    4.18   0
  -2  -5 -11    1.10    2.75   0
  -3  -5 -11   -1.13    4.21   0
   3   5  11    1.76    4.43   0
   4   5  11    6.46    4.77   0
  -4  -5 -11    2.75    4.54   0
   5   5  11    3.53    5.41   0
  -5  -5 -11    4.55    5.20   0
   2  -6 -11   19.65    5.07   0
   2  -6 -11   11.00    5.35   0
  -2   6  11   11.64    5.39   0
  -1   6  11   -2.06    4.62   0
   1  -6 -11    1.66    4.71   0
   0  -6 -11    3.00    4.74   0
   0   6  11   -1.05    4.57   0
   1   6  11    4.12    4.32   0
  -1  -6 -11    3.32    3.02   0
   2   6  11    0.85    3.26   0
  -2  -6 -11    6.12    3.12   0
  -3  -6 -11    3.65    3.23   0
   3   6  11   -0.97    4.72   0
   4   6  11    2.16    3.65   0
  -4  -6 -11    2.74    3.64   0
   1  -7 -11    1.84    5.25   0
  -1   7  11    4.21    5.35   0
   0  -7 -11    1.76    4.95   0
   0   7  11    0.85    4.98   0
  -1  -7 -11   -0.75    4.80   0
   1   7  11   -1.05    4.80   0
   2   7  11    5.42    4.92   0
  -2  -7 -11    2.71    3.46   0
  -3  -7 -11    7.20    5.08   0
   3   7  11   -0.06    3.54   0
   2   7 -12    3.18    4.73   0
  -2  -7  12    5.23    5.28   0
   1   7 -12    0.73    3.53   0
  -1  -7  12    5.42    5.25   0
   0   7 -12    5.35    5.03   0
   0  -7  12   -3.19    3.62   0
  -3  -6  12    1.31    3.22   0
  -3  -6  12   -1.53    3.52   0
   3   6 -12    2.16    4.84   0
   2   6 -12   -1.78    4.48   0
  -2  -6  12    3.42    3.44   0
   1   6 -12   -3.03    4.40   0
  -1  -6  12    5.16    3.05   0
   0  -6  12   12.26    3.42   0
   0   6 -12   12.96    4.50   0
  -1   6 -12   -1.12    3.31   0
   1  -6  12   -0.93    3.46   0
   2  -6  12    0.97    3.66   0
   2  -6  12    4.35    5.21   0
  -4  -5  12    1.63    4.98   0
  -4  -5  12    4.84    3.71   0
   4   5 -12    3.74    5.26   0
  -3  -5  12    0.94    4.60   0
   3   5 -12   -0.51    3.10   0
  -3  -5  12    3.12    3.21   0
  -2  -5  12    7.98    3.16   0
   2   5 -12   14.36    4.17   0
   1   5 -12   25.66    4.10   0
  -1  -5  12   19.12    4.38   0
   0  -5  12    8.11    4.37   0
   0   5 -12    4.38    2.85   0
  -1   5 -12    4.60    3.01   0
   1  -5  12    7.57    3.14   0
   2  -5  12   -1.19    3.23   0
   2  -5  12   -0.07    3.21   0
   3  -5  12    2.83    7.72   0
   3  -5  12    4.17    3.56   0
   3  -5  12    1.49    3.67   0
  -4  -4  12    2.03    4.95   0
  -4  -4  12    7.97    4.68   0
   4   4 -12    0.95    4.74   0
  -3  -4  12   -0.73    3.09   0
  -3  -4  12   -2.24    3.28   0
   3   4 -12    2.05    3.12   0
  -2  -4  12   61.33    4.49   0
  -2  -4  12   62.25    4.84   0
   2   4 -12   52.06    4.43   0
  -1  -4  12   92.87    4.67   0
   1   4 -12   92.15    4.40   0
   0  -4  12   83.82    4.82   0
   0   4 -12   84.20    4.53   0
   1  -4  12   23.74    3.25   0
  -1   4 -12   26.07    3.00   0
   2  -4  12    2.21    4.36   0
   2  -4  12    0.05    4.35   0
   3  -4  12    2.33    4.50   0
   3  -4  12    1.57    9.35   0
   3  -4  12    1.42    4.50   0
   4  -4  12   -0.96    3.67   0
   4  -4  12    8.13    5.47   0
  -5  -3  12    1.94    3.77   0
   5   3 -12    0.62    5.25   0
  -5  -3  12   -0.89    5.30   0
  -4  -3  12    1.39    4.64   0
  -4  -3  12    1.81    4.43   0
   4   3 -12   -0.23    4.65   0
  -3  -3  12   23.62    4.15   0
  -3  -3  12   22.42    4.68   0
   3   3 -12   23.06    4.64   0
  -2  -3  12    8.78    2.93   0
  -2  -3  12   14.58    4.40   0
   2   3 -12   11.77    4.35   0
  -1  -3  12   30.88    3.34   0
  -1  -3  12   35.59    4.19   0
   1   3 -12   28.92    3.04   0
   0   3 -12   62.20    4.05   0
   0  -3  12   62.41    3.30   0
   1  -3  12   27.34    4.03   0
   2  -3  12    2.33    3.97   0
   2  -3  12    4.05    2.89   0
   3  -3  12    2.96    4.36   0
   3  -3  12    2.95    4.07   0
   4  -3  12    1.42    3.46   0
   4  -3  12   -0.13    3.50   0
   5   2 -12    0.34    5.33   0
  -5  -2  12    3.38    5.07   0
  -5  -2  12    2.36    5.22   0
  -4  -2  12    0.89    4.32   0
   4   2 -12    0.17    4.74   0
  -4  -2  12    1.00    4.76   0
  -3  -2  12  262.39    7.16   0
  -3  -2  12  287.32    6.05   0
   3   2 -12  285.99    6.94   0
  -2  -2  12  355.41    7.07   0
  -2  -2  12  343.76    5.52   0
   2   2 -12  373.90    6.98   0
   1   2 -12   52.63    4.32   0
  -1  -2  12   46.71    3.64   0
  -1  -2  12   43.15    3.04   0
   0   2 -12   29.64    3.88   0
   0  -2  12   32.93    4.40   0
   0  -2  12   28.55    4.21   0
   1  -2  12   52.03    5.45   0
   1  -2  12   60.82    4.31   0
   1  -2  12   54.26    4.27   0
   2  -2  12   -0.84    2.60   0
   2  -2  12   -0.37    2.73   0
   3  -2  12   17.30    3.11   0
   3  -2  12   16.49    2.95   0
   4  -2  12    1.00    3.13   0
   4  -2  12   -1.09    3.24   0
   5   1 -12    1.04    5.14   0
  -5  -1  12    2.27    5.10   0
  -5  -1  12    0.06    6.39   0
   4   1 -12    0.06    4.50   0
  -4  -1  12   -0.47    3.05   0
  -4  -1  12    0.72    4.44   0
  -3  -1  12   97.29    3.71   0
   3   1 -12   98.67    5.54   0
  -3  -1  12   89.42    5.82   0
   2   1 -12    2.37    3.82   0
   2   1 -12    1.52    2.58   0
  -2  -1  12    1.39    3.71   0
  -2  -1  12    2.74    4.98   0
  -1  -1  12  163.84    7.07   0
  -1  -1  12  164.33    4.29   0
   1   1 -12  166.14    5.90   0
   1   1 -12  178.09    4.32   0
   0  -1  12  118.21    5.34   0
   0  -1  12  128.51    4.90   0
   0  -1  12  110.87    3.97   0
   1  -1  12  223.79    4.67   0
   1  -1  12  238.34    8.44   0
   1  -1  12  240.91    4.83   0
   2  -1  12   34.10    2.95   0
   2  -1  12   28.64    2.86   0
   3  -1  12  119.91    4.86   0
   4  -1  12    0.69    4.41   0
   5  -1  12    0.50    4.87   0
   5  -1  12    1.71    5.11   0
   5   0 -12    0.56    6.38   0
  -5   0  12    3.16    4.93   0
   5   0 -12   -0.04    7.29   0
   4   0 -12   -0.27    6.71   0
   4   0 -12    1.35    4.42   0
  -4   0  12   -1.56    3.03   0
   3   0 -12   14.85    3.00   0
  -3   0  12   12.16    2.99   0
  -3   0  12   13.57    6.80   0
   3   0 -12   14.49    6.15   0
  -2   0  12   51.61    4.07   0
   2   0 -12   47.15    4.08   0
  -2   0  12   42.64    9.75   0
   1   0 -12   16.10    3.72   0
  -1   0  12   12.43    5.31   0
  -1   0  12    8.41    3.65   0
  -1   0  12   12.35    4.79   0
   0   0  12   75.63    4.76   0
   0   0 -12   70.94    3.57   0
   0   0  12   75.65    4.66   0
   0   0  12   82.21    5.04   0
  -1   0 -12    1.04    3.79   0
  -1   0 -12    5.31    3.70   0
   1   0  12    1.53    2.57   0
  -2   0 -12    2.03    2.70   0
   2   0  12    2.48    3.86   0
  -3   0 -12   20.44    4.30   0
   3   0  12   24.09    3.15   0
  -4   0 -12   -0.67    3.08   0
   4   0  12   -1.41    3.12   0
   5   0  12    0.57    4.96   0
  -5   0 -12   -0.53    5.06   0
   5  -1 -12   -1.24    3.90   0
   4  -1 -12    0.16    4.73   0
   3  -1 -12    5.73    2.88   0
  -3   1  12    5.08    2.81   0
   2  -1 -12    0.92    3.64   0
  -2   1  12    2.24    2.65   0
   1  -1 -12    0.96    2.66   0
   0   1  12    5.45    4.02   0
   0  -1 -12    5.67    3.68   0
   0  -1 -12    5.90    4.00   0
  -1  -1 -12   96.19    4.52   0
   1   1  12   74.68    3.47   0
  -2  -1 -12    1.69    2.67   0
   2   1  12    0.12    3.93   0
   3   1  12    4.98    3.94   0
  -3  -1 -12    5.03    2.75   0
   4   1  12   -1.39    4.59   0
  -4  -1 -12    1.45    5.33   0
  -4  -1 -12    0.95    4.32   0
   5   1  12    1.47    3.41   0
  -5  -1 -12    2.28    6.25   0
  -5  -1 -12    4.33    3.42   0
   4  -2 -12    1.59    4.75   0
   3  -2 -12    7.58    2.95   0
   2  -2 -12   30.55    4.14   0
  -1   2  12   22.14    6.24   0
   1  -2 -12   26.46    2.88   0
   1  -2 -12   24.57    6.38   0
   0   2  12    9.36    4.36   0
   0  -2 -12    6.86    4.06   0
   1   2  12   25.18    4.12   0
  -1  -2 -12   29.90    3.88   0
   2   2  12   30.79    4.28   0
  -2  -2 -12   44.11    4.06   0
  -3  -2 -12   38.98    3.22   0
   3   2  12   31.99    3.25   0
  -4  -2 -12    2.96    4.33   0
   4   2  12   -2.44    4.30   0
  -4  -2 -12    5.56    4.23   0
  -5  -2 -12   -0.67    5.06   0
  -5  -2 -12    1.93    4.96   0
   5   2  12    3.39    3.56   0
   4  -3 -12    3.90    3.64   0
   3  -3 -12   -0.84    3.12   0
   2  -3 -12   35.10    7.49   0
   2  -3 -12   32.28    3.29   0
   2  -3 -12   34.88    7.34   0
  -1   3  12  322.26    9.13   0
   1  -3 -12  350.78    8.87   0
   1  -3 -12  342.47    5.29   0
   0  -3 -12    9.97    4.03   0
   0   3  12   10.25    4.48   0
  -1  -3 -12    4.94    3.84   0
   1   3  12    6.70    4.23   0
   2   3  12   -1.12    3.87   0
  -2  -3 -12    6.47    3.58   0
   3   3  12    1.03    4.12   0
  -3  -3 -12    2.67    2.83   0
   4   3  12   -0.63    4.35   0
  -4  -3 -12    3.69    4.27   0
  -5  -3 -12    4.36    5.30   0
   5   3  12    2.39    3.46   0
  -5  -3 -12    0.97    3.48   0
   3  -4 -12    2.74    4.77   0
   3  -4 -12    0.80    6.76   0
   3  -4 -12    2.11    6.69   0
   2  -4 -12   10.83    3.05   0
   2  -4 -12    9.55    4.64   0
   2  -4 -12   10.61    5.70   0
  -1   4  12  159.34    6.28   0
   1  -4 -12  166.66    6.10   0
   0   4  12   13.37    4.39   0
   0  -4 -12   13.50    4.33   0
  -1  -4 -12   36.94    3.17   0
   1   4  12   44.82    4.83   0
  -2  -4 -12   34.56    3.00   0
   2   4  12   34.46    3.21   0
   3   4  12    5.09    4.18   0
  -3  -4 -12    7.55    2.88   0
   4   4  12    5.58    4.61   0
  -4  -4 -12    3.84    3.00   0
   5   4  12   -1.86    3.60   0
  -5  -4 -12   -1.82    3.59   0
   3  -5 -12    1.50    5.19   0
   3  -5 -12    1.60    6.47   0
   3  -5 -12    1.95    6.58   0
   2  -5 -12    6.04    3.22   0
   2  -5 -12    5.65    4.78   0
   1  -5 -12    6.84    4.44   0
  -1   5  12    3.88    4.48   0
   0  -5 -12    6.11    4.25   0
   0   5  12    5.02    4.71   0
  -1  -5 -12    4.37    4.33   0
   1   5  12    2.57    3.20   0
  -2  -5 -12    3.09    4.07   0
   2   5  12    2.61    2.98   0
  -3  -5 -12    1.81    4.26   0
   3   5  12    1.46    3.11   0
   4   5  12    2.60    3.33   0
  -4  -5 -12   -6.43    4.83   0
   2  -6 -12   -1.57    3.56   0
   2  -6 -12    1.02    5.36   0
   1  -6 -12    2.64    3.35   0
  -1   6  12    4.03    4.94   0
   0  -6 -12    3.38    4.56   0
   0   6  12   -1.05    4.63   0
   1   6  12    3.55    3.35   0
  -1  -6 -12    0.44    4.25   0
  -2  -6 -12   -0.68    4.60   0
   2   6  12    2.21    4.53   0
  -3  -6 -12   -3.13    3.18   0
   3   6  12   -1.81    3.27   0
   4   6  12    3.88    5.11   0
  -4  -6 -12    1.08    3.55   0
   1  -7 -12    2.01    5.41   0
  -1   7  12    2.94    5.47   0
   0  -7 -12    0.22    5.37   0
   0   7  12    2.14    3.88   0
   1   7  12    4.03    4.84   0
  -1  -7 -12    4.81    4.55   0
   2   7  12    2.50    5.04   0
  -2  -7 -12    0.01    4.95   0
  -3  -7 -12    4.46    5.24   0
   3   7  12    0.81    5.23   0
   2   7 -13   -2.12    5.05   0
  -2  -7  13    1.30    3.88   0
   1   7 -13    4.10    3.46   0
  -1  -7  13   -2.66    3.64   0
   0   7 -13    5.17    3.58   0
   0  -7  13    4.27    3.73   0
  -3  -6  13   -4.52    4.99   0
  -3  -6  13    7.54    5.05   0
   3   6 -13   -1.11    4.91   0
   2   6 -13    5.15    4.80   0
  -2  -6  13    0.20    4.83   0
   1   6 -13    5.50    4.56   0
  -1  -6  13    9.52    4.65   0
   0  -6  13    1.01    4.72   0
   0   6 -13   -0.62    4.45   0
   1  -6  13    1.66    3.59   0
  -1   6 -13    4.95    4.78   0
   2  -6  13    6.61    5.19   0
   2  -6  13   -1.00    3.87   0
  -4  -5  13    8.18    5.27   0
   4   5 -13    1.51    5.11   0
  -4  -5  13    2.09    5.41   0
  -3  -5  13    7.20    4.77   0
  -3  -5  13   12.64    3.56   0
   3   5 -13    9.06    4.77   0
  -2  -5  13    3.67    4.30   0
  -2  -5  13    5.31    4.54   0
   2   5 -13    1.20    3.01   0
   1   5 -13    3.36    4.19   0
  -1  -5  13    6.00    3.11   0
   0  -5  13    5.26    3.12   0
   0   5 -13   -0.18    2.99   0
   1  -5  13    0.20    4.46   0
  -1   5 -13    0.83    4.24   0
   2  -5  13    9.69    4.76   0
   2  -5  13    8.55    3.37   0
   3  -5  13    6.15    5.36   0
   3  -5  13    1.02    8.62   0
   3  -5  13    0.81    5.16   0
  -4  -4  13    2.40    4.97   0
  -4  -4  13    1.56    4.76   0
   4   4 -13    5.00    4.92   0
  -3  -4  13   10.20    4.43   0
  -3  -4  13   10.61    4.61   0
   3   4 -13   11.09    3.44   0
  -2  -4  13   60.88    4.61   0
  -2  -4  13   67.22    4.76   0
   2   4 -13   62.17    3.53   0
  -1  -4  13    0.38    4.07   0
   1   4 -13   -0.98    3.64   0
   0  -4  13    2.22    2.88   0
   0   4 -13    0.68    3.92   0
   1  -4  13   38.91    4.34   0
  -1   4 -13   36.37    3.14   0
   2  -4  13    2.22    4.31   0
   2  -4  13    5.23    3.10   0
   3  -4  13    6.19    4.61   0
   3  -4  13    2.60    3.31   0
  -5  -3  13    2.28    3.87   0
   5   3 -13    2.41    5.35   0
  -5  -3  13    5.82    5.52   0
  -4  -3  13    2.52    4.75   0
  -4  -3  13    3.60    4.74   0
   4   3 -13    3.99    3.56   0
  -3  -3  13    8.33    4.44   0
   3   3 -13    3.51    4.36   0
  -3  -3  13    1.50    4.30   0
  -2  -3  13    1.00    3.82   0
  -2  -3  13   -1.18    4.49   0
   2   3 -13    1.60    3.89   0
  -1  -3  13    1.93    3.79   0
   1   3 -13    0.51    2.63   0
  -1  -3  13    2.94    4.25   0
   0  -3  13   13.54    3.97   0
   0  -3  13   18.55    3.95   0
   0   3 -13   12.89    2.55   0
   1  -3  13   82.09    5.41   0
   1  -3  13   90.60    3.54   0
   2  -3  13   19.55    6.62   0
   2  -3  13   24.20    4.17   0
   2  -3  13   20.41    4.20   0
   3  -3  13    6.36    4.30   0
   3  -3  13    3.35    4.45   0
   4  -3  13   -0.43    3.48   0
   4  -3  13    3.21    3.37   0
   5   2 -13    1.97    5.25   0
  -5  -2  13    3.08    3.75   0
  -5  -2  13   -0.10    5.55   0
  -4  -2  13    2.72    3.30   0
   4   2 -13    4.93    4.47   0
  -4  -2  13    5.82    4.59   0
  -3  -2  13   -0.65    4.05   0
  -3  -2  13    0.30    3.97   0
   3   2 -13    2.52    5.01   0
  -2  -2  13    7.96    3.91   0
  -2  -2  13    6.59    4.34   0
   2   2 -13   10.15    4.12   0
  -1  -2  13   23.47    2.79   0
  -1  -2  13   22.70    4.55   0
   1   2 -13   26.88    4.00   0
   0   2 -13  274.77    4.94   0
   0  -2  13  260.94    5.85   0
   0  -2  13  295.36    6.00   0
   1  -2  13   73.21    5.15   0
   1  -2  13   86.42    4.44   0
   1  -2  13   81.99    4.61   0
   2  -2  13    4.05    2.77   0
   2  -2  13    3.33    4.02   0
   3  -2  13    4.81    2.92   0
   3  -2  13    6.46    2.96   0
   4  -2  13   -0.04    3.06   0
   4  -2  13   -0.29    3.24   0
   5   1 -13    3.36    6.43   0
  -5  -1  13    2.04    3.72   0
  -5  -1  13    3.20    6.67   0
   4   1 -13    1.60    5.61   0
  -4  -1  13    3.25    4.26   0
  -4  -1  13    2.51    5.53   0
  -3  -1  13   41.21    4.46   0
   3   1 -13   36.28    5.64   0
  -3  -1  13   33.07    4.81   0
   2   1 -13    8.66    3.93   0
  -2  -1  13    7.86    3.72   0
   2   1 -13   10.69    2.76   0
  -2  -1  13    9.96    4.41   0
   1   1 -13    5.50    3.87   0
   1   1 -13    6.66    2.59   0
  -1  -1  13    5.82    4.43   0
  -1  -1  13    3.92    3.73   0
   0   1 -13  182.68    5.59   0
   0  -1  13  170.79    5.75   0
   0  -1  13  186.67    5.43   0
   0  -1  13  151.97    4.43   0
   1  -1  13    4.60    3.75   0
   1  -1  13    5.26    3.68   0
   1  -1  13    2.42    3.85   0
   2  -1  13    1.82    2.63   0
   2  -1  13    1.74    3.67   0
   3  -1  13    2.85    3.06   0
   4  -1  13    1.49    3.07   0
   4  -1  13    6.33    3.20   0
   5  -1  13    3.36    5.06   0
   5  -1  13    1.68    5.20   0
   5   0 -13    2.01    8.55   0
  -5   0  13    4.62    5.26   0
   5   0 -13    1.82    8.47   0
   4   0 -13    6.22    3.41   0
  -4   0  13    8.36    4.53   0
   4   0 -13    4.40    7.44   0
   4   0 -13    3.51    7.12   0
   3   0 -13   21.30    3.05   0
  -3   0  13   20.00    4.17   0
   2   0 -13    2.99    2.58   0
  -2   0  13    5.15    3.79   0
  -1   0  13  186.50    5.22   0
  -1   0  13  173.11    7.51   0
  -1   0  13  175.01    7.48   0
   1   0 -13  192.85    4.45   0
   0   0 -13   17.73    3.96   0
   0   0  13   19.40    3.88   0
   0   0  13   19.61    4.12   0
   0   0  13   17.92    4.25   0
  -1   0 -13    1.83    4.71   0
  -1   0 -13    1.22    3.69   0
   1   0  13    0.90    3.64   0
  -2   0 -13    9.76    2.73   0
   2   0  13   10.63    4.01   0
  -3   0 -13   44.94    3.40   0
   3   0  13   49.81    4.52   0
  -4   0 -13   13.13    4.50   0
   4   0  13   17.40    3.17   0
   5   0  13    4.85    5.02   0
  -5   0 -13    1.22    3.61   0
   4  -1 -13   -0.80    4.74   0
   3  -1 -13    5.06    4.08   0
   2  -1 -13   12.05    3.80   0
   1  -1 -13  110.24    3.65   0
   0   1  13  458.76    8.97   0
   0  -1 -13  491.39    6.94   0
   0  -1 -13  490.96    9.03   0
  -1  -1 -13   24.28    3.76   0
   1   1  13   21.08    3.76   0
  -2  -1 -13   50.90    3.11   0
   2   1  13   48.92    4.37   0
   3   1  13    9.86    4.06   0
  -3  -1 -13    3.54    3.99   0
   4   1  13    2.86    4.32   0
  -4  -1 -13    0.79    5.23   0
  -4  -1 -13   -0.04    4.30   0
   5   1  13   -2.99    4.71   0
  -5  -1 -13    1.58    7.16   0
  -5  -1 -13   -1.82    4.83   0
   4  -2 -13    3.22    4.59   0
   3  -2 -13   -0.29    4.17   0
   2  -2 -13   -1.30    2.92   0
   1  -2 -13   -0.79    2.62   0
   1  -2 -13   -0.43    5.99   0
  -1   2  13    0.01    6.45   0
   0   2  13    8.02    4.43   0
   0  -2 -13    8.28    4.16   0
   1   2  13   70.12    3.53   0
  -1  -2 -13   86.10    4.39   0
   2   2  13   62.62    3.44   0
  -2  -2 -13   64.42    3.20   0
   3   2  13  120.61    4.96   0
  -3  -2 -13  121.44    3.90   0
   4   2  13    3.23    3.07   0
  -4  -2 -13    0.10    4.38   0
   5   2  13    2.64    4.75   0
  -5  -2 -13   -0.58    6.09   0
  -5  -2 -13   -1.07    4.86   0
   4  -3 -13    3.06    5.14   0
   3  -3 -13   -2.45    4.23   0
   2  -3 -13    4.13    4.00   0
   1  -3 -13    0.37    4.12   0
   1  -3 -13    0.81    2.90   0
  -1   3  13   -0.43    5.24   0
   0  -3 -13   20.79    4.02   0
   0   3  13   17.73    4.43   0
   1   3  13   16.28    4.42   0
  -1  -3 -13   13.83    2.97   0
   2   3  13   18.86    2.95   0
  -2  -3 -13   21.74    2.70   0
   3   3  13   28.85    3.20   0
  -3  -3 -13   33.02    3.06   0
   4   3  13    0.69    3.11   0
  -4  -3 -13    0.79    4.31   0
  -5  -3 -13    1.73    5.14   0
   5   3  13    0.08    4.86   0
  -5  -3 -13    2.74    5.06   0
   3  -4 -13    0.47    9.03   0
   3  -4 -13    1.02    8.39   0
   3  -4 -13    0.63    4.87   0
   2  -4 -13   15.99    5.59   0
   2  -4 -13   17.86    4.40   0
   2  -4 -13   14.88    5.58   0
  -1   4  13   59.76    5.12   0
   1  -4 -13   62.76    4.96   0
   0   4  13   11.94    4.70   0
   0  -4 -13   14.88    4.15   0
  -1  -4 -13   30.22    4.37   0
   1   4  13   22.70    4.62   0
  -2  -4 -13  114.69    4.60   0
   2   4  13  105.94    4.89   0
   3   4  13    2.07    2.97   0
  -3  -4 -13    1.05    4.06   0
   4   4  13   -2.60    3.26   0
  -4  -4 -13    1.84    3.10   0
   5   4  13   -0.95    5.20   0
  -5  -4 -13    7.89    5.31   0
   3  -5 -13    0.35    3.70   0
   3  -5 -13   -0.35    7.47   0
   3  -5 -13   -0.40    6.62   0
   2  -5 -13    3.06    4.52   0
   2  -5 -13    0.71    4.81   0
  -1   5  13    3.22    4.32   0
   1  -5 -13    4.05    4.51   0
   0  -5 -13    4.38    4.19   0
   0   5  13   -1.71    4.59   0
  -1  -5 -13    0.51    4.17   0
   1   5  13    4.82    4.27   0
  -2  -5 -13    0.80    2.70   0
   2   5  13    5.36    4.43   0
   3   5  13   -0.93    4.22   0
  -3  -5 -13   -1.76    3.13   0
   4   5  13    3.99    4.94   0
  -4  -5 -13   -1.24    4.74   0
   2  -6 -13   -1.05    5.60   0
   2  -6 -13    5.55    5.13   0
   1  -6 -13   -0.44    4.74   0
  -1   6  13    1.07    4.74   0
   0  -6 -13    2.26    4.52   0
   0   6  13    3.81    4.70   0
   1   6  13   -6.36    4.57   0
  -1  -6 -13    2.31    4.57   0
  -2  -6 -13    3.58    3.11   0
   2   6  13    1.89    4.70   0
  -3  -6 -13    0.28    4.51   0
   3   6  13    0.94    4.54   0
   4   6  13    6.10    3.54   0
  -4  -6 -13    1.26    3.61   0
   1  -7 -13    6.59    5.46   0
  -1   7  13    2.71    5.53   0
   0  -7 -13    3.31    5.17   0
   0   7  13    0.74    5.23   0
  -1  -7 -13    4.07    4.96   0
   1   7  13   -0.06    5.06   0
   2   7  13    1.52    4.94   0
  -2  -7 -13    4.56    4.78   0
  -3  -7 -13   -1.40    3.68   0
   3   7  13    1.32    3.62   0
   2   7 -14    3.65    5.22   0
  -2  -7  14    4.63    5.46   0
  -1  -7  14    6.06    5.40   0
   1   7 -14    1.65    3.73   0
   0   7 -14   -1.15    3.47   0
   0  -7  14    3.19    5.20   0
  -3  -6  14    1.64    4.96   0
  -3  -6  14    5.53    5.30   0
   3   6 -14    2.24    3.48   0
  -2  -6  14    4.17    3.34   0
   2   6 -14    5.71    3.16   0
  -2  -6  14   11.89    4.88   0
   1   6 -14    3.82    4.71   0
  -1  -6  14    9.42    3.52   0
   0  -6  14   -1.88    3.39   0
   0   6 -14    1.72    4.63   0
   1  -6  14    2.03    4.86   0
  -1   6 -14    5.44    4.65   0
   2  -6  14    3.71    5.19   0
   2  -6  14    7.29    5.34   0
  -4  -5  14    4.44    5.28   0
  -4  -5  14    5.48    5.46   0
   4   5 -14    3.42    5.30   0
  -3  -5  14    1.85    4.59   0
  -3  -5  14    2.09    4.94   0
   3   5 -14    1.00    4.75   0
   2   5 -14    8.43    4.33   0
  -2  -5  14    4.89    3.13   0
  -2  -5  14   10.51    4.69   0
   1   5 -14    4.34    2.94   0
  -1  -5  14    0.61    4.45   0
   0  -5  14   14.30    4.53   0
   0   5 -14    9.05    3.11   0
   1  -5  14   12.55    4.59   0
  -1   5 -14   14.63    4.41   0
   2  -5  14    1.69    4.87   0
   2  -5  14    4.76    4.90   0
   3  -5  14    3.43    3.83   0
   3  -5  14    0.91    5.17   0
  -4  -4  14    2.87    4.84   0
   4   4 -14    0.81    4.88   0
  -4  -4  14    3.94    5.10   0
  -3  -4  14    1.90    4.31   0
  -3  -4  14    2.93    3.20   0
   3   4 -14    3.28    3.38   0
   2   4 -14    0.53    4.24   0
  -2  -4  14    1.80    4.39   0
  -2  -4  14   -0.03    2.70   0
  -1  -4  14   29.00    4.60   0
  -1  -4  14   27.18    4.22   0
   1   4 -14   23.47    3.09   0
   0  -4  14   -0.98    4.24   0
   0   4 -14    3.34    3.92   0
   1  -4  14  151.99    5.17   0
   2  -4  14   19.66    4.51   0
   2  -4  14   25.65    4.65   0
   3  -4  14    1.82    4.79   0
   3  -4  14    2.73    4.81   0
  -4  -3  14    1.48    4.89   0
  -4  -3  14    1.94    4.71   0
   4   3 -14    0.98    4.63   0
  -3  -3  14   23.79    4.46   0
  -3  -3  14   18.29    4.69   0
   3   3 -14   20.08    4.59   0
   2   3 -14    2.54    3.98   0
  -2  -3  14    1.95    2.78   0
  -2  -3  14    0.53    4.40   0
  -1  -3  14   49.16    3.05   0
  -1  -3  14   51.60    3.67   0
   1   3 -14   57.24    3.21   0
   0  -3  14   52.28    4.25   0
   0   3 -14   54.64    3.85   0
   0  -3  14   51.81    4.15   0
   1  -3  14   78.74    3.67   0
   1  -3  14   74.74    5.19   0
   1  -3  14   83.53    3.59   0
   2  -3  14   30.22    8.89   0
   2  -3  14   35.65    4.31   0
   2  -3  14   38.29    4.35   0
   3  -3  14    0.84    3.08   0
   3  -3  14    4.93    4.27   0
   4  -3  14   -1.56    3.47   0
   4  -3  14    2.24    3.71   0
  -5  -2  14    4.83    3.78   0
   5   2 -14    1.49    5.27   0
  -5  -2  14   -1.13    5.58   0
  -4  -2  14   -1.33    3.31   0
   4   2 -14    1.20    5.65   0
  -4  -2  14    0.91    4.56   0
  -3  -2  14   -0.05    3.97   0
  -3  -2  14    0.01    4.34   0
   3   2 -14   -1.27    4.08   0
   2   2 -14   12.24    3.95   0
  -2  -2  14   15.07    3.86   0
  -2  -2  14   12.02    4.31   0
   1   2 -14    0.42    3.72   0
  -1  -2  14    1.65    3.67   0
  -1  -2  14    1.32    4.16   0
   0  -2  14   22.97    4.07   0
   0   2 -14   29.97    3.83   0
   0  -2  14   25.20    2.93   0
   1  -2  14   -0.05    4.70   0
   1  -2  14    3.69    2.58   0
   1  -2  14    5.68    3.77   0
   2  -2  14    1.32    2.75   0
   2  -2  14   -1.12    2.87   0
   3  -2  14    7.71    4.33   0
   3  -2  14   13.67    4.40   0
   4  -2  14    5.12    4.50   0
   4  -2  14    1.84    4.66   0
  -5  -1  14    2.45    5.28   0
   5   1 -14    1.22    7.36   0
  -5  -1  14    1.35    6.72   0
  -4  -1  14    3.11    4.49   0
   4   1 -14    7.92    5.59   0
  -4  -1  14    1.65    5.87   0
  -3  -1  14    2.61    4.04   0
   3   1 -14    1.30    5.28   0
  -3  -1  14    2.64    5.28   0
   2   1 -14    6.41    2.74   0
  -2  -1  14    9.07    3.84   0
  -2  -1  14    4.67    5.25   0
   2   1 -14    6.36    4.76   0
  -1  -1  14   63.61    3.27   0
  -1  -1  14   69.53    5.09   0
   1   1 -14   67.35    4.50   0
   1   1 -14   71.35    4.23   0
   0  -1  14   52.85    4.35   0
   0  -1  14   56.50    4.32   0
   0  -1  14   45.74    3.26   0
   0   1 -14   57.65    4.30   0
   1  -1  14  416.43    5.82   0
   1  -1  14  466.07   10.18   0
   1  -1  14  495.65    6.97   0
   2  -1  14   13.32    2.66   0
   2  -1  14   21.90    3.83   0
   3  -1  14   21.76    3.08   0
   4  -1  14    5.92    4.39   0
   4  -1  14    3.73    3.25   0
   5  -1  14    3.16    3.71   0
   5  -1  14    0.82    3.89   0
  -5   0  14    2.44    3.82   0
   4   0 -14    1.55    3.28   0
  -4   0  14    3.07    3.20   0
   3   0 -14   80.75    3.63   0
  -3   0  14   72.76    3.56   0
   2   0 -14    6.23    2.63   0
  -2   0  14    3.93    2.74   0
   1   0 -14    0.83    3.66   0
  -1   0  14    1.32    3.60   0
  -1   0  14   -0.21    4.73   0
  -1   0  14    1.94    3.69   0
   0   0 -14   13.94    4.04   0
   0   0  14   13.92    4.07   0
   0   0  14   12.08    3.67   0
   0   0  14   15.25    4.18   0
  -1   0 -14   11.31    4.04   0
  -1   0 -14   14.74    3.79   0
   1   0  14   11.73    3.80   0
  -2   0 -14   67.29    4.33   0
  -2   0 -14   58.50    9.18   0
   2   0  14   62.41    4.25   0
  -3   0 -14   12.47    4.12   0
   3   0  14   10.70    4.16   0
  -4   0 -14    1.85    3.21   0
   4   0  14    4.64    4.40   0
   5   0  14    2.02    3.64   0
  -5   0 -14   -0.20    5.14   0
   4  -1 -14   -1.48    4.70   0
   3  -1 -14    5.28    4.30   0
   2  -1 -14   22.29    2.97   0
   1  -1 -14   -0.35    3.76   0
  -1   1  14    3.87    8.63   0
  -1   1  14    1.82    8.63   0
   0   1  14   39.29    4.64   0
   0  -1 -14   45.75    4.13   0
   0  -1 -14   45.89    4.61   0
  -1  -1 -14   24.18    4.25   0
  -1  -1 -14   24.99    2.92   0
   1   1  14   29.27    3.96   0
  -2  -1 -14   77.12    4.23   0
   2   1  14   66.77    4.27   0
   3   1  14  124.55    5.03   0
  -3  -1 -14  121.98    4.95   0
   4   1  14    1.25    3.13   0
  -4  -1 -14    1.22    6.16   0
  -4  -1 -14    1.61    3.06   0
   5   1  14    7.31    4.98   0
  -5  -1 -14   -0.78    3.32   0
   4  -2 -14    1.88    4.83   0
   3  -2 -14    5.47    4.29   0
   2  -2 -14    0.61    4.08   0
   1  -2 -14    4.49    2.69   0
   1  -2 -14    6.56    6.54   0
  -1   2  14    5.89    7.47   0
   0   2  14  377.52    8.23   0
   0  -2 -14  396.80    5.64   0
   0  -2 -14  433.16    8.30   0
   1   2  14   33.91    4.29   0
  -1  -2 -14   37.01    4.09   0
   2   2  14   27.72    3.93   0
  -2  -2 -14   32.21    3.85   0
   3   2  14  103.63    4.85   0
  -3  -2 -14  107.83    3.78   0
   4   2  14    4.85    4.35   0
  -4  -2 -14   -1.56    4.24   0
   5   2  14    0.40    3.41   0
  -5  -2 -14    1.06    5.32   0
  -5  -2 -14    0.71    3.44   0
   4  -3 -14   -2.46    5.10   0
   3  -3 -14    2.71    3.27   0
   2  -3 -14    6.01    4.09   0
   1  -3 -14   72.96    5.99   0
   1  -3 -14   73.53    4.46   0
  -1   3  14   68.40    6.38   0
   0   3  14   -1.51    4.26   0
   0  -3 -14    0.92    3.64   0
   1   3  14    9.36    4.34   0
  -1  -3 -14    6.24    4.05   0
   2   3  14   30.46    4.04   0
  -2  -3 -14   28.63    3.98   0
   3   3  14    2.93    4.17   0
  -3  -3 -14    1.50    4.01   0
   4   3  14    2.63    4.40   0
  -4  -3 -14    0.04    4.31   0
   5   3  14    1.06    3.58   0
  -5  -3 -14    1.19    5.26   0
  -5  -3 -14    4.32    4.92   0
   3  -4 -14    6.28    5.12   0
   2  -4 -14    1.46    6.13   0
   2  -4 -14    0.74    4.35   0
   2  -4 -14    2.25    6.45   0
  -1   4  14  123.66    6.82   0
   1  -4 -14  131.74    6.31   0
   1  -4 -14  130.04    5.00   0
   0   4  14   53.58    3.79   0
   0  -4 -14   60.02    4.67   0
  -1  -4 -14    4.54    3.96   0
   1   4  14    3.73    2.99   0
   2   4  14    3.30    4.19   0
  -2  -4 -14    1.20    4.03   0
   3   4  14    1.11    4.47   0
  -3  -4 -14    0.40    4.28   0
   4   4  14    4.29    4.66   0
  -4  -4 -14    0.47    3.32   0
   5   4  14   -0.45    3.81   0
  -5  -4 -14    5.03    5.24   0
   3  -5 -14    0.91    8.69   0
   3  -5 -14    3.32    5.42   0
   3  -5 -14    0.59    8.56   0
   2  -5 -14   -1.47    5.87   0
   2  -5 -14   -0.40    4.60   0
   1  -5 -14    5.95    4.57   0
  -1   5  14    6.34    4.65   0
   0  -5 -14   -1.46    4.36   0
   0   5  14   -0.95    4.50   0
  -1  -5 -14    1.65    4.24   0
   1   5  14    4.71    4.42   0
  -2  -5 -14    3.06    4.12   0
   2   5  14    1.93    3.05   0
   3   5  14    0.72    3.27   0
  -3  -5 -14    2.29    2.94   0
   4   5  14    4.01    3.51   0
  -4  -5 -14    3.07    4.75   0
   2  -6 -14    6.73    5.33   0
   2  -6 -14    2.34    5.26   0
   1  -6 -14    1.54    6.08   0
  -1   6  14    2.71    5.11   0
   0  -6 -14    3.67    4.75   0
   0   6  14    4.35    4.80   0
   1   6  14    1.40    3.36   0
  -1  -6 -14    0.61    4.58   0
  -2  -6 -14    2.34    4.54   0
   2   6  14   -3.01    4.76   0
  -3  -6 -14    0.59    4.74   0
   3   6  14    1.47    3.47   0
   4   6  14   -5.54    5.26   0
  -4  -6 -14   -0.76    3.57   0
   0  -7 -14    5.75    5.23   0
   0   7  14   -2.61    5.29   0
  -1  -7 -14    5.62    4.92   0
   1   7  14    3.43    5.16   0
   2   7  14    2.61    5.02   0
  -2  -7 -14    3.65    3.57   0
  -3  -7 -14   -0.36    3.80   0
   3   7  14   -0.82    5.45   0
   1   7 -15    2.54    3.71   0
  -1  -7  15    4.17    5.41   0
   3   6 -15    5.57    5.09   0
  -3  -6  15   -0.04    4.98   0
  -3  -6  15    2.85    3.69   0
  -2  -6  15    4.63    5.05   0
   2   6 -15    5.42    4.71   0
  -2  -6  15    1.51    3.74   0
  -1  -6  15    5.98    3.41   0
   1   6 -15    5.48    3.15   0
   0   6 -15    2.25    4.70   0
   0  -6  15   -0.59    3.49   0
   1  -6  15   -1.99    5.01   0
  -1   6 -15    1.57    3.45   0
  -4  -5  15    3.55    5.61   0
  -4  -5  15   -0.54    5.12   0
   4   5 -15    0.67    5.53   0
  -3  -5  15    2.60    3.42   0
  -3  -5  15    3.11    4.79   0
   3   5 -15    3.56    3.12   0
  -2  -5  15    1.14    4.29   0
   2   5 -15    1.50    3.23   0
  -2  -5  15    7.63    3.05   0
  -1  -5  15   -0.91    4.14   0
   1   5 -15   -2.05    4.21   0
  -1  -5  15    0.22    4.56   0
   0  -5  15    5.11    4.41   0
   0   5 -15    4.09    2.97   0
   1  -5  15    9.77    3.32   0
   2  -5  15    2.84    3.47   0
   2  -5  15   -2.41    4.81   0
  -4  -4  15    2.97    5.19   0
  -4  -4  15   -1.83    4.91   0
   4   4 -15    0.48    5.06   0
  -3  -4  15   17.67    4.82   0
  -3  -4  15   11.29    3.32   0
   3   4 -15   16.74    3.20   0
  -2  -4  15    4.99    4.03   0
   2   4 -15    1.12    4.13   0
  -2  -4  15   -1.20    4.48   0
  -1  -4  15   -0.83    2.98   0
  -1  -4  15   -0.27    4.05   0
   1   4 -15   -0.63    3.83   0
   0   4 -15    9.75    2.94   0
   0  -4  15    8.09    4.38   0
   0  -4  15    9.57    4.29   0
   1  -4  15   26.88    4.68   0
   1  -4  15   28.28    4.54   0
   2  -4  15    4.87    4.43   0
   2  -4  15    0.35    5.57   0
   2  -4  15    4.61    4.41   0
   3  -4  15   -1.03    4.83   0
   3  -4  15    1.75    3.44   0
  -4  -3  15    0.62    4.88   0
  -4  -3  15    2.76    4.71   0
   4   3 -15    2.44    4.65   0
  -3  -3  15    0.97    4.45   0
  -3  -3  15   -2.59    4.54   0
   3   3 -15    0.03    4.36   0
  -2  -3  15    8.33    3.98   0
   2   3 -15    8.01    2.82   0
  -2  -3  15   11.87    4.42   0
   1   3 -15    3.35    4.02   0
  -1  -3  15    4.67    2.63   0
  -1  -3  15    1.15    4.36   0
   0  -3  15    4.28    3.99   0
   0   3 -15    7.93    2.63   0
   0  -3  15    7.66    2.85   0
   1  -3  15    3.34    3.04   0
   1  -3  15    2.59    4.95   0
   1  -3  15    3.32    2.87   0
   2  -3  15    7.76    3.09   0
   2  -3  15   11.67    3.16   0
   3  -3  15    7.07    4.53   0
   3  -3  15    3.22    4.41   0
   4  -3  15    3.08    4.89   0
   4  -3  15    3.54    5.23   0
   5   2 -15    0.98    6.77   0
  -4  -2  15    3.09    3.43   0
   4   2 -15    4.47    4.75   0
  -4  -2  15    1.56    4.88   0
  -3  -2  15   10.95    4.38   0
  -3  -2  15    8.27    4.31   0
   3   2 -15   13.63    4.26   0
  -2  -2  15   27.42    3.16   0
   2   2 -15   29.75    4.32   0
  -2  -2  15   23.45    4.89   0
  -1  -2  15   10.11    3.65   0
  -1  -2  15   11.69    2.89   0
   1   2 -15    8.57    2.59   0
   0  -2  15   10.68    3.94   0
   0  -2  15    7.61    2.96   0
   1  -2  15    8.15    4.11   0
   1  -2  15   11.37    2.75   0
   1  -2  15    9.88    2.76   0
   2  -2  15    1.22    3.82   0
   2  -2  15    4.41    3.93   0
   3  -2  15    8.99    4.20   0
   3  -2  15    7.20    4.43   0
   4  -2  15    4.01    4.67   0
   4  -2  15    0.97    4.84   0
  -5  -1  15    1.49    3.69   0
   5   1 -15    2.95    7.96   0
  -4  -1  15   -1.05    3.29   0
  -4  -1  15    2.10    5.85   0
   4   1 -15    2.93    6.59   0
   3   1 -15   11.06    5.27   0
  -3  -1  15    8.07    4.15   0
  -3  -1  15    7.90    5.58   0
  -2  -1  15    7.91    4.10   0
   2   1 -15    7.86    4.93   0
  -2  -1  15   10.51    5.53   0
   2   1 -15   11.94    4.07   0
   1   1 -15  169.90    5.13   0
  -1  -1  15  148.93    4.93   0
  -1  -1  15  150.90    5.81   0
   0   1 -15   60.77    4.34   0
   0  -1  15   52.16    3.46   0
   0  -1  15   50.68    3.50   0
   0  -1  15   56.68    4.47   0
   1  -1  15   19.61    3.73   0
   1  -1  15   14.01    3.85   0
   2  -1  15    0.10    3.84   0
   2  -1  15    0.74    2.77   0
   3  -1  15    1.55    2.98   0
   3  -1  15    3.64    2.98   0
   4  -1  15    0.52    4.42   0
   4  -1  15    5.89    3.16   0
   5  -1  15   -0.08    3.75   0
   5  -1  15    2.72    3.83   0
   4   0 -15    2.17    3.42   0
  -4   0  15    0.64    4.48   0
   3   0 -15    7.41    3.09   0
  -3   0  15    8.89    4.19   0
   2   0 -15    0.86    3.88   0
  -2   0  15    1.34    2.65   0
  -1   0  15    1.04    2.56   0
  -1   0  15    0.76    5.07   0
  -1   0  15    0.26    3.86   0
   1   0 -15   -0.95    2.65   0
   0   0  15  115.48    5.17   0
   0   0 -15  120.92    4.84   0
   0   0  15  111.44    4.02   0
   0   0  15  101.73    4.27   0
  -1   0 -15    1.21    3.92   0
  -1   0 -15    2.92    3.73   0
   1   0  15    1.95    3.60   0
  -2   0 -15    0.77    6.81   0
  -2   0 -15   -0.29    3.79   0
   2   0  15    0.25    2.77   0
  -3   0 -15   12.38    4.04   0
   3   0  15   11.30    4.22   0
  -4   0 -15   -2.02    4.32   0
   4   0  15    7.47    4.52   0
   5   0  15   -0.03    3.43   0
  -5   0 -15    3.66    4.96   0
   4  -1 -15    7.20    4.92   0
   3  -1 -15   32.64    4.40   0
   2  -1 -15   32.07    4.21   0
   1  -1 -15   28.67    4.03   0
  -1   1  15   23.38    8.26   0
  -1   1  15   23.75    8.03   0
   0   1  15   80.04    4.93   0
   0  -1 -15   75.89    3.47   0
   0  -1 -15   91.33    5.18   0
  -1  -1 -15    6.49    3.89   0
  -1  -1 -15    8.14    3.63   0
   1   1  15    8.98    3.87   0
  -2  -1 -15    6.37    3.65   0
   2   1  15    5.14    2.61   0
  -3  -1 -15    1.10    4.12   0
   3   1  15   -0.24    2.93   0
   4   1  15    9.30    3.23   0
  -4  -1 -15    6.20    8.07   0
  -4  -1 -15    6.91    4.46   0
   5   1  15   -1.79    3.57   0
  -5  -1 -15    4.14    5.12   0
   4  -2 -15    1.60    3.50   0
   3  -2 -15    0.75    3.10   0
   2  -2 -15    6.03    2.91   0
   1  -2 -15    5.68    2.58   0
  -1   2  15    3.38    7.42   0
   0   2  15  250.68    7.07   0
   0  -2 -15  273.06    5.72   0
   0  -2 -15  271.97    6.67   0
  -1  -2 -15   51.59    4.31   0
   1   2  15   46.33    4.57   0
   2   2  15    2.59    2.65   0
  -2  -2 -15    1.46    2.49   0
   3   2  15   19.48    3.04   0
  -3  -2 -15   17.61    3.04   0
   4   2  15   -1.43    4.43   0
  -4  -2 -15   -1.94    3.22   0
   5   2  15    0.26    4.89   0
  -5  -2 -15    0.71    6.61   0
  -5  -2 -15    4.96    5.06   0
   4  -3 -15    5.57    5.40   0
   3  -3 -15    1.88    4.73   0
   2  -3 -15    4.57    3.14   0
   1  -3 -15    2.69    4.06   0
  -1   3  15   -0.13    5.00   0
   1  -3 -15   -0.39    4.68   0
   0   3  15   10.19    4.33   0
   0  -3 -15   14.90    4.03   0
   1   3  15    2.79    3.14   0
  -1  -3 -15   -0.47    3.91   0
   2   3  15    8.08    2.73   0
  -2  -3 -15   11.17    3.75   0
   3   3  15    3.31    3.06   0
  -3  -3 -15   11.43    4.07   0
   4   3  15    2.12    4.48   0
  -4  -3 -15   -1.29    3.14   0
  -5  -3 -15    0.97    6.72   0
   5   3  15   -4.07    5.10   0
  -5  -3 -15    0.01    3.55   0
   3  -4 -15    8.00    4.96   0
   2  -4 -15    1.11    7.06   0
   2  -4 -15    1.86    3.12   0
   2  -4 -15    1.21    7.20   0
   1  -4 -15    0.79    4.28   0
  -1   4  15    1.18    5.58   0
   1  -4 -15    3.90    4.08   0
   0   4  15    0.93    4.34   0
   0  -4 -15    2.93    4.06   0
  -1  -4 -15    8.16    3.96   0
   1   4  15    3.41    4.40   0
   2   4  15    5.88    3.11   0
  -2  -4 -15    6.89    3.00   0
   3   4  15   -0.93    3.09   0
  -3  -4 -15    4.59    3.11   0
   4   4  15   -0.05    3.34   0
  -4  -4 -15   -2.35    3.29   0
   5   4  15    1.90    5.19   0
  -5  -4 -15    1.10    3.68   0
   2  -5 -15    2.01    5.96   0
   2  -5 -15   -2.15    4.71   0
   2  -5 -15    2.40    6.13   0
   1  -5 -15    1.47    4.58   0
  -1   5  15    0.83    4.55   0
   0  -5 -15    2.90    4.36   0
   0   5  15   -0.33    4.56   0
  -1  -5 -15    1.52    4.07   0
   1   5  15    3.40    3.16   0
  -2  -5 -15    0.00    4.20   0
   2   5  15    6.98    4.54   0
   3   5  15    3.04    4.42   0
  -3  -5 -15    1.63    4.30   0
   4   5  15    0.33    4.86   0
  -4  -5 -15    0.11    4.81   0
   2  -6 -15   -1.03    5.43   0
   2  -6 -15   -1.07    5.33   0
   1  -6 -15    6.51    5.06   0
  -1   6  15    2.82    5.09   0
   0  -6 -15   -0.34    4.85   0
   0   6  15    2.45    5.01   0
   1   6  15   -2.10    4.92   0
  -1  -6 -15   -0.88    3.34   0
  -2  -6 -15   -0.71    4.56   0
   2   6  15    1.15    4.70   0
   3   6  15    3.92    5.18   0
  -3  -6 -15    1.63    3.26   0
   4   6  15   -1.39    3.77   0
  -4  -6 -15   -0.28    3.59   0
   0  -7 -15    0.50    5.35   0
   0   7  15    2.10    5.41   0
  -1  -7 -15    2.20    3.73   0
   1   7  15    2.10    3.74   0
   2   7  15    5.18    5.21   0
  -2  -7 -15    3.54    5.15   0
  -3  -7 -15    0.68    3.60   0
   3   6 -16    2.22    3.73   0
  -3  -6  16    1.26    3.77   0
  -3  -6  16    5.71    5.50   0
  -2  -6  16    6.94    5.00   0
   2   6 -16    4.53    4.83   0
  -2  -6  16    6.88    4.96   0
   1   6 -16    3.80    3.34   0
  -1  -6  16    4.44    3.55   0
  -1  -6  16    7.57    4.91   0
   0   6 -16    4.58    4.56   0
   0  -6  16    2.55    5.03   0
   1  -6  16    3.64    5.12   0
   3   5 -16    3.10    4.78   0
  -3  -5  16    2.09    3.43   0
  -3  -5  16   -1.04    3.58   0
  -2  -5  16    0.61    4.37   0
   2   5 -16    2.94    4.29   0
  -2  -5  16    4.07    4.77   0
   1   5 -16    9.52    4.15   0
  -1  -5  16    4.08    3.03   0
  -1  -5  16    7.93    3.28   0
   0  -5  16    5.82    4.54   0
   0   5 -16    3.93    4.22   0
   0  -5  16    5.91    4.37   0
   1  -5  16   18.19    3.46   0
   2  -5  16    1.63    6.03   0
   2  -5  16    3.03    4.88   0
   2  -5  16    7.58    5.00   0
  -4  -4  16    2.86    5.56   0
  -4  -4  16    4.86    5.12   0
   4   4 -16    1.41    3.71   0
  -3  -4  16    4.78    3.25   0
  -3  -4  16    1.74    4.93   0
   3   4 -16    2.22    3.31   0
  -2  -4  16   14.31    3.15   0
   2   4 -16   20.02    4.35   0
  -2  -4  16   14.60    3.48   0
   1   4 -16   15.23    2.86   0
  -1  -4  16   16.88    4.42   0
  -1  -4  16   19.85    4.12   0
   0  -4  16    4.47    4.33   0
   0   4 -16    5.65    2.76   0
   0  -4  16    7.25    4.20   0
   1  -4  16   12.13    5.30   0
   1  -4  16   13.11    4.50   0
   2  -4  16    2.66    4.51   0
   2  -4  16    3.78    6.46   0
   2  -4  16    6.66    3.17   0
   3  -4  16   -2.89    5.04   0
   3  -4  16    0.57    4.89   0
  -4  -3  16    3.05    5.12   0
  -4  -3  16   -5.78    4.95   0
   4   3 -16    0.21    4.94   0
  -3  -3  16   -0.79    4.81   0
  -3  -3  16   -1.08    3.05   0
   3   3 -16    2.94    3.12   0
  -2  -3  16    2.03    2.64   0
   2   3 -16    3.50    4.06   0
  -2  -3  16    0.53    4.65   0
  -1  -3  16  144.88    5.77   0
  -1  -3  16  131.86    5.06   0
   1   3 -16  164.73    5.29   0
   0  -3  16   69.58    3.66   0
   0   3 -16   84.36    4.32   0
   0  -3  16   84.69    3.65   0
   1  -3  16   -0.50    2.94   0
   1  -3  16   -0.61    4.02   0
   1  -3  16    3.34    2.82   0
   2  -3  16    4.10    3.00   0
   2  -3  16    6.56    4.29   0
   3  -3  16   -1.94    3.21   0
   3  -3  16    5.38    4.47   0
   4  -3  16    2.45    4.89   0
   4  -3  16   -0.84    5.13   0
  -4  -2  16    6.58    4.71   0
   4   2 -16    0.86    5.74   0
  -4  -2  16    7.11    5.81   0
   3   2 -16    0.06    4.28   0
  -3  -2  16    0.71    4.50   0
  -3  -2  16    1.96    4.20   0
  -2  -2  16   94.65    4.85   0
  -2  -2  16   73.94    5.52   0
   2   2 -16   93.04    5.10   0
   1   2 -16    9.40    3.70   0
  -1  -2  16    9.12    4.26   0
  -1  -2  16    6.77    2.91   0
   0  -2  16   95.78    4.69   0
   0  -2  16   91.89    3.56   0
   1  -2  16  133.23    6.22   0
   1  -2  16  135.72    3.85   0
   1  -2  16  129.32    3.63   0
   2  -2  16   10.60    2.99   0
   2  -2  16   11.01    4.07   0
   3  -2  16    4.28    3.03   0
   3  -2  16    1.36    3.04   0
   4  -2  16   -4.40    4.66   0
   4  -2  16    2.08    4.78   0
  -4  -1  16    4.80    4.60   0
   4   1 -16    1.72    7.42   0
  -4  -1  16    0.83    6.73   0
   3   1 -16   15.30    5.34   0
  -3  -1  16   18.17    3.17   0
  -3  -1  16   11.70    6.40   0
   2   1 -16  455.76    6.01   0
  -2  -1  16  472.63    7.06   0
   2   1 -16  457.78    9.74   0
  -2  -1  16  424.25   10.42   0
   1   1 -16   68.24    4.37   0
  -1  -1  16   61.07    4.35   0
  -1  -1  16   61.46    5.06   0
   0   1 -16   28.09    3.19   0
   0  -1  16   32.68    4.24   0
   0  -1  16   29.42    4.13   0
   0  -1  16   30.71    4.23   0
   1  -1  16   61.26    3.35   0
   1  -1  16   56.61    3.25   0
   2  -1  16   -1.15    4.01   0
   2  -1  16    2.84    2.79   0
   3  -1  16    0.23    4.08   0
   3  -1  16    2.71    4.17   0
   4  -1  16    2.88    3.19   0
   4  -1  16    4.07    3.44   0
   4   0 -16    0.58    3.45   0
  -4   0  16    1.52    3.27   0
   3   0 -16    0.87    3.04   0
  -3   0  16    4.53    2.99   0
   2   0 -16    3.41    4.01   0
  -2   0  16   -0.10    3.97   0
   1   0 -16    6.43    3.63   0
  -1   0  16    6.90    2.55   0
  -1   0  16    4.21    5.14   0
  -1   0  16    5.05    4.72   0
   0   0 -16   16.53    3.00   0
   0   0  16   16.32    4.13   0
   0   0  16   13.09    2.88   0
  -1   0 -16   39.22    4.26   0
   1   0  16   41.83    4.14   0
  -2   0 -16    1.36    6.12   0
  -2   0 -16    1.89    3.94   0
   2   0  16   -0.36    2.63   0
  -3   0 -16    3.26    2.95   0
   3   0  16    2.21    4.05   0
  -4   0 -16    8.04    3.33   0
   4   0  16    3.68    4.42   0
   5   0  16    3.15    5.19   0
  -5   0 -16    2.29    3.94   0
   4  -1 -16    2.87    3.53   0
   3  -1 -16   18.85    3.29   0
   2  -1 -16   51.38    3.27   0
   1  -1 -16    7.79    3.81   0
  -1   1  16    6.06    6.85   0
  -1   1  16    7.76    6.97   0
   0   1  16   25.03    4.38   0
   0  -1 -16   27.19    3.96   0
   0  -1 -16   28.03    4.54   0
  -1  -1 -16    5.14    3.81   0
  -1  -1 -16    2.73    2.62   0
   1   1  16    4.88    3.91   0
  -2  -1 -16   29.49    5.29   0
  -2  -1 -16   29.08    3.70   0
   2   1  16   22.87    2.99   0
  -3  -1 -16  103.07    4.87   0
   3   1  16   84.94    3.80   0
   4   1  16    0.53    4.36   0
  -4  -1 -16    2.17    4.37   0
   5   1  16    0.69    3.51   0
  -5  -1 -16    0.68    3.59   0
   4  -2 -16    2.19    3.37   0
   3  -2 -16   -1.51    4.46   0
   2  -2 -16    0.31    2.85   0
   1  -2 -16    6.69    2.72   0
  -1   2  16    6.22    8.06   0
  -1   2  16    7.49    7.19   0
   0   2  16    1.43    4.10   0
   0  -2 -16    2.03    3.57   0
   0  -2 -16    0.91    3.70   0
   1   2  16   -2.34    4.02   0
  -1  -2 -16    4.29    3.83   0
   2   2  16   -0.05    3.72   0
  -2  -2 -16    0.73    3.44   0
   3   2  16  116.78    4.03   0
  -3  -2 -16  141.47    5.11   0
   4   2  16    5.67    4.50   0
  -4  -2 -16   10.36    3.12   0
   5   2  16    4.16    5.17   0
  -5  -2 -16    0.63    6.39   0
  -5  -2 -16    2.83    3.61   0
   3  -3 -16    3.11    3.30   0
   2  -3 -16    4.04    4.35   0
   1  -3 -16    3.64    4.00   0
   1  -3 -16    4.61    4.93   0
  -1   3  16    4.75    5.30   0
   0   3  16    3.46    4.53   0
   0  -3 -16    1.08    3.99   0
   1   3  16   -1.08    4.43   0
  -1  -3 -16    2.20    4.00   0
   2   3  16   10.31    3.92   0
  -2  -3 -16   10.39    2.86   0
   3   3  16   26.24    3.41   0
  -3  -3 -16   33.59    4.33   0
   4   3  16    9.91    3.28   0
  -4  -3 -16    4.60    3.27   0
  -5  -3 -16    3.37    6.58   0
   5   3  16   -0.84    5.34   0
  -5  -3 -16    1.93    3.80   0
   3  -4 -16    1.64    5.14   0
   2  -4 -16    2.24    3.11   0
   1  -4 -16   41.67    5.91   0
  -1   4  16   34.33    6.10   0
   1  -4 -16   41.28    4.54   0
   0  -4 -16   76.92    4.84   0
   0   4  16   66.96    5.21   0
   1   4  16    5.50    4.42   0
  -1  -4 -16    1.66    4.00   0
   2   4  16    2.05    4.48   0
  -2  -4 -16    2.14    4.24   0
   3   4  16    6.52    4.37   0
  -3  -4 -16    0.34    4.12   0
   4   4  16    3.89    4.80   0
  -4  -4 -16    1.69    3.24   0
   2  -5 -16   -0.35    6.13   0
   2  -5 -16    1.78    3.39   0
   2  -5 -16    0.55    6.33   0
   1  -5 -16   -1.04    5.46   0
  -1   5  16   -1.91    4.62   0
   1  -5 -16    3.78    4.46   0
   0  -5 -16   24.53    4.80   0
   0   5  16   22.63    4.98   0
  -1  -5 -16    5.97    4.35   0
   1   5  16    2.45    4.76   0
   2   5  16    5.75    4.40   0
  -2  -5 -16    4.57    3.09   0
   3   5  16    0.96    3.32   0
  -3  -5 -16    5.27    4.56   0
   4   5  16    6.57    5.22   0
  -4  -5 -16   -2.34    4.89   0
   1  -6 -16    6.71    5.20   0
  -1   6  16    7.38    5.11   0
   0  -6 -16    0.18    4.70   0
   0   6  16    0.74    4.84   0
   1   6  16    2.11    3.48   0
  -1  -6 -16   -0.42    3.32   0
  -2  -6 -16    2.11    4.53   0
   2   6  16    5.01    4.90   0
   3   6  16    0.32    3.29   0
  -3  -6 -16    1.13    3.36   0
   0  -7 -16   -2.43    5.40   0
   0   7  16   -0.00    3.96   0
  -1  -7 -16    3.22    5.27   0
   1   7  16    1.19    5.47   0
   2   7  16   -0.05    3.62   0
  -2  -7 -16    3.21    5.15   0
  -2  -6  17    1.92    4.99   0
   2   6 -17    1.10    3.43   0
  -2  -6  17   -2.40    5.10   0
  -1  -6  17    2.39    5.07   0
   1   6 -17    3.43    3.26   0
  -1  -6  17    1.35    5.04   0
   0  -6  17   -0.79    4.98   0
   0  -6  17    0.05    4.94   0
   0   6 -17    1.14    4.73   0
   1  -6  17    1.07    5.17   0
   1  -6  17   -0.29    3.79   0
  -3  -5  17    1.80    4.86   0
  -3  -5  17   -5.59    5.21   0
   3   5 -17    1.72    4.88   0
  -2  -5  17   12.00    4.65   0
   2   5 -17    5.13    3.13   0
  -2  -5  17   17.63    4.71   0
   1   5 -17    1.51    2.82   0
  -1  -5  17    6.51    4.62   0
  -1  -5  17    1.44    3.19   0
   0  -5  17   -1.04    4.45   0
   0  -5  17    6.93    3.17   0
   0   5 -17    5.05    4.22   0
   1  -5  17   -0.92    4.83   0
   1  -5  17    6.32    3.32   0
   2  -5  17   -0.64    6.43   0
   2  -5  17    3.50    5.04   0
   2  -5  17    5.05    5.06   0
  -4  -4  17    3.55    5.30   0
  -4  -4  17    2.10    5.08   0
   4   4 -17    3.73    5.18   0
   3   4 -17    7.83    3.38   0
  -3  -4  17    8.02    4.73   0
  -3  -4  17   10.71    4.98   0
  -2  -4  17   -0.40    4.35   0
   2   4 -17    2.50    4.49   0
  -2  -4  17   -0.03    4.66   0
  -1  -4  17   15.65    4.58   0
  -1  -4  17    9.56    3.17   0
   1   4 -17   13.58    4.20   0
   0   4 -17    4.88    3.84   0
   0  -4  17    1.95    4.26   0
   0  -4  17   -2.52    4.01   0
   1  -4  17   11.17    5.41   0
   1  -4  17   17.45    4.51   0
   1  -4  17   20.32    4.47   0
   2  -4  17    8.61    4.64   0
   2  -4  17    5.36    6.82   0
   2  -4  17    2.42    4.79   0
   3  -4  17    2.98    5.10   0
   3  -4  17    1.19    5.14   0
  -4  -3  17    0.16    5.11   0
  -4  -3  17   -0.06    5.04   0
   4   3 -17    0.96    4.73   0
  -3  -3  17    9.79    3.17   0
   3   3 -17   13.74    4.49   0
  -3  -3  17   13.49    4.59   0
  -2  -3  17   12.21    4.05   0
  -2  -3  17   14.64    4.91   0
   2   3 -17   12.85    4.24   0
  -1  -3  17   14.16    3.11   0
  -1  -3  17   16.25    4.09   0
   1   3 -17   15.06    3.91   0
   0  -3  17    3.21    4.12   0
   0   3 -17    5.05    3.87   0
   0  -3  17    1.89    2.92   0
   1  -3  17    4.48    4.10   0
   1  -3  17    2.11    4.15   0
   1  -3  17    3.62    2.93   0
   2  -3  17   16.07    3.27   0
   2  -3  17   13.91    3.18   0
   3  -3  17    4.56    3.25   0
   3  -3  17    5.30    3.34   0
   4  -3  17   -1.78    5.20   0
   4  -3  17    1.69    3.70   0
   4   2 -17    2.07    4.76   0
  -4  -2  17    0.37    4.79   0
  -4  -2  17    2.30    6.12   0
  -3  -2  17   -0.34    4.50   0
  -3  -2  17    3.26    4.32   0
   3   2 -17    2.93    5.21   0
   2   2 -17   90.31    4.91   0
  -2  -2  17   94.35    4.75   0
  -2  -2  17   88.79    5.55   0
  -1  -2  17   20.79    3.88   0
  -1  -2  17   19.98    4.54   0
   1   2 -17   19.38    3.70   0
   0  -2  17   -0.78    3.82   0
   0  -2  17    0.89    4.06   0
   0  -2  17   -1.79    3.07   0
   1  -2  17    7.85    5.01   0
   1  -2  17    6.75    2.54   0
   1  -2  17    9.53    3.69   0
   2  -2  17   10.25    2.81   0
   2  -2  17    5.50    4.08   0
   3  -2  17    5.23    4.22   0
   3  -2  17    5.15    4.43   0
   4  -2  17   -1.48    3.55   0
   4  -2  17    4.30    5.14   0
   4   1 -17    5.68    8.89   0
  -4  -1  17    6.92    4.91   0
  -4  -1  17    4.00    9.99   0
   3   1 -17    1.52    5.97   0
  -3  -1  17    1.76    3.06   0
  -3  -1  17    1.13    5.39   0
   2   1 -17   74.35    3.63   0
  -2  -1  17   65.39    4.73   0
  -2  -1  17   63.08    6.30   0
   2   1 -17   65.95    5.10   0
  -1  -1  17   88.39    3.45   0
  -1  -1  17   90.75    5.18   0
  -1  -1  17  103.73    5.10   0
   1   1 -17   96.75    3.82   0
   0   1 -17    5.21    2.71   0
   0  -1  17    3.52    2.65   0
   0  -1  17    5.20    2.69   0
   0  -1  17    8.46    4.09   0
   1  -1  17  123.11    3.90   0
   1  -1  17  116.17    4.56   0
   2  -1  17   16.38    2.94   0
   2  -1  17   14.26    3.96   0
   3  -1  17    3.29    2.85   0
   3  -1  17    3.89    4.26   0
   4  -1  17   -3.84    4.67   0
   4  -1  17   -0.56    4.78   0
   4   0 -17    0.20    3.49   0
  -4   0  17    5.38    4.55   0
   3   0 -17   -4.76    4.25   0
  -3   0  17    2.76    2.98   0
   2   0 -17   -1.01    2.80   0
  -2   0  17    2.38    4.02   0
   1   0 -17    3.18    2.49   0
  -1   0  17    6.66    3.53   0
  -1   0  17    7.53    5.45   0
  -1   0  17    5.40    4.93   0
   0   0 -17   93.23    4.72   0
   0   0  17   91.73    4.84   0
   0   0  17   88.95    4.68   0
  -1   0 -17   17.64    4.06   0
   1   0  17   15.69    2.71   0
  -2   0 -17   18.17    5.98   0
  -2   0 -17   20.12    4.29   0
   2   0  17   18.48    4.00   0
  -3   0 -17    4.48    4.06   0
   3   0  17   -1.58    2.94   0
  -4   0 -17   13.68    4.73   0
   4   0  17    7.92    4.68   0
   5   0  17   -0.76    5.40   0
   4  -1 -17    2.43    3.36   0
   3  -1 -17   -3.72    4.39   0
   2  -1 -17   12.20    4.07   0
   1  -1 -17    1.94    2.59   0
  -1   1  17    3.30    6.66   0
  -1   1  17    3.77    5.94   0
   0   1  17   21.69    4.23   0
   0  -1 -17   21.92    3.75   0
   0  -1 -17   24.90    4.27   0
  -1  -1 -17   -0.29    3.73   0
  -1  -1 -17    3.15    3.96   0
   1   1  17   -0.27    3.98   0
  -2  -1 -17    0.68    4.90   0
  -2  -1 -17    2.97    2.80   0
   2   1  17    0.75    2.73   0
  -3  -1 -17   24.73    5.78   0
  -3  -1 -17   22.56    4.29   0
   3   1  17   26.14    3.18   0
   4   1  17   10.71    4.51   0
  -4  -1 -17    7.53    3.23   0
   5   1  17   -0.48    5.02   0
  -5  -1 -17   -0.81    5.29   0
   4  -2 -17    0.88    5.11   0
   3  -2 -17    1.27    3.02   0
   2  -2 -17   -1.81    4.03   0
   1  -2 -17   17.81    3.05   0
  -1   2  17   16.45    8.96   0
  -1   2  17   16.84    8.13   0
   0   2  17   10.67    4.47   0
   0  -2 -17   11.86    3.54   0
   0  -2 -17   10.88    4.17   0
   1   2  17   28.61    3.30   0
  -1  -2 -17   29.77    4.08   0
   2   2  17   16.31    3.93   0
  -2  -2 -17   13.85    3.78   0
   3   2  17    8.57    4.21   0
  -3  -2 -17   12.63    4.19   0
   4   2  17    2.34    3.29   0
  -4  -2 -17    3.12    3.27   0
   5   2  17    4.49    5.42   0
  -5  -2 -17    1.86    7.71   0
  -5  -2 -17    4.15    3.71   0
   3  -3 -17    0.60    4.83   0
   2  -3 -17    6.97    4.27   0
   1  -3 -17    3.76    4.07   0
   1  -3 -17    1.31    5.86   0
  -1   3  17    1.58    6.32   0
   0  -3 -17   24.44    4.06   0
   0   3  17   22.85    5.84   0
   0  -3 -17   23.94    4.31   0
   1   3  17    1.43    4.23   0
  -1  -3 -17    3.03    3.95   0
   2   3  17    9.22    3.02   0
  -2  -3 -17   10.33    3.81   0
   3   3  17    5.03    4.33   0
  -3  -3 -17    3.51    3.19   0
   4   3  17   13.17    4.76   0
  -4  -3 -17    8.10    3.30   0
  -5  -3 -17    4.57    6.77   0
   5   3  17    1.13    3.62   0
  -5  -3 -17    9.34    5.19   0
   3  -4 -17   11.52    3.74   0
   2  -4 -17   -0.03    4.68   0
  -1   4  17    3.19    5.44   0
   1  -4 -17    4.68    4.24   0
   1  -4 -17    3.99    5.26   0
   0  -4 -17   40.47    4.79   0
   0   4  17   35.29    6.11   0
   1   4  17    0.02    4.38   0
  -1  -4 -17    2.84    4.07   0
   2   4  17    2.50    3.13   0
  -2  -4 -17    8.34    4.23   0
   3   4  17    5.57    4.67   0
  -3  -4 -17    3.69    4.34   0
   4   4  17    0.49    4.70   0
  -4  -4 -17   -0.16    3.35   0
   2  -5 -17    2.27    4.87   0
   2  -5 -17   -0.04    7.33   0
   2  -5 -17   -0.11    8.04   0
   1  -5 -17    2.95    4.60   0
  -1   5  17    1.11    5.90   0
   1  -5 -17    3.23    4.54   0
   0  -5 -17    0.13    4.60   0
   0   5  17    2.25    4.78   0
  -1  -5 -17    2.77    4.42   0
   1   5  17    6.78    4.53   0
   2   5  17    3.21    4.40   0
  -2  -5 -17    5.16    4.28   0
   3   5  17    4.79    4.76   0
  -3  -5 -17    7.78    3.38   0
   4   5  17    0.97    3.64   0
  -4  -5 -17    6.77    4.95   0
   1  -6 -17    2.78    5.07   0
   1  -6 -17    4.58    5.00   0
  -1   6  17    3.23    5.16   0
   0  -6 -17    2.45    4.98   0
   0   6  17   -0.34    5.07   0
   1   6  17    3.28    5.09   0
  -1  -6 -17   -0.62    4.72   0
  -2  -6 -17   -0.03    4.61   0
   2   6  17    1.41    3.52   0
   3   6  17    5.22    5.03   0
  -3  -6 -17    5.72    4.84   0
   0  -7 -17    1.23    5.38   0
   0   7  17   -0.87    5.50   0
  -1  -7 -17    1.86    5.23   0
   1   7  17    5.45    5.46   0
   2   7  17    4.92    5.41   0
  -2  -7 -17    2.51    5.20   0
  -2  -6  18    2.72    5.09   0
  -2  -6  18    1.11    5.33   0
   2   6 -18    4.91    3.50   0
  -1  -6  18    2.71    5.01   0
   1   6 -18   -2.63    4.91   0
  -1  -6  18   -2.80    5.27   0
   0  -6  18    2.47    5.15   0
   0  -6  18    4.22    5.30   0
   0   6 -18    5.78    4.94   0
   1  -6  18    2.88    5.48   0
   1  -6  18    1.35    3.76   0
  -3  -5  18   10.07    5.11   0
   3   5 -18    4.88    3.64   0
  -3  -5  18    6.58    5.32   0
  -2  -5  18    5.28    4.67   0
  -2  -5  18    5.70    3.51   0
   2   5 -18    8.29    4.76   0
  -1  -5  18   14.92    4.80   0
  -1  -5  18   10.05    4.60   0
   1   5 -18   13.42    4.52   0
   0   5 -18    7.96    4.39   0
   0  -5  18    5.53    4.70   0
   0  -5  18    8.19    3.38   0
   1  -5  18   -0.40    4.88   0
   1  -5  18    1.83    3.41   0
   1  -5  18    2.62    3.48   0
   2  -5  18    0.10    6.61   0
   2  -5  18    2.03    3.69   0
   2  -5  18   -1.25    5.09   0
   4   4 -18    2.01    5.38   0
  -4  -4  18    5.50    4.11   0
  -4  -4  18   -2.21    5.25   0
  -3  -4  18    4.90    4.81   0
   3   4 -18    1.77    3.48   0
  -3  -4  18    1.76    5.31   0
  -2  -4  18   -0.49    4.29   0
   2   4 -18    1.49    3.03   0
  -2  -4  18    1.23    5.08   0
  -1  -4  18   13.15    4.49   0
  -1  -4  18   13.40    4.47   0
   1   4 -18    9.47    2.95   0
   0  -4  18   24.75    4.61   0
   0  -4  18   27.59    4.48   0
   0   4 -18   27.15    4.34   0
   1  -4  18    3.51    5.40   0
   1  -4  18    6.35    4.43   0
   1  -4  18    0.66    4.47   0
   2  -4  18   15.81    4.83   0
   2  -4  18    9.58    8.63   0
   2  -4  18   11.50    4.92   0
   3  -4  18   -0.23    4.98   0
   3  -4  18    1.53    5.21   0
  -4  -3  18   -0.32    5.39   0
   4   3 -18   -0.64    5.19   0
  -4  -3  18   -3.74    3.67   0
  -3  -3  18   -0.01    3.14   0
   3   3 -18    1.40    4.41   0
  -3  -3  18   -0.78    4.83   0
   2   3 -18   18.96    4.42   0
  -2  -3  18   18.79    4.14   0
  -2  -3  18   24.09    4.79   0
   1   3 -18   25.09    3.14   0
  -1  -3  18   26.40    4.24   0
  -1  -3  18   26.81    4.64   0
   0  -3  18    0.64    4.18   0
   0  -3  18    2.20    2.79   0
   1  -3  18    1.41    3.98   0
   1  -3  18    2.97    4.34   0
   1  -3  18    0.70    2.76   0
   2  -3  18   38.69    4.67   0
   2  -3  18   43.73    3.46   0
   3  -3  18    9.00    4.81   0
   3  -3  18    4.59    4.95   0
  -4  -2  18   -1.46    5.02   0
   4   2 -18   -0.45    4.87   0
  -4  -2  18   -0.51    6.20   0
  -3  -2  18    1.48    4.58   0
  -3  -2  18    3.64    4.44   0
   3   2 -18    0.75    4.27   0
  -2  -2  18   54.88    4.57   0
   2   2 -18   55.18    4.96   0
  -2  -2  18   51.70    4.96   0
  -1  -2  18    7.03    2.80   0
  -1  -2  18   10.03    4.41   0
   1   2 -18    9.78    2.73   0
   0  -2  18   52.06    4.46   0
   0  -2  18   56.25    3.37   0
   0  -2  18   56.63    4.69   0
   1  -2  18    2.07    4.98   0
   1  -2  18    5.75    2.63   0
   1  -2  18    4.73    3.60   0
   2  -2  18   12.33    4.11   0
   2  -2  18   16.66    4.18   0
   3  -2  18   10.61    4.21   0
   3  -2  18   13.90    4.44   0
   4  -2  18   -0.57    4.97   0
   4  -2  18    0.97    3.55   0
  -4  -1  18    2.66    3.45   0
  -3  -1  18    9.02    3.11   0
  -3  -1  18    7.46    6.35   0
  -2  -1  18   19.92    4.18   0
  -2  -1  18   13.05    4.62   0
   2   1 -18   14.92    3.09   0
   1   1 -18    1.05    2.90   0
  -1  -1  18    4.72    2.84   0
  -1  -1  18    2.98    4.47   0
  -1  -1  18    2.70    4.04   0
   0   1 -18   -0.54    3.97   0
   0  -1  18    4.50    3.69   0
   0  -1  18    1.30    3.87   0
   0  -1  18    2.56    2.88   0
   1  -1  18   29.38    2.96   0
   1  -1  18   29.78    4.20   0
   2  -1  18   33.55    3.12   0
   2  -1  18   39.07    4.33   0
   3  -1  18   -0.44    4.17   0
   3  -1  18    3.96    3.04   0
   4  -1  18    1.49    3.35   0
   4  -1  18    3.73    4.71   0
   4   0 -18   -3.16    4.94   0
  -4   0  18    3.62    3.22   0
   3   0 -18    2.97    4.35   0
  -3   0  18   -0.67    4.29   0
   2   0 -18   24.69    3.10   0
  -2   0  18   30.52    3.06   0
   1   0 -18   -0.68    3.49   0
  -1   0  18    2.19    3.39   0
  -1   0  18    0.28    5.29   0
  -1   0  18    0.49    4.82   0
   0   0 -18   14.47    4.03   0
   0   0  18   14.60    3.99   0
   0   0  18   11.89    3.78   0
  -1   0 -18   25.45    4.14   0
   1   0  18   24.78    4.27   0
  -2   0 -18   23.94    6.11   0
  -2   0 -18   24.86    2.95   0
   2   0  18   20.85    4.05   0
  -3   0 -18    1.77    4.31   0
   3   0  18    2.30    3.05   0
  -4   0 -18    8.75    4.88   0
   4   0  18   -0.14    4.76   0
   4  -1 -18    4.58    3.71   0
   3  -1 -18   11.45    4.47   0
   2  -1 -18   26.13    3.10   0
   1  -1 -18    1.46    3.57   0
  -1   1  18    1.82    5.83   0
  -1   1  18    1.44    5.87   0
   0   1  18    2.03    3.91   0
   0  -1 -18    0.50    3.87   0
  -1  -1 -18   50.54    4.33   0
  -1  -1 -18   45.34    3.48   0
   1   1  18   44.76    4.59   0
  -2  -1 -18    1.44    4.08   0
  -2  -1 -18   -0.08    2.64   0
   2   1  18    1.88    2.77   0
  -3  -1 -18    2.33    6.09   0
  -3  -1 -18    3.89    4.15   0
   3   1  18    2.92    3.02   0
   4   1  18    2.00    4.63   0
  -4  -1 -18   -2.09    3.37   0
   5   1  18   -5.49    5.26   0
  -5  -1 -18    1.52    3.75   0
   4  -2 -18   -3.69    5.23   0
   3  -2 -18    0.47    4.66   0
   2  -2 -18   -0.01    2.97   0
   1  -2 -18    9.08    2.89   0
   0   2  18    6.25    4.34   0
   0  -2 -18    8.06    3.49   0
   0  -2 -18    9.96    4.12   0
   1   2  18   -1.02    4.26   0
  -1  -2 -18   -0.96    4.17   0
  -1  -2 -18   -0.24    4.07   0
   2   2  18   21.70    4.26   0
  -2  -2 -18   27.49    4.19   0
   3   2  18    4.33    4.56   0
  -3  -2 -18   12.66    4.32   0
   4   2  18    2.33    3.39   0
  -4  -2 -18    4.51    4.69   0
   5   2  18    4.14    3.69   0
  -5  -2 -18    0.27    9.09   0
  -5  -2 -18    3.15    5.22   0
   3  -3 -18    0.80    3.49   0
   2  -3 -18   -1.42    4.29   0
   1  -3 -18    7.82    4.17   0
   1  -3 -18    4.86    6.09   0
  -1   3  18    6.20    7.01   0
   0  -3 -18    2.64    3.87   0
   0   3  18    2.30    4.37   0
   0  -3 -18   -0.71    3.99   0
   1   3  18   42.60    4.87   0
  -1  -3 -18   41.90    3.22   0
  -2  -3 -18    6.74    3.00   0
   2   3  18    8.84    4.41   0
   3   3  18    0.09    4.31   0
  -3  -3 -18    6.72    4.15   0
   4   3  18    4.09    4.85   0
  -4  -3 -18    6.54    3.42   0
   3  -4 -18   -0.19    5.12   0
   2  -4 -18    1.42    4.77   0
  -1   4  18    5.22    5.59   0
   1  -4 -18    4.85    4.32   0
   1  -4 -18    4.58    5.41   0
   0  -4 -18   89.37    5.16   0
   0   4  18   75.37    5.65   0
   1   4  18    7.05    4.73   0
  -1  -4 -18    3.77    4.37   0
   2   4  18    1.58    4.44   0
  -2  -4 -18   -0.48    3.02   0
   3   4  18   12.75    3.58   0
  -3  -4 -18   16.96    4.57   0
   4   4  18    2.86    3.42   0
  -4  -4 -18    1.87    3.25   0
   2  -5 -18    0.39    4.98   0
  -1   5  18    1.69    5.97   0
   1  -5 -18    3.10    4.64   0
   1  -5 -18    2.87    4.83   0
   0  -5 -18   57.95    5.19   0
   0   5  18   50.71    6.30   0
   1   5  18    3.91    4.76   0
  -1  -5 -18    5.29    4.45   0
   2   5  18    2.97    3.04   0
  -2  -5 -18   -0.22    2.93   0
   3   5  18    3.45    4.82   0
  -3  -5 -18    6.26    4.65   0
   4   5  18    3.71    5.14   0
  -4  -5 -18    0.95    4.95   0
   1  -6 -18   -0.26    5.20   0
   1  -6 -18    4.94    5.33   0
  -1   6  18    1.30    6.57   0
   0  -6 -18    0.95    4.95   0
   0   6  18    1.55    5.02   0
  -1  -6 -18    3.08    4.65   0
   1   6  18    0.78    5.06   0
   2   6  18    4.52    5.02   0
  -2  -6 -18    4.11    4.74   0
   3   6  18   -4.13    5.15   0
  -3  -6 -18    5.97    5.17   0
  -1  -7 -18   -0.22    3.76   0
   1   7  18   -0.05    5.39   0
   2   6 -19    1.05    5.08   0
  -2  -6  19    0.03    3.74   0
  -2  -6  19   -0.19    5.47   0
  -1  -6  19    3.16    3.74   0
   1   6 -19    4.13    5.01   0
  -1  -6  19   -0.47    3.75   0
   0  -6  19    6.54    5.27   0
   0  -6  19   -0.14    5.36   0
   0   6 -19    7.60    3.66   0
  -3  -5  19    2.64    5.33   0
   3   5 -19    6.69    5.22   0
  -3  -5  19   -3.99    5.73   0
   2   5 -19    9.35    4.58   0
  -2  -5  19    3.70    3.42   0
  -2  -5  19    5.49    3.80   0
  -1  -5  19   -0.04    5.11   0
  -1  -5  19    3.96    4.82   0
   1   5 -19    2.64    4.36   0
   0  -5  19    2.57    4.80   0
   0  -5  19    1.65    3.39   0
   0   5 -19    0.24    4.44   0
   1  -5  19    1.99    6.10   0
   1  -5  19    2.22    3.42   0
   1  -5  19    2.83    3.47   0
   2  -5  19    1.65    7.47   0
   2  -5  19   -1.66    5.30   0
   2  -5  19   -1.67    5.32   0
  -3  -4  19   -0.57    4.72   0
   3   4 -19    0.18    3.62   0
  -3  -4  19    0.54    5.22   0
   2   4 -19    3.06    4.21   0
  -2  -4  19    2.19    3.30   0
  -2  -4  19    4.63    4.87   0
  -1  -4  19   11.81    3.30   0
  -1  -4  19   13.37    4.62   0
   1   4 -19   16.60    4.16   0
   0  -4  19    0.44    4.44   0
   0   4 -19    5.41    4.30   0
   0  -4  19    4.97    4.61   0
   1  -4  19    2.43    5.51   0
   1  -4  19    0.73    4.53   0
   1  -4  19    6.58    4.27   0
   2  -4  19    2.36    4.92   0
   2  -4  19    2.81    3.37   0
   3  -4  19    6.82    5.17   0
   3  -4  19    1.01    5.28   0
  -4  -3  19    1.30    5.67   0
  -4  -3  19    1.34    3.83   0
   4   3 -19    0.04    6.61   0
  -3  -3  19    7.66    4.46   0
  -3  -3  19    3.51    4.95   0
   3   3 -19    9.62    4.52   0
  -2  -3  19    9.09    3.19   0
   2   3 -19   12.76    4.36   0
  -2  -3  19   13.97    4.87   0
  -1  -3  19   22.16    4.59   0
  -1  -3  19   12.99    3.22   0
   1   3 -19   14.21    4.11   0
   0  -3  19    6.08    2.89   0
   0  -3  19    4.49    4.29   0
   1  -3  19    0.43    3.98   0
   1  -3  19   -0.65    4.30   0
   1  -3  19    0.75    2.99   0
   2  -3  19   11.20    4.48   0
   2  -3  19   15.40    4.62   0
   3  -3  19    8.51    4.70   0
   3  -3  19    5.79    3.48   0
   4   2 -19    1.92    5.92   0
  -4  -2  19   -0.56    3.59   0
  -4  -2  19    1.69    6.30   0
  -3  -2  19    3.05    5.77   0
  -3  -2  19    2.92    4.46   0
   3   2 -19    3.52    4.39   0
   2   2 -19    2.15    4.33   0
  -2  -2  19    2.48    2.79   0
  -2  -2  19   -3.10    4.49   0
  -1  -2  19    0.33    4.48   0
  -1  -2  19    0.29    4.01   0
   0  -2  19    1.54    4.02   0
   0  -2  19    0.14    4.09   0
   0  -2  19   -4.12    4.09   0
   1  -2  19   22.71    4.40   0
   1  -2  19   16.81    2.84   0
   1  -2  19   20.64    4.24   0
   2  -2  19    2.06    2.94   0
   2  -2  19    0.81    3.00   0
   3  -2  19    2.45    3.06   0
   3  -2  19    5.81    3.21   0
   4  -2  19    4.39    5.23   0
   4  -2  19   -0.78    3.55   0
  -4  -1  19    3.38    4.91   0
  -3  -1  19    2.87    4.43   0
  -3  -1  19    3.35    7.35   0
  -3  -1  19    4.07    7.35   0
   2   1 -19    3.12    2.93   0
  -2  -1  19    5.84    3.85   0
  -2  -1  19    2.03    5.31   0
  -2  -1  19    3.23    5.53   0
   1   1 -19   -0.07    3.80   0
  -1  -1  19    3.06    3.67   0
  -1  -1  19    0.31    4.54   0
  -1  -1  19    1.15    4.23   0
   0   1 -19    8.44    4.04   0
   0  -1  19    4.75    4.11   0
   0  -1  19    6.48    4.05   0
   0  -1  19    5.15    4.13   0
   1  -1  19    1.82    3.62   0
   1  -1  19    1.32    3.87   0
   2  -1  19    7.45    3.85   0
   2  -1  19    6.89    2.98   0
   3  -1  19   -2.86    3.11   0
   3  -1  19    1.24    4.20   0
   4  -1  19    5.72    4.87   0
   4  -1  19   -0.33    4.80   0
   4   0 -19    1.48    5.03   0
  -4   0  19    1.18    4.97   0
   3   0 -19    2.62    4.44   0
  -3   0  19    2.78    3.12   0
   2   0 -19   21.29    4.09   0
  -2   0  19   17.68    4.08   0
   1   0 -19   35.41    2.83   0
  -1   0  19   37.73    4.14   0
  -1   0  19   33.58    5.85   0
  -1   0  19   31.16    4.51   0
   0   0 -19   57.97    4.53   0
   0   0  19   55.07    4.22   0
   0   0  19   51.37    4.25   0
   1   0  19   10.28    4.10   0
  -1   0 -19    3.98    4.06   0
   1   0  19    4.31    4.18   0
  -2   0 -19   11.87    6.15   0
  -2   0 -19   10.71    2.94   0
   2   0  19   11.72    2.91   0
  -3   0 -19    1.94    4.32   0
   3   0  19   -0.29    3.15   0
  -4   0 -19    0.79    3.43   0
   4   0  19    0.79    4.66   0
   4  -1 -19    4.78    5.26   0
   3  -1 -19    2.46    3.27   0
   2  -1 -19   -1.14    4.16   0
   1  -1 -19   15.83    3.90   0
  -1   1  19   12.20    6.08   0
  -1   1  19   11.57    6.10   0
   0   1  19    6.00    4.03   0
   0  -1 -19    7.36    4.01   0
  -1  -1 -19    2.83    4.02   0
  -1  -1 -19   -1.10    4.39   0
   1   1  19    1.68    2.83   0
  -2  -1 -19    9.62    5.13   0
  -2  -1 -19    8.75    4.10   0
   2   1  19    6.71    4.14   0
  -3  -1 -19    0.05    6.83   0
  -3  -1 -19    3.87    4.34   0
   3   1  19   -1.21    3.21   0
   4   1  19    3.28    4.82   0
  -4  -1 -19   10.19    4.82   0
   3  -2 -19    6.27    3.37   0
   2  -2 -19    5.33    3.02   0
   1  -2 -19    9.17    2.94   0
   0   2  19    6.49    4.50   0
   0  -2 -19    4.09    2.73   0
   0  -2 -19    7.31    4.14   0
   1   2  19   66.58    4.59   0
  -1  -2 -19   64.60    4.63   0
  -1  -2 -19   74.71    4.49   0
   2   2  19    2.97    4.11   0
  -2  -2 -19    1.67    4.02   0
   3   2  19    3.47    4.35   0
  -3  -2 -19    5.21    4.39   0
   4   2  19    7.17    3.36   0
  -4  -2 -19    9.99    4.70   0
   3  -3 -19    0.16    5.01   0
   2  -3 -19   -1.02    3.20   0
  -1   3  19    2.89    6.89   0
   1  -3 -19    2.02    4.26   0
   1  -3 -19    3.70    6.80   0
   0  -3 -19    2.16    2.74   0
   0   3  19   -1.27    4.32   0
   0  -3 -19    3.63    3.96   0
   1   3  19   27.94    3.40   0
  -1  -3 -19   31.91    3.19   0
   2   3  19    4.22    4.34   0
  -2  -3 -19    2.19    4.03   0
   3   3  19    4.94    2.95   0
  -3  -3 -19    3.27    4.37   0
   4   3  19   -1.63    4.77   0
  -4  -3 -19    2.00    3.28   0
   3  -4 -19    1.26    3.62   0
   2  -4 -19   -1.70    3.42   0
  -1   4  19    2.38    5.66   0
   1  -4 -19   -0.33    4.40   0
   1  -4 -19    1.11    6.31   0
   0  -4 -19   26.79    3.22   0
   0  -4 -19   30.02    5.46   0
   0   4  19   22.68    5.96   0
   1   4  19    4.48    4.55   0
  -1  -4 -19    3.40    3.06   0
   2   4  19    1.77    4.27   0
  -2  -4 -19    3.98    4.19   0
   3   4  19    2.46    4.74   0
  -3  -4 -19    5.25    3.16   0
   4   4  19    4.35    3.52   0
  -4  -4 -19   -0.63    3.36   0
   2  -5 -19    0.93    5.10   0
  -1   5  19    0.92    5.95   0
   1  -5 -19   -2.98    4.71   0
   1  -5 -19    1.25    4.76   0
   0   5  19    5.79    4.84   0
   0  -5 -19    9.28    4.66   0
   1   5  19    8.91    4.65   0
  -1  -5 -19    4.07    4.42   0
   2   5  19    1.36    4.67   0
  -2  -5 -19    5.19    4.50   0
   3   5  19    3.63    3.45   0
  -3  -5 -19    3.99    4.73   0
   4   5  19    6.26    5.24   0
  -4  -5 -19    1.97    3.85   0
   1  -6 -19    0.62    6.50   0
   1  -6 -19    2.18    5.14   0
  -1   6  19    0.29    5.47   0
   0  -6 -19    0.24    5.05   0
   0   6  19    2.15    5.14   0
   1   6  19    2.35    5.13   0
  -1  -6 -19    5.50    5.00   0
   2   6  19   -2.77    5.02   0
  -2  -6 -19    0.87    3.48   0
   3   6  19   -2.43    3.53   0
  -3  -6 -19   -0.10    3.47   0
  -1  -6  20    3.37    5.39   0
  -1  -6  20    2.56    3.94   0
   1   6 -20   -3.68    5.19   0
   0  -6  20    2.31    5.37   0
   0  -6  20    3.05    5.44   0
   0   6 -20   -0.97    5.10   0
  -3  -5  20   -3.27    3.87   0
  -3  -5  20    0.89    5.81   0
   3   5 -20    1.64    5.27   0
   2   5 -20    3.63    4.85   0
  -2  -5  20    0.38    4.89   0
  -2  -5  20    4.24    5.25   0
  -1  -5  20    6.62    4.91   0
  -1  -5  20    2.97    3.33   0
   1   5 -20    4.33    3.19   0
   0  -5  20    3.08    4.98   0
   0  -5  20    4.99    3.54   0
   0   5 -20    3.01    4.65   0
   1  -5  20    0.83    5.17   0
   1  -5  20    3.24    3.47   0
   1  -5  20   -2.10    3.56   0
   2  -5  20    0.60    8.90   0
   2  -5  20    4.22    5.37   0
   2  -5  20   -1.95    5.16   0
  -3  -4  20    3.63    5.03   0
  -3  -4  20    6.68    5.31   0
   3   4 -20    2.52    3.52   0
  -2  -4  20    4.74    4.32   0
   2   4 -20    4.28    4.45   0
  -2  -4  20    2.45    3.67   0
  -1  -4  20    8.48    3.61   0
   1   4 -20    4.28    2.85   0
  -1  -4  20    4.36    4.50   0
   0  -4  20    7.51    4.45   0
   0  -4  20   13.37    4.94   0
   1  -4  20    2.87    4.67   0
   1  -4  20   -2.73    4.46   0
   1  -4  20   -1.34    4.49   0
   2  -4  20   22.14    5.11   0
   2  -4  20   21.84    3.65   0
   3  -4  20   -0.31    3.75   0
  -4  -3  20    4.41    6.82   0
  -4  -3  20    1.35    3.72   0
   4   3 -20    6.08    6.57   0
  -3  -3  20   -0.60    4.78   0
  -3  -3  20    4.48    5.09   0
   3   3 -20    4.33    4.75   0
  -2  -3  20   10.60    4.43   0
   2   3 -20   11.20    4.52   0
  -2  -3  20    8.84    3.56   0
  -1  -3  20    1.43    4.64   0
  -1  -3  20    2.85    4.19   0
   1   3 -20    0.96    4.18   0
   0  -3  20   10.69    4.34   0
   0  -3  20   10.73    4.32   0
   0  -3  20    9.67    4.41   0
   1  -3  20    1.17    4.25   0
   1  -3  20    6.58    5.35   0
   1  -3  20    4.59    3.04   0
   2  -3  20   20.50    3.33   0
   2  -3  20   18.05    3.40   0
   3  -3  20    0.45    4.75   0
   3  -3  20    5.08    4.97   0
  -4  -2  20    3.08    3.87   0
  -4  -2  20    0.56    6.40   0
   4   2 -20    1.50    6.18   0
   3   2 -20    2.69    5.49   0
  -3  -2  20    0.03    6.04   0
  -3  -2  20   -2.27    4.62   0
  -2  -2  20    6.51    2.96   0
   2   2 -20    6.49    4.10   0
  -2  -2  20    6.82    4.91   0
  -1  -2  20   44.55    5.28   0
  -1  -2  20   39.15    3.31   0
   0  -2  20   31.66    4.52   0
   0  -2  20   38.89    4.57   0
   0  -2  20   30.98    4.35   0
   1  -2  20    8.56    4.13   0
   1  -2  20    9.34    4.23   0
   1  -2  20    9.34    4.14   0
   2  -2  20    7.29    4.17   0
   2  -2  20    3.49    4.25   0
   3  -2  20    2.61    4.59   0
   3  -2  20    1.09    4.63   0
   4  -2  20   -0.78    3.64   0
   4  -2  20    2.71    5.28   0
  -4  -1  20    8.60    5.17   0
  -3  -1  20    3.21    4.64   0
  -3  -1  20    1.22    9.16   0
  -3  -1  20    1.29    9.11   0
   2   1 -20    1.65    4.11   0
  -2  -1  20   -1.25    4.06   0
  -2  -1  20    2.56    5.29   0
  -2  -1  20   -0.78    5.73   0
   1   1 -20   37.54    4.30   0
  -1  -1  20   34.06    4.33   0
  -1  -1  20   34.08    4.87   0
  -1  -1  20   34.79    4.71   0
   0   1 -20   20.29    4.26   0
   0  -1  20   23.83    4.17   0
   0  -1  20   18.39    4.33   0
   0  -1  20   22.03    4.18   0
   1  -1  20   22.22    4.01   0
   1  -1  20   25.28    4.09   0
   2  -1  20   12.15    3.88   0
   2  -1  20   16.56    4.23   0
   3  -1  20    1.56    3.06   0
   3  -1  20    6.01    4.41   0
   4  -1  20   -1.47    3.48   0
   4  -1  20   -2.84    3.60   0
   4   0 -20    0.24    5.16   0
  -4   0  20    1.99    3.63   0
   3   0 -20    9.61    3.24   0
  -3   0  20   11.75    4.55   0
   2   0 -20    5.33    3.13   0
  -2   0  20    1.58    4.13   0
   1   0 -20   71.10    4.46   0
  -1   0  20   64.61    3.42   0
  -1   0  20   62.30    6.35   0
  -1   0  20   66.08    6.11   0
   0   0  20    6.93    4.00   0
   0   0 -20    7.11    2.93   0
   0   0  20    6.94    3.94   0
  -1   0 -20    0.99    3.97   0
   1   0  20    1.27    3.89   0
   1   0  20    0.66    3.99   0
  -2   0 -20   -0.22    6.15   0
   2   0  20    3.47    3.95   0
  -3   0 -20    2.44    3.09   0
   3   0  20    5.20    4.36   0
   4   0  20   -2.18    3.44   0
   4  -1 -20    1.61    5.31   0
   3  -1 -20   -2.56    4.58   0
   2  -1 -20   43.70    3.56   0
   1  -1 -20   13.86    4.02   0
  -1   1  20    9.95    6.28   0
  -1   1  20   12.11    6.31   0
   0   1  20    6.82    4.27   0
   0  -1 -20    4.20    3.12   0
   0   1  20    9.43    3.86   0
  -1  -1 -20    5.00    3.92   0
  -1  -1 -20    0.37    4.45   0
   1   1  20    6.29    4.15   0
  -2  -1 -20    3.51    4.10   0
  -2  -1 -20    3.81    4.00   0
   2   1  20    3.52    4.21   0
  -3  -1 -20    0.82    6.85   0
  -3  -1 -20    1.26    4.36   0
   3   1  20    1.32    2.96   0
   4   1  20    6.95    4.71   0
  -4  -1 -20    5.41    4.80   0
   3  -2 -20    1.94    4.75   0
   2  -2 -20   19.23    4.41   0
   1  -2 -20   10.69    4.21   0
   0   2  20    1.72    4.19   0
   0  -2 -20    4.35    2.62   0
   0  -2 -20    2.90    4.15   0
   1   2  20   21.12    4.39   0
  -1  -2 -20   30.33    4.41   0
  -1  -2 -20   23.66    3.32   0
   2   2  20   14.79    4.33   0
  -2  -2 -20   10.42    4.48   0
  -2  -2 -20   14.52    3.15   0
   3   2  20    3.49    4.48   0
  -3  -2 -20    4.00    4.43   0
   4   2  20   14.37    5.02   0
  -4  -2 -20   24.14    4.96   0
   3  -3 -20   -0.70    3.69   0
   2  -3 -20   -1.70    4.67   0
  -1   3  20    2.61    8.28   0
   1  -3 -20    2.13    4.39   0
   0  -3 -20   10.98    4.09   0
   0   3  20   12.74    4.45   0
   0  -3 -20   13.08    4.19   0
   1   3  20   19.80    4.41   0
  -1  -3 -20   13.58    3.20   0
   2   3  20   -0.08    4.43   0
  -2  -3 -20    0.75    2.98   0
   3   3  20    1.92    3.08   0
  -3  -3 -20   -0.21    4.16   0
   4   3  20   10.77    3.42   0
  -4  -3 -20   13.46    3.74   0
   2  -4 -20    1.88    3.38   0
  -1   4  20    1.05    6.51   0
   1  -4 -20    2.26    4.41   0
   1  -4 -20    1.38    6.43   0
   0  -4 -20    3.88    3.21   0
   0  -4 -20    7.74    4.47   0
   0   4  20    4.60    4.88   0
   1   4  20    3.44    4.65   0
  -1  -4 -20   -0.64    3.07   0
   2   4  20    2.21    4.30   0
  -2  -4 -20    2.73    2.91   0
   3   4  20    2.38    4.59   0
  -3  -4 -20   -0.08    4.51   0
   4   4  20    1.55    5.05   0
  -4  -4 -20    2.33    3.49   0
   2  -5 -20    0.57    3.84   0
   1  -5 -20    5.30    4.84   0
  -1   5  20    3.08    5.12   0
   1  -5 -20    5.12    6.24   0
   0   5  20   -1.72    4.94   0
   0  -5 -20   -0.21    4.64   0
   1   5  20    6.06    4.91   0
  -1  -5 -20    7.98    4.58   0
   2   5  20   -2.62    4.95   0
  -2  -5 -20    5.50    4.71   0
   3   5  20    1.48    3.58   0
  -3  -5 -20    2.14    3.47   0
  -4  -5 -20    2.45    3.72   0
   1  -6 -20    1.98    5.38   0
   1  -6 -20    1.40    5.48   0
   0   6  20    4.44    5.51   0
   0  -6 -20    0.76    5.12   0
   1   6  20    0.11    3.60   0
  -1  -6 -20    3.80    5.01   0
   2   6  20   -0.70    3.60   0
  -2  -6 -20    2.07    5.20   0
   3   6  20    3.82    3.79   0
  -3  -6 -20   -2.29    3.56   0
  -2  -5  21    0.86    3.60   0
   2   5 -21    3.57    4.93   0
  -2  -5  21   -1.19    5.31   0
  -1  -5  21    4.14    5.12   0
  -1  -5  21    2.50    5.02   0
   1   5 -21    1.34    3.21   0
   0  -5  21   -0.57    5.06   0
   0  -5  21   -3.91    3.56   0
   1  -5  21    1.82    5.05   0
   1  -5  21    1.43    3.67   0
   1  -5  21    2.12    3.71   0
  -3  -4  21    1.48    3.67   0
  -3  -4  21    8.64    5.40   0
   3   4 -21    3.53    3.59   0
  -2  -4  21    4.17    3.18   0
   2   4 -21    3.52    4.84   0
  -2  -4  21    6.20    3.83   0
  -1  -4  21    6.85    3.30   0
  -1  -4  21    3.34    4.54   0
   1   4 -21    7.57    4.31   0
   0  -4  21    2.34    4.62   0
   0  -4  21    4.46    4.59   0
   1  -4  21    0.24    4.78   0
   1  -4  21    1.36    4.52   0
   1  -4  21    6.17    4.51   0
   2  -4  21    2.61    4.97   0
   2  -4  21    0.79    3.58   0
  -3  -3  21    6.10    4.86   0
  -3  -3  21    6.69    5.19   0
   3   3 -21    7.02    4.64   0
   2   3 -21    2.25    4.31   0
  -2  -3  21    6.56    4.62   0
  -2  -3  21    3.62    5.16   0
   1   3 -21    0.89    4.50   0
  -1  -3  21    4.56    4.63   0
  -1  -3  21   -0.52    3.08   0
   0  -3  21   -0.41    4.42   0
   0  -3  21    0.82    4.22   0
   0  -3  21   -1.76    4.35   0
   1  -3  21    5.25    3.07   0
   1  -3  21    4.37    4.50   0
   1  -3  21    5.08    3.15   0
   2  -3  21    1.54    3.18   0
   2  -3  21   -2.21    3.22   0
   3  -3  21    0.26    3.51   0
   3  -3  21   -0.06    3.57   0
   4   2 -21    0.31    6.60   0
  -4  -2  21    2.63    5.44   0
  -4  -2  21    0.28    7.80   0
  -3  -2  21   10.82    6.27   0
   3   2 -21   11.41    5.87   0
  -3  -2  21   11.68    4.91   0
  -2  -2  21    7.74    4.37   0
  -2  -2  21    8.15    4.86   0
  -1  -2  21    7.91    4.89   0
  -1  -2  21   14.28    4.38   0
  -1  -2  21   14.70    4.43   0
   0  -2  21   17.42    4.56   0
   0  -2  21   15.85    3.12   0
   0  -2  21   17.60    3.23   0
   1  -2  21   -0.87    2.81   0
   1  -2  21    1.80    5.23   0
   1  -2  21    3.10    4.18   0
   2  -2  21    5.70    4.17   0
   2  -2  21    9.19    4.35   0
   3  -2  21    3.65    3.25   0
   3  -2  21    6.16    3.43   0
  -4  -1  21    1.64    3.65   0
  -3  -1  21    4.55    4.61   0
   2   1 -21   18.56    4.22   0
  -2  -1  21   21.60    4.22   0
  -2  -1  21   17.06    5.78   0
  -2  -1  21   14.07    5.94   0
   1   1 -21  235.24    6.06   0
  -1  -1  21  215.68    5.98   0
  -1  -1  21  197.64    6.36   0
  -1  -1  21  230.43    7.41   0
   0   1 -21   27.87    3.26   0
   0  -1  21   29.11    4.16   0
   0  -1  21   23.32    4.35   0
   0  -1  21   23.81    4.32   0
   1  -1  21   16.53    2.86   0
   1  -1  21   10.45    2.95   0
   2  -1  21    2.81    2.91   0
   2  -1  21    5.50    2.63   0
   3  -1  21    0.75    4.42   0
   3  -1  21    0.20    3.27   0
   4  -1  21    3.50    5.06   0
   4  -1  21    2.72    3.62   0
   4   0 -21   -2.59    5.45   0
  -4   0  21    4.02    5.29   0
   3   0 -21    2.05    4.80   0
  -3   0  21    1.55    4.77   0
   2   0 -21    4.89    4.20   0
  -2   0  21   -1.19    4.27   0
   1   0 -21   72.02    3.72   0
  -1   0  21   71.49    3.71   0
  -1   0  21   68.77    5.66   0
  -1   0  21   69.25    5.38   0
   0   0  21   14.52    4.13   0
   0   0 -21   16.76    4.08   0
   0   0  21   15.72    4.32   0
  -1   0 -21    2.34    4.13   0
   1   0  21    0.50    3.92   0
   1   0  21    5.71    3.86   0
  -2   0 -21    7.64    5.48   0
   2   0  21    6.00    4.27   0
   3   0  21    4.68    4.28   0
   4   0  21   -0.05    3.50   0
   3  -1 -21    3.23    4.77   0
   2  -1 -21    3.00    4.37   0
   1  -1 -21   10.11    2.89   0
  -1   1  21    8.87    5.57   0
  -1   1  21   10.12    6.56   0
   0   1  21    5.26    4.18   0
   0   1  21    3.76    3.97   0
   0  -1 -21    2.27    2.80   0
  -1  -1 -21   44.45    4.39   0
  -1  -1 -21   42.90    4.51   0
   1   1  21   37.78    4.41   0
  -2  -1 -21   15.06    4.51   0
  -2  -1 -21   15.88    4.16   0
   2   1  21   17.29    4.11   0
   3   1  21    9.71    4.41   0
  -3  -1 -21    2.20    6.47   0
  -3  -1 -21   -0.31    3.09   0
   4   1  21    0.94    4.86   0
  -4  -1 -21    4.03    3.49   0
   3  -2 -21    0.97    3.47   0
   2  -2 -21   -0.91    3.12   0
   1  -2 -21   13.19    4.22   0
   0   2  21    1.07    4.25   0
   0  -2 -21    1.12    4.11   0
   0  -2 -21    1.86    4.10   0
   1   2  21   36.91    4.69   0
  -1  -2 -21   41.56    4.59   0
  -1  -2 -21   40.75    4.53   0
   2   2  21    0.14    4.31   0
  -2  -2 -21    0.52    4.34   0
  -2  -2 -21    1.33    4.19   0
   3   2  21   -0.70    4.46   0
  -3  -2 -21    2.74    5.46   0
  -3  -2 -21    3.55    4.36   0
   4   2  21    7.11    4.79   0
  -4  -2 -21    3.12    6.41   0
  -4  -2 -21    5.18    4.89   0
   3  -3 -21    2.84    5.26   0
   2  -3 -21    3.00    4.67   0
   1  -3 -21    0.39    4.36   0
   0  -3 -21    4.95    4.07   0
   0   3  21    8.11    5.72   0
   0  -3 -21    7.34    4.20   0
   1   3  21    4.18    4.52   0
  -1  -3 -21    0.60    3.08   0
  -1  -3 -21    6.37    4.39   0
   2   3  21   -1.57    4.25   0
  -2  -3 -21    2.60    4.26   0
   3   3  21    2.81    3.02   0
  -3  -3 -21   -1.70    3.22   0
   4   3  21    2.58    3.42   0
  -4  -3 -21    5.90    3.43   0
   2  -4 -21   -3.82    5.06   0
   1  -4 -21    0.46    4.69   0
  -1   4  21   -0.12    7.49   0
   1  -4 -21    1.17    7.47   0
   0  -4 -21    6.36    4.42   0
   0  -4 -21    7.26    4.49   0
   0   4  21    2.59    4.90   0
   1   4  21    5.64    4.88   0
  -1  -4 -21    7.52    3.12   0
   2   4  21    0.76    3.25   0
  -2  -4 -21   -1.12    4.30   0
   3   4  21    1.86    4.85   0
  -3  -4 -21    6.63    4.50   0
   4   4  21    3.31    5.10   0
  -4  -4 -21    2.93    3.75   0
   1  -5 -21    0.11    5.07   0
  -1   5  21    1.20    7.24   0
   1  -5 -21    1.99    6.07   0
   0   5  21    5.43    5.01   0
   0  -5 -21    4.44    4.72   0
   0  -5 -21    3.80    5.84   0
   1   5  21    9.65    4.96   0
  -1  -5 -21   10.78    4.73   0
   2   5  21    1.18    4.87   0
  -2  -5 -21    2.66    3.39   0
   3   5  21   -3.17    4.92   0
  -3  -5 -21   -0.61    3.40   0
   0   6  21    4.12    5.63   0
   0  -6 -21    1.38    5.12   0
   1   6  21    2.22    5.10   0
  -1  -6 -21    2.60    4.90   0
   2   6  21    0.54    5.32   0
  -2  -6 -21   -0.88    3.52   0
  -2  -5  22    4.79    5.27   0
   2   5 -22    1.41    5.08   0
  -2  -5  22    3.76    5.66   0
  -1  -5  22   -2.14    5.32   0
  -1  -5  22    0.35    5.05   0
   1   5 -22    2.92    4.89   0
   0  -5  22    1.99    5.16   0
   0  -5  22    5.61    3.57   0
   1  -5  22    2.13    5.31   0
   1  -5  22    4.04    3.56   0
   1  -5  22    4.03    5.08   0
   3   4 -22    4.18    3.75   0
  -3  -4  22    2.73    3.67   0
  -3  -4  22    4.25    5.67   0
  -2  -4  22    4.99    4.83   0
  -2  -4  22    1.99    3.96   0
   2   4 -22    2.90    3.49   0
  -1  -4  22   16.71    3.41   0
  -1  -4  22   13.44    4.77   0
   1   4 -22   14.14    4.69   0
   0  -4  22    2.87    4.80   0
   0  -4  22    6.01    4.70   0
   0  -4  22   10.00    4.55   0
   1  -4  22    2.65    5.99   0
   1  -4  22   -0.82    4.81   0
   1  -4  22   -0.08    3.34   0
   2  -4  22    0.54    5.15   0
   2  -4  22   -2.14    5.06   0
  -3  -3  22    3.50    5.10   0
  -3  -3  22   -0.81    5.30   0
   3   3 -22    1.65    4.92   0
  -2  -3  22   -0.16    3.31   0
  -2  -3  22    3.85    5.21   0
   2   3 -22    2.20    4.57   0
  -1  -3  22   11.69    4.81   0
  -1  -3  22    5.92    4.86   0
   0  -3  22   42.72    5.03   0
   0  -3  22   42.21    3.56   0
   0  -3  22   41.73    4.67   0
   1  -3  22    0.82    4.43   0
   1  -3  22    2.48    5.58   0
   1  -3  22   -1.41    4.49   0
   2  -3  22    2.70    4.69   0
   2  -3  22    3.30    4.80   0
   3  -3  22    0.28    5.17   0
   3  -3  22   -1.02    5.30   0
  -3  -2  22    1.53    5.00   0
  -3  -2  22    0.61    4.83   0
  -2  -2  22    4.15    4.47   0
  -2  -2  22    7.37    4.62   0
  -2  -2  22    3.58    4.95   0
  -1  -2  22   10.00    4.63   0
  -1  -2  22   12.17    4.43   0
  -1  -2  22   15.50    4.52   0
   0  -2  22   -0.52    4.29   0
   0  -2  22    2.07    4.29   0
   0  -2  22    3.12    4.10   0
   1  -2  22    5.20    4.16   0
   1  -2  22    1.34    4.46   0
   1  -2  22    1.80    4.13   0
   2  -2  22    3.07    3.02   0
   2  -2  22    2.28    4.17   0
   3  -2  22    1.48    4.73   0
   3  -2  22   11.04    4.82   0
  -4  -1  22    3.77    5.32   0
  -3  -1  22    1.09    3.41   0
   2   1 -22    1.72    2.95   0
  -2  -1  22    2.65    4.20   0
  -2  -1  22    3.54    5.84   0
  -2  -1  22    2.06    5.44   0
   1   1 -22    3.11    3.13   0
  -1  -1  22    6.58    4.31   0
  -1  -1  22    1.42    5.50   0
  -1  -1  22    3.39    4.43   0
   0  -1  22   15.73    4.23   0
   0  -1  22    9.76    4.20   0
   0  -1  22   16.23    4.25   0
   1  -1  22    5.50    3.99   0
   1  -1  22   -0.73    3.05   0
   2  -1  22   14.21    4.19   0
   2  -1  22   10.22    4.09   0
   3  -1  22    4.39    3.09   0
   3  -1  22    1.62    4.59   0
   4  -1  22    1.38    3.57   0
   4  -1  22    9.06    5.19   0
   3   0 -22    5.39    4.58   0
  -3   0  22    2.75    3.30   0
   2   0 -22    9.58    4.27   0
  -2   0  22    1.64    3.01   0
   1   0 -22    2.03    4.06   0
  -1   0  22    1.20    5.56   0
  -1   0  22    0.71    5.33   0
   0   0 -22    4.34    4.04   0
   0   0  22    0.93    4.21   0
   0   0  22    2.17    4.21   0
  -1   0 -22    5.73    4.00   0
   1   0  22    5.00    4.00   0
   1   0  22    3.74    2.93   0
  -2   0 -22   18.79    5.70   0
   2   0  22   15.13    4.29   0
   3   0  22    5.57    3.20   0
   4   0  22    5.75    5.11   0
   3  -1 -22    1.18    3.40   0
   2  -1 -22   -0.95    4.45   0
   1  -1 -22    2.91    3.08   0
  -1   1  22    2.53    5.46   0
  -1   1  22    4.06    6.34   0
   0   1  22    2.30    3.99   0
   0  -1 -22    1.72    3.05   0
   0   1  22    1.81    4.05   0
  -1  -1 -22    3.76    4.28   0
  -1  -1 -22    2.86    4.34   0
   1   1  22    2.91    2.92   0
  -2  -1 -22   -1.29    4.43   0
  -2  -1 -22    1.34    4.25   0
   2   1  22    3.72    2.92   0
   3   1  22    2.55    4.31   0
  -3  -1 -22    1.61    7.36   0
  -3  -1 -22   -1.14    2.99   0
   4   1  22    3.30    4.96   0
  -4  -1 -22    1.65    3.49   0
   3  -2 -22    5.74    5.03   0
   2  -2 -22    1.36    3.26   0
   1  -2 -22   -0.35    4.22   0
   0   2  22    4.87    4.29   0
   0  -2 -22    9.09    4.22   0
   0  -2 -22    7.23    5.12   0
   1   2  22    7.73    4.60   0
  -1  -2 -22    7.13    3.13   0
  -1  -2 -22   10.25    4.13   0
   2   2  22    6.56    4.27   0
  -2  -2 -22    2.01    4.34   0
  -2  -2 -22    4.87    4.18   0
   3   2  22    4.89    4.43   0
  -3  -2 -22   -0.89    4.79   0
  -3  -2 -22    1.57    3.04   0
   4   2  22    6.22    5.11   0
  -4  -2 -22    3.23    7.58   0
  -4  -2 -22    4.52    4.96   0
   3  -3 -22   -2.78    3.70   0
   2  -3 -22    4.66    4.76   0
   1  -3 -22   -0.55    4.43   0
   0  -3 -22   -0.04    2.99   0
   0   3  22    0.41    4.73   0
   0  -3 -22    3.81    4.46   0
   1   3  22    3.27    4.58   0
  -1  -3 -22   -2.50    4.14   0
  -1  -3 -22    0.10    4.25   0
   2   3  22    5.90    4.59   0
  -2  -3 -22    2.20    2.96   0
   3   3  22    2.57    3.25   0
  -3  -3 -22    2.67    3.22   0
   4   3  22   -1.87    3.51   0
  -4  -3 -22    4.43    3.52   0
   2  -4 -22    4.01    5.27   0
   1  -4 -22    5.10    4.71   0
   1  -4 -22    1.71    8.35   0
  -1   4  22    2.22    8.22   0
   0  -4 -22    1.56    4.43   0
   0  -4 -22    0.37    4.54   0
   0   4  22    2.64    4.73   0
   1   4  22    3.67    4.61   0
  -1  -4 -22    5.48    3.10   0
   2   4  22    3.59    3.22   0
  -2  -4 -22    6.48    4.57   0
   3   4  22   -0.48    4.85   0
  -3  -4 -22   -3.06    3.42   0
   4   4  22   -1.46    5.33   0
  -4  -4 -22    3.64    5.30   0
   1  -5 -22    3.85    5.21   0
   1  -5 -22    0.52    6.42   0
  -1   5  22    0.23    6.36   0
   0   5  22    4.29    5.17   0
   0  -5 -22    1.40    4.75   0
   0  -5 -22    2.60    4.85   0
   1   5  22   -2.28    5.35   0
  -1  -5 -22    6.51    4.78   0
   2   5  22   -1.53    3.47   0
  -2  -5 -22    3.02    4.76   0
   3   5  22    0.71    5.05   0
  -3  -5 -22    3.39    5.02   0
   0  -6 -22    0.03    5.23   0
   0   6  22    4.37    6.89   0
   0  -6 -22    5.44    5.38   0
   1   6  22    1.03    5.48   0
  -1  -6 -22    2.80    5.27   0
   2   6  22    3.89    5.42   0
  -2  -6 -22    0.80    5.27   0
   2   5 -23    3.85    5.23   0
  -2  -5  23    4.25    5.41   0
  -2  -5  23    1.37    5.57   0
  -1  -5  23    5.51    5.01   0
  -1  -5  23    1.44    3.71   0
   1   5 -23    0.61    4.97   0
   0  -5  23   -1.13    5.22   0
   0  -5  23    4.13    3.73   0
   0  -5  23    0.98    3.55   0
   1  -5  23    0.06    6.74   0
   1  -5  23    2.55    5.14   0
   1  -5  23    8.09    5.24   0
  -3  -4  23    4.88    5.42   0
  -3  -4  23    2.65    5.64   0
   3   4 -23    3.87    3.99   0
  -2  -4  23    6.07    4.90   0
   2   4 -23    9.10    5.11   0
  -2  -4  23    7.21    3.79   0
  -1  -4  23    3.49    4.82   0
  -1  -4  23    0.70    3.54   0
   0  -4  23    3.13    4.97   0
   0  -4  23   -0.76    4.76   0
   0  -4  23    4.05    4.89   0
   1  -4  23    1.01    5.11   0
   1  -4  23   -0.25    3.58   0
   1  -4  23   -3.61    3.57   0
   2  -4  23    2.32    3.80   0
   2  -4  23    2.13    5.19   0
  -3  -3  23    0.25    5.00   0
  -3  -3  23    3.28    5.26   0
   3   3 -23   -0.94    5.04   0
  -2  -3  23    7.44    4.75   0
   2   3 -23    1.74    4.64   0
  -2  -3  23   -0.77    5.03   0
  -1  -3  23   -0.09    4.73   0
  -1  -3  23    5.04    4.63   0
  -1  -3  23   -1.02    4.70   0
   0  -3  23    6.59    4.69   0
   0  -3  23    9.99    4.78   0
   0  -3  23    2.78    2.99   0
   1  -3  23    0.82    4.36   0
   1  -3  23    2.63    5.62   0
   1  -3  23   -1.11    4.46   0
   2  -3  23   -1.02    3.24   0
   2  -3  23    2.93    4.83   0
   3  -3  23    4.46    5.23   0
   3  -3  23    2.09    3.80   0
  -3  -2  23    3.87    6.46   0
  -3  -2  23    4.78    4.88   0
  -3  -2  23    5.28    6.42   0
  -2  -2  23   -0.51    4.57   0
  -2  -2  23   -1.63    4.55   0
  -2  -2  23    0.76    4.92   0
  -1  -2  23   22.30    4.86   0
  -1  -2  23   20.98    3.32   0
  -1  -2  23   20.68    4.70   0
   0  -2  23    2.25    3.02   0
   0  -2  23    1.89    4.31   0
   0  -2  23    2.49    4.35   0
   1  -2  23    4.60    4.09   0
   1  -2  23    7.64    4.21   0
   2  -2  23   -2.47    4.32   0
   2  -2  23    3.00    4.22   0
   3  -2  23    6.43    4.76   0
   3  -2  23    1.68    3.57   0
  -3  -1  23   -1.07    3.55   0
   2   1 -23    8.98    3.31   0
  -2  -1  23    9.37    4.59   0
  -2  -1  23    4.68    6.08   0
  -2  -1  23    5.87    5.77   0
   1   1 -23   43.21    4.63   0
  -1  -1  23   34.38    4.79   0
  -1  -1  23   37.41    4.53   0
  -1  -1  23   44.56    4.77   0
   0  -1  23    1.82    3.14   0
   0  -1  23    2.96    4.37   0
   0  -1  23    3.07    3.11   0
   1  -1  23    8.91    4.05   0
   1  -1  23   10.13    4.27   0
   2  -1  23   -1.90    4.23   0
   2  -1  23   -1.15    3.06   0
   3  -1  23   -0.56    4.66   0
   3  -1  23    1.38    4.78   0
   4  -1  23   -2.15    5.24   0
   4  -1  23    5.55    5.29   0
   3   0 -23    2.29    3.49   0
  -3   0  23    4.61    4.88   0
   2   0 -23   -0.24    3.01   0
  -2   0  23    2.04    4.20   0
   1   0 -23   17.97    3.24   0
  -1   0  23   15.30    4.73   0
  -1   0  23   19.33    5.51   0
   0   0 -23    7.62    4.32   0
   0   0  23    8.53    4.21   0
   0   0  23    5.61    4.24   0
  -1   0 -23    3.73    4.28   0
   1   0  23    3.02    4.00   0
   1   0  23    1.52    4.01   0
   2   0  23    5.41    4.02   0
   2   0  23    3.10    4.36   0
   3   0  23    7.88    4.55   0
   4   0  23    5.42    5.21   0
   3  -1 -23    2.20    4.99   0
   2  -1 -23    7.55    3.19   0
   1  -1 -23   12.77    4.23   0
  -1   1  23   10.67    6.50   0
  -1   1  23   13.93    6.66   0
   0   1  23   -0.99    4.24   0
   0   1  23    3.83    4.12   0
   0  -1 -23    3.73    2.85   0
  -1  -1 -23    6.54    4.54   0
   1   1  23    7.73    4.21   0
  -2  -1 -23    1.45    4.38   0
  -2  -1 -23   -0.73    4.35   0
   2   1  23   -3.33    4.27   0
   3   1  23    2.46    4.53   0
  -3  -1 -23    2.26    7.28   0
  -3  -1 -23    1.32    3.24   0
   4   1  23    1.96    3.55   0
  -4  -1 -23    3.59    5.35   0
   3  -2 -23   -1.50    3.55   0
   2  -2 -23    7.40    4.70   0
   1  -2 -23    3.65    4.35   0
   0   2  23    2.69    4.58   0
   0  -2 -23   -0.43    4.20   0
   1   2  23    5.00    4.36   0
  -1  -2 -23    2.46    4.26   0
  -1  -2 -23    3.38    4.27   0
   2   2  23    1.54    4.48   0
  -2  -2 -23    0.58    4.56   0
  -2  -2 -23    3.91    3.28   0
   3   2  23   -0.15    4.65   0
  -3  -2 -23    1.88    4.75   0
  -3  -2 -23   -0.10    3.26   0
   4   2  23   -1.76    3.69   0
  -4  -2 -23   -0.67    8.40   0
  -4  -2 -23    2.99    3.63   0
   2  -3 -23    1.57    3.61   0
   1  -3 -23    2.02    4.50   0
   0  -3 -23   -0.16    3.09   0
   0  -3 -23    1.59    4.57   0
   0   3  23    0.27    4.40   0
   1   3  23    3.12    4.59   0
  -1  -3 -23   -0.34    4.25   0
  -1  -3 -23   -3.45    4.36   0
   2   3  23    1.74    4.56   0
  -2  -3 -23    5.88    3.34   0
  -2  -3 -23    8.29    4.69   0
   3   3  23   -1.10    3.45   0
  -3  -3 -23    3.67    4.61   0
   4   3  23    1.91    3.82   0
  -4  -3 -23    1.53    3.47   0
   2  -4 -23    3.35    5.24   0
   1  -4 -23   -1.04    4.78   0
   0  -4 -23   -1.13    3.22   0
   0  -4 -23   -1.00    4.68   0
   0   4  23   -0.49    4.94   0
  -1  -4 -23   20.91    4.58   0
   1   4  23   20.30    5.09   0
  -1  -4 -23   17.61    3.51   0
   2   4  23    6.64    4.61   0
  -2  -4 -23    4.07    3.23   0
   3   4  23    2.41    5.07   0
  -3  -4 -23   -1.79    3.45   0
  -1   5  23   -0.41    7.45   0
   1  -5 -23   -1.94    5.34   0
   1  -5 -23   -0.46    7.55   0
   0   5  23    2.89    5.27   0
   0  -5 -23    0.88    4.78   0
   0  -5 -23    1.64    5.25   0
   1   5  23   17.22    5.59   0
  -1  -5 -23   33.15    5.53   0
   2   5  23    4.41    3.56   0
  -2  -5 -23    3.76    3.37   0
   3   5  23    5.15    5.30   0
  -3  -5 -23   -2.03    5.13   0
   1   6  23    6.61    5.62   0
  -1  -6 -23    2.97    5.38   0
  -1  -5  24    2.69    5.50   0
  -1  -5  24    0.12    5.47   0
   1   5 -24    4.18    3.74   0
   0  -5  24   -0.41    5.31   0
   0  -5  24    1.50    5.48   0
   0  -5  24    2.70    5.31   0
  -2  -4  24    0.71    3.64   0
   2   4 -24    6.83    5.20   0
  -2  -4  24    0.42    3.93   0
  -1  -4  24   -2.22    5.10   0
  -1  -4  24    1.69    5.02   0
   0  -4  24    1.68    5.06   0
   0  -4  24   -1.47    3.24   0
   0  -4  24    5.14    5.09   0
   1  -4  24    1.32    6.53   0
   1  -4  24    0.37    3.63   0
   1  -4  24    6.37    5.12   0
   2  -4  24    1.23    5.36   0
   2  -4  24   -3.05    3.72   0
  -3  -3  24    3.39    5.37   0
  -3  -3  24    0.12    6.93   0
   3   3 -24    1.26    5.40   0
  -2  -3  24    4.55    4.84   0
  -2  -3  24    2.05    3.69   0
  -1  -3  24    8.75    3.62   0
  -1  -3  24    5.05    4.73   0
  -1  -3  24    5.96    4.89   0
   0  -3  24   -0.94    4.75   0
   0  -3  24    0.74    4.88   0
   0  -3  24   -2.75    4.67   0
   1  -3  24    1.47    4.73   0
   1  -3  24    1.17    4.58   0
   1  -3  24   -1.12    3.18   0
   2  -3  24    4.92    4.71   0
   2  -3  24   -0.12    3.29   0
  -3  -2  24    0.42    6.51   0
  -3  -2  24   -1.82    4.86   0
  -3  -2  24    2.42    6.52   0
  -2  -2  24    5.36    4.51   0
  -2  -2  24    6.86    6.06   0
  -2  -2  24    3.09    5.23   0
  -1  -2  24    0.93    4.72   0
  -1  -2  24    5.10    4.31   0
  -1  -2  24    3.53    4.64   0
   0  -2  24   10.30    4.74   0
   0  -2  24   11.74    4.89   0
   0  -2  24   11.73    4.72   0
   1  -2  24    0.01    4.28   0
   1  -2  24    2.58    4.57   0
   2  -2  24    4.83    4.61   0
   2  -2  24    6.94    4.51   0
   3  -2  24   -2.39    5.03   0
   3  -2  24   -3.73    5.15   0
  -3  -1  24    0.10    4.89   0
  -2  -1  24    0.90    4.45   0
  -2  -1  24    3.50    6.20   0
  -2  -1  24    2.87    5.87   0
   1   1 -24   20.87    3.20   0
  -1  -1  24   18.75    4.83   0
  -1  -1  24   17.37    4.72   0
  -1  -1  24   18.22    4.79   0
   0  -1  24    4.76    4.35   0
   0  -1  24    2.93    4.39   0
   1  -1  24    0.83    4.16   0
   1  -1  24   -1.46    2.79   0
   2  -1  24    6.98    3.26   0
   2  -1  24   12.97    4.33   0
   3  -1  24    1.04    3.41   0
   3  -1  24   -0.42    4.63   0
   3   0 -24    5.10    5.04   0
   2   0 -24   -0.36    4.40   0
   1   0 -24   -3.07    4.19   0
  -1   0  24   -0.24    5.58   0
  -1   0  24   -2.26    4.55   0
   0   0 -24   24.35    3.36   0
   0   0  24   26.17    4.27   0
   0   0  24   27.90    4.68   0
   1   0  24    3.05    4.22   0
  -1   0 -24    5.74    4.42   0
   1   0  24    9.33    4.31   0
   2   0  24    3.17    4.19   0
   2   0  24    3.01    4.31   0
   3   0  24   -1.28    3.10   0
   3   0  24   -1.20    4.46   0
   4   0  24    0.27    5.06   0
   4   0  24    0.09    5.14   0
   3  -1 -24    2.86    3.55   0
   2  -1 -24    2.30    4.52   0
   1  -1 -24    5.18    4.27   0
  -1   1  24    1.15    5.70   0
  -1   1  24    2.26    6.41   0
   0   1  24    4.07    4.52   0
   0  -1 -24   10.86    4.26   0
   0   1  24    7.57    4.28   0
  -1  -1 -24   -1.32    4.38   0
   1   1  24   -3.33    4.37   0
  -2  -1 -24    4.39    5.56   0
  -2  -1 -24    3.94    3.09   0
   2   1  24    0.75    4.33   0
   3   1  24   -1.19    3.33   0
  -3  -1 -24    1.08    7.54   0
  -3  -1 -24   -1.47    3.31   0
   4   1  24    2.55    3.79   0
  -4  -1 -24    3.21    5.22   0
   3  -2 -24    7.66    5.35   0
   2  -2 -24    1.14    4.55   0
   1  -2 -24   14.97    4.66   0
   0   2  24    8.70    5.55   0
   0  -2 -24   12.24    3.07   0
   1   2  24    2.38    4.54   0
  -1  -2 -24    1.90    4.56   0
  -1  -2 -24   -0.81    4.47   0
   2   2  24    2.22    4.52   0
  -2  -2 -24    8.44    4.54   0
  -2  -2 -24    8.93    4.76   0
   3   2  24    7.51    4.78   0
  -3  -2 -24   -0.16    5.87   0
  -3  -2 -24   -1.64    3.38   0
   4   2  24    2.02    3.58   0
  -4  -2 -24    1.23    9.46   0
  -4  -2 -24   -1.44    3.69   0
   2  -3 -24   -3.59    4.96   0
   1  -3 -24    1.60    4.58   0
   0  -3 -24    4.39    4.28   0
   0  -3 -24    4.49    4.61   0
   0   3  24    0.35    4.73   0
   1   3  24    2.61    4.56   0
  -1  -3 -24    1.18    4.43   0
  -1  -3 -24    1.26    4.55   0
   2   3  24    8.80    4.89   0
  -2  -3 -24   11.93    4.75   0
  -2  -3 -24   16.22    3.34   0
   3   3  24   -0.50    3.62   0
  -3  -3 -24    3.29    4.94   0
  -3  -3 -24   -1.83    5.01   0
   4   3  24    0.77    3.78   0
  -4  -3 -24    1.21    6.75   0
  -4  -3 -24    3.50    3.69   0
   2  -4 -24   -0.76    3.83   0
   1  -4 -24    5.14    4.94   0
   0  -4 -24    2.54    3.46   0
   0  -4 -24    6.28    5.98   0
   0   4  24    0.35    5.15   0
  -1  -4 -24    1.13    3.41   0
   1   4  24    0.72    4.90   0
  -1  -4 -24   -0.76    3.42   0
   2   4  24    4.10    5.19   0
  -2  -4 -24    0.49    4.85   0
   3   4  24    0.91    5.17   0
  -3  -4 -24   -4.00    4.94   0
   1  -5 -24    8.34    5.16   0
   0   5  24    1.15    5.54   0
   0  -5 -24    1.91    3.52   0
   0  -5 -24    2.80    5.14   0
  -1  -5 -24   -1.73    5.23   0
   1   5  24    1.84    5.52   0
   2   5  24    0.91    3.61   0
  -2  -5 -24   -2.86    5.29   0
  -3  -5 -24    1.71    3.56   0
  -2  -4  25   -3.44    5.46   0
  -2  -4  25   -0.15    5.69   0
  -1  -4  25    3.13    5.24   0
  -1  -4  25    1.84    5.20   0
  -1  -4  25    0.58    5.39   0
   0  -4  25    1.50    5.08   0
   0  -4  25   -0.08    3.51   0
   0  -4  25    1.50    3.46   0
   1  -4  25    0.26    5.43   0
   1  -4  25    1.01    3.52   0
   1  -4  25    2.30    5.10   0
  -2  -3  25    7.20    5.10   0
  -2  -3  25   11.01    5.33   0
  -2  -3  25   10.10    5.42   0
  -1  -3  25    3.18    5.12   0
  -1  -3  25    2.80    3.41   0
  -1  -3  25    6.73    5.11   0
   0  -3  25    4.42    4.80   0
   0  -3  25    6.92    4.68   0
   0  -3  25    3.94    4.72   0
   1  -3  25    0.61    4.87   0
   1  -3  25    5.31    4.67   0
   1  -3  25    1.35    4.73   0
   2  -3  25    0.81    5.01   0
   2  -3  25    2.85    3.63   0
  -3  -2  25    2.36    6.38   0
  -3  -2  25    3.19    5.32   0
  -3  -2  25    0.04    6.55   0
  -2  -2  25    1.20    4.72   0
  -2  -2  25    1.91    4.95   0
  -2  -2  25    4.20    5.34   0
  -1  -2  25    1.87    4.74   0
  -1  -2  25    2.89    4.38   0
  -1  -2  25    0.70    4.72   0
   0  -2  25    2.35    4.52   0
   0  -2  25    0.66    3.35   0
   0  -2  25    1.01    4.62   0
   1  -2  25    3.73    4.40   0
   1  -2  25    6.60    4.61   0
   2  -2  25   -0.95    3.30   0
   2  -2  25    0.85    3.49   0
   3  -2  25    3.76    3.73   0
   3  -2  25    2.86    3.61   0
  -3  -1  25    2.76    5.19   0
  -2  -1  25    4.50    4.54   0
  -2  -1  25    3.50    7.05   0
  -2  -1  25    3.46    5.95   0
  -1  -1  25    0.62    4.78   0
  -1  -1  25    3.58    4.41   0
  -1  -1  25    3.58    4.54   0
   0  -1  25    1.14    4.54   0
   0  -1  25    0.57    4.53   0
   1  -1  25    1.21    4.21   0
   1  -1  25    4.30    4.69   0
   2  -1  25    0.58    4.40   0
   2  -1  25    3.80    4.30   0
   3  -1  25    3.53    3.53   0
   3  -1  25    1.95    4.64   0
   3   0 -25    2.27    5.12   0
   2   0 -25    1.45    3.28   0
   1   0 -25    3.13    4.50   0
  -1   0  25    6.48    5.69   0
  -1   0  25    5.50    5.58   0
   0   0 -25   50.31    5.14   0
   0   0  25   52.33    4.93   0
   0   0  25   52.65    5.19   0
  -1   0 -25   11.24    4.57   0
   1   0  25   12.21    4.26   0
   1   0  25   13.48    4.59   0
   2   0  25    2.00    4.43   0
   2   0  25    3.96    4.53   0
   3   0  25    3.86    3.24   0
   3   0  25    2.82    3.43   0
   3  -1 -25    1.64    5.29   0
   2  -1 -25    1.96    3.25   0
   1  -1 -25    4.37    4.43   0
  -1   1  25    6.49    6.68   0
  -1   1  25    5.18    6.73   0
   0   1  25    6.42    4.71   0
   0  -1 -25    9.82    4.64   0
   0   1  25    7.27    4.48   0
   1   1  25    0.79    4.68   0
   1   1  25    2.70    4.25   0
  -1  -1 -25    2.82    4.35   0
  -2  -1 -25    3.71    4.51   0
  -2  -1 -25    0.51    3.20   0
   2   1  25    2.70    3.18   0
   3   1  25    6.43    4.67   0
  -3  -1 -25    0.82    8.65   0
  -3  -1 -25    0.58    3.26   0
  -4  -1 -25   -2.06    5.49   0
   2  -2 -25   -0.39    3.50   0
   1  -2 -25   22.56    4.90   0
   0   2  25    3.85    4.68   0
   0  -2 -25    3.55    3.22   0
   0   2  25    1.64    4.32   0
   1   2  25    0.01    4.58   0
  -1  -2 -25    5.18    4.57   0
  -1  -2 -25   -0.13    4.38   0
   2   2  25    5.44    3.50   0
  -2  -2 -25    6.05    4.74   0
  -2  -2 -25    6.71    4.50   0
   3   2  25   -0.53    3.48   0
  -3  -2 -25   -0.50    5.04   0
  -3  -2 -25    0.55    3.51   0
  -4  -2 -25    2.28    3.81   0
   2  -3 -25    0.39    5.10   0
   1  -3 -25   -0.54    4.50   0
   0  -3 -25    2.47    4.53   0
   0  -3 -25    2.34    4.57   0
   0   3  25    2.21    4.89   0
   1   3  25    2.40    4.83   0
  -1  -3 -25    0.98    4.53   0
  -1  -3 -25    2.14    4.68   0
   2   3  25    0.39    4.90   0
  -2  -3 -25    2.16    5.23   0
  -2  -3 -25    0.19    4.88   0
   3   3  25    2.34    3.50   0
  -3  -3 -25    3.93    5.04   0
  -3  -3 -25    1.70    4.92   0
   1  -4 -25    3.89    5.03   0
   0  -4 -25    0.72    4.80   0
   0  -4 -25    2.49    4.89   0
   0   4  25    0.95    5.07   0
  -1  -4 -25    1.21    4.81   0
   1   4  25    2.39    5.10   0
  -1  -4 -25    4.53    3.37   0
   2   4  25    2.35    5.09   0
  -2  -4 -25    3.74    5.00   0
  -2  -4 -25   -0.20    3.48   0
   3   4  25    1.14    5.32   0
  -3  -4 -25    0.77    5.15   0
   0   5  25    0.94    6.60   0
   0  -5 -25   -1.56    3.72   0
   0  -5 -25    1.29    6.53   0
  -1  -5 -25    0.55    3.59   0
  -1  -5 -25    4.23    5.01   0
   1   5  25   -2.97    5.27   0
   2   5  25   -1.53    3.90   0
  -2  -5 -25    1.11    5.34   0
  -1  -4  26    4.89    5.51   0
  -1  -4  26    5.11    5.42   0
  -1  -4  26   -1.69    5.61   0
   0  -4  26    2.11    5.45   0
   0  -4  26    5.42    5.17   0
   0  -4  26    3.50    3.62   0
   1  -4  26   -0.53    6.83   0
   1  -4  26    2.37    3.89   0
   1  -4  26    7.77    3.82   0
  -2  -3  26    3.66    3.66   0
  -2  -3  26    6.83    5.29   0
  -2  -3  26    4.78    5.49   0
  -1  -3  26    5.52    5.25   0
  -1  -3  26    7.11    5.04   0
  -1  -3  26    5.72    3.78   0
   0  -3  26    6.55    4.98   0
   0  -3  26    5.43    3.50   0
   0  -3  26    4.15    3.53   0
   1  -3  26   -0.06    4.92   0
   1  -3  26    0.93    3.41   0
   2  -3  26   -0.92    3.70   0
   2  -3  26    3.01    5.32   0
  -3  -2  26   -0.19    6.97   0
  -3  -2  26    0.56    5.24   0
  -3  -2  26    1.07    8.04   0
  -2  -2  26    1.28    3.37   0
  -2  -2  26    2.87    4.87   0
  -2  -2  26   -1.50    6.36   0
  -1  -2  26    1.08    4.84   0
  -1  -2  26   -0.04    4.70   0
  -1  -2  26    2.73    4.73   0
   0  -2  26    1.31    4.79   0
   0  -2  26    4.49    4.74   0
   0  -2  26   -0.43    4.73   0
   1  -2  26    3.07    4.57   0
   1  -2  26    4.50    4.70   0
   2  -2  26    0.80    4.77   0
   2  -2  26    2.10    3.48   0
  -3  -1  26    1.48    5.17   0
  -2  -1  26    3.76    4.77   0
  -2  -1  26    3.55    6.25   0
  -2  -1  26    3.48    6.96   0
  -1  -1  26    0.64    4.64   0
  -1  -1  26    2.51    4.63   0
  -1  -1  26    0.52    4.60   0
   0  -1  26   20.13    3.33   0
   0  -1  26   19.77    4.91   0
   1  -1  26    2.62    4.56   0
   1  -1  26    4.50    4.38   0
   2  -1  26    3.41    4.66   0
   2  -1  26   -1.03    3.43   0
   3  -1  26    6.31    5.24   0
   3  -1  26    2.77    3.64   0
   3   0 -26    4.76    3.71   0
   2   0 -26    1.19    4.89   0
   1   0 -26    4.58    3.16   0
  -1   0  26    4.65    4.60   0
  -1   0  26    2.05    5.48   0
   0   0 -26   26.99    4.94   0
   0   0  26   22.63    4.68   0
   0   0  26   25.67    4.71   0
  -1   0 -26    1.93    4.67   0
   1   0  26    0.50    4.65   0
   1   0  26    2.75    3.17   0
   2   0  26    4.15    4.35   0
   2   0  26   -2.13    4.33   0
   3   0  26   -0.15    4.77   0
   3   0  26    4.78    5.00   0
   2  -1 -26    3.80    3.52   0
   1  -1 -26    4.04    3.32   0
  -1   1  26    1.34    6.70   0
  -1   1  26   -0.35    6.76   0
   0   1  26    0.59    4.71   0
   0   1  26    1.89    4.45   0
   0  -1 -26   -1.45    4.64   0
   1   1  26    0.84    4.42   0
  -1  -1 -26    2.83    4.42   0
   1   1  26    1.61    4.46   0
   2   1  26    4.02    4.66   0
  -2  -1 -26    5.47    4.79   0
   3   1  26    5.31    4.94   0
  -3  -1 -26    4.90    3.52   0
   2  -2 -26    2.07    5.06   0
   1  -2 -26    0.60    3.42   0
   0   2  26    2.97    4.64   0
   0  -2 -26    6.05    4.70   0
   0   2  26    2.82    4.57   0
   1   2  26    3.68    4.63   0
  -1  -2 -26    0.39    3.17   0
  -1  -2 -26    3.94    4.60   0
   2   2  26    3.92    4.66   0
  -2  -2 -26    4.66    4.94   0
  -2  -2 -26    1.39    3.39   0
   3   2  26   -3.92    4.89   0
  -3  -2 -26    0.48    6.31   0
  -3  -2 -26   -2.27    4.90   0
   2  -3 -26    2.22    5.14   0
   1  -3 -26    6.87    4.89   0
   0  -3 -26   -1.11    4.65   0
   0   3  26    2.04    6.13   0
   1   3  26    0.11    4.99   0
  -1  -3 -26    5.61    4.77   0
  -1  -3 -26    3.86    4.90   0
   2   3  26    6.05    4.92   0
  -2  -3 -26    2.28    5.05   0
  -2  -3 -26    2.59    3.41   0
   3   3  26    1.72    3.70   0
  -3  -3 -26    2.14    5.24   0
  -3  -3 -26   -1.13    3.62   0
   1  -4 -26    0.90    5.10   0
   0  -4 -26    0.80    4.91   0
   0  -4 -26    1.01    5.29   0
   0   4  26    2.52    5.37   0
  -1  -4 -26   -1.31    3.46   0
   1   4  26   -3.64    5.14   0
  -1  -4 -26    2.14    3.54   0
   2   4  26    0.90    3.82   0
  -2  -4 -26    1.61    3.56   0
  -2  -4 -26    1.31    5.02   0
   3   4  26    1.82    5.50   0
  -3  -4 -26    0.97    5.53   0
  -3  -4 -26   -0.11    3.87   0
   0   5  26    3.72    5.60   0
   0  -5 -26   -0.23    3.95   0
   0  -5 -26    1.84    6.68   0
  -1  -5 -26    4.20    5.08   0
  -1  -5 -26   -0.04    5.33   0
   1   5  26   -0.32    5.55   0
  -2  -5 -26    1.50    3.87   0
  -1  -4  27    1.23    4.08   0
  -1  -4  27    3.74    5.58   0
   0  -4  27    1.32    5.62   0
   0  -4  27   -1.75    5.36   0
   0  -4  27    4.39    5.39   0
  -2  -3  27    2.42    3.66   0
  -2  -3  27    4.30    5.58   0
  -2  -3  27    8.85    5.55   0
  -1  -3  27    4.95    3.59   0
  -1  -3  27    1.47    5.30   0
  -1  -3  27    2.46    5.10   0
   0  -3  27    1.82    4.98   0
   0  -3  27    0.11    5.15   0
   0  -3  27    3.50    5.06   0
   1  -3  27    1.77    5.18   0
   1  -3  27    5.27    5.14   0
  -2  -2  27    2.97    3.48   0
  -2  -2  27    1.80    5.39   0
  -2  -2  27    0.11    5.55   0
  -1  -2  27   -0.91    3.33   0
  -1  -2  27    0.23    3.33   0
  -1  -2  27   -0.07    4.83   0
   0  -2  27    4.75    5.05   0
   0  -2  27    4.73    5.10   0
   0  -2  27    3.20    5.06   0
   1  -2  27   -0.34    3.25   0
   1  -2  27    1.46    4.67   0
   2  -2  27    1.26    3.51   0
   2  -2  27    5.10    5.10   0
  -2  -1  27   -2.53    4.96   0
  -2  -1  27   -1.15    6.44   0
  -2  -1  27    1.14    6.17   0
  -1  -1  27    1.71    4.83   0
  -1  -1  27   -2.16    4.85   0
  -1  -1  27    1.15    6.01   0
   0  -1  27   16.91    5.14   0
   0  -1  27   16.08    5.22   0
   1  -1  27    2.79    4.46   0
   1  -1  27    3.70    4.74   0
   2  -1  27   -2.07    4.74   0
   2  -1  27    1.23    4.82   0
   3  -1  27    1.52    5.14   0
   3  -1  27    0.54    5.32   0
   2   0 -27    5.45    4.66   0
   1   0 -27    1.61    4.44   0
  -1   0  27    2.03    4.81   0
  -1   0  27   -0.03    5.95   0
   0   0 -27   17.11    5.01   0
   0   0  27   13.28    4.68   0
   0   0  27   13.43    4.82   0
  -1   0 -27   -0.14    4.58   0
   1   0  27    0.88    4.52   0
   1   0  27   -0.80    4.62   0
   2   0  27    1.27    4.31   0
   2   0  27    1.19    3.38   0
   3   0  27    6.22    4.98   0
   3   0  27    3.70    3.47   0
   2  -1 -27    3.39    4.94   0
   1  -1 -27    4.42    3.39   0
  -1   1  27    0.59    6.94   0
  -1   1  27    0.12    6.91   0
   0   1  27    5.57    4.67   0
   0  -1 -27    9.01    4.73   0
   0   1  27    4.21    4.56   0
   1   1  27    1.11    4.64   0
  -1  -1 -27    3.42    4.68   0
   1   1  27    3.32    4.52   0
   2   1  27   -0.08    3.32   0
  -2  -1 -27    4.12    6.15   0
   3   1  27    1.08    3.62   0
   2  -2 -27   13.96    5.04   0
   1  -2 -27    0.80    3.26   0
   0   2  27    3.53    4.73   0
   0  -2 -27    1.30    4.68   0
   0   2  27    3.90    5.92   0
   1   2  27   -1.86    5.14   0
  -1  -2 -27    4.29    5.09   0
   2   2  27    4.38    4.66   0
  -2  -2 -27    1.61    4.95   0
  -2  -2 -27    1.21    3.36   0
   3   2  27    3.34    4.90   0
  -3  -2 -27    0.63    6.50   0
  -3  -2 -27   -0.42    4.93   0
   1  -3 -27    1.49    5.17   0
   0  -3 -27    2.49    3.43   0
   0   3  27   -0.33    4.97   0
   1   3  27   -1.99    5.05   0
  -1  -3 -27   -1.86    3.49   0
  -1  -3 -27    0.37    5.03   0
   2   3  27   -1.83    3.57   0
  -2  -3 -27    1.94    5.12   0
  -2  -3 -27    0.50    5.01   0
   3   3  27   -1.70    5.46   0
  -3  -3 -27    2.62    5.39   0
  -3  -3 -27   -0.09    3.81   0
   0  -4 -27   -3.49    5.08   0
   0  -4 -27   -0.44    6.43   0
   0   4  27    1.62    6.76   0
  -1  -4 -27    0.56    5.10   0
   1   4  27    5.75    5.27   0
  -1  -4 -27    0.39    5.15   0
   2   4  27    2.53    3.77   0
  -2  -4 -27    2.51    5.21   0
  -2  -4 -27   -1.66    5.37   0
  -1  -3  28    0.64    5.54   0
  -1  -3  28   -0.24    5.43   0
  -1  -3  28    0.34    3.94   0
   0  -3  28    0.71    5.09   0
   0  -3  28    5.00    5.22   0
   0  -3  28    1.68    5.41   0
   1  -3  28    2.95    5.10   0
   1  -3  28    3.34    3.78   0
  -2  -2  28    0.11    3.58   0
  -2  -2  28    2.27    5.43   0
  -2  -2  28   -3.52    5.69   0
  -1  -2  28    2.61    5.18   0
  -1  -2  28    2.13    5.18   0
  -1  -2  28    2.09    5.10   0
   0  -2  28    4.07    3.65   0
   0  -2  28    6.23    5.04   0
   0  -2  28    4.85    5.02   0
   1  -2  28   -2.08    4.88   0
   1  -2  28    2.84    4.90   0
   2  -2  28    4.13    5.07   0
   2  -2  28    3.00    5.37   0
  -2  -1  28   -0.34    3.62   0
  -2  -1  28    1.98    7.68   0
  -2  -1  28    3.15    7.28   0
  -1  -1  28    0.56    6.18   0
  -1  -1  28    0.89    5.01   0
   0  -1  28    5.00    3.30   0
   0  -1  28    6.49    5.03   0
   1  -1  28    2.18    3.48   0
   1  -1  28   -1.26    5.02   0
   2  -1  28    1.45    3.49   0
   2  -1  28    5.57    5.01   0
   2   0 -28    5.97    5.05   0
  -1   0  28    5.85    6.09   0
   1   0 -28    5.67    4.79   0
  -1   0  28    4.39    6.11   0
   0   0 -28    2.23    4.94   0
   0   0  28    1.74    4.75   0
   0   0  28    5.50    4.83   0
  -1   0 -28    6.19    4.98   0
   1   0  28    5.33    4.78   0
   1   0  28    7.48    5.25   0
   2   0  28    2.59    4.86   0
   2   0  28   -1.59    3.42   0
   3   0  28   -2.02    5.25   0
   3   0  28    2.54    5.38   0
   2  -1 -28   -2.47    3.68   0
   1  -1 -28    5.05    4.70   0
  -1   1  28    1.20    8.05   0
  -1   1  28    2.36    7.17   0
   0   1  28    7.75    4.77   0
   0  -1 -28    9.74    4.92   0
   0   1  28    6.26    4.83   0
   1   1  28    7.77    3.56   0
  -1  -1 -28    7.40    4.80   0
   1   1  28   12.50    4.66   0
   2   1  28    2.27    4.61   0
  -2  -1 -28   -0.22    5.06   0
   2   1  28    3.29    4.85   0
   3   1  28    1.36    5.12   0
   2  -2 -28    1.11    3.81   0
   1  -2 -28   -0.05    3.50   0
   0  -2 -28    1.59    4.50   0
   0   2  28    2.80    4.94   0
   0   2  28   -1.54    4.84   0
   1   2  28    1.81    5.01   0
  -1  -2 -28   -0.11    4.88   0
   2   2  28   -1.68    3.45   0
  -2  -2 -28    1.31    5.04   0
  -2  -2 -28   -1.61    4.98   0
   3   2  28    2.78    5.08   0
  -3  -2 -28    2.39    5.64   0
  -3  -2 -28    2.26    5.36   0
   1  -3 -28    0.95    3.83   0
   0  -3 -28    6.81    3.62   0
   0   3  28    1.33    6.10   0
   0   3  28    0.68    5.07   0
  -1  -3 -28    6.32    5.09   0
   1   3  28    1.10    5.15   0
  -1  -3 -28    2.39    5.11   0
   2   3  28    6.48    5.16   0
  -2  -3 -28    0.38    5.33   0
  -2  -3 -28    0.59    5.37   0
   0  -4 -28   -1.13    5.26   0
   0  -4 -28   -0.30    6.68   0
   0   4  28    0.59    5.43   0
  -1  -4 -28    5.13    5.32   0
   1   4  28    3.19    5.24   0
  -1  -4 -28    4.65    5.30   0
  -2  -4 -28    0.79    5.39   0
   2   4  28    3.18    5.63   0
  -2  -4 -28    0.49    5.50   0
  -1  -3  29    2.43    5.48   0
  -1  -3  29    2.78    5.67   0
   0  -3  29    1.98    5.56   0
   0  -3  29    5.65    5.27   0
   0  -3  29    2.97    5.23   0
  -1  -2  29    7.30    5.32   0
  -1  -2  29    0.52    5.39   0
  -1  -2  29    4.45    5.19   0
   0  -2  29   -0.89    3.82   0
   0  -2  29    2.74    5.35   0
   1  -2  29    1.46    5.04   0
   1  -2  29    3.55    5.10   0
  -2  -1  29    4.54    3.83   0
  -2  -1  29    1.31    8.05   0
  -2  -1  29    0.81    7.78   0
  -1  -1  29    1.46    5.23   0
  -1  -1  29    2.00    4.96   0
   0  -1  29    7.61    5.04   0
   0  -1  29    7.48    5.11   0
   1  -1  29    3.75    3.72   0
   1  -1  29    3.18    3.55   0
   2  -1  29    5.88    5.00   0
   2  -1  29    0.20    3.68   0
   2   0 -29   -2.96    5.38   0
  -1   0  29    0.89    5.16   0
   1   0 -29    3.55    3.44   0
  -1   0  29   -0.88    6.39   0
   0   0 -29    2.96    3.60   0
   0   0  29    4.55    4.98   0
   0   0  29    3.31    4.94   0
   1   0  29   -0.79    4.88   0
  -1   0 -29   -1.22    5.02   0
   1   0  29    2.94    4.97   0
   2   0  29    0.99    3.51   0
   2   0  29   -2.34    3.65   0
   2  -1 -29   -0.49    5.34   0
   1  -1 -29   -1.38    4.76   0
  -1   1  29    1.40    8.10   0
  -1   1  29    1.71    8.37   0
   0   1  29   -0.40    4.88   0
   0  -1 -29    0.73    5.07   0
   0   1  29    2.18    5.90   0
   1   1  29    6.60    4.88   0
   1   1  29    0.84    5.04   0
  -1  -1 -29    7.95    5.10   0
   2   1  29    3.33    3.79   0
  -2  -1 -29    3.06    6.38   0
   2   1  29    3.42    4.81   0
   1  -2 -29   -1.27    3.59   0
   0   2  29    3.15    5.04   0
   0  -2 -29    4.88    5.03   0
   0   2  29    2.80    6.35   0
   1   2  29    3.91    4.82   0
   1   2  29    2.23    5.14   0
  -1  -2 -29    1.06    3.66   0
   2   2  29   -0.42    5.23   0
  -2  -2 -29    1.48    5.24   0
  -2  -2 -29    6.82    5.45   0
   1  -3 -29    5.18    3.78   0
   0  -3 -29    1.82    3.59   0
   0   3  29    3.01    6.38   0
   0   3  29    3.91    6.81   0
  -1  -3 -29    7.46    5.21   0
   1   3  29   -0.32    5.22   0
  -1  -3 -29    0.06    5.33   0
   2   3  29    1.55    5.55   0
  -2  -3 -29    0.31    5.53   0
  -2  -3 -29   -1.52    5.43   0
  -1  -4 -29   -0.20    5.63   0
  -1  -2  30    5.13    5.60   0
  -1  -2  30    5.51    5.49   0
  -1  -2  30    4.53    5.55   0
   0  -2  30    5.19    5.40   0
   0  -2  30    1.33    5.35   0
   1  -2  30    2.09    3.76   0
   1  -2  30    1.92    5.54   0
  -1  -1  30   -1.38    5.75   0
  -1  -1  30    0.38    5.54   0
   0  -1  30    7.46    5.06   0
   0  -1  30    6.35    5.22   0
   1  -1  30    3.17    5.00   0
   1  -1  30    0.80    3.70   0
   2  -1  30   -0.91    3.89   0
   2  -1  30    2.10    5.20   0
  -1   0  30    2.63    6.41   0
   1   0 -30    0.48    5.25   0
  -1   0  30    0.15    5.37   0
   0   0  30   -2.42    4.96   0
   0   0 -30    0.10    5.21   0
   0   0  30    3.69    4.94   0
  -1   0 -30    3.84    5.15   0
   1   0  30    1.52    5.12   0
   1   0  30   10.88    5.23   0
   2   0  30    2.67    3.56   0
   2   0  30    2.63    5.18   0
  -1   1  30    2.28    8.44   0
   1  -1 -30    6.26    5.02   0
  -1   1  30   -0.65    8.51   0
   0   1  30   -0.15    5.18   0
   0  -1 -30   -4.37    3.70   0
   0   1  30   -0.63    5.20   0
   1   1  30    5.38    5.38   0
  -1  -1 -30    3.36    5.09   0
   1   1  30    3.41    5.15   0
   2   1  30   -0.53    5.29   0
  -2  -1 -30    0.47    5.45   0
   2   1  30    4.06    4.88   0
   1  -2 -30   -0.45    5.25   0
   0   2  30    1.66    6.37   0
   0  -2 -30    0.83    5.16   0
   0   2  30    2.88    6.53   0
   1   2  30    2.98    5.33   0
  -1  -2 -30    5.17    5.30   0
   1   2  30   -3.05    5.24   0
   2   2  30   -0.22    3.82   0
  -2  -2 -30    4.02    5.36   0
   0  -3 -30   -0.86    5.54   0
   0   3  30    3.79    6.56   0
   0   3  30    1.13    5.49   0
  -1  -3 -30    1.38    3.67   0
   1   3  30    4.95    5.35   0
  -1  -1  31    1.93    5.67   0
  -1  -1  31    0.78    5.63   0
   0  -1  31   -0.99    3.74   0
   0  -1  31    1.75    5.30   0
   1  -1  31   -0.16    5.40   0
   1  -1  31    2.09    3.83   0
  -1   0  31    1.26    6.56   0
   1   0 -31    2.38    5.34   0
  -1   0  31    0.05    6.75   0
   0   0  31   -0.47    5.05   0
   0   0 -31   -0.30    5.41   0
   0   0  31    1.51    5.18   0
   1   0  31    0.17    5.14   0
   1   0  31   -1.86    3.78   0
  -1   1  31   -0.31   10.61   0
   1  -1 -31    2.33    3.62   0
  -1   1  31    0.29   10.54   0
   0   1  31   -0.61    5.48   0
   0  -1 -31    1.70    3.71   0
   0   1  31    2.06    6.59   0
   1   1  31    1.99    5.38   0
  -1  -1 -31    4.00    5.28   0
   1   1  31    1.51    5.20   0
   2   1  31   -2.26    3.90   0
  -2  -1 -31    0.79    6.94   0
   2   1  31    1.46    5.31   0
   0  -2 -31    1.64    5.31   0
   0   2  31   -0.70    5.56   0
   0   2  31    6.97    6.58   0
   1   2  31    2.20    5.34   0
  -1  -2 -31   -0.43    5.56   0
   1   2  31    0.39    5.20   0
   0   0 -32    1.87    5.52   0
   0   0  32    0.72    5.46   0
   0   0  32   -0.75    5.59   0
   1   0  32    5.84    5.48   0
   0   1  32   -0.02    5.44   0
   0  -1 -32    2.27    3.84   0
   0   1  32   -0.07    5.42   0
   1   1  32    3.77    5.63   0
   1   1  32    5.79    5.51   0
  -1  -1 -32    5.61    5.63   0
;
_shelx_hkl_checksum              39411
_shelx_res_file
;
TITL seh25
    shelx.res
    created by SHELXL-2016/6 at 12:30:13 on 27-Nov-2017
CELL  0.71073   4.5971   6.4372  25.2373   86.984   86.173   78.096
ZERR     2.00   0.0004   0.0007   0.0022    0.008    0.007    0.008
LATT   1
SFAC  C    H    CL   F    N    O
UNIT  30 22 2 6 2 4
MERG   2
OMIT    -4.00  50.00
SADI 0.005 C1 F1A C1 F1B
SADI 0.005 C1 F2A C1 F2B
SADI 0.005 C1 F3A C1 F3B
SADI 0.005 O1 F1A O1 F1B
SADI 0.005 O1 F2A O1 F2B
SADI 0.004 O1 F3A O1 F3B
SIMU 0.005 C1 F1A F1B F2A F2B F3A F3B
DELU 0.005 C1 F1A F1B F2A F2B F3A F3B
FMAP   2
PLAN    5
ACTA
BOND   $H
CONF
WPDB   2
L.S.  20
WGHT    0.098000
FVAR       0.76841   0.37426
C1    1    1.200972    0.756882    0.558529    11.00000    0.10791    0.18004 =
         0.11090    0.03892   -0.00885   -0.07001
C2    1    1.211448    0.535649    0.634696    11.00000    0.05944    0.08288 =
         0.06862   -0.00318   -0.00463   -0.02052
C3    1    0.993107    0.602722    0.672719    11.00000    0.06230    0.06890 =
         0.07576   -0.00245   -0.00774   -0.01130
AFIX  43
H3    2    0.914764    0.747080    0.675766    11.00000   -1.20000
AFIX   0
C4    1    0.886491    0.454698    0.707209    11.00000    0.05797    0.05543 =
         0.06422   -0.00290   -0.00946   -0.00781
C5    1    1.012825    0.238450    0.702627    11.00000    0.06781    0.05704 =
         0.07484   -0.00319   -0.00733   -0.00449
C6    1    1.239966    0.177292    0.664398    11.00000    0.08272    0.07031 =
         0.09589   -0.01305    0.00078   -0.00309
AFIX  43
H6    2    1.327412    0.034117    0.661899    11.00000   -1.20000
AFIX   0
C7    1    1.338728    0.323325    0.630146    11.00000    0.06772    0.08340 =
         0.08386   -0.01382    0.00264   -0.00661
AFIX  43
H7    2    1.489359    0.279952    0.604209    11.00000   -1.20000
AFIX   0
C8    1    0.650657    0.528441    0.746759    11.00000    0.06005    0.05716 =
         0.07424   -0.00589   -0.00761   -0.00396
AFIX  43
H8    2    0.577359    0.673819    0.748866    11.00000   -1.20000
AFIX   0
C9    1    0.305471    0.480800    0.817021    11.00000    0.05624    0.06575 =
         0.06120   -0.00060   -0.00972   -0.01175
C10   1    0.148022    0.689207    0.817889    11.00000    0.07402    0.06262 =
         0.07029    0.00327   -0.00263   -0.00626
AFIX  43
H10   2    0.190670    0.788803    0.792070    11.00000   -1.20000
AFIX   0
C11   1   -0.070353    0.747335    0.856953    11.00000    0.06561    0.06525 =
         0.08352   -0.00580   -0.00305    0.00205
AFIX  43
H11   2   -0.171975    0.888128    0.856866    11.00000   -1.20000
AFIX   0
C12   1   -0.148812    0.609260    0.896514    11.00000    0.06393    0.07193 =
         0.06381   -0.01062   -0.01182   -0.01426
C13   1    0.006696    0.400468    0.894107    11.00000    0.06610    0.07012 =
         0.06419   -0.00042   -0.00758   -0.01891
C14   1    0.228804    0.336804    0.854881    11.00000    0.06240    0.05778 =
         0.07671    0.00031   -0.00974   -0.00629
AFIX  43
H14   2    0.326900    0.195268    0.854176    11.00000   -1.20000
AFIX   0
C15   1   -0.389062    0.681651    0.939098    11.00000    0.07701    0.09162 =
         0.08101   -0.01643    0.00231   -0.01295
AFIX 137
H15A  2   -0.467896    0.830850    0.933691    11.00000   -1.50000
H15B  2   -0.306594    0.655789    0.973358    11.00000   -1.50000
H15C  2   -0.545647    0.604398    0.937355    11.00000   -1.50000
AFIX   0
CL1   3   -0.074619    0.211599    0.941379    11.00000    0.10268    0.08694 =
         0.09123    0.00853    0.01239   -0.02526
PART    1
F1A   4    1.229143    0.621392    0.521515    21.00000    0.15454    0.21711 =
         0.09707    0.01892   -0.01741   -0.08209
F2A   4    1.287036    0.918301    0.537733    21.00000    0.11347    0.17748 =
         0.13365    0.06172   -0.00200   -0.05336
F3A   4    0.889299    0.837265    0.574211    21.00000    0.10423    0.18861 =
         0.14540    0.06430   -0.01854   -0.05447
PART    2
F1B   4    1.035575    0.653863    0.537287   -21.00000    0.13411    0.20308 =
         0.09567    0.02290   -0.02443   -0.07529
F2B   4    1.334880    0.876249    0.529685   -21.00000    0.12520    0.20438 =
         0.12772    0.07171    0.00263   -0.06541
F3B   4    0.936006    0.912331    0.575886   -21.00000    0.11562    0.17139 =
         0.14449    0.04970   -0.01746   -0.05036
PART    0
N1    5    0.539001    0.402365    0.778872    11.00000    0.06144    0.06467 =
         0.06490    0.00295   -0.00833   -0.00952
O1    6    1.328496    0.685512    0.601856    11.00000    0.07002    0.10366 =
         0.08388    0.01402   -0.00233   -0.02269
O2    6    0.918362    0.090827    0.735347    11.00000    0.10010    0.05995 =
         0.09787    0.00853    0.01118    0.00050
AFIX  83
H2    2    0.783064    0.149011    0.755697    11.00000   -1.50000
AFIX   0
HKLF 4
REM  seh25
REM R1 =  0.0605 for    1173 Fo > 4sig(Fo)  and  0.1316 for all    2581 data
REM    228 parameters refined using     96 restraints
END
WGHT      0.0980      0.0000
REM Highest difference peak  0.440,  deepest hole -0.286,  1-sigma level  0.050
Q1    1   1.4386  0.5645  0.5249  11.00000  0.05    0.44
Q2    1   0.9982  0.7172  0.5181  11.00000  0.05    0.16
Q3    1  -0.0660  0.3215  0.9017  11.00000  0.05    0.14
Q4    1   0.8386  0.5194  0.6782  11.00000  0.05    0.14
Q5    1   0.9147  0.3487  0.6949  11.00000  0.05    0.14
;
_shelx_res_checksum              60292
loop_
_space_group_symop_operation_xyz
'x, y, z'
'-x, -y, -z'
loop_
_atom_site_type_symbol
_atom_site_label
_atom_site_fract_x
_atom_site_fract_y
_atom_site_fract_z
_atom_site_U_iso_or_equiv
_atom_site_adp_type
_atom_site_calc_flag
_atom_site_occupancy
_atom_site_disorder_assembly
_atom_site_disorder_group
C C1 1.2010(15) 0.7569(14) 0.5585(3) 0.1286(17) Uani d 1 . .
C C2 1.2114(9) 0.5356(8) 0.63470(17) 0.0694(12) Uani d 1 . .
C C3 0.9931(9) 0.6027(7) 0.67272(17) 0.0691(11) Uani d 1 . .
H H3 0.914764 0.747080 0.675766 0.083 Uiso calc 1 . .
C C4 0.8865(8) 0.4547(6) 0.70721(15) 0.0595(10) Uani d 1 . .
C C5 1.0128(9) 0.2385(7) 0.70263(17) 0.0676(11) Uani d 1 . .
C C6 1.2400(11) 0.1773(8) 0.6644(2) 0.0847(13) Uani d 1 . .
H H6 1.327412 0.034117 0.661899 0.102 Uiso calc 1 . .
C C7 1.3387(10) 0.3233(8) 0.63015(19) 0.0795(13) Uani d 1 . .
H H7 1.489359 0.279952 0.604209 0.095 Uiso calc 1 . .
C C8 0.6507(9) 0.5284(7) 0.74676(16) 0.0647(11) Uani d 1 . .
H H8 0.577359 0.673819 0.748866 0.078 Uiso calc 1 . .
C C9 0.3055(8) 0.4808(7) 0.81702(15) 0.0609(10) Uani d 1 . .
C C10 0.1480(9) 0.6892(7) 0.81789(17) 0.0704(12) Uani d 1 . .
H H10 0.190670 0.788803 0.792070 0.084 Uiso calc 1 . .
C C11 -0.0704(9) 0.7473(7) 0.85695(18) 0.0736(12) Uani d 1 . .
H H11 -0.171975 0.888128 0.856866 0.088 Uiso calc 1 . .
C C12 -0.1488(9) 0.6093(7) 0.89651(16) 0.0658(11) Uani d 1 . .
C C13 0.0067(9) 0.4005(7) 0.89411(16) 0.0660(11) Uani d 1 . .
C C14 0.2288(9) 0.3368(7) 0.85488(17) 0.0663(11) Uani d 1 . .
H H14 0.326900 0.195268 0.854176 0.080 Uiso calc 1 . .
C C15 -0.3891(10) 0.6817(8) 0.93910(18) 0.0837(13) Uani d 1 . .
H H15A -0.467896 0.830850 0.933691 0.125 Uiso calc 1 . .
H H15B -0.306594 0.655789 0.973358 0.125 Uiso calc 1 . .
H H15C -0.545647 0.604398 0.937355 0.125 Uiso calc 1 . .
Cl Cl1 -0.0746(3) 0.2116(2) 0.94138(5) 0.0940(5) Uani d 1 . .
F F1A 1.229(3) 0.6214(16) 0.5215(3) 0.150(3) Uani d 0.374(11) A 1
F F2A 1.287(4) 0.918(3) 0.5377(6) 0.141(3) Uani d 0.374(11) A 1
F F3A 0.8893(14) 0.837(3) 0.5742(4) 0.145(3) Uani d 0.374(11) A 1
F F1B 1.036(2) 0.6539(13) 0.5373(3) 0.139(2) Uani d 0.626(11) A 2
F F2B 1.335(2) 0.8762(19) 0.5297(4) 0.151(3) Uani d 0.626(11) A 2
F F3B 0.9360(13) 0.9123(13) 0.5759(2) 0.142(2) Uani d 0.626(11) A 2
N N1 0.5390(7) 0.4024(5) 0.77887(13) 0.0641(9) Uani d 1 . .
O O1 1.3285(6) 0.6855(5) 0.60186(13) 0.0859(10) Uani d 1 . .
O O2 0.9184(7) 0.0908(5) 0.73535(13) 0.0896(10) Uani d 1 . .
H H2 0.783064 0.149011 0.755697 0.134 Uiso calc 1 . .
loop_
_atom_site_aniso_label
_atom_site_aniso_U_11
_atom_site_aniso_U_22
_atom_site_aniso_U_33
_atom_site_aniso_U_12
_atom_site_aniso_U_13
_atom_site_aniso_U_23
C1 0.108(3) 0.180(4) 0.111(4) -0.070(3) -0.009(3) 0.039(3)
C2 0.059(3) 0.083(3) 0.069(3) -0.021(2) -0.005(2) -0.003(2)
C3 0.062(3) 0.069(3) 0.076(3) -0.011(2) -0.008(2) -0.002(2)
C4 0.058(2) 0.055(2) 0.064(2) -0.008(2) -0.009(2) -0.003(2)
C5 0.068(3) 0.057(3) 0.075(3) -0.004(2) -0.007(2) -0.003(2)
C6 0.083(3) 0.070(3) 0.096(3) -0.003(3) 0.001(3) -0.013(3)
C7 0.068(3) 0.083(4) 0.084(3) -0.007(3) 0.003(2) -0.014(3)
C8 0.060(2) 0.057(3) 0.074(3) -0.004(2) -0.008(2) -0.006(2)
C9 0.056(2) 0.066(3) 0.061(2) -0.012(2) -0.010(2) -0.001(2)
C10 0.074(3) 0.063(3) 0.070(3) -0.006(2) -0.003(2) 0.003(2)
C11 0.066(3) 0.065(3) 0.084(3) 0.002(2) -0.003(2) -0.006(2)
C12 0.064(3) 0.072(3) 0.064(3) -0.014(2) -0.012(2) -0.011(2)
C13 0.066(3) 0.070(3) 0.064(3) -0.019(2) -0.008(2) 0.000(2)
C14 0.062(3) 0.058(3) 0.077(3) -0.006(2) -0.010(2) 0.000(2)
C15 0.077(3) 0.092(3) 0.081(3) -0.013(3) 0.002(3) -0.016(3)
Cl1 0.1027(9) 0.0869(9) 0.0912(9) -0.0253(7) 0.0124(7) 0.0085(7)
F1A 0.155(6) 0.217(5) 0.097(5) -0.082(5) -0.017(4) 0.019(4)
F2A 0.113(5) 0.177(5) 0.134(5) -0.053(5) -0.002(5) 0.062(4)
F3A 0.104(4) 0.189(7) 0.145(5) -0.054(4) -0.019(4) 0.064(5)
F1B 0.134(4) 0.203(5) 0.096(4) -0.075(3) -0.024(3) 0.023(3)
F2B 0.125(4) 0.204(5) 0.128(4) -0.065(4) 0.003(3) 0.072(4)
F3B 0.116(3) 0.171(5) 0.144(4) -0.050(3) -0.017(3) 0.050(3)
N1 0.061(2) 0.065(2) 0.065(2) -0.0095(17) -0.0083(17) 0.0029(17)
O1 0.0700(19) 0.104(3) 0.084(2) -0.0227(18) -0.0023(16) 0.0140(19)
O2 0.100(2) 0.0600(19) 0.098(2) 0.0005(17) 0.0112(19) 0.0085(17)
loop_
_atom_type_symbol
_atom_type_description
_atom_type_scat_dispersion_real
_atom_type_scat_dispersion_imag
_atom_type_scat_source
C C 0.0033 0.0016 'International Tables Vol C Tables 4.2.6.8 and 6.1.1.4'
H H 0.0000 0.0000 'International Tables Vol C Tables 4.2.6.8 and 6.1.1.4'
Cl Cl 0.1484 0.1585 'International Tables Vol C Tables 4.2.6.8 and 6.1.1.4'
F F 0.0171 0.0103 'International Tables Vol C Tables 4.2.6.8 and 6.1.1.4'
N N 0.0061 0.0033 'International Tables Vol C Tables 4.2.6.8 and 6.1.1.4'
O O 0.0106 0.0060 'International Tables Vol C Tables 4.2.6.8 and 6.1.1.4'
loop_
_geom_angle_atom_site_label_1
_geom_angle_atom_site_label_2
_geom_angle_atom_site_label_3
_geom_angle
F2B C1 F1B 119.1(8)
F2B C1 O1 114.6(6)
F2A C1 O1 113.5(7)
F1B C1 O1 120.7(7)
F2A C1 F1A 106.5(12)
O1 C1 F1A 115.4(7)
F2A C1 F3A 103.6(12)
O1 C1 F3A 105.9(6)
F1A C1 F3A 111.4(10)
F2B C1 F3B 99.7(9)
F1B C1 F3B 89.5(6)
O1 C1 F3B 104.8(6)
C3 C2 C7 121.5(4)
C3 C2 O1 119.8(4)
C7 C2 O1 118.5(4)
C2 C3 C4 120.0(4)
C2 C3 H3 120.0
C4 C3 H3 120.0
C3 C4 C5 118.9(4)
C3 C4 C8 119.3(4)
C5 C4 C8 121.8(4)
O2 C5 C6 119.9(4)
O2 C5 C4 120.8(4)
C6 C5 C4 119.3(4)
C7 C6 C5 121.3(5)
C7 C6 H6 119.3
C5 C6 H6 119.3
C6 C7 C2 119.0(5)
C6 C7 H7 120.5
C2 C7 H7 120.5
N1 C8 C4 122.7(4)
N1 C8 H8 118.6
C4 C8 H8 118.6
C14 C9 C10 118.4(4)
C14 C9 N1 116.9(4)
C10 C9 N1 124.7(4)
C11 C10 C9 119.6(4)
C11 C10 H10 120.2
C9 C10 H10 120.2
C10 C11 C12 123.9(4)
C10 C11 H11 118.1
C12 C11 H11 118.1
C11 C12 C13 115.5(4)
C11 C12 C15 121.9(4)
C13 C12 C15 122.6(4)
C14 C13 C12 121.9(4)
C14 C13 Cl1 118.4(3)
C12 C13 Cl1 119.8(3)
C9 C14 C13 120.7(4)
C9 C14 H14 119.6
C13 C14 H14 119.6
C12 C15 H15A 109.5
C12 C15 H15B 109.5
H15A C15 H15B 109.5
C12 C15 H15C 109.5
H15A C15 H15C 109.5
H15B C15 H15C 109.5
C8 N1 C9 121.1(4)
C1 O1 C2 119.2(4)
C5 O2 H2 109.5
loop_
_geom_bond_atom_site_label_1
_geom_bond_atom_site_label_2
_geom_bond_distance
C1 F2B 1.255(7)
C1 F2A 1.263(7)
C1 F1B 1.267(8)
C1 O1 1.293(7)
C1 F1A 1.293(8)
C1 F3A 1.455(9)
C1 F3B 1.466(8)
C2 C3 1.360(6)
C2 C7 1.379(6)
C2 O1 1.406(5)
C3 C4 1.398(5)
C3 H3 0.9300
C4 C5 1.401(6)
C4 C8 1.446(5)
C5 O2 1.347(5)
C5 C6 1.383(6)
C6 C7 1.369(6)
C6 H6 0.9300
C7 H7 0.9300
C8 N1 1.275(5)
C8 H8 0.9300
C9 C14 1.376(5)
C9 C10 1.387(6)
C9 N1 1.423(5)
C10 C11 1.368(6)
C10 H10 0.9300
C11 C12 1.381(6)
C11 H11 0.9300
C12 C13 1.388(6)
C12 C15 1.508(6)
C13 C14 1.388(6)
C13 Cl1 1.737(4)
C14 H14 0.9300
C15 H15A 0.9600
C15 H15B 0.9600
C15 H15C 0.9600
O2 H2 0.8200
loop_
_geom_hbond_atom_site_label_D
_geom_hbond_atom_site_label_H
_geom_hbond_atom_site_label_A
_geom_hbond_site_symmetry_A
_geom_hbond_distance_DH
_geom_hbond_distance_HA
_geom_hbond_distance_DA
_geom_hbond_angle_DHA
O2 H2 N1 . 0.82 1.88 2.609(5) 148
C10 H10 O2 1_465 0.93 2.52 3.277(5) 139
loop_
_geom_torsion_atom_site_label_1
_geom_torsion_atom_site_label_2
_geom_torsion_atom_site_label_3
_geom_torsion_atom_site_label_4
_geom_torsion
C7 C2 C3 C4 -2.0(6)
O1 C2 C3 C4 -176.8(4)
C2 C3 C4 C5 1.5(6)
C2 C3 C4 C8 -178.9(4)
C3 C4 C5 O2 179.4(4)
C8 C4 C5 O2 -0.2(6)
C3 C4 C5 C6 0.3(6)
C8 C4 C5 C6 -179.3(4)
O2 C5 C6 C7 179.3(4)
C4 C5 C6 C7 -1.6(7)
C5 C6 C7 C2 1.1(7)
C3 C2 C7 C6 0.7(7)
O1 C2 C7 C6 175.6(4)
C3 C4 C8 N1 178.7(4)
C5 C4 C8 N1 -1.6(6)
C14 C9 C10 C11 2.1(6)
N1 C9 C10 C11 -179.2(4)
C9 C10 C11 C12 -0.4(7)
C10 C11 C12 C13 -1.1(6)
C10 C11 C12 C15 179.3(4)
C11 C12 C13 C14 0.9(6)
C15 C12 C13 C14 -179.5(4)
C11 C12 C13 Cl1 -179.4(3)
C15 C12 C13 Cl1 0.2(6)
C10 C9 C14 C13 -2.3(6)
N1 C9 C14 C13 179.0(3)
C12 C13 C14 C9 0.8(6)
Cl1 C13 C14 C9 -178.9(3)
C4 C8 N1 C9 -179.5(3)
C14 C9 N1 C8 -170.8(4)
C10 C9 N1 C8 10.6(6)
F2B C1 O1 C2 -174.4(10)
F2A C1 O1 C2 167.0(13)
F1B C1 O1 C2 -21.0(11)
F1A C1 O1 C2 -69.7(10)
F3A C1 O1 C2 54.0(11)
F3B C1 O1 C2 77.4(7)
C3 C2 O1 C1 -87.8(6)
C7 C2 O1 C1 97.2(6)

_cod_database_fobs_code 1548793
