#------------------------------------------------------------------------------
#$Date: 2017-11-18 08:27:06 +0200 (Sat, 18 Nov 2017) $
#$Revision: 203329 $
#$URL: file:///home/coder/svn-repositories/cod/cif/1/54/81/1548114.cif $
#------------------------------------------------------------------------------
#
# This file is available in the Crystallography Open Database (COD),
# http://www.crystallography.net/. The original data for this entry
# were provided by IUCr Journals, http://journals.iucr.org/.
#
# The file may be used within the scientific community so long as
# proper attribution is given to the journal article from which the
# data were obtained.
#
data_1548114
loop_
_publ_author_name
'Dakovi\'c, Marijana'
'Soldin, \<Zeljka'
'Kukovec, Boris-Marko'
'Kodrin, Ivan'
'Aaker\"oy, Christer B.'
'Baus, Nea'
'Rinkovec, Tamara'
_publ_section_title
;
 Building inorganic supramolecular architectures using principles adopted
 from the organic solid state
;
_journal_issue                   1
_journal_name_full               IUCrJ
_journal_page_first
;
;
_journal_paper_doi               10.1107/S2052252517015494
_journal_volume                  5
_journal_year                    2018
_chemical_formula_sum            'C8 H8 Cd I2 N4 O2'
_chemical_formula_weight         558.38
_space_group_crystal_system      monoclinic
_space_group_IT_number           14
_space_group_name_Hall           '-P 2ybc'
_space_group_name_H-M_alt        'P 1 21/c 1'
_symmetry_space_group_name_Hall  '-P 2ybc'
_symmetry_space_group_name_H-M   'P 1 21/c 1'
_atom_sites_solution_hydrogens   mixed
_audit_creation_method           SHELXL-2014/7
_cell_angle_alpha                90
_cell_angle_beta                 92.551(4)
_cell_angle_gamma                90
_cell_formula_units_Z            2
_cell_length_a                   4.1497(2)
_cell_length_b                   7.8783(4)
_cell_length_c                   21.0091(14)
_cell_measurement_reflns_used    1305
_cell_measurement_temperature    296(2)
_cell_measurement_theta_max      32.3520
_cell_measurement_theta_min      4.9760
_cell_volume                     686.16(7)
_computing_structure_refinement  'SHELXL-2014/7 (Sheldrick, 2014)'
_diffrn_ambient_temperature      296(2)
_diffrn_measured_fraction_theta_full 0.994
_diffrn_measured_fraction_theta_max 0.994
_diffrn_measurement_device_type
'Oxford Diffraction Xcalibur2 diffractometer with Sapphire 3 CCD detector'
_diffrn_measurement_method       \w-scan
_diffrn_radiation_type           MoK\a
_diffrn_radiation_wavelength     0.71073
_diffrn_reflns_av_R_equivalents  0.0167
_diffrn_reflns_av_unetI/netI     0.0251
_diffrn_reflns_Laue_measured_fraction_full 0.994
_diffrn_reflns_Laue_measured_fraction_max 0.994
_diffrn_reflns_limit_h_max       4
_diffrn_reflns_limit_h_min       -4
_diffrn_reflns_limit_k_max       9
_diffrn_reflns_limit_k_min       -5
_diffrn_reflns_limit_l_max       24
_diffrn_reflns_limit_l_min       -24
_diffrn_reflns_number            2305
_diffrn_reflns_point_group_measured_fraction_full 0.994
_diffrn_reflns_point_group_measured_fraction_max 0.994
_diffrn_reflns_theta_full        24.990
_diffrn_reflns_theta_max         24.990
_diffrn_reflns_theta_min         4.667
_exptl_absorpt_coefficient_mu    6.086
_exptl_absorpt_correction_T_max  1.00000
_exptl_absorpt_correction_T_min  0.45608
_exptl_absorpt_correction_type   multi-scan
_exptl_absorpt_process_details
;
CrysAlisPro, Agilent Technologies,
Version 1.171.37.33 (release 27-03-2014 CrysAlis171 .NET)
(compiled Mar 27 2014,17:12:48)
Empirical absorption correction using spherical harmonics,
 implemented in SCALE3 ABSPACK scaling algorithm.
;
_exptl_crystal_colour            colourless
_exptl_crystal_density_diffrn    2.703
_exptl_crystal_description       prism
_exptl_crystal_F_000             508
_exptl_crystal_size_max          0.60
_exptl_crystal_size_mid          0.18
_exptl_crystal_size_min          0.14
_refine_diff_density_max         0.734
_refine_diff_density_min         -0.618
_refine_diff_density_rms         0.116
_refine_ls_extinction_method     none
_refine_ls_goodness_of_fit_ref   1.187
_refine_ls_hydrogen_treatment    mixed
_refine_ls_matrix_type           full
_refine_ls_number_parameters     82
_refine_ls_number_reflns         1198
_refine_ls_number_restraints     1
_refine_ls_restrained_S_all      1.187
_refine_ls_R_factor_all          0.0275
_refine_ls_R_factor_gt           0.0254
_refine_ls_shift/su_max          0.001
_refine_ls_shift/su_mean         0.000
_refine_ls_structure_factor_coef Fsqd
_refine_ls_weighting_details
'w=1/[\s^2^(Fo^2^)+(0.0253P)^2^+0.2802P] where P=(Fo^2^+2Fc^2^)/3'
_refine_ls_weighting_scheme      calc
_refine_ls_wR_factor_gt          0.0574
_refine_ls_wR_factor_ref         0.0584
_reflns_Friedel_coverage         0.000
_reflns_number_gt                1121
_reflns_number_total             1198
_reflns_threshold_expression     'I > 2\s(I)'
_cod_data_source_file            lq5009.cif
_cod_data_source_block           3
_cod_database_code               1548114
_shelx_shelxl_version_number     2014/7
_shelx_space_group_comment
;
The symmetry employed for this shelxl refinement is uniquely defined
by the following loop, which should always be used as a source of
symmetry information in preference to the above space-group names.
They are only intended as comments.
;
_shelx_res_file
;

    shelxl.res created by SHELXL-2014/7


TITL exp_132 in P2(1)/c
CELL  0.71073   4.1497   7.8783  21.0091   90.000   92.551   90.000
ZERR     2.00   0.0002   0.0004   0.0014    0.000    0.004    0.000
LATT   1
SYMM  - X, 1/2 + Y, 1/2 - Z
SFAC  C    H    N    O    CD   I
UNIT  16   16   8    4    2    4
MERG   2
OMIT    -1.00  50.00
OMIT 1   2   1
FMAP   2
PLAN   20
ACTA
HTAB
BOND   $H
CONF
L.S.   10
DFIX 0.86 N2 H21
EQIV $1 -x, y-1/2, -z+1/2
HTAB N2 O1_$1
EQIV $2 x-1, y, z
HTAB C1 I1_$2
EQIV $3 -x+2, -y+1, -z+1
HTAB C4 I1_$3
TEMP    23.00
WGHT    0.025300    0.280200
FVAR       4.60726
CD1   5    0.500000    0.500000    0.500000    10.50000    0.02362    0.03014 =
         0.03939   -0.00131   -0.00162   -0.00162
I1    6    0.967749    0.726637    0.449731    11.00000    0.02509    0.02909 =
         0.04742    0.00707   -0.00204    0.00114
N1    3    0.447508    0.328545    0.399587    11.00000    0.03718    0.02867 =
         0.03656   -0.00245   -0.00262    0.00100
N2    3    0.250897    0.110522    0.304437    11.00000    0.05046    0.02259 =
         0.03788   -0.00402   -0.00889    0.00111
H21   2    0.169327    0.035843    0.278949    11.00000   -1.20000
O1    4   -0.018706    0.324511    0.253149    11.00000    0.12231    0.04747 =
         0.05164    0.00088   -0.04144    0.02101

C1    1    0.280018    0.381800    0.349780    11.00000    0.06292    0.02442 =
         0.03969    0.00151   -0.00344    0.00394
AFIX  43
H1    2    0.233993    0.497203    0.347309    11.00000   -1.20000
AFIX   0
C2    1    0.161117    0.276581    0.298503    11.00000    0.05785    0.03202 =
         0.03872    0.00045   -0.00810    0.00640
C3    1    0.434101    0.053872    0.354259    11.00000    0.04970    0.02279 =
         0.04262    0.00855   -0.00769    0.00566
AFIX  43
H3    2    0.494905   -0.059691    0.356228    11.00000   -1.20000
AFIX   0
C4    1    0.529958    0.160373    0.401256    11.00000    0.04622    0.03088 =
         0.04364   -0.00236   -0.01425    0.00438
AFIX  43
H4    2    0.655019    0.118995    0.435669    11.00000   -1.20000

AFIX   0
HKLF 4

REM  exp_132 in P2(1)/c
REM R1 =  0.0254 for    1121 Fo > 4sig(Fo)  and  0.0275 for all    1198 data
REM     82 parameters refined using      1 restraints

END

WGHT      0.0252      0.2893

REM Instructions for potential hydrogen bonds
HTAB N2 O1_$1
HTAB C1 I1_$2
EQIV $4 x, y-1, z
HTAB C3 I1_$4
HTAB C4 I1_$3

REM Highest difference peak  0.734,  deepest hole -0.618,  1-sigma level  0.116
Q1    1   0.4244 -0.0502  0.4002  11.00000  0.05    0.73
Q2    1   0.8843  0.6924  0.3991  11.00000  0.05    0.73
Q3    1   1.0584  0.7765  0.5060  11.00000  0.05    0.52
Q4    1   0.7821  0.1003  0.4778  11.00000  0.05    0.46
Q5    1   0.8824  0.7341  0.3644  11.00000  0.05    0.42
Q6    1   0.6551  0.3387  0.4902  11.00000  0.05    0.39
Q7    1  -0.0556  0.2565  0.1985  11.00000  0.05    0.37
Q8    1   1.1243  0.5968  0.4943  11.00000  0.05    0.36
Q9    1   0.3257  0.4087  0.4597  11.00000  0.05    0.35
Q10   1   0.9518  0.5963  0.4534  11.00000  0.05    0.34
Q11   1   0.4503  0.4799  0.4539  11.00000  0.05    0.33
Q12   1   0.3802 -0.0555  0.2995  11.00000  0.05    0.31
Q13   1   0.2156  0.1346  0.2107  11.00000  0.05    0.31
Q14   1   0.2463  0.1547  0.4317  11.00000  0.05    0.30
Q15   1   0.5105  0.5445  0.3486  11.00000  0.05    0.30
Q16   1   1.2882  0.8006  0.4714  11.00000  0.05    0.29
Q17   1   0.3503  0.6171  0.4530  11.00000  0.05    0.29
Q18   1   0.4347  0.4218  0.2709  11.00000  0.05    0.29
Q19   1   0.0507  0.2025  0.2178  11.00000  0.05    0.28
Q20   1   0.7806  0.3679  0.4224  11.00000  0.05    0.27
;
_shelx_res_checksum              54749
_shelx_hkl_file
;
   0   0   5 275.388 112.255   2
   0   0   6 1535.25 220.877   2
   0   0   7 46.5440 106.025   2
   0   0   8 29961.9 1042.46   2
   0   0   9 907.263 235.102   2
   0   0  10 71541.0 1824.63   2
   0   0  11 512.065 241.700   2
   0   0  12 15715.0 950.220   2
   0   0  13-36.6161 163.966   2
   0   0  14 3249.16 490.891   2
   0   0 -14 3031.08 370.531   3
   0   0  15 548.104 296.322   2
   0   0 -15 373.471 201.436   3
   0   0 -16 66066.8 1821.01   3
   0   0  16 65594.3 2254.70   2
   0   0  17 2602.66 549.022   2
   0   0 -17 1508.97 357.684   3
   0   0  18 94195.3 2872.34   2
   0   0 -18 98262.4 2358.26   3
   0   0 -19 5360.48 662.033   3
   0   0  19 5731.95 845.273   2
   0   0  20 210762. 4530.02   2
   0   0 -20 215029. 3723.28   3
   0   0  21 5835.55 873.026   2
   0   0 -21 5387.24 683.329   3
   0   0  22 46960.8 2280.45   2
   0   0  23 1622.63 536.674   2
   0   0  24 6799.63 951.523   2
   0   0  25 162.935 277.598   2
   0   0  26-187.689 256.145   2
   0   0  27-40.3551 319.985   2
   0   0  28 440.539 329.685   2
   0   0  29-14.2765 259.886   2
   0   0  30 369.021 370.535   2
   0  -1   4 739580. 3206.27   3
   0   1   4 708084. 4450.86   2
   0   1  -5 95901.1 1226.43   3
   0   1   5 95049.6 1717.75   2
   0  -1   5 96099.2 1501.66   2
   0   1  -6 470065. 2890.57   3
   0   1   6 464552. 4045.88   2
   0  -1   6 471024. 3600.60   2
   0   1   7 84515.3 1814.22   2
   0   1  -7 84171.5 1295.69   3
   0  -1   7 83037.5 1649.67   2
   0   1  -8 262058. 2419.49   3
   0   1   8 265396. 3432.89   2
   0  -1   8 263161. 3042.64   2
   0   1  -9 39634.8 988.197   3
   0   1   9 38206.9 1400.30   2
   0  -1   9 39469.6 1256.42   2
   0   1 -10 222.037 107.541   3
   0   1  10 283.407 193.502   2
   0   1 -11 29562.5 952.343   3
   0  -1  11 29769.1 1200.26   2
   0   1  11 30287.4 1321.26   2
   0   1 -12 125628. 2048.19   3
   0   1  12 129962. 2832.19   2
   0  -1  13 44942.1 1620.57   2
   0   1 -13 45595.8 1294.34   3
   0   1  13 46535.4 1771.12   2
   0   1  14 153427. 3310.61   2
   0   1 -14 155723. 2473.48   3
   0  -1  14 161135. 3180.07   2
   0  -1  15 24215.8 1313.92   2
   0   1  15 25633.9 1426.44   2
   0   1 -15 23176.1 1015.99   3
   0   1  16 115529. 3046.87   2
   0  -1  16 116238. 2905.50   2
   0   1 -16 115147. 2287.33   3
   0   1  17 38551.8 1859.18   2
   0   1 -17 40667.1 1420.59   3
   0  -1  17 40684.6 1808.91   2
   0   1  18 9958.85 993.226   2
   0  -1  18 10549.0 963.007   2
   0   1 -18 10053.7 748.839   3
   0  -1  19 27743.6 1581.38   2
   0   1 -19 28551.6 1281.25   3
   0   1  19 28802.1 1676.37   2
   0  -1  20 199.780 218.173   2
   0   1  20 884.710 402.149   2
   0   1 -20 680.131 270.343   3
   0  -1 -21 12424.7 1004.76   3
   0  -1  21 13240.2 1176.74   2
   0   1  21 10840.9 1113.62   2
   0  -1  22 3374.93 671.366   2
   0  -1 -22 2864.49 521.099   3
   0   1  22 2874.09 622.373   2
   0  -1  23 7842.72 993.066   2
   0   1  23 8697.99 1063.58   2
   0  -1  24 22154.9 1651.42   2
   0   1  24 21462.8 1685.68   2
   0   1  25 4779.17 857.859   2
   0  -1  25 5129.66 833.821   2
   0   1  26 10119.3 1238.23   2
   0  -1  26 10617.7 1228.30   2
   0   1  27 2133.17 644.739   2
   0  -1  27 1842.13 584.241   2
   0   1  28 3122.30 745.308   2
   0  -1  28 3662.18 820.495   2
   0   1  29 1032.14 575.210   2
   0  -1  29 654.858 315.368   2
   0  -1  30-225.729 311.978   2
   0   1  30 300.725 354.710   2
   0   2   0 269635. 2429.80   2
   0   2  -1 549.439 126.973   2
   0   2   1 1338.95 197.188   2
   0   2   2 46488.1 1145.25   2
   0   2   3 61977.2 1413.14   2
   0   2   4 2073.12 304.577   2
   0   2   5 28637.4 1116.68   2
   0   2   6 460563. 4671.86   2
   0   2   7 67239.0 1835.81   2
   0   2   8 573855. 5538.04   2
   0   2   9 7862.27 702.679   2
   0   2  10 435339. 5205.84   2
   0  -2  11 1988.92 406.274   2
   0   2  11 1449.54 416.253   2
   0   2 -11 1197.54 269.672   3
   0  -2  12 335880. 4337.03   2
   0   2 -12 335031. 3609.19   3
   0  -2  13 24661.2 1259.59   2
   0   2  13 25487.8 1416.66   2
   0   2 -13 24936.2 1029.40   3
   0   2  14 129213. 3232.59   2
   0  -2  14 131669. 2932.73   2
   0   2 -14 131795. 2409.37   3
   0   2 -15 9280.73 675.485   3
   0  -2  15 9287.43 860.746   2
   0   2  15 9187.59 937.806   2
   0   2 -16 1661.11 303.175   3
   0  -2  16 1875.41 385.779   2
   0   2  16 2051.32 467.364   2
   0   2 -17 1367.24 280.916   3
   0  -2  17 2160.15 438.594   2
   0   2  17 2105.49 479.826   2
   0  -2  18 5972.49 743.129   2
   0   2  18 5073.17 742.141   2
   0   2 -18 6071.92 596.848   3
   0   2  19 385.702 280.198   2
   0   2 -19-119.543 125.864   3
   0  -2  19 144.924 284.496   2
   0   2  20 15360.9 1324.01   2
   0  -2  20 14769.8 1210.46   2
   0   2  21 624.252 330.133   2
   0  -2  21 447.307 286.361   2
   0  -2  22 709.397 359.970   2
   0   2  22 786.780 374.029   2
   0   2  23 2971.95 638.589   2
   0  -2  23 2345.36 569.573   2
   0   2  24 404.032 336.307   2
   0  -2  24 429.433 320.259   2
   0   2  25 1128.96 452.095   2
   0   2  26 10150.8 1263.38   2
   0   2  27 1112.76 536.128   2
   0   2  28 12539.2 1474.54   2
   0   2  29 862.877 479.349   2
   0   3   0 203.853 116.035   2
   0   3   1 544.985 198.007   2
   0   3  -1 273.273 131.837   2
   0   3   2 242047. 3018.46   2
   0   3   3 50856.0 1468.57   2
   0   3   4 265200. 3495.39   2
   0   3   5 114621. 2429.83   2
   0   3   6 245311. 3677.49   2
   0   3   7 161016. 3116.03   2
   0   3   8 135644. 2978.91   2
   0   3   9 207067. 3817.01   2
   0   3  10 834.181 360.821   2
   0   3  11 177404. 3653.40   2
   0   3  12 67168.7 2321.98   2
   0   3  13 49526.9 2036.68   2
   0   3  14 93353.8 2861.69   2
   0   3  15 21385.6 1451.81   2
   0   3  16 57936.1 2421.44   2
   0   3  17 3796.78 735.970   2
   0   3  18 20955.8 1540.48   2
   0   3  19 56.5116 259.638   2
   0   3  20 1032.23 397.864   2
   0   3  21 639.512 369.705   2
   0   3  22 10694.3 1200.64   2
   0   3  23 3485.22 756.795   2
   0   3  24 9433.51 1195.26   2
   0   3  25 6253.09 997.649   2
   0   3  26 5882.38 1024.32   2
   0   3  27 5870.28 1019.82   2
   0   3  28 2178.42 661.904   2
   0   3  29 3090.39 794.265   2
   0   4   0 399207. 4188.67   2
   0   4  -1 2390.74 334.107   2
   0   4   1 2498.16 384.213   2
   0   4  -2 467273. 4437.23   2
   0   4   2 460625. 4752.94   2
   0   4  -3 112345. 2171.92   2
   0   4   3 112668. 2449.80   2
   0   4   4 211367. 3455.99   2
   0   4   5 79318.3 2197.06   2
   0   4   6 18742.2 1122.01   2
   0   4   7 61809.7 2089.52   2
   0   4   8 12497.2 984.847   2
   0   4   9 864.453 342.044   2
   0   4  10 32172.4 1671.78   2
   0   4  11 8571.90 871.536   2
   0   4  12 11717.3 1049.26   2
   0   4  13 33385.8 1781.34   2
   0   4  14 5313.88 769.361   2
   0   4  15 21917.9 1499.89   2
   0   4  16 37512.5 2025.31   2
   0   4  17 15083.5 1329.60   2
   0   4  18 71863.0 2922.22   2
   0   4  19 1789.76 590.728   2
   0   4  20 50042.9 2542.00   2
   0   4  21 1639.63 618.256   2
   0   4  22 30422.9 2074.27   2
   0   4  23 5709.27 1029.33   2
   0   4  24 10939.1 1321.71   2
   0   4  25 3087.25 754.652   2
   0   4  26 1436.50 479.423   2
   0   4  27 1246.41 492.523   2
   0   4  28 204.570 316.432   2
   0   5   0 112.969 189.484   2
   0   5  -1 335272. 4327.62   2
   0   5   1 329555. 4383.50   2
   0   5   2 74874.6 2140.81   2
   0   5  -2 75987.1 2055.17   2
   0   5   3 133418. 2961.86   2
   0   5  -3 135849. 2730.15   2
   0   5   4 152732. 3236.00   2
   0   5  -4 150386. 2848.27   2
   0   5   5 56804.0 2018.87   2
   0   5   6 88210.4 2612.67   2
   0   5   7 3907.93 587.598   2
   0   5   8 22163.2 1378.83   2
   0   5   9 2462.48 519.456   2
   0   5  10 400.665 287.586   2
   0   5  11 517.658 347.015   2
   0   5  12 6778.84 855.146   2
   0   5  13-3.83820 263.135   2
   0   5  14 26580.0 1700.30   2
   0   5  15 28858.5 1818.58   2
   0   5  16 43272.7 2250.55   2
   0   5  17 41079.9 2227.74   2
   0   5  18 11074.4 1277.00   2
   0   5  19 44723.5 2486.24   2
   0   5  20 479.567 412.398   2
   0   5  21 27611.0 2024.99   2
   0   5  22 3950.58 822.212   2
   0   5  23 6004.34 1007.89   2
   0   5  24 5889.94 1022.68   2
   0   5  25 2476.82 700.498   2
   0   5  26 2988.56 776.649   2
   0   6   0 2349.85 417.666   2
   0   6   1 6350.85 678.217   2
   0   6  -1 6659.75 689.771   2
   0   6  -2 431.271 234.066   2
   0   6   2 596.992 276.204   2
   0   6   3 95905.6 2752.98   2
   0   6  -3 101527. 2649.65   2
   0   6   4 5610.90 702.631   2
   0   6  -4 5924.58 664.191   2
   0   6  -5 65374.3 2108.87   2
   0   6   5 61883.3 2281.35   2
   0   6  -6 18947.9 1153.23   2
   0   6   6 17840.1 1266.50   2
   0   6   7 47953.1 2092.52   2
   0   6   8 136752. 3586.89   2
   0   6   9 19106.8 1414.92   2
   0   6  10 129922. 3682.82   2
   0   6  11 20391.5 1542.13   2
   0   6  12 117997. 3728.91   2
   0   6  13 34024.9 2015.12   2
   0   6  14 14972.1 1351.15   2
   0   6  15 17423.2 1473.77   2
   0   6  16 3630.58 724.300   2
   0   6  17 14135.9 1378.97   2
   0   6  18 870.782 418.415   2
   0   6  19-258.495 336.020   2
   0   6  20-20.6521 296.519   2
   0   6  21 2126.16 639.958   2
   0   6  22-416.535 340.139   2
   0   6  23 6645.07 1087.32   2
   0   6  24 375.437 446.762   2
   0   6  25 2500.14 690.099   2
   0   7   0-3.65850 170.928   2
   0   7  -1 16215.0 1172.19   2
   0   7   1 16752.4 1214.06   2
   0   7   2 12347.3 1059.32   2
   0   7  -2 11699.2 990.441   2
   0   7  -3 1208.36 377.101   2
   0   7   3 614.239 282.850   2
   0   7  -4 47375.3 1990.18   2
   0   7   4 44776.7 2046.66   2
   0   7   5 17440.6 1320.57   2
   0   7  -5 18750.4 1271.70   2
   0   7  -6 13501.1 1085.62   2
   0   7   6 13732.8 1197.97   2
   0   7   7 112355. 3423.79   2
   0   7  -7 120079. 3182.70   2
   0   7   8 7810.02 976.732   2
   0   7  -8 6329.10 787.419   2
   0   7   9 107823. 3482.03   2
   0   7  -9 110894. 3099.36   2
   0   7  10 1763.11 575.767   2
   0   7  11 80608.4 3153.64   2
   0   7  12 3212.16 707.038   2
   0   7  13 45765.1 2444.87   2
   0   7  14 5224.77 871.351   2
   0   7  15 3735.93 738.190   2
   0   7  16 16442.3 1530.37   2
   0   7  17 313.179 338.714   2
   0   7  18 3680.66 769.288   2
   0   7  19 2250.93 645.148   2
   0   7  20 654.737 436.974   2
   0   7  21 1349.16 557.104   2
   0   7  22 139.873 297.668   2
   0   7  23 361.373 397.172   2
   0   8   0 49329.2 2233.37   2
   0   8   1 5170.69 768.652   2
   0   8  -1 6004.39 790.630   2
   0   8  -2 41916.3 2035.64   2
   0   8   2 40539.8 2082.11   2
   0   8   3 36800.5 1992.63   2
   0   8  -3 41161.9 2030.29   2
   0   8  -4 27592.8 1658.11   2
   0   8   4 25277.2 1665.53   2
   0   8   5 63512.3 2694.40   2
   0   8  -5 68377.3 2607.37   2
   0   8  -6 16200.1 1296.12   2
   0   8   6 15574.9 1360.93   2
   0   8  -7 26884.1 1660.28   2
   0   8   7 27726.0 1828.68   2
   0   8   8 689.807 377.720   2
   0   8  -8-126.596 281.963   2
   0   8   9 2142.62 557.297   2
   0   8  -9 2045.89 471.790   2
   0   8  10 590.171 323.867   2
   0   8 -10 175.552 245.856   2
   0   8  11 4058.47 786.543   2
   0   8 -11 4326.20 676.126   2
   0   8 -12 571.405 316.854   2
   0   8  12 882.106 400.103   2
   0   8  13 16999.7 1584.64   2
   0   8 -13 15339.3 1314.21   2
   0   8  14 2680.29 686.324   2
   0   8  15 29169.4 2091.68   2
   0   8  16 3438.13 779.390   2
   0   8  17 6540.56 1050.16   2
   0   8  18 5776.65 978.387   2
   0   8  19 139.155 262.753   2
   0   8  20 7801.11 1178.72   2
   0   8  21 882.676 492.538   2
   0   9   0 498.200 486.342   2
   0   9   1 102473. 3539.50   2
   0   9  -1 95379.2 3355.17   2
   0   9  -2 617.502 404.775   2
   0   9   2 387.006 331.354   2
   0   9   3 33009.7 2020.52   2
   0   9  -3 36780.1 2051.93   2
   0   9   4 2365.04 602.149   2
   0   9  -4 2999.01 664.710   2
   0   9   5 4879.27 812.486   2
   0   9  -5 6061.29 857.171   2
   0   9   6 3251.13 681.289   2
   0   9  -6 3209.05 645.704   2
   0   9  -7 46.8332 207.110   2
   0   9   7 393.822 303.221   2
   0   9   8 1735.57 524.668   2
   0   9  -8 1472.61 438.316   2
   0   9   9 9392.43 1171.41   2
   0   9  -9 11634.7 1214.87   2
   0   9  10 457.254 350.046   2
   0   9 -10 319.037 319.287   2
   0   9 -11 9497.86 1077.46   2
   0   9  11 8841.14 1148.98   2
   0   9  12 217.997 297.249   2
   0   9 -12-247.015 275.378   2
   0   9  13-86.2170 322.792   2
   0   9 -13-294.481 256.451   2
   0   9  14 1100.95 505.250   2
   0   9 -14 610.327 340.735   2
   0   9  15 4035.06 861.649   2
   0   9  16 1378.54 553.124   2
   0   9  17 9074.24 1260.00   2
   0   9  18 1644.58 582.749   2
   0  10   0 1683.07 490.585   2
   0  10  -1 2286.29 583.738   2
   0  10   1 2251.72 572.767   2
   0  10  -2 816.411 336.069   2
   0  10   2 1421.27 513.383   2
   0  10   3 17680.8 1612.61   2
   0  10  -3 17252.3 1536.60   2
   0  10  -4 6433.47 975.363   2
   0  10   4 4778.97 857.295   2
   0  10   5 31761.0 2177.48   2
   0  10  -5 32997.7 2105.60   2
   0  10   6 5095.21 917.911   2
   0  10  -6 4176.87 805.496   2
   0  10  -7 10668.1 1221.40   2
   0  10   7 10988.5 1318.51   2
   0  10   8 2463.49 654.016   2
   0  10  -8 2445.95 605.363   2
   0  10  -9 1683.29 516.459   2
   0  10   9 1408.22 551.357   2
   0  10  10 7265.44 1129.12   2
   0  10 -10 4721.74 829.466   2
   0  10  11 1554.06 556.046   2
   0  10  12 5072.30 984.730   2
   0  10  13 5294.51 1011.01   2
   0  10  14 4345.15 950.534   2
   0  11   0 78.2170 247.789   2
   0  11  -1 4588.56 881.389   2
   0  11   1 4118.71 843.923   2
   0  11   2 232.772 301.673   2
   0  11  -2 333.145 330.284   2
   0  11  -3 350.573 292.400   2
   0  11   3 546.904 361.287   2
   0  11  -4 881.057 475.909   2
   0  11   4 405.306 340.729   2
   0  11   5 1059.44 473.666   2
   0  11  -5 709.861 370.666   2
   0  11   6 937.561 522.063   2
   0  11   7 17287.1 1729.30   2
   0  11   8 380.942 332.963   2
   0  11   9 23804.9 2093.53   2
  -1   0  31 774.021 475.532   2
  -1   0  30 8653.25 1221.47   2
  -1   0  29 1030.47 495.495   2
  -1   0  28 12846.9 1395.09   2
  -1   0  27 704.992 480.880   2
  -1   0  26 3618.01 709.739   2
   1   0 -25-186.894 363.735   3
  -1   0  25-92.6545 227.187   2
   1   0 -24 1124.52 383.406   3
  -1   0  24 1253.61 450.411   2
   1   0 -23-420.767 279.685   3
  -1   0  23 56.4080 225.137   2
   1   0 -22 156.504 218.535   3
  -1   0  22 77.9948 208.237   2
   1   0 -21-126.953 185.698   3
  -1   0  21 57.5793 196.011   2
   1   0 -20 7482.00 817.899   3
  -1   0  20 6585.60 804.484   2
  -1   0  19 170.012 207.961   2
   1   0 -19-19.0987 220.124   3
   1   0 -18 6562.81 712.561   3
  -1   0  18 6248.21 755.521   2
  -1   0  17-115.979 217.348   2
   1   0 -17-9.04966 159.939   3
   1   0 -16 7151.28 697.590   3
  -1   0  16 8401.04 773.594   2
   1   0 -15 668.997 324.958   3
  -1   0  15 773.612 369.709   2
  -1   0  14 116389. 2635.20   2
   1   0 -14 118629. 2651.84   3
   1   0 -13 3072.19 575.821   3
  -1   0  13 1276.40 489.096   2
  -1   0  12 422859. 4670.17   2
   1   0 -12 428467. 4748.92   3
  -1   0  11 1384.92 526.928   2
   1   0 -11 4955.10 677.349   3
   1   0 -10 700844. 5748.48   3
  -1   0  10 701366. 5449.82   2
  -1   0   9 872.802 302.974   2
   1   0  -9 1573.17 409.020   3
   1   0  -8 541270. 4580.83   3
  -1   0   8 540888. 4288.96   2
   1   0  -7 591.995 245.827   3
  -1   0   7 439.600 185.241   2
  -1   0   6 230120. 2435.30   2
   1   0  -6 234412. 2808.74   3
  -1   0   5 154.016 101.967   2
   1   0  -5-48.7425 121.213   3
  -1   0   4 311659. 2409.58   2
   1   0  -4 318232. 2963.13   3
  -1   0   3 186.249 77.6802   2
   1   0  -3 47.3927 107.034   3
   1   0  -3 158.961 65.2053   2
   1   0  -2 1777.53 215.995   3
   1   0  -2 1603.03 206.040   1
  -1   0   2 2297.03 164.904   2
   1   0  -1 515.719 116.224   3
   1   0  -1 1377.32 192.901   1
   1   0   0 89416.4 1262.24   3
   1   0   0 107486. 1527.32   1
  -1   0  -1 336.757 96.3028   2
   1   0   1 310.486 103.542   1
   1   0   2 54840.7 1158.45   1
   1   0   2 52236.9 818.825   3
  -1   0  -2 53567.0 837.250   3
   1   0   3 151.096 105.553   1
  -1   0  -3 296.922 65.7948   3
   1   0   4 30153.6 897.885   2
  -1   0  -4 27091.9 513.114   3
  -1   0  -5 144.634 50.2079   3
   1   0   5 147.814 123.218   2
   1   0   6 417061. 3817.55   2
   1   0   7 632.130 221.762   2
   1   0   8 709384. 5600.30   2
   1   0   9 679.833 342.006   2
   1   0  10 772595. 6403.88   2
   1   0  11 2502.14 564.809   2
   1   0  12 263693. 4065.11   2
   1   0  13 934.324 407.316   2
   1   0  14 74456.8 2341.79   2
  -1   0 -15 158.372 115.905   3
   1   0  15 242.909 268.302   2
   1   0  16 24523.6 1461.54   2
  -1   0 -16 24236.1 844.446   3
   1   0  17 366.122 282.079   2
   1   0  18 2175.50 490.113   2
   1   0  19 18.1084 195.995   2
   1   0  20 5202.88 786.031   2
   1   0  21 6.05470 237.952   2
   1   0  22 620.010 351.048   2
   1   0  23 279.784 359.412   2
   1   0  24 2170.32 547.247   2
   1   0  25 93.0197 283.812   2
   1   0  26 10963.5 1304.37   2
   1   0  27 1338.98 575.231   2
   1   0  28 15316.2 1610.79   2
   1   0  29 1394.78 584.203   2
  -1   1  31 1391.17 534.155   2
  -1  -1  31-116.128 270.386   2
  -1   1  30 91.8235 351.850   2
  -1  -1  30 355.070 331.317   2
  -1  -1  29 3069.26 694.567   2
  -1   1  29 2901.13 733.102   2
  -1   1  28 3165.14 717.969   2
  -1  -1  28 3536.62 721.677   2
  -1  -1  27 2166.06 560.322   2
  -1   1  27 2319.58 657.078   2
  -1   1  26 6316.98 965.957   2
  -1  -1  26 6109.54 917.596   2
  -1  -1  25 5014.28 842.423   2
  -1   1  25 4907.81 867.681   2
   1  -1 -25 5706.59 883.901   3
   1   1 -24 19133.0 1397.59   3
   1  -1 -24 22099.2 1604.71   3
  -1   1  24 19645.2 1579.72   2
  -1  -1  24 18174.6 1468.24   2
  -1  -1  23 6149.07 871.794   2
   1  -1 -23 4721.52 742.368   3
   1   1 -23 4541.23 702.168   3
  -1   1  23 5580.07 870.104   2
   1   1 -22 9960.74 985.642   3
  -1  -1  22 9998.18 1028.29   2
  -1   1  22 10293.7 1093.82   2
   1  -1 -22 11169.1 1106.99   3
   1  -1 -21 3016.06 583.441   3
   1   1 -21 2283.95 451.596   3
  -1   1  21 4211.37 697.360   2
  -1  -1  21 3436.25 620.824   2
  -1  -1  20 5249.73 706.946   2
   1   1 -20 4223.04 580.752   3
  -1   1  20 5462.92 757.417   2
   1  -1 -20 4817.29 714.874   3
   1   1 -19 7553.54 770.635   3
  -1   1  19 8708.89 937.907   2
   1  -1 -19 9866.13 954.750   3
  -1  -1  19 7622.22 818.107   2
  -1   1  18 35995.4 1780.90   2
  -1  -1  18 35437.9 1664.03   2
   1   1 -18 36568.6 1629.17   3
  -1   1  17 11445.3 1062.26   2
  -1  -1  17 12549.2 990.856   2
   1   1 -17 12540.2 955.384   3
  -1   1  16 105595. 2893.73   2
   1   1 -16 107667. 2643.86   3
  -1  -1  16 106469. 2681.35   2
   1   1 -15 32598.5 1428.34   3
  -1  -1  15 34357.2 1475.06   2
  -1   1  15 32500.3 1563.12   2
   1   1 -14 107493. 2489.92   3
  -1  -1  14 104397. 2416.44   2
  -1   1  14 106172. 2722.90   2
  -1   1  13 51860.5 1840.36   2
   1   1 -13 53387.7 1720.39   3
  -1  -1  13 52925.8 1632.04   2
  -1  -1  12 13433.3 793.659   2
   1   1 -12 13567.3 848.680   3
  -1   1  12 13266.9 916.439   2
  -1  -1  11 86610.7 1874.41   2
   1   1 -11 86723.9 2041.63   3
  -1   1  11 82694.0 2131.24   2
  -1   1  10 1735.56 347.541   2
  -1  -1  10 2137.62 328.484   2
   1   1 -10 1911.76 338.390   3
   1   1  -9 164786. 2634.02   3
  -1   1   9 159719. 2774.50   2
  -1  -1   9 163533. 2266.18   2
  -1  -1   8 205626. 2348.04   2
   1   1  -8 205531. 2836.47   3
  -1   1   8 199697. 3044.70   2
   1   1  -7 83380.2 1744.81   3
  -1  -1   7 82447.4 1354.32   2
  -1   1   7 79724.1 1833.30   2
  -1  -1   6 249565. 2082.04   2
  -1   1   6 248279. 3041.74   2
   1   1  -6 255299. 2953.86   3
   1   1  -5 96644.6 1768.95   3
  -1  -1   5 97402.8 1125.21   2
   1   1  -4 631341. 4415.09   3
  -1   1   4 637751. 4269.97   2
   1   1  -3 177954. 2216.56   3
  -1   1   3 172846. 2039.09   2
   1   1  -2 353772. 2784.41   1
  -1   1   2 346862. 2771.06   2
   1   1  -2 354871. 3026.63   3
   1   1  -1 35550.4 888.142   1
  -1   1   1 33475.9 814.725   2
   1   1   0 132565. 1766.21   1
   1  -1   0 130957. 1733.90   1
   1   1   0 132065. 1063.45   2
  -1  -1   0 133587. 1135.99   2
   1   1   1 64231.5 939.567   2
   1   1   1 64918.0 1314.63   1
   1  -1   1 63161.6 1196.33   1
  -1  -1  -1 66270.2 974.352   2
   1  -1   2 378630. 2907.98   1
   1   1   2 381095. 3322.49   1
   1  -1   3 94596.3 1523.58   1
   1   1   3 95256.4 1491.75   2
   1  -1   4 601357. 3969.81   1
   1   1   4 602270. 4118.66   2
   1   1   5 147777. 2228.02   2
   1  -1   5 144354. 2060.36   1
   1   1   6 281405. 3241.33   2
   1  -1   6 272951. 2948.44   1
   1   1   7 133988. 2439.93   2
   1   1   8 18327.4 943.619   2
   1  -1   8 19184.6 957.505   2
   1   1   9 107802. 2380.88   2
   1  -1   9 105208. 2330.44   2
   1   1  10 6014.20 641.375   2
   1  -1  10 5583.63 584.561   2
   1   1  11 126428. 2843.90   2
   1  -1  11 133463. 2824.06   2
   1  -1  12 111860. 2716.03   2
   1   1  12 115514. 2790.71   2
   1  -1  13 32808.1 1514.93   2
   1   1  13 32503.1 1543.26   2
   1  -1  14 109891. 2837.08   2
   1   1  14 111104. 2945.55   2
   1  -1  15 16029.3 1160.31   2
   1   1  15 15749.8 1191.15   2
   1  -1  16 94129.0 2815.64   2
   1   1  16 91773.7 2852.13   2
   1  -1  17 22458.9 1449.14   2
   1   1  17 22660.2 1482.89   2
   1   1  18 27643.1 1676.13   2
   1  -1  18 27445.3 1641.78   2
   1   1  19 6906.35 882.644   2
   1  -1  19 6420.31 850.112   2
   1  -1  20 7133.22 914.682   2
   1   1  20 7754.33 965.515   2
   1  -1  21 3277.90 669.848   2
   1   1  21 3642.91 711.373   2
   1   1  22 14092.7 1341.63   2
   1  -1  22 17116.9 1469.30   2
   1  -1  23 6899.84 989.069   2
   1   1  23 6130.17 935.004   2
   1   1  24 21357.3 1725.81   2
   1  -1  24 21751.4 1741.71   2
   1  -1  25 5452.52 916.592   2
   1   1  25 7456.26 1066.61   2
   1   1  26 6884.91 1052.19   2
   1  -1  26 5713.25 986.498   2
   1   1  27 4993.81 964.172   2
   1  -1  27 4631.69 885.436   2
   1  -1  28-296.705 379.386   2
   1   1  28 572.823 411.932   2
   1   1  29 1551.60 578.169   2
  -1   2  30 635.407 366.403   2
  -1   2  29-342.020 316.235   2
  -1   2  28 475.345 381.150   2
  -1  -2  27 226.758 270.068   2
  -1   2  27 341.679 355.768   2
  -1   2  26 1110.63 463.299   2
  -1  -2  26 1084.66 478.773   2
   1  -2 -26 2537.43 669.264   3
  -1   2  25 1437.84 526.912   2
   1  -2 -25 1934.85 614.084   3
  -1  -2  25 1387.00 515.342   2
  -1   2  24 16920.0 1499.59   2
   1  -2 -24 19146.4 1608.59   3
  -1  -2  24 19017.0 1482.67   2
  -1  -2  23 2891.73 630.084   2
  -1   2  23 2532.69 659.764   2
   1  -2 -23 3442.95 754.517   3
   1   2 -23 2330.39 569.359   3
  -1  -2  22 47255.9 2205.25   2
   1   2 -22 46698.8 2061.66   3
  -1   2  22 43112.1 2266.60   2
  -1  -2  21 2103.48 597.009   2
  -1   2  21 1791.83 722.866   2
   1   2 -21 2381.69 618.093   3
   1   2 -20 87633.5 2672.54   3
  -1  -2  20 92208.6 2841.81   2
  -1   2  20 83025.9 3023.10   2
   1   2 -19 1742.39 567.173   3
  -1   2  19 1695.99 711.070   2
  -1  -2  19 2609.05 593.120   2
   1   2 -18 67941.3 2230.50   3
  -1   2  18 72051.8 2649.86   2
  -1  -2  18 72645.1 2348.36   2
  -1  -2  17 6072.55 696.218   2
  -1   2  17 5955.43 782.644   2
   1   2 -17 6273.39 719.645   3
  -1  -2  16 38557.9 1605.58   2
   1   2 -16 37851.3 1600.40   3
  -1   2  16 37937.9 1858.05   2
  -1   2  15 3259.46 576.638   2
  -1  -2  15 3333.19 479.994   2
   1   2 -15 4109.58 526.248   3
   1   2 -14 2528.48 411.332   3
  -1   2  14 2713.08 513.668   2
  -1  -2  14 2403.95 395.629   2
   1   2 -13 19244.3 1046.83   3
  -1   2  13 18278.7 1192.10   2
  -1  -2  13 19317.5 995.884   2
  -1   2  12 40400.7 1691.51   2
  -1  -2  12 42298.2 1401.72   2
   1   2 -12 41771.8 1498.95   3
   1   2 -11 1121.48 303.097   3
  -1  -2  11 695.033 227.606   2
  -1   2  11 1344.61 354.679   2
  -1  -2  10 100829. 1943.09   2
  -1   2  10 102696. 2582.83   2
   1   2 -10 98497.9 2178.29   3
   1   2  -9 1487.96 277.405   3
  -1   2   9 889.598 279.372   2
   1   2  -8 2139.78 351.659   3
  -1   2   8 2381.81 391.465   2
   1   2  -7 17450.8 864.378   3
  -1   2   7 17742.0 963.987   2
  -1   2   6 55833.6 1611.17   2
   1   2  -6 58757.8 1561.22   3
   1   2  -5 57532.1 972.816   2
  -1   2   5 54120.2 1521.54   2
   1   2  -4 503829. 3328.12   1
  -1   2   4 508270. 4367.29   2
   1   2  -3 46245.2 698.193   2
   1   2  -3 45759.3 1000.35   1
  -1   2   3 44934.8 1261.07   2
  -1   2   2 787031. 5091.42   2
  -1   2   1 11291.1 597.400   2
  -1  -2   1 12201.7 394.095   2
   1   2  -1 12843.4 467.875   2
   1   2  -1 12176.4 549.231   1
   1   2   1 5226.49 374.281   2
   1   2   2 437035. 3571.72   2
   1  -2   2 444618. 3258.75   1
   1  -2   3 75844.6 1321.14   1
   1   2   3 79415.7 1629.47   2
   1  -2   4 200702. 2149.10   1
   1   2   4 209299. 2791.71   2
   1   2   5 2628.24 356.737   2
   1  -2   5 1559.47 202.946   1
   1   2   6 4934.56 497.415   2
   1  -2   6 4807.63 363.044   1
   1  -2   7 40730.3 1120.64   1
   1   2   7 44784.8 1531.43   2
   1  -2   8 57451.5 788.764   3
   1  -2   8 58200.1 1420.51   1
   1  -2   9 4600.77 218.130   3
   1   2   9 4767.67 559.139   2
   1  -2   9 5472.12 461.555   1
   1   2  10 105976. 2688.99   2
   1   2  11 3036.20 521.795   2
   1   2  12 2012.96 420.870   2
   1   2  13 9099.32 873.543   2
   1   2  14 21648.7 1370.88   2
   1   2  15 11218.9 1058.39   2
   1   2  16 111983. 3267.42   2
   1   2  17 8454.28 996.103   2
   1   2  18 98254.0 3271.04   2
   1   2  19 5544.15 894.324   2
   1   2  20 102602. 3471.86   2
   1   2  21 2026.65 662.050   2
   1   2  22 27014.1 1907.31   2
   1   2  23 2576.60 642.792   2
   1   2  24 6111.75 996.978   2
   1   2  25 272.024 261.386   2
   1   2  26 259.036 305.032   2
   1   2  27 473.577 375.615   2
   1   2  28 920.276 490.579   2
  -1   3  29-205.199 308.678   2
  -1   3  28 2229.17 641.017   2
   1  -3 -27 1210.38 534.782   3
  -1   3  27 1022.49 452.544   2
  -1   3  26 9262.16 1206.64   2
  -1   3  25 3677.87 775.638   2
  -1   3  24 7024.85 1019.71   2
  -1   3  23 8504.38 1109.66   2
  -1   3  22 3675.04 751.581   2
  -1   3  21 19152.9 1561.02   2
  -1   3  20 492.350 413.395   2
  -1   3  19 36041.5 2039.33   2
  -1   3  18 26537.3 1731.38   2
  -1   3  17 45808.7 2152.68   2
  -1   3  16 73642.1 2675.10   2
  -1   3  15 14852.5 1206.56   2
  -1   3  14 64753.7 2403.03   2
  -1   3  13 4985.04 691.166   2
  -1   3  12 13775.8 1089.70   2
  -1   3  11 1157.56 345.770   2
  -1   3  10 3132.36 500.506   2
  -1   3   9 1085.36 348.227   2
  -1   3   8 113950. 2705.56   2
  -1   3   7 13097.2 900.665   2
  -1   3   6 315504. 4227.71   2
  -1   3   5 140208. 2714.95   2
   1   3  -5 134992. 1699.89   1
   1   3  -4 235392. 2242.21   1
   1   3  -4 230899. 2191.97   2
   1   3  -3 209790. 2179.06   2
   1   3  -3 210191. 2183.81   1
  -1   3   3 212004. 3087.26   2
   1   3  -2 19503.0 705.236   1
  -1   3   2 19104.8 910.850   2
   1   3  -2 20253.3 691.526   2
   1   3  -1 279548. 2857.42   1
  -1   3   1 284803. 3473.49   2
   1   3  -1 291150. 2867.72   2
  -1   3   0 2220.15 332.640   2
   1   3   0 1754.44 247.086   2
   1   3   0 1643.65 252.465   1
   1   3   1 301850. 3330.93   2
   1   3   2 187284. 2809.00   2
   1   3   3 222056. 3275.68   2
   1   3   4 379564. 4366.63   2
   1  -3   4 366215. 2932.52   1
   1  -3   5 41307.0 997.345   1
   1   3   5 43457.0 1530.69   2
   1   3   6 164234. 3117.15   2
   1  -3   6 166154. 1993.71   1
   1  -3   7 210.575 80.0842   1
   1   3   7 268.076 219.955   2
   1   3   8 31430.5 1444.85   2
   1  -3   8 31155.9 923.324   1
   1   3   9 1866.09 398.358   2
   1  -3   9 1429.39 216.112   1
   1  -3  10 3279.49 333.527   1
   1   3  10 2298.03 459.695   2
   1   3  11 1957.76 463.756   2
   1  -3  11 1856.83 272.666   1
   1   3  12 65124.2 2360.69   2
   1  -3  12 64140.1 1594.98   1
   1  -3  13 16274.4 836.694   1
   1   3  13 17972.5 1277.75   2
   1   3  14 99354.0 3076.46   2
   1   3  15 47329.6 2191.20   2
   1   3  16 58826.9 2473.19   2
   1   3  17 43913.0 2195.51   2
   1   3  18 4483.42 789.057   2
   1   3  19 31245.3 1945.75   2
   1   3  20 886.364 477.164   2
   1   3  21 21482.8 1693.35   2
   1   3  22 8112.77 1095.29   2
   1   3  23 7837.79 1111.65   2
   1   3  24 18185.8 1683.41   2
   1   3  25 1493.74 620.873   2
   1   3  26 4296.74 896.700   2
   1   3  27 21.2381 364.818   2
   1   3  28 587.617 409.206   2
  -1   4  28 5404.36 1002.17   2
  -1   4  27 1640.32 623.700   2
  -1   4  26 3718.17 809.730   2
  -1   4  25 1908.91 599.898   2
  -1   4  24 868.595 435.641   2
  -1   4  23 5643.11 950.682   2
  -1   4  22 3119.07 712.442   2
  -1   4  21 97.2638 262.398   2
  -1   4  20 3630.60 738.249   2
  -1   4  19 1213.35 476.045   2
  -1   4  18 311.446 226.063   2
  -1   4  17 11423.3 1147.93   2
  -1   4  16 11592.8 1140.70   2
  -1   4  15 18924.1 1430.85   2
  -1   4  14 79806.7 2830.30   2
  -1   4  13 20665.0 1493.43   2
  -1   4  12 199105. 4298.84   2
  -1   4  11 4358.42 778.719   2
  -1   4  10 234993. 4418.84   2
  -1   4   9 5717.39 802.700   2
  -1   4   8 201377. 3877.66   2
  -1   4   7 74991.7 2280.84   2
  -1   4   6 82465.3 2360.44   2
   1   4  -5 40912.7 911.944   1
   1   4  -5 38574.1 1129.71   2
  -1   4   5 41214.5 1616.52   2
   1   4  -4 9428.39 459.926   1
  -1   4   4 8520.93 725.201   2
   1   4  -3 116441. 1999.26   2
  -1   4   3 117638. 2572.90   2
   1   4  -3 117338. 1717.28   1
  -1   4   2 56185.8 1778.42   2
   1   4  -2 53224.0 1241.18   1
   1   4  -2 53912.4 1398.53   2
  -1   4   1 904.495 243.029   2
   1   4  -1 1451.55 233.741   1
   1   4  -1 1335.51 254.697   2
  -1   4   0 75081.1 1996.93   2
   1   4   0 72567.0 1777.20   2
  -1   4  -1 30498.9 1257.49   2
   1   4   1 30031.7 1207.55   2
   1   4   2 1800.59 320.544   2
   1   4   3 108719. 2505.91   2
   1   4   4 34791.0 1473.77   2
   1   4   5 50599.0 1861.06   2
   1   4   6 193114. 3667.86   2
   1   4   7 31005.2 1522.45   2
   1  -4   8 354962. 2806.81   1
   1   4   8 341336. 5132.55   2
   1   4   9 720.263 386.910   2
   1  -4   9 142.340 96.2138   1
   1  -4  10 220822. 2340.73   1
   1   4  10 213141. 4240.86   2
   1  -4  11 7482.75 457.303   1
   1   4  11 8340.52 902.988   2
   1   4  12 151870. 3824.52   2
   1  -4  12 152203. 2112.02   1
   1   4  13 47627.3 2222.67   2
   1  -4  13 48506.9 1262.99   1
   1   4  14 31881.2 1855.55   2
   1  -4  14 32384.0 1072.68   1
   1  -4  15 10035.8 625.516   1
   1   4  15 9057.74 1028.06   2
   1   4  16 1909.97 506.532   2
   1   4  17 9435.99 1088.14   2
   1   4  18 5086.03 836.082   2
   1   4  19 583.109 341.143   2
   1   4  20 5792.27 888.506   2
   1   4  21 3301.06 725.695   2
   1   4  22 442.995 346.070   2
   1   4  23 6221.81 1017.76   2
   1   4  24 1506.33 588.853   2
   1   4  25 1138.90 498.395   2
   1   4  26 6465.99 1102.84   2
   1   4  27 319.832 482.360   2
  -1   5  26 2847.93 775.286   2
  -1   5  25 1612.14 598.555   2
  -1   5  24 2613.32 715.943   2
  -1   5  23 296.027 336.469   2
  -1   5  22 293.656 316.840   2
  -1   5  21-102.835 246.505   2
  -1   5  20 1546.96 534.219   2
  -1   5  19 947.275 414.631   2
  -1   5  18 7959.52 1040.81   2
  -1   5  17 1095.11 514.001   2
  -1   5  16 26406.7 1778.58   2
  -1   5  15 10342.0 1126.12   2
  -1   5  14 37449.9 2097.95   2
  -1   5  13 58756.0 2516.06   2
  -1   5  12 17740.2 1392.09   2
  -1   5  11 178583. 4178.79   2
  -1   5  10 7295.85 881.779   2
  -1   5   9 115302. 3240.12   2
  -1   5   8 83200.9 2677.78   2
   1   5  -7 113404. 2284.79   2
  -1   5   7 119598. 3109.93   2
   1   5  -6 105237. 2196.34   2
  -1   5   6 112708. 2969.00   2
   1   5  -5 17760.7 913.128   2
  -1   5   5 19222.1 1231.70   2
   1   5  -5 18391.6 601.526   1
   1   5  -4 62356.9 1189.33   1
   1   5  -4 61300.4 1688.75   2
  -1   5   4 61978.0 2103.75   2
   1   5  -3 1043.20 190.596   1
  -1   5   3 1192.52 337.102   2
   1   5  -3 1241.67 248.131   2
  -1   5   2 10676.7 859.264   2
   1   5  -2 11556.5 612.823   1
   1   5  -2 11197.8 741.642   2
  -1   5   1 3728.89 505.890   2
   1   5  -1 3826.74 377.716   1
   1   5  -1 4177.41 479.294   2
  -1   5   0 4200.07 543.097   2
   1   5   0 4280.84 501.255   2
  -1   5  -1 8136.06 759.664   2
   1   5   1 9434.71 760.960   2
  -1   5  -2 45511.1 1711.23   2
   1   5   2 44245.6 1691.11   2
  -1   5  -3 14466.3 985.490   2
   1   5   3 15006.1 1003.38   2
   1   5   4 102285. 2715.80   2
   1   5   5 64603.8 2225.54   2
   1   5   6 85693.8 2658.63   2
   1   5   7 162970. 3770.43   2
   1   5   8 39650.0 1875.11   2
   1   5   9 245936. 4735.73   2
   1   5  10 1490.06 522.631   2
   1   5  11 84879.7 2918.65   2
   1   5  12 51639.4 2312.05   2
   1   5  13 36911.9 2005.94   2
   1   5  14 38720.2 2138.71   2
   1   5  15 4351.91 769.883   2
   1   5  16 23288.6 1723.27   2
   1   5  17 1575.05 565.240   2
   1   5  18 2681.57 637.772   2
   1   5  19 197.966 260.836   2
   1   5  20 208.821 283.750   2
   1   5  21 184.950 329.036   2
   1   5  22 2273.69 618.334   2
   1   5  23 2492.94 693.317   2
   1   5  24 5136.55 943.823   2
   1   5  25 4214.74 907.264   2
   1   5  26 2474.65 737.885   2
  -1   6  25 3604.87 869.847   2
  -1   6  24 7262.33 1165.23   2
  -1   6  23 3710.45 853.553   2
  -1   6  22 14916.7 1562.17   2
  -1   6  21 860.623 573.101   2
  -1   6  20 26275.0 1965.98   2
  -1   6  19 721.248 465.750   2
  -1   6  18 22797.9 1780.60   2
  -1   6  17 14754.2 1452.45   2
  -1   6  16 3064.98 687.763   2
  -1   6  15 38976.7 2282.49   2
  -1   6  14 1193.74 477.548   2
  -1   6  13 6950.51 937.507   2
  -1   6  12 3398.20 664.908   2
  -1   6  11 4011.07 688.557   2
  -1   6  10 433.941 298.096   2
   1   6  -9 2755.81 418.891   2
  -1   6   9 4004.47 663.909   2
   1   6  -8 269.230 183.024   2
  -1   6   8 644.677 333.382   2
   1   6  -7 77213.4 2152.91   2
  -1   6   7 78879.2 2717.99   2
  -1   6   6 11326.3 1040.88   2
   1   6  -6 10831.2 813.142   2
   1   6  -5 70929.9 2044.96   2
  -1   6   5 70303.5 2519.88   2
   1   6  -4 77669.4 1352.04   1
  -1   6   4 81553.5 2636.55   2
   1   6  -4 79726.5 2179.23   2
   1   6  -3 54520.7 1269.68   1
   1   6  -3 53283.8 1798.90   2
  -1   6   3 54709.6 2122.46   2
   1   6  -2 188899. 2564.95   1
  -1   6   2 184267. 3893.22   2
   1   6  -1 314.585 189.677   1
  -1   6   1 363.480 362.644   2
  -1   6   0 209624. 4098.60   2
   1   6   0 199006. 3720.92   2
  -1   6  -1 16738.4 1172.36   2
   1   6   1 15392.7 1059.62   2
  -1   6  -2 175807. 3770.13   2
   1   6   2 169798. 3611.20   2
   1   6   3 86956.0 2641.47   2
  -1   6  -3 88410.1 2662.82   2
  -1   6  -4 17412.6 1183.07   2
   1   6   4 17741.0 1253.31   2
  -1   6  -5 113763. 3029.82   2
   1   6   5 112139. 3154.83   2
   1   6   6 4283.92 664.942   2
   1   6   7 10548.3 1038.79   2
   1   6   8 6427.91 830.031   2
   1   6   9 83.3652 198.845   2
   1   6  10 111.679 184.710   2
   1   6  11 7732.88 942.950   2
   1   6  12 732.269 370.635   2
   1   6  13 48055.7 2399.90   2
   1   6  14 2250.76 626.660   2
   1   6  15 22083.7 1723.31   2
   1   6  16 15567.7 1488.22   2
   1   6  17 9767.15 1198.16   2
   1   6  18 30217.5 2116.08   2
   1   6  19 933.405 496.870   2
   1   6  20 25190.6 2009.46   2
   1   6  21 2700.71 752.700   2
   1   6  22 17756.2 1738.99   2
   1   6  23 5613.38 999.268   2
   1   6  24 2574.24 730.272   2
  -1   7  23 7115.53 1167.47   2
  -1   7  22 911.611 508.037   2
  -1   7  21 18939.3 1773.23   2
  -1   7  20 2688.63 737.942   2
  -1   7  19 28621.0 2132.27   2
  -1   7  18 934.052 572.874   2
  -1   7  17 14994.2 1512.63   2
  -1   7  16 7931.40 1121.15   2
  -1   7  15 6047.07 990.760   2
  -1   7  14 8409.39 1098.51   2
  -1   7  13-42.4946 242.463   2
   1   7 -12 996.206 267.458   2
  -1   7  12 1144.14 446.307   2
  -1   7  11 15200.1 1379.44   2
   1   7 -11 14906.9 1066.49   2
  -1   7  10 1530.44 439.056   2
   1   7 -10 1310.89 343.475   2
   1   7  -9 4194.06 585.343   2
  -1   7   9 4650.46 758.397   2
   1   7  -8 24692.0 1358.97   2
  -1   7   8 22004.6 1584.69   2
   1   7  -7 108.834 159.648   2
  -1   7   7 354.501 241.440   2
   1   7  -6 24409.4 1335.12   2
  -1   7   6 23540.2 1582.87   2
  -1   7   5 32812.7 1856.05   2
   1   7  -5 30123.2 1489.21   2
  -1   7   4 15413.0 1257.88   2
   1   7  -4 13434.6 1006.89   2
  -1   7   3 116913. 3383.22   2
   1   7  -3 118522. 2978.65   2
   1   7  -2 2356.70 476.147   2
  -1   7   2 4028.03 709.781   2
   1   7  -1 192431. 3953.85   2
  -1   7   1 194395. 4320.36   2
  -1   7   0 5368.95 827.410   2
   1   7   0 4487.64 645.434   2
  -1   7  -1 162015. 3917.90   2
   1   7   1 151406. 3613.39   2
  -1   7  -2 3019.15 603.730   2
   1   7   2 2458.50 499.485   2
  -1   7  -3 42278.0 2036.05   2
   1   7   3 41096.5 1952.03   2
  -1   7  -4 25997.1 1592.37   2
   1   7   4 23590.4 1508.87   2
   1   7   5 8447.16 945.198   2
  -1   7  -5 10350.2 1017.90   2
  -1   7  -6 38963.6 1934.66   2
   1   7   6 37627.3 1995.16   2
  -1   7  -7 1782.61 437.639   2
   1   7   7 1810.91 482.855   2
   1   7   8 6683.75 903.595   2
   1   7   9 20844.5 1573.93   2
   1   7  10 516.093 350.740   2
   1   7  11 2798.67 624.802   2
   1   7  12 8070.24 1015.62   2
   1   7  13 869.868 457.066   2
   1   7  14 10284.7 1192.02   2
   1   7  15 20570.4 1692.78   2
   1   7  16 6498.56 1024.65   2
   1   7  17 32607.9 2234.80   2
   1   7  18 1723.88 613.130   2
   1   7  19 29956.3 2217.55   2
   1   7  20 660.643 492.795   2
   1   7  21 16837.9 1704.29   2
   1   7  22 798.704 440.625   2
  -1   8  20 334.976 366.984   2
  -1   8  19 1537.18 616.518   2
  -1   8  18 1026.66 556.956   2
  -1   8  17 6928.65 1091.51   2
  -1   8  16 9663.11 1296.26   2
  -1   8  15 18510.6 1761.94   2
  -1   8  14 13597.8 1470.32   2
  -1   8  13 12939.1 1410.59   2
  -1   8  12 25069.7 1902.50   2
  -1   8  11 638.824 462.777   2
  -1   8  10 20825.9 1670.60   2
  -1   8   9 11976.0 1272.40   2
   1   8  -8 21087.7 1367.63   2
  -1   8   8 20695.9 1650.27   2
  -1   8   7 30229.2 1939.98   2
   1   8  -7 29750.0 1619.64   2
  -1   8   6 9602.53 1110.06   2
   1   8  -6 10083.2 957.157   2
  -1   8   5 49502.2 2433.14   2
   1   8  -5 46789.3 2024.64   2
  -1   8   4 4117.72 750.985   2
   1   8  -4 3670.73 609.624   2
   1   8  -3 29566.6 1646.96   2
  -1   8   3 30146.2 1870.34   2
  -1   8   2 325.019 294.164   2
   1   8  -2 350.367 262.356   2
  -1   8   1 728.058 341.456   2
   1   8  -1 1112.55 348.882   2
   1   8   0 221.831 186.147   2
  -1   8   0 10.8798 214.589   2
  -1   8  -1 18098.4 1432.04   2
   1   8   1 17319.0 1320.76   2
   1   8   2 550.264 282.703   2
  -1   8  -2-155.628 220.737   2
  -1   8  -3 52690.6 2451.00   2
   1   8   3 49908.5 2301.84   2
  -1   8  -4 20762.6 1586.10   2
   1   8   4 19388.3 1474.69   2
  -1   8  -5 58354.4 2604.41   2
   1   8   5 57356.6 2557.10   2
   1   8   6 13271.5 1261.04   2
  -1   8  -6 13533.6 1273.07   2
  -1   8  -7 20226.9 1556.06   2
   1   8   7 22023.4 1658.88   2
  -1   8  -8 29310.0 1856.01   2
   1   8   8 28280.2 1913.01   2
  -1   8  -9 1067.22 432.814   2
   1   8   9 867.659 405.827   2
  -1   8 -10 25953.5 1768.19   2
   1   8  10 25003.5 1823.93   2
  -1   8 -11 17221.8 1457.28   2
   1   8  11 15425.8 1465.80   2
   1   8  12 25202.9 1899.73   2
   1   8  13 14958.0 1478.14   2
   1   8  14 10095.8 1243.18   2
   1   8  15 14383.7 1481.20   2
   1   8  16 4138.18 848.617   2
   1   8  17 5232.54 948.653   2
   1   8  18-69.8014 226.507   2
   1   8  19 23.2034 222.715   2
   1   8  20-194.345 278.556   2
  -1   9  17 46.7344 346.443   2
  -1   9  16 1057.24 463.098   2
  -1   9  15 6901.78 1139.30   2
  -1   9  14 550.389 444.923   2
  -1   9  13 26264.8 2089.60   2
  -1   9  12 823.238 490.323   2
  -1   9  11 36565.0 2412.34   2
  -1   9  10 2850.33 780.941   2
  -1   9   9 52774.2 2799.53   2
  -1   9   8 2756.06 745.493   2
  -1   9   7 29999.4 2088.49   2
  -1   9   6 1978.49 586.356   2
  -1   9   5 578.933 352.491   2
  -1   9   4 1607.80 498.522   2
   1   9  -3 3865.22 649.234   2
  -1   9   3 3914.75 763.621   2
  -1   9   2 508.037 293.472   2
   1   9  -2 368.489 188.509   2
   1   9  -1 8992.10 1020.30   2
  -1   9   1 10050.8 1165.49   2
   1   9   0 217.350 253.437   2
  -1   9   0 291.897 302.363   2
   1   9   1 7204.34 916.549   2
  -1   9  -1 8053.71 1026.72   2
   1   9   2 529.447 327.094   2
  -1   9  -2 423.758 248.717   2
   1   9   3-98.2875 229.211   2
  -1   9  -3-48.0728 305.210   2
   1   9   4 2258.71 552.473   2
  -1   9  -4 2023.74 559.349   2
  -1   9  -5 18675.2 1579.44   2
   1   9   5 19395.5 1596.19   2
  -1   9  -6 2529.84 666.162   2
   1   9   6 2767.81 661.916   2
  -1   9  -7 57295.5 2809.22   2
   1   9   7 57169.2 2824.29   2
  -1   9  -8 1979.15 592.991   2
   1   9   8 2075.52 629.304   2
   1   9   9 45816.3 2576.80   2
  -1   9  -9 47446.9 2558.82   2
  -1   9 -10 985.677 543.668   2
   1   9  10 293.434 342.094   2
  -1   9 -11 44680.5 2494.69   2
   1   9  11 40813.8 2469.86   2
  -1   9 -12 875.287 501.139   2
   1   9  12 1591.53 549.653   2
  -1   9 -13 18032.2 1620.31   2
   1   9  13 17803.9 1672.56   2
   1   9  14 713.674 407.836   2
  -1   9 -14 1007.56 483.090   2
   1   9  15 321.266 351.207   2
  -1   9 -15-97.3126 273.814   2
   1   9  16 1952.32 595.843   2
   1   9  17 848.039 424.450   2
   1   9  18 230.152 377.635   2
  -1  10  13 6842.75 1153.92   2
  -1  10  12 1477.12 570.705   2
  -1  10  11 635.727 385.981   2
  -1  10  10 1869.22 559.064   2
  -1  10   9 7035.07 1113.85   2
  -1  10   8 2415.57 708.745   2
  -1  10   7 13814.6 1540.21   2
  -1  10   6 7100.94 1122.00   2
  -1  10   5 20401.0 1811.22   2
  -1  10   4 8543.74 1182.21   2
  -1  10   3 11450.0 1361.75   2
  -1  10   2 8122.92 1140.95   2
  -1  10   1 12.5681 296.914   2
  -1  10   0 4576.63 865.241   2
  -1  10  -1 6980.05 1048.01   2
  -1  10  -2 5872.88 987.530   2
   1  10   3 14796.4 1450.81   2
  -1  10  -3 17051.3 1617.37   2
   1  10   4 12184.2 1325.39   2
  -1  10  -4 10631.0 1300.22   2
  -1  10  -5 29324.3 2107.24   2
   1  10   5 22857.6 1831.98   2
   1  10   6 3697.43 794.027   2
  -1  10  -6 3998.29 843.280   2
  -1  10  -7 10124.8 1271.74   2
   1  10   7 9345.94 1226.14   2
  -1  10  -8 2116.93 645.920   2
   1  10   8 3264.52 774.943   2
  -1  10  -9 406.173 360.787   2
   1  10   9 102.702 272.988   2
  -1  10 -10 1914.78 583.450   2
   1  10  10 1089.31 471.767   2
   1  10  11 8726.56 1210.51   2
  -1  10 -11 8076.28 1171.50   2
   1  10  12 283.639 335.157   2
  -1  10 -12 688.033 395.731   2
  -1  10 -13 8058.41 1171.43   2
   1  10  13 8669.67 1220.11   2
  -1  10 -14 741.070 504.029   2
   1  10  14 580.298 362.815   2
  -1  10 -15 7452.69 1158.78   2
  -1  11   6 443.631 391.669   2
  -1  11   5 3769.25 870.806   2
  -1  11   4-718.198 473.684   2
  -1  11   3 21299.1 1944.07   2
  -1  11   2 285.743 469.211   2
  -1  11   1 34966.7 2497.93   2
  -1  11   0-77.0480 432.515   2
  -1  11  -1 34406.2 2453.77   2
  -1  11  -2 206.278 414.244   2
  -1  11  -3 7115.91 1161.47   2
  -1  11  -4 153.055 336.251   2
  -1  11  -5-356.892 399.371   2
  -1  11  -6 391.350 346.297   2
  -1  11  -7 1283.00 547.751   2
  -1  11  -8-849.326 449.337   2
   2   0 -28 179.814 287.071   3
   2   0 -27-308.043 311.210   3
   2   0 -26 399.794 336.038   3
   2   0 -25 602.601 368.820   3
  -2   0  25 486.137 366.412   2
  -2   0  24 16781.4 1382.83   2
   2   0 -24 17515.0 1524.74   3
   2   0 -23 2976.49 704.614   3
  -2   0  23 1676.50 542.775   2
   2   0 -22 66008.7 2807.26   3
  -2   0  22 61100.0 2471.64   2
  -2   0  21 3126.48 678.808   2
   2   0 -21 3630.20 771.670   3
  -2   0  20 68294.2 2465.63   2
   2   0 -20 74957.8 2848.50   3
   2   0 -19 2613.98 656.732   3
  -2   0  19 2624.85 625.280   2
   2   0 -18 57886.2 2377.07   3
  -2   0  18 59032.1 2135.89   2
   2   0 -17 364.442 355.416   3
  -2   0  17 761.980 348.546   2
   2   0 -16 7226.27 827.573   3
  -2   0  16 6911.92 699.157   2
   2   0 -15-822.589 320.958   3
  -2   0  15 126.290 189.226   2
   2   0 -14 3815.00 567.702   3
  -2   0  14 4717.62 548.980   2
  -2   0  13 199.073 198.900   2
   2   0 -13-272.547 226.648   3
  -2   0  12 27203.8 1194.70   2
   2   0 -12 27351.2 1398.98   3
  -2   0  11 233.447 192.040   2
   2   0 -11 187.110 250.377   3
  -2   0  10 41755.6 1316.34   2
   2   0 -10 40510.4 1624.53   3
   2   0  -9 106.412 183.110   3
  -2   0   9 218.060 161.202   2
   2   0  -8 8789.22 720.245   3
  -2   0   8 9129.05 579.304   2
  -2   0   7 73.3847 117.458   2
   2   0  -7-26.2453 142.390   3
   2   0  -6 13359.5 842.089   3
  -2   0   6 12866.6 635.418   2
   2   0  -5 417.236 248.398   3
  -2   0   5 144.183 106.550   2
   2   0  -4 438488. 4516.94   3
  -2   0   4 441046. 3278.13   2
   2   0  -3 1999.42 430.398   3
   2   0  -3 1108.65 356.172   1
   2   0  -2 996597. 6434.76   3
   2   0  -2 999999. 6855.88   1
   2   0  -1 2256.53 418.905   3
   2   0  -1 1899.77 396.087   1
   2   0   0 866516. 5575.38   3
   2   0   0 905150. 6481.96   1
   2   0   1 2491.46 332.733   3
   2   0   1 651.137 271.447   1
   2   0   2 385682. 4327.93   1
   2   0   2 381055. 3436.35   3
   2   0   3 184.987 126.871   3
   2   0   3 414.702 192.771   1
   2   0   4 30263.6 1266.14   1
   2   0   5 102.483 125.336   1
   2   0   6 38712.4 1527.26   1
   2   0   7 272.035 175.834   1
   2   0   8 33200.9 1401.21   2
   2   0   8 32769.5 1524.64   1
  -2   0  -8 31618.0 718.803   3
  -2   0  -9 121.035 57.6040   3
   2   0   9-90.1485 143.871   2
   2   0   9 53.5591 180.415   1
   2   0  10 55819.1 1968.32   2
   2   0  10 56660.0 2096.46   1
   2   0  11 44.1008 160.539   2
   2   0  12 6355.11 742.811   2
   2   0  13 405.152 241.042   2
   2   0  14 10609.0 995.664   2
   2   0  15 291.238 270.789   2
   2   0  16 109737. 3311.27   2
   2   0  17 1435.92 578.876   2
   2   0  18 137770. 3937.28   2
   2   0  19 1349.51 588.280   2
   2   0  20 93104.4 3422.79   2
   2   0  21 1193.64 571.993   2
   2   0  22 24640.0 1877.77   2
   2   0  23 166.327 320.821   2
   2   0  24 1376.91 560.439   2
   2   0  25-34.9916 308.865   2
   2   0  26 302.749 286.083   2
   2   0  27 115.686 277.912   2
   2  -1 -29-645.350 445.233   3
   2  -1 -28 4309.29 887.496   3
  -2   1  27 1669.43 560.333   2
   2   1 -27 1858.32 586.609   3
   2  -1 -27 2327.64 694.617   3
   2   1 -26 8649.85 1111.78   3
   2  -1 -26 10723.1 1317.07   3
  -2   1  26 8387.02 1084.60   2
   2  -1 -25 4948.29 905.191   3
   2   1 -25 4264.62 794.349   3
  -2   1  25 3929.00 741.364   2
   2   1 -24 4522.11 791.992   3
   2  -1 -24 4327.42 839.761   3
  -2   1  24 4129.40 751.509   2
   2  -1 -23 6128.64 919.972   3
   2   1 -23 6295.27 891.815   3
  -2   1  23 5398.54 841.156   2
  -2  -1  23 6377.30 800.614   2
   2  -1 -22 1829.36 573.904   3
   2   1 -22 1928.37 532.004   3
  -2   1  22 2171.80 541.740   2
  -2  -1  22 1856.05 474.687   2
   2   1 -21 9920.12 1071.08   3
   2  -1 -21 10625.7 1154.74   3
  -2   1  21 10307.4 1048.65   2
  -2  -1  21 9777.10 943.997   2
   2  -1 -20 3050.54 629.627   3
  -2  -1  20 3471.31 565.599   2
   2   1 -20 4114.41 675.679   3
  -2   1  20 3841.06 677.713   2
   2   1 -19 16013.9 1264.09   3
  -2  -1  19 13344.8 1026.37   2
  -2   1  19 15460.4 1227.88   2
   2  -1 -19 15240.5 1317.02   3
  -2   1  18 31678.4 1678.20   2
   2  -1 -18 32269.9 1842.65   3
   2   1 -18 28263.7 1638.02   3
  -2  -1  18 31495.2 1506.61   2
   2  -1 -17 19713.7 1455.17   3
   2   1 -17 19361.6 1331.34   3
  -2   1  17 19352.3 1295.71   2
  -2  -1  17 20384.6 1165.75   2
   2   1 -16 57671.1 2209.84   3
  -2  -1  16 61994.8 1923.39   2
  -2   1  16 57561.7 2147.13   2
   2  -1 -16 62277.4 2476.07   3
   2   1 -15 16980.7 1202.69   3
   2  -1 -15 19150.0 1364.12   3
  -2  -1  15 18440.9 1028.17   2
  -2   1  15 17417.3 1188.72   2
   2  -1 -14 87242.2 2729.89   3
   2   1 -14 86320.2 2565.20   3
  -2   1  14 85096.6 2454.72   2
  -2  -1  14 81866.0 2025.85   2
   2  -1 -13 11122.8 985.132   3
   2   1 -13 9602.08 871.200   3
  -2   1  13 10644.8 865.835   2
  -2  -1  13 10050.4 688.656   2
   2  -1 -12 8247.76 841.365   3
   2   1 -12 7825.56 744.346   3
  -2  -1  12 7649.03 557.087   2
  -2   1  12 8141.55 728.623   2
   2   1 -11 27227.5 1344.93   3
   2  -1 -11 29301.4 1470.47   3
  -2  -1  11 29236.9 1010.33   2
  -2   1  11 27395.6 1277.10   2
   2   1 -10 15179.2 1001.42   3
  -2  -1  10 17018.1 717.258   2
  -2   1  10 17077.3 1004.94   2
  -2  -1   9 28761.5 858.219   2
  -2   1   9 27741.2 1237.74   2
   2   1  -9 28032.7 1319.21   3
  -2   1   8 257169. 3595.24   2
   2   1  -8 261296. 3907.32   3
  -2  -1   8 257608. 2297.07   2
   2   1  -7 15915.8 537.295   2
   2   1  -7 16302.7 1006.88   3
  -2  -1   7 16431.2 523.015   2
  -2   1   7 16570.4 904.349   2
   2   1  -6 361195. 4389.19   3
  -2  -1   6 359888. 2077.96   2
  -2   1   6 357874. 3876.27   2
   2   1  -5 130649. 2593.97   3
  -2  -1   5 127027. 1038.04   2
  -2   1   5 129831. 2238.24   2
   2   1  -4 108591. 2265.83   1
   2   1  -4 107330. 2279.35   3
  -2   1   4 105581. 1912.72   2
  -2   1   3 160934. 2317.21   2
   2   1  -3 160370. 2710.03   3
   2  -1  -3 159220. 2667.91   3
   2   1  -3 159806. 2719.94   1
   2  -1  -2 17383.6 856.451   3
   2   1  -2 17945.7 917.990   1
  -2  -1   2 16349.2 402.279   2
   2   1  -2 17788.1 895.128   3
   2  -1  -2 17724.3 941.772   1
  -2   1   2 16727.6 726.625   2
  -2  -1   2 18043.2 423.641   2
   2  -1  -1 128559. 2249.60   3
   2   1  -1 129319. 2449.73   1
   2   1  -1 129489. 2343.81   3
   2  -1  -1 134687. 2553.47   1
   2   1   0 62733.8 1706.69   1
   2  -1   0 59259.2 1463.25   3
   2  -1   0 62526.3 1718.29   1
   2   1   0 60348.6 1577.50   3
   2  -1   1 110844. 1897.10   3
   2   1   1 112530. 2364.43   1
   2  -1   1 114251. 2314.90   1
   2  -1   2 248811. 3413.04   1
   2   1   2 254197. 3619.87   1
   2  -1   2 249589. 2719.45   3
   2   1   3 94692.7 2254.47   1
   2   1   3 90022.9 1720.64   2
   2  -1   3 91546.3 2071.59   1
   2  -1   3 96445.4 1600.10   3
   2  -1   4 275549. 2489.62   3
   2   1   4 264593. 3152.82   2
   2  -1   4 265461. 3624.92   1
   2   1   4 268790. 4015.78   1
   2  -1   5 55897.3 1034.00   3
   2   1   5 55405.2 1538.26   2
   2  -1   5 59477.5 1745.65   1
   2   1   6 240659. 3375.01   2
   2  -1   6 241421. 3615.86   1
   2  -1   7 14519.1 903.856   1
   2   1   7 12846.9 990.028   1
   2   1   7 12882.7 846.351   2
   2  -1   8 14047.7 920.286   1
   2   1   8 13180.5 1016.15   1
   2   1   8 11612.2 842.483   2
   2   1   9 37272.5 1540.10   2
   2  -1   9 38734.4 1594.25   1
   2   1  10 25750.5 1355.94   2
   2  -1  10 27322.6 1392.32   1
   2   1  11 33112.9 1565.67   2
   2  -1  11 32952.3 1572.36   1
   2   1  12 156080. 3505.89   2
   2  -1  12 150930. 3463.35   1
   2  -1  13 11218.6 987.960   1
   2   1  13 11275.1 1010.78   2
   2   1  14 135193. 3520.48   2
   2  -1  14 140893. 3498.50   1
   2   1  15 35056.0 1853.16   2
   2  -1  15 36924.1 1863.81   1
   2   1  16 24996.2 1608.03   2
   2   1  17 36433.2 2011.20   2
   2   1  18 2115.82 552.658   2
   2   1  19 13302.4 1296.10   2
   2   1  20 6856.20 973.121   2
   2   1  21 9928.17 1196.68   2
   2   1  22 14573.7 1477.24   2
   2   1  23 4364.64 879.431   2
   2   1  24 11498.3 1377.46   2
   2   1  25 2828.84 722.116   2
   2   1  26 6252.51 1047.22   2
   2   1  27 1267.56 528.672   2
   2  -2 -29 1501.17 581.860   3
  -2   2  29 1124.40 564.438   2
   2  -2 -28 4910.98 987.785   3
  -2   2  28 5102.17 952.164   2
   2  -2 -27 238.747 427.396   3
  -2   2  27 974.839 515.884   2
  -2   2  26 2153.84 607.568   2
   2   2 -26 1666.63 512.351   3
   2  -2 -26 1848.31 631.205   3
  -2   2  25 190.233 265.892   2
   2   2 -25 347.635 223.521   3
   2  -2 -25 708.709 388.167   3
   2  -2 -24-458.408 365.420   3
   2   2 -24 40.7556 223.969   3
  -2   2  24 20.9780 240.516   2
   2  -2 -23 1574.65 583.809   3
   2   2 -23 630.128 319.416   3
  -2   2  23 1066.89 415.720   2
   2   2 -22 3063.38 613.828   3
  -2   2  22 2691.30 626.916   2
   2  -2 -22 2940.82 686.553   3
   2   2 -21-67.9007 222.729   3
  -2   2  21-40.5330 208.273   2
   2  -2 -21 84.1291 271.552   3
   2  -2 -20 5826.97 894.546   3
  -2   2  20 4237.35 714.222   2
   2   2 -20 4600.41 712.198   3
  -2  -2  20 5810.88 681.761   2
   2   2 -19 357.472 244.172   3
  -2  -2  19 576.422 240.057   2
  -2   2  19 731.114 366.006   2
   2   2 -18 213.716 204.563   3
  -2   2  18 554.665 300.681   2
  -2  -2  18 402.363 226.192   2
   2   2 -17 5109.25 681.565   3
  -2  -2  17 5774.54 604.399   2
  -2   2  17 6832.94 813.612   2
   2   2 -16 26034.4 1490.55   3
  -2  -2  16 27313.0 1225.99   2
  -2   2  16 26035.0 1542.74   2
   2   2 -15 5097.19 716.277   3
  -2  -2  15 4881.92 525.197   2
  -2   2  15 4303.44 692.507   2
   2   2 -14 120126. 3064.48   3
  -2  -2  14 126387. 2380.89   2
  -2   2  14 120958. 3157.59   2
  -2  -2  13 7743.99 593.978   2
  -2   2  13 7678.48 844.104   2
   2   2 -13 8077.69 872.579   3
   2   2 -12 233656. 4110.54   3
  -2  -2  12 237618. 2862.58   2
  -2   2  12 239435. 4349.32   2
  -2  -2  11 2186.78 339.056   2
   2   2 -11 3340.01 690.846   3
   2   2 -10 304438. 4553.64   3
  -2   2  10 302469. 4531.37   2
   2   2  -9 19903.2 1190.78   3
  -2   2   9 18496.2 1136.55   2
   2   2  -8 201897. 3525.87   3
  -2   2   8 200505. 3474.34   2
   2   2  -7 18346.9 1091.91   3
  -2   2   7 18034.5 1035.21   2
   2   2  -6 70923.2 2041.54   3
  -2   2   6 68127.5 1893.75   2
   2   2  -5 2304.07 389.625   3
   2   2  -5 2333.04 349.844   1
  -2   2   5 2119.56 335.476   2
  -2   2   4 19725.9 949.056   2
   2   2  -4 21345.8 1096.10   3
   2   2  -4 21234.2 986.535   1
  -2   2   3 23331.0 1021.48   2
   2   2  -3 22606.0 1022.87   1
  -2   2   2 61745.6 1627.44   2
   2   2  -2 62411.7 1694.34   1
  -2   2   1 729.416 205.851   2
  -2  -2   1 864.162 108.426   2
   2  -2   0 90926.6 2126.61   1
   2   2   0 89698.8 1195.15   2
  -2  -2   0 93083.2 1362.27   2
   2   2   0 91949.9 2137.28   1
   2   2   1 2338.14 359.417   1
   2  -2   1 2692.19 368.011   1
   2   2   1 2491.96 243.041   2
   2   2   2 2200.95 367.371   1
   2   2   2 1914.04 238.311   2
   2  -2   2 1421.76 270.105   1
   2   2   3 60874.5 1911.00   1
   2  -2   3 59068.1 1675.68   1
   2   2   3 59089.3 1424.28   2
   2   2   4 116417. 2740.31   1
   2   2   4 117527. 2164.25   2
   2  -2   4 118226. 2371.14   1
   2   2   5 12077.8 933.445   1
   2  -2   5 11692.9 764.266   1
   2   2   5 12883.1 781.051   2
   2  -2   6 380423. 2618.03   3
   2   2   6 377890. 4399.73   2
   2  -2   7 7741.06 315.450   3
   2  -2   7 8560.11 677.362   1
   2   2   8 399248. 4940.02   2
   2  -2   8 381996. 4538.86   1
   2   2   9 1342.04 407.466   2
   2  -2   9 534.188 259.233   1
   2  -2  10 311238. 4320.17   1
   2   2  10 308885. 4826.36   2
   2  -2  11 14829.7 976.445   1
   2   2  11 14866.4 1107.02   2
   2  -2  12 107651. 2700.07   1
   2   2  12 112348. 3074.70   2
   2  -2  13 14924.9 1062.77   1
   2   2  13 15142.2 1190.56   2
   2  -2  14 32146.9 1598.76   1
   2   2  14 32481.0 1793.31   2
   2  -2  15 241.631 216.187   1
   2   2  15 128.956 226.785   2
   2  -2  16 6318.70 767.741   1
   2   2  16 5013.82 754.791   2
   2   2  17 2813.99 605.841   2
   2  -2  17 3225.71 585.574   1
   2   2  18 7101.49 953.771   2
   2  -2  18 7797.19 900.205   1
   2  -2  19 364.625 300.930   1
   2   2  19 331.409 307.923   2
   2   2  20 6180.43 949.142   2
   2  -2  20 6155.34 839.888   1
   2   2  21 618.070 371.517   2
   2  -2  21 397.011 300.181   1
   2   2  22-264.969 316.763   2
   2  -2  22-643.599 334.658   1
   2   2  23 2259.08 603.448   2
   2   2  24 6567.52 1068.14   2
   2   2  25 913.641 465.397   2
   2   2  26 14313.1 1601.05   2
   2   2  27 461.368 363.785   2
  -2   3  29 2317.86 659.178   2
   2  -3 -29 3700.52 948.574   3
   2  -3 -28 2657.16 812.081   3
  -2   3  28 2101.56 655.647   2
   2  -3 -27 4885.21 1018.67   3
  -2   3  27 3287.86 782.053   2
  -2   3  26 4123.80 863.391   2
   2  -3 -26 5291.80 1075.43   3
  -2   3  25 1708.87 613.982   2
   2  -3 -25 1824.95 678.535   3
   2  -3 -24 7560.40 1190.63   3
   2   3 -24 7052.01 981.593   3
  -2   3  24 6610.77 1014.89   2
   2   3 -23 400.201 302.944   3
  -2   3  23 621.481 341.072   2
   2   3 -22 365.861 300.235   3
  -2   3  22-95.4263 301.010   2
   2   3 -21 32.1839 286.954   3
  -2   3  21-62.5352 224.103   2
   2   3 -20 4596.72 734.254   3
  -2   3  20 4016.62 750.728   2
   2   3 -19 1113.39 427.416   3
  -2   3  19 1410.10 487.621   2
  -2   3  18 18059.4 1414.26   2
   2   3 -18 20564.8 1431.33   3
   2   3 -17 7415.36 889.965   3
  -2   3  17 5899.33 866.469   2
   2   3 -16 46946.0 2089.76   3
  -2   3  16 48379.6 2245.77   2
  -2   3  15 20304.2 1443.31   2
   2   3 -15 21595.1 1405.18   3
   2   3 -14 42805.6 1918.51   3
  -2   3  14 48766.9 2200.11   2
   2   3 -13 58127.4 2215.45   3
  -2   3  13 61360.5 2415.69   2
  -2   3  12 3642.37 678.738   2
   2   3 -12 4846.64 678.536   3
   2   3 -11 105350. 2874.34   3
  -2   3  11 105489. 2951.08   2
  -2   3  10 21684.6 1310.78   2
   2   3  -9 107495. 1828.22   2
  -2   3   9 99607.2 2723.74   2
   2   3  -8 97822.9 1045.05   2
   2   3  -8 77068.3 1291.16   2
  -2   3   7 99734.2 2570.99   2
   2   3  -6 146750. 2635.52   1
  -2   3   6 140696. 2997.99   2
   2   3  -5 24911.1 1078.66   1
  -2   3   5 26706.2 1264.86   2
  -2   3   4 161597. 3030.45   2
   2   3  -4 163189. 2743.13   1
  -2   3   3 339.898 211.141   2
   2   3  -3 219.175 124.389   1
  -2   3   2 12828.5 835.578   2
   2   3  -2 12223.2 350.303   2
   2   3  -2 11689.0 752.835   1
  -2   3   1 823.386 237.123   2
   2   3  -1 966.729 139.488   2
  -2  -3   1 893.895 121.397   2
   2   3  -1 1013.87 255.577   1
   2   3   0 57278.8 1176.67   2
  -2   3   0 51980.3 1657.15   2
   2   3   0 54710.4 1723.31   1
   2   3   1 12680.7 629.830   2
   2   3   1 11074.6 795.898   1
   2   3   2 135870. 2898.09   1
   2   3   2 141523. 2275.98   2
   2   3   3 71937.2 2166.89   1
   2   3   3 71082.7 1747.59   2
   2  -3   3 71521.8 1875.83   1
   2  -3   4 218359. 3244.92   1
   2   3   4 218691. 3922.10   1
   2   3   4 223273. 3282.65   2
   2  -3   5 90892.3 2096.54   1
   2   3   5 90231.1 2565.94   1
   2   3   5 92013.5 2232.48   2
   2  -3   6 118347. 2397.57   1
   2   3   6 123202. 2705.68   2
   2  -3   7 125296. 2486.00   1
   2   3   7 130006. 2896.10   2
   2   3   8 6077.02 683.087   2
   2  -3   8 5826.21 557.255   1
   2   3   9 135134. 3193.00   2
   2  -3   9 134012. 2611.01   1
   2   3  10 17459.3 1229.79   2
   2  -3  10 17101.9 968.623   1
   2   3  11 72438.3 2530.67   2
   2  -3  11 69546.0 1977.59   1
   2   3  12 91274.9 2925.75   2
   2  -3  12 91055.9 2323.19   1
   2   3  13 34268.2 1845.63   2
   2  -3  13 35529.6 1493.93   1
   2  -3  14 59310.4 1964.39   1
   2   3  14 58229.6 2465.31   2
   2  -3  15 3911.31 544.095   1
   2   3  15 4370.10 734.901   2
   2   3  16 37466.4 2088.74   2
   2  -3  16 36693.1 1633.92   1
   2   3  17 403.036 351.873   2
   2  -3  17 69.1521 232.027   1
   2   3  18 3622.94 738.617   2
   2  -3  18 3621.12 573.519   1
   2  -3  19 36.3979 165.514   1
   2   3  19-103.852 225.691   2
   2   3  20 5213.49 892.470   2
   2   3  21 739.325 416.150   2
   2   3  22 6850.86 1060.55   2
   2   3  23 7853.77 1169.99   2
   2   3  24 10331.7 1339.71   2
   2   3  25 4765.31 933.757   2
   2   3  26 4078.72 915.238   2
  -2   4  28 301.566 313.548   2
   2  -4 -28-1028.32 576.514   3
   2  -4 -27 2481.66 793.053   3
  -2   4  27 1289.64 526.131   2
  -2   4  26 3695.37 875.013   2
  -2   4  25 1733.76 631.656   2
  -2   4  24 11487.8 1355.86   2
  -2   4  23 1615.63 586.892   2
  -2   4  22 23857.3 1875.17   2
  -2   4  21 808.354 539.988   2
  -2   4  20 32932.4 2065.13   2
  -2   4  19 2917.25 724.227   2
  -2   4  18 24215.3 1728.24   2
  -2   4  17 11979.8 1189.45   2
  -2   4  16 6205.72 899.301   2
  -2   4  15 23252.4 1648.73   2
  -2   4  14 118.459 235.655   2
  -2   4  13 10523.8 1070.46   2
  -2   4  12 13254.8 1142.27   2
  -2   4  11 997.662 384.271   2
  -2   4  10 14818.5 1156.53   2
   2   4  -9 7331.68 415.359   2
  -2   4   9 7563.00 819.184   2
  -2   4   8 207.504 246.879   2
   2   4  -8 196.255 87.6055   2
  -2   4   7 69652.1 2345.07   2
   2   4  -7 67867.4 1188.73   2
   2   4  -6 71139.7 1827.82   1
   2   4  -6 72675.5 1258.80   2
   2   4  -5 35678.2 1296.20   1
   2   4  -5 33281.9 723.905   2
   2   4  -5 36624.6 936.177   2
  -2   4   5 37048.0 1622.14   2
   2   4  -4 228041. 3276.61   1
   2   4  -4 238530. 2530.74   2
  -2   4   4 228210. 3963.38   2
  -2   4   3 14778.3 1045.50   2
   2   4  -3 15111.9 872.088   1
   2   4  -3 17048.7 714.869   2
  -2   4   2 311877. 4624.30   2
   2   4  -2 322844. 3265.44   2
   2   4  -2 312327. 3974.50   1
  -2   4   1 1755.36 453.931   2
   2   4  -1 1097.47 299.758   2
   2   4  -1 1586.58 393.357   1
   2   4   0 363159. 4528.32   1
   2   4   0 371249. 3958.56   2
  -2   4  -1 14751.2 1017.40   2
   2   4   1 14780.0 970.558   1
   2   4   1 15871.3 891.639   2
   2   4   2 174770. 3397.83   1
   2   4   2 180060. 3090.67   2
   2   4   3 73889.9 2268.98   1
   2   4   3 73466.4 2072.90   2
   2   4   4 20781.8 1244.92   1
   2   4   4 22917.2 1213.47   2
   2   4   5 62553.5 2072.28   2
   2   4   6 1540.43 393.071   2
   2  -4   6 1521.87 296.769   1
   2  -4   7 13303.6 811.178   1
   2   4   7 11943.1 986.657   2
   2  -4   8 31611.7 1247.73   1
   2   4   8 32227.0 1665.73   2
   2  -4   9 12146.1 777.764   1
   2   4   9 10565.3 1003.35   2
   2  -4  10 16219.2 912.347   1
   2   4  10 17309.7 1277.08   2
   2  -4  11 11136.1 764.607   1
   2   4  11 11099.9 1046.40   2
   2   4  12 558.271 293.766   2
   2  -4  12 147.352 144.029   1
   2   4  13 35909.1 1971.50   2
   2  -4  13 35587.2 1394.48   1
   2   4  14 22679.0 1604.68   2
   2  -4  14 23228.0 1148.92   1
   2   4  15 8493.24 1041.34   2
   2  -4  15 8786.60 732.970   1
   2   4  16 57497.1 2691.58   2
   2   4  17 1424.18 527.384   2
   2   4  18 47278.8 2538.84   2
   2   4  19 1874.05 620.707   2
   2   4  20 44299.4 2567.44   2
   2   4  21 1709.39 628.090   2
   2   4  22 15679.4 1611.07   2
   2   4  23 4275.85 877.260   2
   2   4  24 796.949 406.724   2
   2   4  25 2703.12 756.210   2
  -2   5  26 2408.82 694.917   2
  -2   5  25 2433.52 735.032   2
  -2   5  24 2934.68 781.211   2
  -2   5  23 11494.3 1370.20   2
  -2   5  22 1001.65 460.620   2
  -2   5  21 18549.1 1661.75   2
  -2   5  20 4061.96 854.799   2
  -2   5  19 27481.1 1989.12   2
  -2   5  18 14008.1 1393.88   2
  -2   5  17 14894.6 1412.85   2
  -2   5  16 26158.0 1888.75   2
  -2   5  15 1291.54 500.876   2
  -2   5  14 10238.0 1108.09   2
  -2   5  13 924.448 358.605   2
  -2   5  12-53.0861 238.210   2
  -2   5  11 6249.13 809.898   2
  -2   5  10 7389.17 863.364   2
  -2   5   9 1462.59 428.373   2
  -2   5   8 33597.1 1779.64   2
  -2   5   7 8526.16 910.948   2
   2   5  -6 75361.1 1874.35   1
  -2   5   6 75141.9 2555.28   2
   2   5  -5 53235.7 1594.31   1
   2   5  -5 54810.0 1517.28   2
  -2   5   5 52563.2 2105.33   2
   2   5  -4 55312.4 1644.67   1
   2   5  -4 60122.1 1641.00   2
  -2   5   4 59613.1 2210.95   2
  -2   5   3 180435. 3840.30   2
   2   5  -3 177955. 2975.58   1
   2   5  -3 189101. 3030.83   2
  -2   5   2 7227.55 811.213   2
   2   5  -2 7271.71 655.278   2
   2   5  -2 7516.64 662.152   1
  -2   5   1 221445. 4226.97   2
   2   5  -1 217433. 3554.76   1
   2   5   0 15969.7 1004.06   1
   2   5   0 15938.4 997.308   2
  -2   5   0 16415.6 1201.28   2
   2   5   1 153668. 3182.84   1
   2   5   1 151529. 3123.66   2
  -2   5  -1 157790. 3532.84   2
   2   5   2 69778.4 2229.58   1
   2   5   2 66267.7 2136.64   2
  -2   5  -2 72238.1 2386.76   2
   2   5   3 47504.4 1880.61   1
  -2   5  -3 48103.7 1968.04   2
   2   5   3 45590.7 1823.27   2
   2   5   4 110358. 2944.25   1
   2   5   4 112521. 2917.67   2
   2   5   5 2331.37 481.774   2
   2   5   6 43728.0 1958.12   2
   2   5   7 634.813 293.659   2
   2   5   8 425.583 268.611   2
   2   5   9 6437.31 828.328   2
   2   5  10 1109.74 382.068   2
   2   5  11 141.516 250.229   2
   2   5  12 16962.0 1407.64   2
   2   5  13 11138.6 1165.49   2
   2   5  14 25439.2 1783.55   2
   2   5  15 26866.0 1869.97   2
   2   5  16 19645.2 1631.19   2
   2   5  17 42710.0 2443.75   2
   2   5  18 3253.33 762.319   2
   2   5  19 30096.0 2136.48   2
   2   5  20 1265.09 534.451   2
   2   5  21 11752.5 1408.09   2
   2   5  22 4259.92 891.718   2
   2   5  23 2289.90 702.920   2
   2   5  24 7916.32 1236.90   2
  -2   6  24-170.872 281.169   2
  -2   6  23 1546.87 566.572   2
  -2   6  22 506.853 381.792   2
  -2   6  21 370.199 319.272   2
  -2   6  20 510.630 411.002   2
  -2   6  19 2556.98 691.545   2
  -2   6  18 442.597 385.110   2
  -2   6  17 5878.82 972.832   2
  -2   6  16 8483.99 1163.23   2
  -2   6  15 24269.1 1838.03   2
  -2   6  14 25794.9 1886.66   2
  -2   6  13 15910.8 1464.68   2
  -2   6  12 71236.3 2926.86   2
  -2   6  11 2733.88 686.564   2
  -2   6  10 83232.2 3088.93   2
  -2   6   9 11896.2 1168.96   2
  -2   6   8 36301.1 1988.59   2
  -2   6   7 55786.2 2424.62   2
  -2   6   6 7846.92 924.393   2
  -2   6   5 47520.9 2161.72   2
   2   6  -4 84.1291 144.833   1
  -2   6   4 255.768 306.235   2
   2   6  -3 20639.3 1034.39   1
  -2   6   3 19923.6 1381.27   2
  -2   6   2 5758.03 762.044   2
   2   6  -2 5650.19 637.089   2
   2   6  -2 5317.51 562.367   1
  -2   6   1 714.435 290.466   2
   2   6  -1 1072.13 310.508   2
   2   6  -1 1781.65 350.887   1
  -2   6   0-55.8910 277.232   2
   2   6   0 70.0506 153.977   1
  -2   6  -1 47107.5 2114.99   2
   2   6   1 49411.5 1989.96   2
   2   6   2 333.928 272.591   1
   2   6   2 225.220 250.476   2
  -2   6  -2 275.443 351.587   2
   2   6   3 46690.6 1928.06   1
  -2   6  -3 49398.1 2159.64   2
   2   6   3 48292.8 2036.92   2
  -2   6  -4 22128.0 1465.26   2
   2   6   4 19323.0 1292.03   1
   2   6   4 20792.8 1379.22   2
  -2   6  -5 58405.4 2374.64   2
   2   6   5 54528.5 2269.77   2
   2   6   6 44783.5 2086.26   2
   2   6   7 19581.7 1431.58   2
   2   6   8 112805. 3486.95   2
   2   6   9 4984.37 808.412   2
   2   6  10 93102.8 3303.34   2
   2   6  11 14005.2 1346.85   2
   2   6  12 41172.3 2281.57   2
   2   6  13 28598.9 1941.25   2
   2   6  14 4296.88 802.700   2
   2   6  15 11613.8 1301.57   2
   2   6  16 117.161 258.295   2
   2   6  17 1472.85 494.891   2
   2   6  18 210.530 289.128   2
   2   6  19 945.511 441.122   2
   2   6  20 120.176 238.590   2
   2   6  21 5639.39 1023.28   2
   2   6  22 485.447 378.978   2
   2   6  23 3568.30 841.958   2
  -2   7  22-243.512 347.224   2
  -2   7  21 1238.63 515.944   2
  -2   7  20 1404.62 508.586   2
  -2   7  19 1647.10 555.331   2
  -2   7  18 6045.75 1006.12   2
  -2   7  17 776.452 425.300   2
  -2   7  16 4801.91 890.043   2
  -2   7  15 15183.2 1533.82   2
  -2   7  14 2700.83 695.811   2
  -2   7  13 33059.1 2196.05   2
  -2   7  12 1991.37 654.568   2
  -2   7  11 69618.4 3042.88   2
  -2   7  10 4749.74 906.552   2
  -2   7   9 60218.5 2746.90   2
  -2   7   8 10289.8 1146.07   2
  -2   7   7 28004.5 1862.84   2
  -2   7   6 17905.2 1464.50   2
  -2   7   5 480.804 292.493   2
  -2   7   4 8159.94 981.347   2
  -2   7   3 7131.92 912.116   2
  -2   7   2 9174.03 1016.28   2
  -2   7   1 10484.1 1091.37   2
   2   7   0 4171.42 544.962   1
  -2   7   0 4561.86 727.498   2
  -2   7  -1 7101.86 912.161   2
   2   7   1 5563.23 647.312   1
  -2   7  -2 28373.0 1796.20   2
   2   7   2 27605.4 1637.82   2
   2   7   2 26094.9 1436.41   1
  -2   7  -3 3752.96 664.671   2
   2   7   3 3583.08 580.867   1
   2   7   3 3346.00 596.633   2
   2   7   4 13193.7 1081.04   1
  -2   7  -4 15569.7 1335.96   2
   2   7   4 15131.5 1253.29   2
   2   7   5 53902.5 2221.86   1
   2   7   5 59057.7 2502.55   2
   2   7   6 9993.05 1064.74   2
  -2   7  -6 10991.8 1155.09   2
  -2   7  -7 92478.8 3271.31   2
   2   7   7 87373.4 3142.42   2
   2   7   8 1670.59 554.933   2
   2   7   9 94421.1 3405.35   2
   2   7  10 1574.83 575.152   2
   2   7  11 37970.1 2253.06   2
   2   7  12 4474.86 841.978   2
   2   7  13 11988.9 1324.40   2
   2   7  14 7274.96 1071.68   2
   2   7  15-0.50628 231.994   2
   2   7  16 4602.11 874.506   2
   2   7  17 1710.94 590.094   2
   2   7  18 4181.57 857.066   2
   2   7  19 692.484 402.357   2
   2   7  20-358.616 310.578   2
   2   7  21-253.285 422.209   2
  -2   8  19 1891.80 712.893   2
  -2   8  18 4418.95 934.942   2
  -2   8  17 11668.6 1485.68   2
  -2   8  16 1618.99 602.734   2
  -2   8  15 10907.3 1359.49   2
  -2   8  14 152.237 344.952   2
  -2   8  13 4229.07 830.795   2
  -2   8  12-225.843 292.588   2
  -2   8  11 317.269 319.123   2
  -2   8  10 966.769 511.283   2
  -2   8   9 9227.88 1168.84   2
  -2   8   8 3439.93 737.802   2
  -2   8   7 38634.9 2303.08   2
  -2   8   6 11023.6 1265.66   2
  -2   8   5 38325.4 2279.51   2
  -2   8   4 32244.1 2061.89   2
  -2   8   3 12750.3 1315.55   2
  -2   8   2 38270.9 2213.11   2
  -2   8   1 842.796 412.370   2
  -2   8   0 15932.3 1445.19   2
  -2   8  -1 22984.5 1731.00   2
  -2   8  -2 37040.1 2198.97   2
  -2   8  -3 41225.3 2362.77   2
  -2   8  -4 13869.5 1386.98   2
  -2   8  -5 36882.1 2226.78   2
  -2   8  -6 2263.60 670.482   2
   2   8   6 1579.25 422.437   1
  -2   8  -7 3552.11 719.772   2
  -2   8  -8 84.3699 246.084   2
   2   8   8-259.749 289.341   2
   2   8   9 368.776 296.388   2
  -2   8  -9-306.979 296.160   2
  -2   8 -10-767.092 395.866   2
   2   8  10 771.488 372.198   2
   2   8  11 12622.1 1377.01   2
   2   8  12 557.886 408.886   2
   2   8  13 25625.1 2010.93   2
   2   8  14 1867.64 580.185   2
   2   8  15 12720.8 1447.88   2
   2   8  16 4883.05 919.677   2
   2   8  17 3040.81 768.886   2
   2   8  18 9096.15 1293.52   2
   2   8  19-279.921 345.292   2
  -2   9  15 862.903 510.217   2
  -2   9  14 161.456 321.623   2
  -2   9  13 2388.82 658.907   2
  -2   9  12 396.453 311.374   2
  -2   9  11 7221.23 1101.72   2
  -2   9  10 1069.05 505.043   2
  -2   9   9 711.832 423.866   2
  -2   9   8 1280.53 458.965   2
  -2   9   7 444.337 355.579   2
  -2   9   6 849.887 375.710   2
  -2   9   5 17686.6 1692.66   2
  -2   9   4 1297.15 602.502   2
  -2   9   3 51594.2 2786.27   2
  -2   9   2 2162.58 702.780   2
  -2   9   1 73993.8 3286.21   2
  -2   9   0 1756.36 726.857   2
  -2   9  -1 54555.3 2848.28   2
  -2   9  -2 2579.09 770.976   2
  -2   9  -3 11933.2 1353.15   2
  -2   9  -4 3502.77 793.661   2
  -2   9  -5 760.565 458.072   2
  -2   9  -6 2113.42 572.286   2
  -2   9  -7 7820.16 1112.79   2
  -2   9  -8 1577.87 551.496   2
  -2   9  -9 10837.6 1337.24   2
  -2   9 -10 223.992 330.619   2
  -2   9 -11-161.431 300.601   2
  -2   9 -12 139.246 250.703   2
  -2   9 -13 383.087 339.571   2
  -2   9 -14 713.312 436.787   2
  -2  10   9 4269.42 889.433   2
  -2  10   8 2217.02 720.125   2
  -2  10   7 16834.5 1758.09   2
  -2  10   6 2238.89 703.480   2
  -2  10   5 16343.6 1706.16   2
  -2  10   4 4083.26 909.329   2
  -2  10   3 7463.04 1165.03   2
  -2  10   2 1998.89 656.318   2
  -2  10   1 44.2307 302.114   2
  -2  10   0 987.705 540.772   2
  -2  10  -1 14795.2 1590.82   2
  -2  10  -2 4110.93 915.679   2
  -2  10  -3 21021.2 1903.78   2
  -2  10  -4 4004.92 920.809   2
  -2  10  -5 15986.3 1682.57   2
  -2  10  -6 2750.93 744.580   2
  -2  10  -7 2272.11 677.058   2
  -2  10  -8 4924.02 1005.83   2
  -2  10  -9-26.2236 337.406   2
   3   0 -28 2081.74 695.861   3
   3   0 -27 885.483 503.268   3
   3   0 -26-1631.98 593.921   3
   3   0 -25-1183.23 518.939   3
   3   0 -24-157.904 392.399   3
   3   0 -23-367.677 433.261   3
   3   0 -22 1852.44 551.990   3
   3   0 -21-940.698 442.417   3
   3   0 -20 620.653 383.508   3
   3   0 -19-234.091 450.472   3
   3   0 -18-197.902 323.590   3
   3   0 -17-225.878 338.432   3
   3   0 -16 19604.0 1507.17   3
   3   0 -15 1673.83 642.167   3
   3   0 -14 109998. 3414.97   3
  -3   0  14 102060. 2392.54   2
   3   0 -13 3113.66 800.312   3
  -3   0  13 1955.33 447.861   2
  -3   0  12 184968. 3034.33   2
   3   0 -12 194261. 4337.74   3
   3   0 -11 4487.76 963.223   3
  -3   0  11 2579.47 486.880   2
   3   0 -10 248955. 4711.25   3
  -3   0  10 255037. 3324.35   2
   3   0  -9 2918.35 709.521   3
  -3   0   9 777.691 309.344   2
   3   0  -8 84325.7 2623.17   3
  -3   0   8 94370.7 1986.46   2
   3   0  -7-399.414 338.504   3
  -3   0   7 345.606 175.116   2
   3   0  -6-71.8614 337.711   3
  -3   0   6 1141.89 222.937   2
   3   0  -5-243.362 338.868   3
  -3   0   5 270.553 137.285   2
   3   0  -4 23295.7 1244.83   3
  -3   0   4 25617.9 927.710   2
   3   0  -3 677.744 305.220   3
   3   0  -3 430.835 250.194   1
  -3   0   3 115.564 96.4903   2
   3   0  -2 63585.8 1977.60   3
   3   0  -2 63575.3 2165.76   1
  -3   0   2 62279.4 1437.77   2
   3   0  -1 585.430 255.548   3
   3   0  -1-39.3849 145.846   1
   3   0   0 17211.8 1133.24   1
   3   0   0 18119.3 1005.89   3
   3   0   1 152.432 179.432   1
   3   0   1 204.882 178.699   3
   3   0   2 4256.67 467.129   3
   3   0   2 4378.01 591.161   1
   3   0   3 134.803 179.394   1
   3   0   3 162.963 129.963   3
   3   0   4 67717.2 2309.23   1
   3   0   5 1510.61 457.212   1
   3   0   6 315705. 5216.69   1
   3   0   7 1860.47 557.396   1
   3   0   8 313723. 5415.59   1
   3   0   9 844.286 516.578   1
   3   0  10 264357. 5246.83   1
   3   0  11 745.872 438.485   1
   3   0  12 51884.7 2462.93   1
   3   0  13 269.651 304.501   1
   3   0  14 1651.83 503.169   1
   3   0  15 100.361 257.069   1
   3   0  16 10033.3 1213.50   1
   3   0  17 30.9144 227.413   1
   3   0  18 9064.49 1214.82   1
   3   0  19 195.798 347.428   1
   3   0  20 1274.01 577.533   1
   3   0  21-860.421 473.172   1
   3   0  22 1813.99 662.843   1
   3   0  23 57.6761 305.853   1
   3   0  24 3679.16 871.233   1
   3   0  25 101.237 378.588   1
   3   0  26 13566.1 1725.20   1
   3   0  27 732.021 484.171   1
   3   1 -28 2190.23 700.830   3
   3  -1 -27 1072.51 570.652   3
   3   1 -27 1507.15 593.980   3
   3  -1 -26 5614.32 1070.79   3
   3   1 -26 5498.52 1001.68   3
   3  -1 -25 2257.02 721.318   3
   3   1 -25 2445.03 687.158   3
   3  -1 -24 3487.63 810.635   3
   3   1 -24 3868.59 801.690   3
   3  -1 -23 1396.29 546.331   3
   3   1 -23 1046.03 428.503   3
   3  -1 -22 146.889 270.997   3
   3   1 -22-77.6894 277.424   3
   3  -1 -21 2434.65 663.337   3
   3   1 -21 1666.23 528.606   3
   3  -1 -20 5668.87 909.125   3
   3   1 -20 4953.79 838.523   3
   3  -1 -19 4389.58 825.624   3
   3   1 -19 5040.50 817.201   3
   3   1 -18 34162.5 2013.88   3
   3  -1 -18 33991.0 2114.73   3
   3   1 -17 9416.84 1091.09   3
   3  -1 -17 10116.9 1163.09   3
  -3   1  17 9326.77 937.668   2
   3  -1 -16 38597.6 2136.74   3
   3   1 -16 39667.9 2069.38   3
  -3   1  16 38743.4 1793.10   2
   3  -1 -15 12352.9 1224.64   3
   3   1 -15 11750.5 1135.29   3
  -3   1  15 11805.3 979.394   2
   3   1 -14 23416.1 1538.04   3
   3  -1 -14 24064.3 1624.96   3
  -3   1  14 21866.7 1269.73   2
   3  -1 -13 27619.6 1689.89   3
   3   1 -13 27057.3 1617.98   3
  -3   1  13 28160.6 1413.04   2
   3  -1 -12 781.582 456.438   3
   3   1 -12 1319.88 475.291   3
  -3   1  12 879.216 355.374   2
   3  -1 -11 50320.9 2191.67   3
   3   1 -11 52403.3 2166.74   3
  -3   1  11 52605.7 1870.45   2
   3  -1 -10 32154.0 1734.28   3
   3   1 -10 32059.4 1674.55   3
  -3   1  10 33682.1 1473.93   2
   3   1  -9 25261.3 1483.40   3
   3  -1  -9 24949.5 1493.68   3
  -3   1   9 25245.6 1257.15   2
   3  -1  -8 92429.4 2764.26   3
   3   1  -8 91983.1 2724.50   3
  -3  -1   8 89482.9 1052.74   2
  -3   1   8 96426.6 2362.31   2
   3  -1  -7 29313.4 1557.18   3
   3   1  -7 27755.0 1491.97   3
  -3  -1   7 25429.8 496.584   2
  -3   1   7 28720.8 1266.07   2
   3  -1  -6 168326. 3570.42   3
   3   1  -6 174877. 3591.80   3
  -3   1   6 173979. 3014.92   2
   3  -1  -5 38071.6 1679.63   3
   3   1  -5 34726.8 1625.49   3
   3   1  -5 36317.8 1675.88   1
  -3  -1   5 33092.8 557.171   2
  -3  -1   5 34647.0 618.149   2
  -3   1   5 36265.3 1339.20   2
   3   1  -4 82491.5 2508.42   1
   3  -1  -4 82773.2 2377.79   3
   3   1  -4 84417.9 2414.10   3
  -3  -1   4 78993.7 992.872   2
  -3  -1   4 79068.0 1116.51   2
  -3   1   4 83314.0 1974.11   2
  -3   1   3 21705.0 1003.61   2
   3  -1  -3 21923.1 1204.38   3
   3   1  -3 22802.5 1255.10   3
   3   1  -3 21516.9 1262.19   1
  -3  -1   3 22284.5 609.036   2
  -3  -1   3 22111.6 634.133   2
  -3  -1   2 491.241 120.726   2
   3  -1  -2 422.678 208.960   3
   3   1  -2 419.284 279.603   3
  -3   1   2 411.497 159.812   2
   3  -1  -2 663.736 306.108   1
   3   1  -2 746.852 272.689   1
   3  -1  -1 16757.2 1010.88   3
   3   1  -1 17963.6 1073.58   3
   3  -1  -1 17959.9 1171.63   1
   3   1  -1 17719.2 1150.66   1
  -3   1   1 16671.7 865.220   2
   3  -1   0 61429.6 1862.95   3
   3   1   0 60516.7 1946.48   3
   3   1   0 61203.6 2153.25   1
   3  -1   0 63062.6 2169.07   1
   3  -1   1 25788.0 1173.79   3
   3  -1   1 24762.2 1395.92   1
   3   1   1 26229.1 1427.22   1
   3  -1   2 241663. 3447.48   3
   3  -1   2 239886. 4269.38   1
   3   1   2 241759. 4342.98   1
   3  -1   3 50032.2 1517.91   3
   3  -1   3 50384.5 1972.86   1
   3   1   3 52178.4 2097.42   1
   3  -1   4 162824. 2585.83   3
   3  -1   4 163139. 3533.90   1
   3   1   4 168188. 3752.03   1
   3  -1   5 43789.0 1845.57   1
   3  -1   5 42382.7 1270.13   3
   3  -1   6 53329.2 2057.09   1
   3   1   6 57409.9 2312.77   1
   3   1   7 54557.3 2296.89   1
   3  -1   7 51782.4 2095.79   1
   3  -1   8 1661.87 429.396   1
   3   1   8 1233.99 469.591   1
   3   1   9 80592.1 2929.11   1
   3  -1   9 75929.9 2604.60   1
   3   1  10 40650.1 2180.64   1
   3  -1  10 37258.2 1901.93   1
   3   1  11 22385.0 1654.61   1
   3  -1  11 19307.5 1403.00   1
   3  -1  12 69877.7 2676.92   1
   3   1  12 70047.5 3002.39   1
   3   1  12 69445.1 2616.25   2
   3  -1  13 9488.60 1036.48   1
   3   1  13 8985.44 1161.82   1
   3   1  13 9315.49 1042.88   2
   3  -1  14 68833.8 2806.21   1
   3   1  14 69039.2 3163.94   1
   3   1  14 71127.5 2826.06   2
   3  -1  15 13968.7 1329.70   1
   3   1  15 14284.5 1484.10   1
   3   1  15 13895.5 1313.92   2
   3  -1  16 20955.5 1639.00   1
   3   1  16 20946.5 1638.41   2
   3   1  16 19892.7 1759.27   1
   3   1  17 5538.99 893.146   2
   3  -1  17 6209.25 917.614   1
   3   1  17 5300.55 972.051   1
   3   1  18 206.958 268.424   2
   3  -1  18 588.531 326.443   1
   3   1  18 806.526 377.349   1
   3   1  19 3306.74 756.153   2
   3  -1  19 3124.26 722.164   1
   3   1  19 3600.84 856.008   1
   3  -1  20 7788.73 1115.99   1
   3   1  20 5729.25 1053.55   1
   3   1  20 6491.70 1032.31   2
   3   1  21 1754.61 645.743   1
   3   1  21 2122.32 623.397   2
   3  -1  22 17910.5 1744.09   1
   3   1  22 16895.4 1705.79   2
   3   1  22 19844.8 1999.31   1
   3   1  23 4403.36 1046.80   1
   3  -1  23 4854.08 977.247   1
   3  -1  24 10691.6 1391.21   1
   3   1  24 8903.34 1422.37   1
   3   1  25 3404.96 893.866   1
   3  -1  25 3450.15 812.234   1
   3   1  26 1767.22 669.556   1
   3  -2 -27 458.427 430.752   3
   3   2 -27 77.2356 263.570   3
   3   2 -26 3369.49 793.095   3
   3  -2 -26 3075.91 878.708   3
   3  -2 -25 349.203 349.511   3
   3   2 -25 1479.52 603.407   3
   3  -2 -24 14906.8 1668.48   3
   3   2 -24 11547.1 1332.46   3
   3  -2 -23 2186.01 751.987   3
   3   2 -23 2110.79 686.853   3
   3   2 -22 29420.7 2003.43   3
   3  -2 -22 30166.4 2250.57   3
   3  -2 -21 1466.22 649.232   3
   3   2 -21 1683.90 630.671   3
   3   2 -20 26857.2 1856.94   3
   3  -2 -20 29268.5 2129.77   3
  -3   2  20 28085.6 1786.23   2
   3   2 -19 1920.44 590.898   3
  -3   2  19 1504.10 520.317   2
   3  -2 -19 1602.45 676.456   3
  -3   2  18 18062.2 1374.42   2
   3   2 -18 19654.9 1531.93   3
   3  -2 -18 22256.0 1781.09   3
   3  -2 -17 3587.82 781.309   3
   3   2 -17 3417.42 668.584   3
  -3   2  17 3051.52 588.989   2
   3  -2 -16 3162.15 668.635   3
   3   2 -16 2652.14 555.749   3
  -3   2  16 2884.08 547.785   2
   3  -2 -15 3171.96 678.029   3
   3   2 -15 3035.78 586.195   3
  -3   2  15 3230.35 575.109   2
   3  -2 -14 3149.38 626.712   3
   3   2 -14 3775.86 648.648   3
  -3   2  14 3546.26 592.375   2
   3  -2 -13 137.663 253.448   3
   3   2 -13 44.2956 243.408   3
  -3   2  13 274.146 271.592   2
   3  -2 -12 22913.3 1567.56   3
   3   2 -12 20314.7 1390.53   3
  -3   2  12 21008.4 1327.37   2
   3  -2 -11 226.579 315.212   3
   3   2 -11 110.335 246.484   3
  -3   2  11 114.639 212.654   2
   3  -2 -10 17376.2 1322.02   3
   3   2 -10 16545.7 1213.78   3
  -3   2  10 16689.3 1137.17   2
   3  -2  -9 674.930 308.135   3
   3   2  -9 691.086 267.509   3
  -3   2   9 915.971 289.784   2
   3  -2  -8 5770.61 744.482   3
  -3   2   8 5543.16 631.968   2
   3   2  -8 5557.18 701.633   3
   3  -2  -7 26727.5 1528.13   3
   3   2  -7 26213.3 1469.71   3
  -3   2   7 27090.9 1361.17   2
   3  -2  -6 79985.2 2558.66   3
   3   2  -6 79321.9 2528.26   3
  -3   2   6 79782.5 2249.02   2
   3  -2  -5 14178.4 1144.03   3
   3   2  -5 13647.6 1114.07   3
   3   2  -5 13462.0 1037.70   1
  -3   2   5 14644.4 959.736   2
  -3   2   4 265323. 3942.98   2
   3  -2  -4 267217. 4446.27   3
   3   2  -4 272105. 4460.03   1
   3   2  -4 267825. 4567.94   3
  -3   2   3 3165.06 547.927   2
   3  -2  -3 4700.71 787.707   3
   3   2  -3 3970.01 664.001   1
  -3   2   2 377278. 4624.16   2
   3  -2  -2 379402. 5091.08   3
   3   2  -2 388434. 5414.73   1
   3  -2  -1 6754.44 771.999   3
  -3   2   1 7162.12 715.590   2
   3   2  -1 7442.80 813.620   1
  -3  -2   1 6027.55 324.842   2
   3  -2   0 279613. 4029.95   3
   3  -2   0 288136. 4722.49   1
   3   2   0 279255. 4592.26   1
   3  -2   1 11874.5 830.281   3
   3  -2   1 11508.7 963.423   1
   3   2   1 10300.2 943.172   1
   3  -2   2 108938. 2348.88   3
   3  -2   2 108457. 2858.45   1
   3   2   2 110734. 3032.50   1
   3  -2   3 13452.1 1019.08   1
   3  -2   3 14086.2 820.121   3
   3   2   3 15700.7 1173.17   1
   3  -2   4 8162.14 595.162   3
   3  -2   4 7474.13 764.995   1
   3   2   4 8444.09 879.025   1
   3   2   5 7160.75 838.749   1
   3  -2   5 6449.09 489.936   3
   3  -2   5 6819.59 729.313   1
   3   2   6 11413.7 1095.06   1
   3  -2   6 12242.6 638.333   3
   3   2   6 12494.0 905.281   2
   3  -2   6 12929.9 1010.41   1
   3   2   7 217.189 213.226   2
   3  -2   7 360.353 209.574   1
   3   2   7 224.300 289.560   1
   3   2   8 34525.7 1970.34   1
   3   2   8 33224.7 1623.74   2
   3  -2   8 32580.1 1626.69   1
   3   2   9 1281.82 382.460   2
   3  -2   9 1099.33 337.299   1
   3   2   9 1578.35 490.327   1
   3   2  10 25101.9 1825.24   1
   3   2  10 25291.5 1513.94   2
   3  -2  10 24084.8 1455.81   1
   3   2  11 765.824 396.555   1
   3  -2  11 81.1565 179.405   1
   3   2  11 674.825 323.379   2
   3   2  12 6675.51 836.666   2
   3   2  12 6273.65 949.903   1
   3  -2  12 5951.23 768.977   1
   3   2  13 18226.9 1412.37   2
   3   2  13 19099.4 1665.05   1
   3  -2  13 19219.7 1377.58   1
   3   2  14 32057.0 1912.92   2
   3   2  14 31909.5 2205.29   1
   3  -2  14 33811.3 1872.85   1
   3   2  15 3915.61 872.599   1
   3   2  15 2975.36 652.746   2
   3  -2  15 2598.98 571.461   1
   3   2  16 75264.6 3124.01   2
   3   2  16 72496.4 3511.29   1
   3  -2  16 80112.6 2973.18   1
   3   2  17 636.289 432.712   2
   3   2  17 234.693 450.707   1
   3  -2  17 584.454 437.048   1
   3  -2  18 75200.4 3027.14   1
   3   2  18 72069.7 3181.95   2
   3   2  18 64260.1 3422.30   1
   3  -2  19 2507.42 641.522   1
   3   2  19 1916.81 692.865   1
   3   2  19 2220.32 662.694   2
   3  -2  20 40109.0 2294.97   1
   3   2  20 36456.6 2393.61   2
   3   2  20 35427.2 2633.85   1
   3   2  21 2111.55 670.498   2
   3  -2  21 1538.59 539.446   1
   3   2  21 585.021 444.812   1
   3  -2  22 10965.3 1268.56   1
   3   2  22 9445.81 1309.45   2
   3   2  22 9022.25 1401.84   1
   3   2  23 989.623 480.833   1
   3   2  23 1575.98 621.182   2
   3   2  24-30.6274 283.395   2
   3   2  24 1697.93 675.507   1
   3   2  25 301.127 297.303   2
   3   2  25 610.941 442.661   1
   3  -3 -26 4138.44 1030.56   3
   3  -3 -25 2575.98 791.027   3
   3   3 -24 2234.92 664.800   3
   3  -3 -24 1780.24 677.632   3
   3  -3 -23 6448.86 1182.93   3
   3   3 -23 5410.82 932.353   3
   3  -3 -22 931.337 551.926   3
   3   3 -22 412.304 347.128   3
  -3   3  22 345.408 378.289   2
   3  -3 -21 12207.1 1531.46   3
   3   3 -21 10144.6 1208.18   3
  -3   3  21 10633.8 1218.17   2
   3  -3 -20 7037.75 1156.34   3
   3   3 -20 5563.10 913.555   3
  -3   3  20 4757.22 849.395   2
   3  -3 -19 16348.3 1681.22   3
  -3   3  19 16185.5 1400.05   2
   3   3 -19 14722.8 1390.60   3
   3  -3 -18 21125.8 1868.29   3
   3   3 -18 18811.4 1545.64   3
  -3   3  18 19110.0 1510.62   2
   3  -3 -17 12314.3 1413.52   3
   3   3 -17 11283.8 1199.08   3
  -3   3  17 12644.4 1230.79   2
   3   3 -16 25325.5 1718.91   3
  -3   3  16 24349.5 1645.74   2
   3   3 -15 3637.48 705.947   3
  -3   3  15 2897.69 634.676   2
   3   3 -14 15408.2 1306.49   3
  -3   3  14 16559.4 1338.73   2
   3   3 -13 171.039 218.813   3
  -3   3  13 143.668 257.322   2
   3   3 -12-63.9550 272.422   3
  -3   3  12 232.389 247.826   2
   3   3 -11 442.603 280.274   3
  -3   3  11 23.7081 227.479   2
  -3   3  10 16614.3 1220.36   2
  -3   3   9 4623.21 662.002   2
  -3   3   8 88682.2 2676.64   2
  -3   3   7 28565.2 1506.30   2
   3   3  -6 100127. 2761.41   1
  -3   3   6 97364.6 2714.00   2
   3   3  -5 64432.0 2202.08   1
  -3   3   5 62591.4 2113.06   2
  -3   3   4 38005.9 1637.26   2
   3   3  -4 37647.8 1689.85   1
  -3   3   3 90866.7 2530.18   2
   3   3  -3 95530.3 2703.90   1
  -3   3   2 877.603 329.831   2
   3   3  -2 1254.81 374.380   1
  -3   3   1 98626.5 2590.37   2
   3   3  -1 104070. 2836.64   1
  -3   3   0 51143.7 1854.01   2
   3   3   0 53452.2 2050.66   1
   3   3   1 96874.4 2832.97   1
   3  -3   2 124972. 3126.68   1
   3   3   2 127011. 3306.48   1
   3  -3   3 41621.5 1815.92   1
   3  -3   3 43523.6 1528.77   3
   3   3   3 41360.2 1344.95   2
   3   3   3 45757.4 2055.19   1
   3   3   4 109228. 3251.50   1
   3  -3   4 111582. 2343.77   3
   3  -3   4 108081. 2878.83   1
   3   3   4 107283. 2329.73   2
   3  -3   5 2524.34 352.237   3
   3   3   5 2544.38 566.958   1
   3   3   5 2023.51 383.395   2
   3  -3   5 2465.24 468.592   1
   3  -3   6 54079.1 1418.95   3
   3   3   6 57468.6 2452.45   1
   3  -3   6 52666.6 2014.47   1
   3   3   6 54479.1 1889.31   2
   3   3   7 222.493 211.377   2
   3   3   7 196.779 257.459   1
   3  -3   7 169.283 216.970   1
   3  -3   8 96.4736 182.316   1
   3   3   8 399.609 252.980   2
   3   3   8 444.646 343.354   1
   3   3   9 586.713 400.738   1
   3  -3   9-107.009 212.300   1
   3   3   9 424.989 254.214   2
   3   3  10 15495.3 1475.38   1
   3   3  10 15656.3 1222.06   2
   3  -3  10 16198.2 1151.66   1
   3   3  11 10435.1 1221.79   1
   3   3  11 9620.50 1031.26   2
   3  -3  11 9617.43 894.973   1
   3   3  12 57092.1 2478.75   2
   3   3  12 56779.3 2868.46   1
   3  -3  12 53934.9 2134.38   1
   3   3  13 24241.6 1679.92   2
   3   3  13 23665.6 1907.13   1
   3  -3  13 23335.1 1444.10   1
   3   3  14 45339.0 2353.36   2
   3   3  14 42866.1 2634.36   1
   3  -3  14 49396.4 2127.50   1
   3   3  15 26669.0 1844.16   2
   3  -3  15 26281.9 1577.83   1
   3   3  16 9553.27 1180.15   2
   3   3  16 7964.60 1193.03   1
   3  -3  16 10774.5 1034.73   1
   3   3  17 24829.3 1878.68   2
   3   3  17 22397.8 2054.47   1
   3  -3  17 27077.2 1667.11   1
   3   3  18 669.087 421.610   2
   3  -3  18 667.133 318.485   1
   3   3  18 487.653 396.367   1
   3   3  19 11360.5 1350.10   2
   3   3  19 10167.7 1431.45   1
   3   3  20 6437.68 1071.62   2
   3   3  21 9938.50 1336.21   2
   3   3  22 8959.84 1290.72   2
   3   3  23 2612.22 776.545   2
   3   3  24 3960.46 929.733   2
  -3   4  24 504.117 443.170   2
   3  -4 -24 452.955 436.060   3
  -3   4  23 773.395 434.807   2
   3  -4 -23 2306.03 753.943   3
   3  -4 -22 493.619 376.474   3
  -3   4  22 1179.15 491.522   2
  -3   4  21-180.260 251.315   2
  -3   4  20 259.713 273.266   2
  -3   4  19 4498.61 818.375   2
  -3   4  18 1128.19 467.318   2
  -3   4  17 6511.36 931.348   2
  -3   4  16 21644.0 1664.73   2
  -3   4  15 9159.22 1133.39   2
  -3   4  14 57153.4 2612.22   2
  -3   4  13 6591.47 927.473   2
  -3   4  12 87482.8 3096.85   2
  -3   4  11 2873.15 699.304   2
  -3   4  10 79970.6 2827.18   2
  -3   4   9 9855.18 1007.89   2
  -3   4   8 44490.6 2058.25   2
  -3   4   7 28637.8 1610.20   2
   3   4  -6 8390.11 816.767   1
  -3   4   6 8733.88 898.144   2
   3   4  -5 30242.3 1514.18   1
  -3   4   5 31180.6 1632.85   2
  -3   4   4 9714.56 909.504   2
   3   4  -4 9187.62 836.642   1
  -3   4   3 6959.91 764.471   2
   3   4  -3 6013.72 703.819   1
  -3   4   2 17842.1 1227.68   2
   3   4  -2 16246.4 1129.22   1
  -3   4   1 7107.20 769.643   2
   3   4  -1 7168.30 758.880   1
  -3   4   0 6583.05 762.530   2
   3   4   0 6331.90 736.384   1
  -3   4  -1 41919.4 1835.04   2
   3   4   1 41915.3 1899.76   1
  -3   4  -2 643.042 336.100   2
   3   4   2 340.160 243.697   1
   3   4   3 37476.9 1925.70   1
   3   4   4 75833.8 2743.95   1
   3   4   5 9959.23 1087.04   1
   3   4   5 9920.99 827.960   2
   3  -4   6 141305. 3336.56   1
   3   4   6 139112. 3166.40   2
   3   4   6 139563. 3970.69   1
   3  -4   7 6613.81 774.817   1
   3   4   7 7764.99 1020.26   1
   3   4   7 6671.94 783.491   2
   3   4   8 152914. 4365.98   1
   3   4   8 148234. 3629.30   2
   3  -4   8 153716. 3458.90   1
   3  -4   9 4182.46 628.324   1
   3   4   9 4998.02 935.499   1
   3   4   9 4840.81 739.066   2
   3  -4  10 102237. 2839.83   1
   3   4  10 98576.2 3675.07   1
   3   4  10 99859.2 3201.57   2
   3  -4  11 11764.9 988.449   1
   3   4  11 10334.5 1242.00   1
   3   4  11 10960.2 1137.41   2
   3  -4  12 33935.2 1666.05   1
   3   4  12 30833.0 1886.69   2
   3   4  12 31554.9 2200.38   1
   3   4  13 16834.5 1447.92   2
   3  -4  13 17249.9 1202.38   1
   3   4  13 16281.2 1617.33   1
   3   4  14 6158.10 1008.78   1
   3  -4  14 5466.00 692.436   1
   3   4  15 5314.18 885.097   2
   3   4  15 3661.14 862.847   1
   3   4  16 1828.15 556.402   2
   3   4  16 1912.92 612.033   1
   3   4  17 748.511 318.695   2
   3   4  18 2431.77 689.073   2
   3   4  19 2897.17 711.828   2
   3   4  20-251.018 315.005   2
   3   4  21 5193.72 967.896   2
   3   4  22-433.288 370.105   2
   3   4  23 3304.63 841.336   2
  -3   5  25-425.944 348.574   2
  -3   5  24 389.206 326.188   2
  -3   5  23 290.921 370.451   2
  -3   5  22 74.1335 288.850   2
  -3   5  21 217.902 305.074   2
  -3   5  20 2439.77 642.582   2
  -3   5  19 402.632 392.382   2
  -3   5  18 6479.57 999.034   2
  -3   5  17 1121.88 447.524   2
  -3   5  16 9092.58 1185.54   2
  -3   5  15 19216.1 1644.10   2
  -3   5  14 11161.5 1242.77   2
  -3   5  13 45845.7 2403.61   2
  -3   5  12 2203.14 649.075   2
  -3   5  11 58566.2 2629.19   2
  -3   5  10 16537.5 1411.54   2
  -3   5   9 55618.6 2490.11   2
  -3   5   8 41350.4 2111.85   2
  -3   5   7 14502.5 1245.92   2
   3   5  -6 39557.4 1736.51   1
  -3   5   6 39311.3 1994.57   2
   3   5  -5 563.706 287.329   1
  -3   5   5 333.967 298.017   2
   3   5  -4 14212.1 1056.71   1
  -3   5   4 15103.8 1224.50   2
   3   5  -3 1954.44 406.949   1
  -3   5   3 2454.16 529.893   2
  -3   5   2 129.860 231.433   2
   3   5  -2 420.694 250.923   1
  -3   5   1 3099.12 579.865   2
   3   5  -1 4310.18 618.880   1
  -3   5   0 22503.7 1474.73   2
   3   5   0 22644.1 1400.80   1
  -3   5  -1 1413.79 432.790   2
   3   5   1 1292.74 397.322   1
  -3   5  -2 37535.7 1900.59   2
   3   5   2 38584.5 1916.67   1
   3   5   3 8488.85 961.332   1
  -3   5  -3 8777.44 966.506   2
   3   5   4 31632.0 1813.95   1
   3   5   5 78479.1 2932.29   1
   3   5   6 29944.7 1890.04   1
   3   5   7 105233. 3614.56   1
   3   5   8 1176.66 558.926   1
   3   5   9 69202.2 3051.36   1
   3   5   9 67951.7 2681.49   2
   3  -5  10 13253.5 1031.83   1
   3   5  10 11015.7 1306.68   1
   3   5  10 9755.20 1070.33   2
   3   5  11 31196.3 2207.80   1
   3   5  11 34240.2 2024.70   2
   3   5  12 28908.4 1921.23   2
   3   5  12 27373.0 2109.98   1
   3   5  13 3667.76 824.613   1
   3   5  13 4450.97 786.484   2
   3   5  14 19772.6 1657.67   2
   3   5  14 14235.0 1555.11   1
   3   5  15 45.2586 237.322   2
   3   5  15-42.0506 246.801   1
   3   5  16 5669.76 954.326   2
   3   5  17 164.821 287.268   2
   3   5  18 677.369 401.875   2
   3   5  19 274.714 257.951   2
   3   5  20 2744.88 746.218   2
   3   5  21 756.368 410.689   2
   3   5  22 3202.35 838.677   2
   3   5  23 1385.73 565.159   2
  -3   6  23 1866.70 642.804   2
  -3   6  22 8505.64 1279.32   2
  -3   6  21 848.932 437.786   2
  -3   6  20 8941.75 1246.33   2
  -3   6  19 4827.44 979.679   2
  -3   6  18 5281.59 978.435   2
  -3   6  17 8582.02 1226.55   2
  -3   6  16 308.208 356.596   2
  -3   6  15 7526.82 1079.13   2
  -3   6  14 188.818 307.663   2
  -3   6  13 2751.72 635.488   2
  -3   6  12 103.833 219.124   2
  -3   6  11 1345.09 422.154   2
  -3   6  10 292.314 288.119   2
  -3   6   9 13024.1 1289.89   2
  -3   6   8 2936.92 677.849   2
  -3   6   7 32309.1 1979.98   2
  -3   6   6 22194.8 1615.56   2
  -3   6   5 33031.9 1933.50   2
   3   6  -4 51074.6 2013.77   1
  -3   6   4 53248.8 2447.57   2
   3   6  -3 4921.12 680.232   1
  -3   6   3 5292.73 869.195   2
  -3   6   2 95889.3 3311.44   2
   3   6  -2 94772.5 2803.10   1
  -3   6   1 2547.77 614.293   2
   3   6  -1 2621.04 561.391   1
  -3   6   0 78173.3 3000.57   2
   3   6   0 75814.3 2613.89   1
  -3   6  -1 29811.2 1861.91   2
   3   6   1 28668.8 1644.42   1
  -3   6  -2 38639.0 2114.72   2
   3   6   2 36982.0 1915.65   1
   3   6   3 44107.8 2148.72   1
  -3   6  -3 48337.7 2354.65   2
  -3   6  -4 1856.37 553.602   2
   3   6   4 2740.94 574.647   1
  -3   6  -5 15308.0 1358.21   2
   3   6   5 16836.0 1386.25   1
   3   6   6 616.114 328.894   1
   3   6   7 2462.47 583.425   1
   3   6   8 1830.78 506.979   1
   3   6   9 6016.63 941.782   1
   3   6  10 132.250 289.173   1
   3   6  11 14538.8 1497.53   1
   3   6  12 116.509 272.408   1
   3   6  13 16272.6 1638.40   1
   3   6  14 6528.92 1073.05   1
   3   6  15 6820.49 1146.78   1
   3   6  16 8101.34 1235.68   1
   3   6  17 728.675 407.719   2
   3   6  18 22479.4 1983.39   2
   3   6  19 790.689 463.692   2
   3   6  20 10708.0 1426.71   2
   3   6  21 3701.85 860.206   2
  -3   7  20 1297.93 586.088   2
  -3   7  19 8217.18 1245.31   2
  -3   7  18 2243.32 697.293   2
  -3   7  17 3707.92 893.773   2
  -3   7  16 2390.49 715.967   2
  -3   7  15 13.6831 317.007   2
  -3   7  14 1189.64 468.457   2
  -3   7  13 1870.76 597.633   2
  -3   7  12 244.559 274.738   2
  -3   7  11 3638.36 779.715   2
  -3   7  10 3338.50 732.495   2
  -3   7   9 746.168 434.574   2
  -3   7   8 7125.17 1012.01   2
  -3   7   7 6258.71 967.244   2
  -3   7   6 14548.4 1449.06   2
  -3   7   5 38784.4 2269.30   2
  -3   7   4 3011.57 784.446   2
  -3   7   3 83417.5 3276.19   2
  -3   7   2 2329.71 738.655   2
  -3   7   1 86414.6 3346.65   2
  -3   7   0 1607.31 689.404   2
  -3   7  -1 38108.3 2261.51   2
   3   7   1 34704.2 1847.99   1
  -3   7  -2 10982.7 1226.31   2
   3   7   2 10519.0 1064.55   1
  -3   7  -3 7868.48 1065.33   2
   3   7   3 8162.52 962.544   1
   3   7   4 16182.2 1340.99   1
  -3   7  -4 16799.5 1522.31   2
  -3   7  -5 858.295 426.328   2
   3   7   5 664.443 345.832   1
  -3   7  -6 6340.81 947.038   2
   3   7   6 6375.33 906.600   1
  -3   7  -7 2979.01 683.678   2
   3   7   7 3206.88 658.543   1
   3   7   8 738.261 425.475   1
  -3   7  -8 441.362 327.854   2
   3   7   9 5248.07 877.807   1
   3   7  10 629.462 338.499   1
   3   7  11-241.659 387.956   1
   3   7  12 2305.60 623.491   1
   3   7  13 3756.14 791.803   1
   3   7  14 6020.97 1044.09   1
   3   7  15 11171.5 1436.06   1
   3   7  16 1514.24 559.911   1
   3   7  17 14924.0 1704.64   1
  -3   8  16 5197.37 1026.86   2
  -3   8  15 8992.90 1342.12   2
  -3   8  14 7493.22 1184.40   2
  -3   8  13 2928.99 809.793   2
  -3   8  12 12312.2 1464.00   2
  -3   8  11 1874.15 651.344   2
  -3   8  10 11259.5 1365.30   2
  -3   8   9 8703.99 1227.63   2
  -3   8   8 5153.32 957.371   2
  -3   8   7 21727.0 1850.89   2
  -3   8   6 2312.65 641.622   2
  -3   8   5 13213.5 1420.03   2
  -3   8   4 2395.52 666.994   2
  -3   8   3 2319.71 645.315   2
  -3   8   2 65.1836 259.733   2
  -3   8   1 1682.09 588.769   2
  -3   8   0-289.868 398.266   2
  -3   8  -1 23116.3 1863.87   2
  -3   8  -2 5609.60 980.415   2
  -3   8  -3 28744.9 2127.01   2
  -3   8  -4 9876.86 1295.80   2
  -3   8  -5 27279.6 2067.21   2
  -3   8  -6 10728.5 1329.58   2
  -3   8  -7 2197.26 685.594   2
   3   8   7 1754.09 564.383   1
  -3   8  -8 20444.0 1810.66   2
   3   8   8 16962.0 1540.53   1
  -3   8  -9 3835.75 849.374   2
   3   8   9 3206.86 755.305   1
  -3   8 -10 15461.1 1614.78   2
   3   8  10 12393.9 1373.72   1
  -3   8 -11 11759.5 1438.85   2
   3   8  11 6555.28 1030.68   1
   3   8  12 5204.02 932.499   1
   3   8  13 8932.43 1243.60   1
   3   8  14 1491.39 560.274   1
   3   8  15 2414.87 697.309   1
  -3   9  11 23221.8 2084.17   2
  -3   9  10 1671.80 691.814   2
  -3   9   9 16839.4 1757.33   2
  -3   9   8 1867.20 698.370   2
  -3   9   7 4500.85 933.346   2
  -3   9   6 794.541 409.822   2
  -3   9   5-83.3033 274.205   2
  -3   9   4 142.691 319.431   2
  -3   9   3 7555.28 1166.79   2
  -3   9   2-167.604 272.657   2
  -3   9   1 4625.93 900.774   2
  -3   9   0 316.468 299.173   2
  -3   9  -1-783.107 463.290   2
  -3   9  -2 156.081 402.911   2
  -3   9  -3 6051.81 1042.03   2
  -3   9  -4 1521.11 586.502   2
  -3   9  -5 27566.9 2220.98   2
  -3   9  -6 670.403 509.259   2
  -3   9  -7 26028.4 2177.41   2
  -3   9  -8 331.216 451.291   2
   4   0 -23 1700.69 736.596   3
   4   0 -22 20173.6 1890.47   3
   4   0 -21 1101.69 648.892   3
   4   0 -20 21422.9 1885.23   3
   4   0 -19 892.100 503.502   3
   4   0 -18 4614.50 837.060   3
   4   0 -17-1829.05 593.804   3
   4   0 -16-2005.90 609.222   3
   4   0 -15-1799.68 566.917   3
   4   0 -14 5468.36 854.988   3
   4   0 -13-336.142 411.438   3
   4   0 -12 8376.13 998.975   3
   4   0 -11-276.229 402.242   3
   4   0 -10 1279.66 410.401   3
   4   0  -9-370.955 396.992   3
   4   0  -8 4534.79 693.638   3
   4   0  -7 339.263 281.604   3
   4   0  -6 71115.7 2658.39   3
   4   0  -5 1720.50 627.429   3
   4   0  -4 154622. 3788.81   3
   4   0  -3 3245.68 808.752   1
   4   0  -3 3336.55 740.816   3
   4   0  -2 225530. 4379.94   3
   4   0  -2 236687. 5073.58   1
   4   0  -1 2348.75 699.132   3
   4   0  -1 3314.43 806.782   1
   4   0   0 160302. 3545.06   3
   4   0   0 163228. 4215.47   1
   4   0   1 960.316 400.845   3
   4   0   1 1139.41 533.287   1
   4   0   2 24034.6 1334.82   3
   4   0   2 25276.8 1683.52   1
   4   0   3 319.437 272.319   1
   4   0   4 212.999 210.554   1
   4   0   5-5.09042 257.338   1
   4   0   6 18966.6 1527.72   1
   4   0   7 90.7018 299.230   1
   4   0   8 22144.0 1677.32   1
   4   0   9 737.641 379.657   1
   4   0  10 3516.50 737.161   1
   4   0  11 277.963 280.297   1
   4   0  12 7754.73 1100.67   1
   4   0  13 981.947 429.701   1
   4   0  14 33486.2 2359.90   1
   4   0  15 609.701 476.382   1
   4   0  16 57696.4 3188.89   1
   4   0  17 564.612 557.897   1
   4   0  18 49045.2 3063.87   1
   4   0  19 914.831 606.789   1
   4   0  20 29520.6 2462.96   1
   4   0  21 475.631 410.396   1
   4   0  22 2667.71 803.075   1
   4  -1 -23 1562.37 585.936   3
   4   1 -23 3189.22 825.568   3
   4  -1 -22 345.235 297.227   3
   4   1 -22 421.400 380.904   3
   4  -1 -21 3777.61 898.237   3
   4   1 -21 1996.84 605.467   3
   4  -1 -20 4157.00 910.132   3
   4   1 -20 4259.01 889.148   3
   4  -1 -19 5401.95 1016.47   3
   4   1 -19 4998.31 923.625   3
   4  -1 -18 15009.8 1574.27   3
   4   1 -18 14490.0 1467.02   3
   4  -1 -17 5011.18 973.053   3
   4   1 -17 4583.17 870.473   3
   4  -1 -16 18698.9 1687.68   3
   4   1 -16 18933.4 1622.56   3
   4  -1 -15 3047.54 727.934   3
   4   1 -15 2304.40 638.290   3
   4  -1 -14 8675.96 1128.19   3
   4   1 -14 7638.20 999.988   3
   4  -1 -13 8157.67 1053.88   3
   4   1 -13 6073.12 901.078   3
   4  -1 -12 1108.31 371.807   3
   4   1 -12 183.149 253.525   3
   4   1 -11 5517.60 853.791   3
   4  -1 -11 5548.44 858.626   3
   4  -1 -10 34306.6 2018.78   3
   4   1 -10 31505.7 1897.57   3
   4  -1  -9 6785.93 980.357   3
   4   1  -9 8145.92 1016.04   3
   4  -1  -8 73938.6 2854.11   3
   4   1  -8 68883.3 2703.70   3
   4  -1  -7 18786.0 1455.01   3
   4   1  -7 17549.3 1404.94   3
   4  -1  -6 63764.5 2533.24   3
   4   1  -6 62938.7 2519.99   3
   4  -1  -5 28692.9 1675.35   3
   4   1  -5 30659.1 1743.71   3
   4  -1  -4 15450.9 1211.59   3
   4   1  -4 16665.0 1365.84   1
   4   1  -4 15672.9 1235.50   3
  -4   1   3 37306.8 1480.04   2
   4  -1  -3 37100.0 1819.34   3
   4   1  -3 34356.2 1781.65   3
   4   1  -3 36140.7 2011.92   1
  -4   1   2 6171.60 626.175   2
   4  -1  -2 5147.94 674.805   3
   4   1  -2 7149.14 813.229   3
   4   1  -2 7199.99 911.299   1
   4  -1  -1 29638.1 1561.02   3
   4  -1  -1 30582.5 1844.48   1
   4   1  -1 30536.0 1845.22   1
  -4   1   1 28719.0 1321.15   2
  -4   1   0 42762.4 1594.98   2
   4  -1   0 47503.6 1916.18   3
   4  -1   0 47050.2 2285.64   1
   4   1   0 46259.4 2264.76   1
   4  -1   1 27675.6 1427.57   3
   4  -1   1 27414.8 1750.95   1
   4   1   1 26096.0 1778.07   1
   4  -1   2 93654.2 2554.83   3
   4  -1   2 94812.2 3207.18   1
   4   1   2 97516.5 3329.98   1
   4  -1   3 17406.5 1091.15   3
   4  -1   3 18557.4 1456.19   1
   4   1   3 17539.0 1442.41   1
   4  -1   4 71235.6 2102.04   3
   4  -1   4 70696.3 2819.05   1
   4   1   4 72740.8 2933.66   1
   4  -1   5 5704.85 863.089   1
   4   1   5 4971.24 821.042   1
   4  -1   6 19098.1 1493.64   1
   4   1   6 20811.7 1618.14   1
   4  -1   7 12335.9 1216.69   1
   4   1   7 12741.7 1295.00   1
   4  -1   8 1817.02 517.378   1
   4   1   8 3067.96 701.284   1
   4  -1   9 8399.82 1030.83   1
   4   1   9 10048.3 1216.57   1
   4  -1  10 33715.1 2062.27   1
   4   1  10 34306.7 2256.50   1
   4  -1  11 4188.44 791.979   1
   4   1  11 4746.50 906.145   1
   4  -1  12 50592.1 2647.88   1
   4   1  12 50404.4 2877.20   1
   4  -1  13 13120.5 1396.41   1
   4   1  13 10852.0 1390.87   1
   4  -1  14 30353.1 2130.12   1
   4   1  14 31893.2 2384.81   1
   4   1  15 14167.9 1638.98   1
   4  -1  15 14754.6 1533.57   1
   4   1  16 4714.55 996.104   1
   4  -1  16 5083.86 963.329   1
   4   1  17 11261.7 1501.49   1
   4  -1  17 13044.0 1485.90   1
   4   1  18 1990.49 689.458   1
   4  -1  18 2107.08 661.634   1
   4   1  19 7037.31 1277.82   1
   4  -1  19 5036.79 978.236   1
   4   1  20 7999.75 1357.05   1
   4  -1  20 7634.27 1208.47   1
   4   1  21 4107.07 994.472   1
   4  -1  21 3427.77 884.051   1
   4  -1  22 8131.26 1291.23   1
   4  -1  23 1982.25 666.348   1
   4  -2 -22 1503.75 612.368   3
   4   2 -22 427.488 358.508   3
   4  -2 -21-245.986 325.229   3
   4   2 -21-343.986 339.276   3
   4  -2 -20-232.466 345.415   3
   4   2 -20 86.4230 386.624   3
   4  -2 -19 219.338 326.424   3
   4   2 -19-7.20953 325.052   3
   4  -2 -18 1223.02 560.463   3
   4   2 -18 855.181 400.918   3
   4  -2 -17 1175.53 594.812   3
   4   2 -17 1037.06 488.784   3
   4  -2 -16 21967.0 1867.70   3
   4   2 -16 18339.3 1609.66   3
   4  -2 -15 5732.32 1054.76   3
   4   2 -15 4598.30 884.001   3
   4  -2 -14 55035.1 2857.17   3
   4   2 -14 55610.3 2708.41   3
   4  -2 -13 5856.96 1056.46   3
   4   2 -13 3244.23 801.861   3
   4  -2 -12 75788.8 3185.13   3
   4   2 -12 74613.3 3034.38   3
   4  -2 -11 8707.39 1156.40   3
   4   2 -11 6526.21 1056.45   3
   4  -2 -10 69888.8 2937.53   3
   4   2 -10 72155.8 2896.90   3
   4  -2  -9 5917.56 920.433   3
   4   2  -9 6027.57 930.144   3
   4  -2  -8 25147.0 1724.77   3
   4   2  -8 21343.7 1552.02   3
   4  -2  -7 3090.02 586.775   3
   4   2  -7 3164.72 616.485   3
  -4   2   7 3948.62 558.963   2
   4  -2  -6 114.328 201.028   3
   4   2  -6 28.6235 373.587   3
  -4   2   6 111.971 167.755   2
   4   2  -5 2020.99 504.294   1
   4  -2  -5 2253.71 497.597   3
  -4   2   5 2357.57 430.661   2
   4  -2  -4 13039.9 1132.61   3
   4   2  -4 12414.4 1175.30   1
  -4   2   4 14012.1 1005.70   2
   4  -2  -3 583.320 330.744   3
   4   2  -3 187.941 240.061   1
  -4   2   3-69.7549 190.314   2
  -4   2   2 25111.2 1353.58   2
   4  -2  -2 24854.7 1503.26   3
   4   2  -2 27019.4 1720.97   1
  -4   2   1 743.322 300.873   2
   4  -2  -1 443.149 251.068   3
   4   2  -1 920.904 392.602   1
  -4   2   0 4421.83 585.010   2
   4  -2   0 3538.91 543.391   3
   4   2   0 3787.67 682.472   1
  -4   2  -1 6285.47 685.720   2
   4  -2   1 5649.24 659.897   3
   4  -2   1 5485.19 791.037   1
   4   2   1 7320.72 947.868   1
   4  -2   2 6590.83 693.910   3
   4  -2   2 6146.79 838.768   1
   4   2   2 8393.79 1030.45   1
   4  -2   3 6559.94 673.391   3
   4  -2   3 6894.31 885.932   1
   4   2   3 7288.55 951.789   1
   4  -2   4 73188.7 2836.68   1
   4   2   4 74511.2 3008.75   1
   4  -2   5 5936.74 924.235   1
   4   2   5 8903.04 1140.47   1
   4  -2   6 150605. 4104.13   1
   4   2   6 165387. 4677.07   1
   4   2   7 2903.81 840.059   1
   4  -2   7 3426.07 751.129   1
   4  -2   8 119787. 3731.04   1
   4   2   8 128074. 4287.89   1
   4  -2   9 8811.14 1092.55   1
   4   2   9 9650.22 1307.21   1
   4  -2  10 78934.3 3079.50   1
   4   2  10 82521.6 3615.39   1
   4  -2  11 3546.13 734.725   1
   4   2  11 4265.45 929.017   1
   4   2  12 15554.9 1656.05   1
   4  -2  12 16435.5 1462.64   1
   4   2  13 1231.20 588.773   1
   4  -2  13 1278.63 455.236   1
   4   2  14 330.890 359.136   1
   4  -2  14-4.86326 188.501   1
   4   2  15 5.20463 237.004   1
   4  -2  15 302.562 316.115   1
   4   2  16 4122.72 931.802   1
   4  -2  16 3342.79 702.151   1
   4   2  17 296.905 354.314   1
   4  -2  17 108.590 207.028   1
   4   2  18 3649.49 946.785   1
   4  -2  18 4843.01 869.635   1
   4   2  19-75.5586 303.669   1
   4  -2  19 725.944 382.537   1
   4   2  20 867.150 537.802   1
   4  -2  20-234.896 263.026   1
   4  -3 -21-305.970 374.879   3
   4  -3 -20 3638.79 933.898   3
   4  -3 -19 1926.70 675.984   3
   4   3 -19 1785.98 672.646   3
   4  -3 -18 12453.8 1567.11   3
   4   3 -18 11485.8 1359.05   3
   4  -3 -17 5237.05 1054.66   3
   4   3 -17 5075.13 924.052   3
   4  -3 -16 12232.8 1470.56   3
   4   3 -16 9812.27 1216.23   3
   4  -3 -15 13391.3 1524.06   3
   4  -3 -14 4313.03 885.559   3
   4  -3 -13 21342.2 1813.52   3
   4  -3 -12 2470.76 722.561   3
   4  -3 -11 28750.4 2043.92   3
   4  -3 -10 23826.2 1861.47   3
  -4   3  10 21395.5 1480.62   2
   4  -3  -9 27772.2 1947.32   3
  -4   3   9 27332.2 1657.10   2
   4  -3  -8 44625.1 2373.06   3
  -4   3   8 42237.4 2010.98   2
   4  -3  -7 12904.5 1299.04   3
  -4   3   7 11907.1 1098.68   2
   4  -3  -6 49511.1 2383.30   3
  -4   3   6 47528.2 2072.64   2
   4  -3  -5 2458.70 610.061   3
   4   3  -5 1728.48 509.716   1
  -4   3   5 2217.12 524.805   2
   4  -3  -4 9593.03 1010.71   3
   4   3  -4 8769.67 993.680   1
  -4   3   4 9683.05 922.174   2
   4  -3  -3 415.571 249.738   3
   4   3  -3 261.154 256.181   1
  -4   3   3 262.368 198.811   2
  -4   3   2 1267.55 350.984   2
   4  -3  -2 662.117 272.899   3
   4   3  -2 740.243 347.400   1
  -4   3   1 267.520 212.617   2
   4  -3  -1 333.111 281.501   3
   4   3  -1 178.387 215.709   1
  -4   3   0 30452.2 1619.42   2
   4  -3   0 32349.8 1664.49   3
   4   3   0 31550.9 1907.15   1
  -4   3  -1 10886.5 1010.96   2
   4  -3   1 12602.4 1021.54   3
   4   3   1 12670.9 1281.02   1
   4  -3   2 78418.4 2456.09   3
  -4   3  -2 71892.6 2525.82   2
   4   3   2 74638.1 2993.76   1
   4  -3   3 29797.7 1835.66   1
   4   3   3 29126.4 1907.07   1
   4  -3   4 36651.0 2032.52   1
   4   3   4 40332.2 2285.46   1
   4  -3   5 44534.8 2246.24   1
   4   3   5 48850.8 2562.18   1
   4  -3   6 14910.5 1306.62   1
   4   3   6 16835.5 1558.92   1
   4  -3   7 37100.9 2039.46   1
   4   3   7 37466.2 2381.80   1
   4   3   8 2182.86 647.945   1
   4  -3   8 2159.59 545.855   1
   4  -3   9 33298.7 1960.38   1
   4   3   9 35412.4 2412.73   1
   4   3  10 28254.6 2196.56   1
   4  -3  10 27926.8 1807.49   1
   4   3  11 21422.7 1931.43   1
   4  -3  11 21088.5 1595.62   1
   4   3  12 33649.2 2468.11   1
   4  -3  12 33247.7 1994.28   1
   4  -3  13 3900.28 736.326   1
   4   3  13 5471.45 1095.56   1
   4   3  14 23815.6 2183.22   1
   4  -3  14 22976.1 1707.10   1
   4  -3  15 885.622 383.165   1
   4   3  15 230.592 305.694   1
   4  -3  16 3881.07 727.347   1
   4   3  16 3241.48 910.701   1
   4  -3  17 22.5099 197.473   1
   4   3  17-92.3539 307.383   1
   4   3  18 441.819 432.834   1
   4   3  19 305.374 317.879   1
   4  -4 -20 8039.52 1405.27   3
   4  -4 -19 2846.02 921.930   3
   4  -4 -18 6089.71 1189.06   3
   4  -4 -17 6198.57 1154.38   3
   4  -4 -16 459.627 419.106   3
   4  -4 -15 4041.66 931.390   3
   4  -4 -14 1651.23 605.904   3
   4  -4 -13 789.722 425.690   3
  -4   4  13 258.557 276.373   2
   4  -4 -12 3041.15 771.732   3
  -4   4  12 4080.31 706.505   2
   4  -4 -11 1939.06 604.215   3
  -4   4  11 3292.76 612.920   2
   4  -4 -10 537.707 417.088   3
  -4   4  10 1223.01 459.703   2
   4  -4  -9 12575.1 1397.64   3
  -4   4   9 11759.0 1144.10   2
   4  -4  -8 8408.65 1135.05   3
  -4   4   8 7444.71 915.722   2
   4  -4  -7 16715.3 1554.82   3
  -4   4   7 16883.2 1373.61   2
   4  -4  -6 37503.1 2222.53   3
   4   4  -6 38963.1 2087.54   1
  -4   4   6 37685.1 1975.20   2
   4  -4  -5 8632.89 1098.41   3
   4   4  -5 8238.64 1036.47   1
  -4   4   5 7495.01 970.732   2
   4  -4  -4 87276.4 3234.37   3
   4   4  -4 85717.5 3083.83   1
  -4   4   4 88171.3 2955.94   2
   4  -4  -3 3248.67 778.983   3
   4   4  -3 1783.24 688.629   1
  -4   4   3 1370.29 548.520   2
  -4   4   2 123337. 3535.02   2
   4  -4  -2 125476. 3689.41   3
   4   4  -2 124033. 3735.84   1
   4   4  -1 3519.55 716.009   1
  -4   4   1 3328.60 724.392   2
   4  -4  -1 3249.11 707.208   3
  -4   4   0 55439.8 2391.42   2
   4  -4   0 55970.7 2327.14   3
   4   4   0 56670.9 2609.48   1
  -4   4  -1 10914.7 1109.21   2
   4  -4   1 11672.2 1044.56   3
   4   4   1 11647.8 1213.99   1
  -4   4  -2 20800.6 1479.63   2
   4   4   2 22139.4 1651.79   1
  -4   4  -3 24521.6 1609.92   2
   4   4   3 25574.4 1818.13   1
   4   4   4 985.293 503.001   1
   4   4   5 8495.63 1120.55   1
   4   4   6 5375.09 921.735   1
   4  -4   7 16.6765 193.667   1
   4   4   7-102.672 231.659   1
   4  -4   8 7297.52 929.062   1
   4   4   8 6202.77 1026.87   1
   4  -4   9 7872.70 952.447   1
   4   4   9 7412.47 1136.71   1
   4   4  10 2211.10 692.700   1
   4  -4  10 2040.49 518.199   1
   4   4  11 10464.3 1381.74   1
   4  -4  11 11078.4 1121.12   1
   4   4  12 4329.85 928.561   1
   4  -4  12 3705.57 687.409   1
   4   4  13 10854.2 1486.09   1
   4  -4  13 9628.19 1080.64   1
   4   4  14 18588.5 1972.89   1
   4   4  15 1522.59 663.592   1
   4   4  16 22989.0 2300.75   1
   4   4  17 700.355 576.615   1
   4   4  18 25064.6 2522.34   1
   4  -5 -18 7952.56 1451.02   3
   4  -5 -17 3049.88 924.395   3
   4  -5 -16 5848.99 1208.04   3
  -4   5  15 213.756 305.095   2
  -4   5  14 310.838 314.765   2
  -4   5  13 969.460 413.952   2
  -4   5  12 839.070 344.505   2
  -4   5  11 70.5208 321.236   2
  -4   5  10 6723.30 964.376   2
  -4   5   9 99.5624 233.694   2
  -4   5   8 16813.2 1458.25   2
  -4   5   7 8975.32 1080.98   2
   4   5  -6 19569.5 1490.61   1
  -4   5   6 20027.2 1559.07   2
   4   5  -5 40302.6 2114.96   1
  -4   5   5 40226.3 2176.70   2
   4   5  -4 4399.11 748.879   1
  -4   5   4 4753.09 842.910   2
   4   5  -3 65821.8 2732.04   1
  -4   5   3 62598.0 2715.00   2
   4   5  -2 1272.43 521.127   1
  -4   5   2 1066.74 606.961   2
  -4   5   1 63301.6 2736.42   2
   4   5  -1 65605.0 2788.60   1
  -4   5   0 13657.2 1295.88   2
   4   5   0 12842.1 1276.24   1
  -4   5  -1 20965.1 1623.62   2
   4   5   1 21405.9 1651.51   1
  -4   5  -2 39138.7 2171.85   2
   4   5   2 36932.4 2159.27   1
  -4   5  -3 2980.84 645.690   2
   4   5   3 3321.19 726.366   1
  -4   5  -4 22468.1 1653.27   2
   4   5   4 24740.0 1852.77   1
  -4   5  -5 526.308 355.265   2
   4   5   5 456.304 339.850   1
   4   5   6 3463.80 729.906   1
   4   5   7 2425.16 634.107   1
   4   5   8 649.707 419.238   1
   4   5   9 288.262 315.191   1
   4   5  10 6040.23 1056.22   1
   4   5  11 2308.41 745.254   1
   4   5  12 9310.88 1363.96   1
   4   5  13 6593.97 1219.31   1
   4   5  14 9341.54 1440.42   1
   4   5  15 17102.4 1966.89   1
   4   5  16 934.794 574.733   1
  -4   6  17 4844.97 1001.45   2
  -4   6  16 5256.11 993.577   2
  -4   6  15 4084.19 954.261   2
  -4   6  14 15192.9 1571.59   2
  -4   6  13 1985.09 735.236   2
  -4   6  12 20533.3 1811.98   2
  -4   6  11 2160.43 657.689   2
  -4   6  10 18064.5 1638.06   2
  -4   6   9 13615.6 1422.43   2
  -4   6   8 7058.07 1062.57   2
  -4   6   7 16382.2 1528.16   2
  -4   6   6 919.570 384.674   2
  -4   6   5 9238.46 1139.76   2
  -4   6   4 755.812 408.428   2
   4   6  -3 405.496 241.177   1
  -4   6   3 290.626 319.746   2
   4   6  -2 1545.46 461.137   1
  -4   6   2 358.235 235.620   2
  -4   6   1 6400.61 936.842   2
   4   6  -1 5567.01 840.413   1
  -4   6   0 47.9035 244.307   2
   4   6   0 136.404 218.508   1
  -4   6  -1 19692.9 1674.27   2
   4   6   1 19169.1 1577.20   1
  -4   6  -2 5015.07 895.533   2
   4   6   2 3304.02 693.772   1
  -4   6  -3 23890.2 1821.21   2
   4   6   3 21182.0 1704.90   1
  -4   6  -4 17489.1 1580.32   2
   4   6   4 16925.6 1571.36   1
  -4   6  -5 10734.8 1271.18   2
   4   6   5 8208.99 1112.13   1
  -4   6  -6 31918.6 2145.76   2
   4   6   6 29030.1 2113.41   1
  -4   6  -7 908.729 561.968   2
   4   6   7 1515.84 651.469   1
   4   6   8 37699.3 2503.54   1
   4   6   9 3216.95 847.943   1
   4   6  10 24644.1 2138.84   1
   4   6  11 12070.9 1515.50   1
   4   6  12 8444.77 1318.94   1
   4   6  13 7212.56 1222.79   1
   4   6  14-127.140 295.929   1
  -4   7  16 2558.51 764.868   2
  -4   7  15 11958.2 1510.93   2
  -4   7  14 800.562 460.043   2
  -4   7  13 19842.6 1858.99   2
  -4   7  12 2224.04 774.472   2
  -4   7  11 23658.0 1993.35   2
  -4   7  10 3648.93 905.177   2
  -4   7   9 14241.6 1526.22   2
  -4   7   8 2896.07 736.787   2
  -4   7   7 2083.76 613.204   2
  -4   7   6 3370.86 747.211   2
  -4   7   5 846.307 455.161   2
  -4   7   4 2707.55 638.775   2
  -4   7   3 3172.83 702.942   2
  -4   7   2 369.675 304.025   2
  -4   7   1 2168.63 613.743   2
  -4   7   0 5173.65 895.261   2
  -4   7  -1 94.5324 313.278   2
  -4   7  -2 4990.90 901.612   2
  -4   7  -3 8921.58 1246.05   2
   4   7   3 7579.57 1039.09   1
  -4   7  -4 6323.78 1059.85   2
   4   7   4 6297.48 1006.62   1
  -4   7  -5 38660.9 2520.33   2
   4   7   5 34506.2 2284.78   1
  -4   7  -6 3667.17 889.039   2
   4   7   6 2856.52 780.913   1
  -4   7  -7 44189.1 2729.06   2
   4   7   7 39935.2 2545.59   1
  -4   7  -8 997.378 647.655   2
   4   7   8 1371.38 545.412   1
  -4   7  -9 25666.4 2107.57   2
   4   7   9 23999.3 2051.23   1
   4   7  10 3496.42 865.230   1
  -4   7 -10 2092.63 690.292   2
   4   7  11 6873.35 1170.68   1
   4   7  12 2117.82 683.245   1
  -4   8  10 393.081 424.038   2
  -4   8   9 8310.77 1260.25   2
  -4   8   8 3028.90 785.795   2
  -4   8   7 14910.2 1648.87   2
  -4   8   6 10234.0 1364.91   2
  -4   8   5 7770.40 1211.87   2
  -4   8   4 11909.4 1455.90   2
  -4   8   3 1325.95 545.482   2
  -4   8   2 9526.98 1308.41   2
  -4   8   1 3611.91 861.318   2
  -4   8   0 12182.4 1475.95   2
  -4   8  -1 16503.2 1735.92   2
  -4   8  -2 7974.93 1231.05   2
  -4   8  -3 12616.3 1527.88   2
  -4   8  -4 1090.61 539.033   2
  -4   8  -5 3648.53 856.140   2
  -4   8  -6 172.607 373.066   2
   4   8   9 2981.31 724.345   1
   4   8  10 600.532 397.160   1
   5   0 -17 170.100 392.931   3
   5   0 -16 12395.3 1518.65   3
   5   0 -15 895.482 627.260   3
   5   0 -14 31118.5 2296.64   3
   5   0 -13 2159.17 785.194   3
   5   0 -12 40731.3 2503.31   3
   5   0 -11 2547.85 800.183   3
   5   0 -10 27049.8 2006.38   3
   5   0  -9 139.384 386.349   3
   5   0  -8 4477.77 826.917   3
   5   0  -7-272.781 412.966   3
   5   0  -6 1485.22 461.368   3
   5   0  -5 195.301 259.174   3
   5   0  -4 11365.7 1174.23   3
   5   0  -3 237.102 271.646   3
   5   0  -2 6897.46 897.951   3
   5   0  -1-94.4771 394.909   1
   5   0  -1-1100.15 404.184   3
   5   0   0-182.757 412.864   1
   5   0   1-62.1569 362.845   1
   5   0   2 10238.7 1291.02   1
   5   0   3 1231.39 612.490   1
   5   0   4 57799.1 3045.88   1
   5   0   5 3169.65 911.434   1
   5   0   6 89366.3 3861.15   1
   5   0   7 1803.26 834.354   1
   5   0   8 66346.6 3404.89   1
   5   0   9 1351.71 736.983   1
   5   0  10 37230.2 2624.27   1
   5   0  11 669.141 544.406   1
   5   0  12 4950.22 1020.17   1
   5   0  13-399.201 381.686   1
   5   0  14 628.404 442.153   1
   5   0  15 43.1274 270.223   1
   5  -1 -17 2309.78 823.997   3
   5   1 -17 2302.94 718.561   3
   5  -1 -16 5277.18 1030.53   3
   5   1 -16 5222.47 1015.63   3
   5  -1 -15 3596.61 817.848   3
   5   1 -15 4721.96 928.172   3
   5  -1 -14 785.315 407.143   3
   5   1 -14 791.843 515.583   3
   5  -1 -13 7322.26 1130.96   3
   5   1 -13 8194.29 1175.31   3
   5  -1 -12 2597.73 746.695   3
   5   1 -12 2264.30 680.707   3
   5   1 -11 7198.30 1079.72   3
   5  -1 -11 6204.92 1022.44   3
   5  -1 -10 14840.2 1524.40   3
   5   1 -10 16951.0 1605.12   3
   5  -1  -9 7750.00 1113.83   3
   5   1  -9 7510.36 1089.88   3
   5  -1  -8 30361.2 2085.12   3
   5   1  -8 31139.0 2091.13   3
   5  -1  -7 6181.83 968.059   3
   5   1  -7 6961.57 1032.60   3
   5  -1  -6 19614.2 1598.19   3
   5   1  -6 19475.2 1631.54   3
   5   1  -5 5770.67 911.442   3
   5  -1  -5 4554.44 782.909   3
   5  -1  -4 2626.31 583.706   3
   5  -1  -3 3580.86 669.371   3
   5  -1  -2 5272.29 810.935   3
   5   1  -2 4736.18 895.177   1
   5  -1  -1 4984.40 748.896   3
   5   1  -1 5800.92 991.117   1
   5  -1   0 31217.9 1797.46   3
   5   1   0 34293.1 2303.77   1
   5  -1   1 9945.15 1285.51   1
   5   1   1 11357.9 1375.50   1
   5  -1   2 46747.3 2686.94   1
   5   1   2 48503.6 2776.78   1
   5  -1   3 8356.58 1215.41   1
   5   1   3 8980.97 1267.46   1
   5  -1   4 22568.5 1882.13   1
   5   1   4 25232.6 2058.04   1
   5  -1   5 12645.5 1442.85   1
   5   1   5 13537.8 1521.36   1
   5   1   6 2548.31 756.789   1
   5  -1   6 2202.43 652.344   1
   5  -1   7 16768.6 1698.37   1
   5   1   7 17168.7 1761.71   1
   5   1   8 5503.36 1046.39   1
   5  -1   8 6696.36 1096.16   1
   5  -1   9 10910.7 1382.62   1
   5   1   9 9549.43 1374.83   1
   5  -1  10 22287.0 1984.09   1
   5   1  10 24007.0 2171.91   1
   5  -1  11 4886.94 999.526   1
   5   1  11 5095.25 1083.36   1
   5  -1  12 25753.7 2181.60   1
   5   1  12 23249.3 2193.08   1
   5  -1  13 3019.80 774.358   1
   5   1  13 2935.36 861.342   1
   5  -1  14 11142.3 1497.19   1
   5   1  14 9699.19 1499.54   1
   5  -1  15 2912.53 844.658   1
   5   1  15 2745.75 812.190   1
   5  -1  16 1282.90 578.292   1
   5  -2 -16-1155.37 560.639   3
   5   2 -16 10.7160 279.868   3
   5  -2 -15 24.5205 426.321   3
   5   2 -15-64.3216 407.039   3
   5  -2 -14 1538.89 519.683   3
   5   2 -14 2225.41 661.555   3
   5  -2 -13-279.127 417.374   3
   5   2 -13-228.572 437.285   3
   5  -2 -12 3605.84 799.533   3
   5   2 -12 2764.24 657.707   3
   5  -2 -11 72.9537 406.784   3
   5  -2 -10-129.731 350.435   3
   5  -2  -9 1885.00 572.173   3
   5  -2  -8 8158.93 1110.71   3
   5  -2  -7 3287.34 784.511   3
   5  -2  -6 40717.1 2362.92   3
   5  -2  -5 4342.34 880.033   3
   5  -2  -4 67821.4 2920.14   3
   5  -2  -3 3129.81 823.318   3
   5   2  -3 3970.78 908.017   1
   5  -2  -2 73802.6 2898.15   3
   5   2  -2 77395.0 3450.69   1
   5  -2  -1 3064.40 723.313   3
   5   2  -1 4385.20 979.364   1
   5   2   0 37530.3 2423.97   1
   5   2   1 5446.03 1002.19   1
   5   2   2 4840.02 922.776   1
   5  -2   3 2106.65 613.414   1
   5   2   3 2388.10 670.455   1
   5  -2   4 573.715 366.393   1
   5   2   4 774.918 472.218   1
   5   2   5 309.392 433.659   1
   5  -2   5-126.345 270.428   1
   5  -2   6 7642.32 1131.09   1
   5   2   6 10900.9 1418.34   1
   5   2   7 841.948 538.965   1
   5  -2   7 315.815 377.995   1
   5   2   8 6193.06 1115.88   1
   5  -2   8 6619.45 1043.06   1
   5   2   9 362.862 407.310   1
   5  -2   9 664.817 442.984   1
   5   2  10-392.881 364.152   1
   5  -2  10-58.5176 251.994   1
   5   2  11 2052.23 761.591   1
   5  -2  11 2501.53 715.904   1
   5  -2  12 8173.71 1212.54   1
   5   2  12 7850.76 1360.16   1
   5   2  13 1763.22 750.433   1
   5  -2  13 1668.10 605.177   1
   5  -2  14 24935.6 2121.28   1
   5   2  14 24656.2 2419.01   1
   5  -2  15 1581.91 703.726   1
   5  -2  16 26625.1 2245.05   1
   5  -3 -15 217.379 371.351   3
   5  -3 -14 353.766 263.258   3
   5  -3 -13 71.4363 331.556   3
   5  -3 -12 1728.76 579.353   3
   5  -3 -11 648.378 448.888   3
   5  -3 -10 13824.2 1575.68   3
   5  -3  -9 3764.86 858.225   3
   5  -3  -8 20990.0 1847.77   3
   5  -3  -7 13187.3 1439.09   3
   5  -3  -6 16072.6 1571.44   3
   5  -3  -5 22353.2 1770.47   3
   5   3  -4 1494.24 609.190   1
   5  -3  -4 2098.89 651.713   3
   5  -3  -3 20202.8 1591.96   3
   5   3  -3 20335.7 1808.71   1
   5   3  -2 7695.01 1162.27   1
   5  -3  -2 4846.88 796.148   3
   5   3  -1 19492.9 1745.86   1
   5   3   0 20278.8 1806.55   1
   5   3   1 13579.5 1529.41   1
   5   3   2 35861.8 2453.91   1
   5   3   3 4675.40 1014.01   1
   5   3   4 19718.5 1862.69   1
   5   3   5 469.773 476.592   1
   5  -3   6 1414.81 548.843   1
   5   3   6 736.219 396.175   1
   5   3   7 238.295 360.786   1
   5  -3   7 105.001 246.655   1
   5   3   8 1830.63 640.878   1
   5  -3   8 2664.69 680.560   1
   5   3   9 994.603 506.963   1
   5  -3   9 807.958 369.225   1
   5  -3  10 13846.5 1498.13   1
   5   3  10 13488.6 1710.07   1
   5   3  11 5318.40 1139.47   1
   5  -3  11 4746.22 925.446   1
   5  -3  12 14198.2 1556.88   1
   5   3  12 17172.2 1999.43   1
   5  -3  13 11917.7 1421.03   1
   5  -3  14 8246.67 1218.33   1
   5  -3  15 12472.3 1475.03   1
   5  -4 -14 18789.5 2043.37   3
   5  -4 -13 2083.72 702.259   3
   5  -4 -12 17688.8 1919.68   3
   5  -4 -11 2918.56 820.784   3
   5  -4 -10 13966.9 1628.30   3
   5  -4  -9 4481.00 907.304   3
   5  -4  -8 3333.17 822.236   3
   5  -4  -7 7039.23 1107.14   3
   5  -4  -6 674.609 460.421   3
   5  -4  -5 4530.90 854.539   3
   5  -4  -4 2619.01 645.551   3
   5   4  -4 2779.45 674.288   1
   5  -4  -3 556.513 320.868   3
   5   4  -3-184.288 376.025   1
   5   4  -2 2898.92 721.049   1
   5   4  -1 6864.52 1061.60   1
   5   4   0 1521.89 540.676   1
   5   4   1 11384.0 1387.32   1
   5   4   2 9443.89 1304.36   1
  -5   4  -3 6336.50 957.745   2
   5   4   3 7427.39 1180.57   1
  -5   4  -4 24818.9 1792.30   2
   5   4   4 25686.5 2160.90   1
  -5   4  -5 1509.96 559.300   2
   5   4   5 3757.12 930.910   1
  -5   4  -6 43713.8 2472.76   2
   5   4   6 47749.6 3021.27   1
   5   4   7 1238.87 677.742   1
   5   4   8 33512.7 2609.67   1
   5   4   9 3315.12 956.076   1
   5  -4  10 18580.4 1707.34   1
   5   4  10 19522.4 2084.52   1
   5  -4  11 5284.56 918.234   1
   5  -5 -12 3955.79 1065.20   3
   5  -5 -11 16621.4 1912.90   3
   5  -5 -10 7941.18 1352.15   3
   5  -5  -9 7132.20 1229.16   3
   5  -5  -8 9298.61 1367.08   3
   5  -5  -7 644.830 448.703   3
   5  -5  -6 7402.10 1172.30   3
   5  -5  -5 739.702 445.928   3
   5   5  -4-136.573 262.808   1
   5   5  -3 491.498 304.611   1
   5   5  -2 1308.18 502.796   1
   5   5  -1 483.999 367.229   1
  -5   5   0 7756.40 1041.18   2
   5   5   0 8070.40 1203.84   1
  -5   5  -1 2192.18 654.648   2
   5   5   1 2298.55 649.236   1
  -5   5  -2 11477.9 1329.57   2
   5   5   2 10591.9 1376.25   1
  -5   5  -3 12102.7 1346.91   2
   5   5   3 12457.2 1511.03   1
  -5   5  -4 6641.12 1027.02   2
   5   5   4 7008.60 1200.68   1
  -5   5  -5 24901.0 1948.01   2
   5   5   5 23914.5 2132.83   1
  -5   5  -6 1550.32 618.913   2
   5   5   6 2545.64 796.162   1
  -5   5  -7 26945.1 2051.83   2
   5   5   7 24267.3 2189.69   1
  -5   5  -8 1542.38 609.200   2
   5   5   8 2238.06 823.346   1
  -5   5  -9 18674.9 1773.30   2
   5  -6 -10 769.944 509.928   3
   5  -6  -9 6577.18 1303.48   3
   5  -6  -8 4518.13 1053.20   3
   5  -6  -7 9551.38 1451.77   3
   5  -6  -6 11855.7 1582.59   3
  -5   6   2 19614.2 1752.56   2
   5   6  -1 4208.96 908.315   1
  -5   6   1 3893.41 872.495   2
  -5   6   0 13009.4 1439.77   2
   5   6   0 11214.9 1397.29   1
  -5   6  -1 8998.45 1215.33   2
   5   6   1 8444.13 1232.85   1
  -5   6  -2 4151.21 864.989   2
   5   6   2 3510.79 830.467   1
  -5   6  -3 7805.09 1176.42   2
   5   6   3 8064.39 1229.76   1
  -5   6  -4 214.548 385.746   2
   5   6   4 158.718 306.552   1
  -5   6  -5 1090.02 509.503   2
   5   6   5 2453.92 709.286   1
  -5   6  -6 295.009 337.116   2
   5   6   6 1203.37 529.274   1
  -5   6  -7 679.205 410.193   2
  -5   6  -8 234.518 302.902   2
  -5   7   4 1147.35 541.181   2
  -5   7   3 23728.0 2051.68   2
  -5   7   2 2469.18 690.130   2
  -5   7   1 19714.7 1917.95   2
  -5   7   0 3414.61 840.962   2
   6   0  -9 506.106 422.654   3
   6   0  -8 7204.41 1161.10   3
   6   0  -7 1180.37 609.293   3
   6  -1  -9 3437.08 815.707   3
   6  -1  -8 10802.5 1392.46   3
   6  -1  -7 3349.01 811.806   3
   6  -1  -6 6102.17 1039.69   3
   6  -2  -9 1107.19 503.718   3
   6  -2  -8 1280.04 554.434   3
   6  -2  -7 566.676 382.552   3
   6  -3  -8 7871.48 1240.35   3
   0   0   0    0.00    0.00   0
TITL exp_132 in P2(1)/c
REM P2(1)/c (#14 in standard setting)
CELL 0.71073   4.149671   7.878304  21.009129  90.0000  92.5511  90.0000
ZERR    2.00   0.000185   0.000382   0.001373   0.0000   0.0044   0.0000
LATT  1
SYMM -x, y+1/2,-z+1/2
SFAC C H N O Cd I
UNIT 16.00 20.00 8.00 4.00 2.00 4.00
TREF
HKLF 4
END
;
_shelx_hkl_checksum              91570
loop_
_space_group_symop_operation_xyz
'x, y, z'
'-x, y+1/2, -z+1/2'
'-x, -y, -z'
'x, -y-1/2, z-1/2'
loop_
_atom_site_label
_atom_site_type_symbol
_atom_site_fract_x
_atom_site_fract_y
_atom_site_fract_z
_atom_site_U_iso_or_equiv
_atom_site_adp_type
_atom_site_occupancy
_atom_site_site_symmetry_order
_atom_site_calc_flag
_atom_site_refinement_flags_posn
_atom_site_refinement_flags_adp
_atom_site_refinement_flags_occupancy
Cd1 Cd 0.5000 0.5000 0.5000 0.03114(16) Uani 1 2 d S . P
I1 I 0.96775(7) 0.72664(4) 0.44973(2) 0.03398(13) Uani 1 1 d . . .
N1 N 0.4475(9) 0.3285(5) 0.39959(19) 0.0343(9) Uani 1 1 d . . .
N2 N 0.2509(10) 0.1105(5) 0.3044(2) 0.0373(10) Uani 1 1 d D . .
H21 H 0.169(12) 0.036(5) 0.279(2) 0.045 Uiso 1 1 d D U .
O1 O -0.0187(14) 0.3245(6) 0.2531(2) 0.0752(14) Uani 1 1 d . . .
C1 C 0.2800(13) 0.3818(7) 0.3498(2) 0.0425(13) Uani 1 1 d . . .
H1 H 0.2340 0.4972 0.3473 0.051 Uiso 1 1 calc R U .
C2 C 0.1611(14) 0.2766(7) 0.2985(3) 0.0432(13) Uani 1 1 d . . .
C3 C 0.4341(12) 0.0539(7) 0.3543(2) 0.0387(12) Uani 1 1 d . . .
H3 H 0.4949 -0.0597 0.3562 0.046 Uiso 1 1 calc R U .
C4 C 0.5300(12) 0.1604(7) 0.4013(3) 0.0407(12) Uani 1 1 d . . .
H4 H 0.6550 0.1190 0.4357 0.049 Uiso 1 1 calc R U .
loop_
_atom_site_aniso_label
_atom_site_aniso_U_11
_atom_site_aniso_U_22
_atom_site_aniso_U_33
_atom_site_aniso_U_23
_atom_site_aniso_U_13
_atom_site_aniso_U_12
Cd1 0.0236(2) 0.0301(3) 0.0394(3) -0.0013(2) -0.00162(19) -0.00162(19)
I1 0.02509(19) 0.0291(2) 0.0474(2) 0.00707(16) -0.00204(14) 0.00114(12)
N1 0.037(2) 0.029(2) 0.037(2) -0.002(2) -0.0026(18) 0.0010(19)
N2 0.050(2) 0.023(2) 0.038(2) -0.004(2) -0.009(2) 0.0011(19)
O1 0.122(4) 0.047(3) 0.052(2) 0.001(2) -0.041(3) 0.021(3)
C1 0.063(3) 0.024(3) 0.040(3) 0.002(3) -0.003(3) 0.004(2)
C2 0.058(3) 0.032(3) 0.039(3) 0.000(3) -0.008(3) 0.006(3)
C3 0.050(3) 0.023(3) 0.043(3) 0.009(3) -0.008(2) 0.006(2)
C4 0.046(3) 0.031(3) 0.044(3) -0.002(3) -0.014(2) 0.004(2)
loop_
_atom_type_symbol
_atom_type_description
_atom_type_scat_dispersion_real
_atom_type_scat_dispersion_imag
_atom_type_scat_source
C C 0.0033 0.0016 'International Tables Vol C Tables 4.2.6.8 and 6.1.1.4'
H H 0.0000 0.0000 'International Tables Vol C Tables 4.2.6.8 and 6.1.1.4'
N N 0.0061 0.0033 'International Tables Vol C Tables 4.2.6.8 and 6.1.1.4'
O O 0.0106 0.0060 'International Tables Vol C Tables 4.2.6.8 and 6.1.1.4'
Cd Cd -0.8075 1.2024 'International Tables Vol C Tables 4.2.6.8 and 6.1.1.4'
I I -0.4742 1.8119 'International Tables Vol C Tables 4.2.6.8 and 6.1.1.4'
loop_
_geom_angle_atom_site_label_1
_geom_angle_atom_site_label_2
_geom_angle_atom_site_label_3
_geom_angle
_geom_angle_site_symmetry_1
_geom_angle_site_symmetry_3
N1 Cd1 N1 180.0 3_666 .
N1 Cd1 I1 86.54(9) 3_666 .
N1 Cd1 I1 93.46(9) . .
N1 Cd1 I1 93.46(9) 3_666 3_666
N1 Cd1 I1 86.54(9) . 3_666
I1 Cd1 I1 180.0 . 3_666
N1 Cd1 I1 90.61(9) 3_666 1_455
N1 Cd1 I1 89.39(9) . 1_455
I1 Cd1 I1 89.975(9) . 1_455
I1 Cd1 I1 90.025(10) 3_666 1_455
N1 Cd1 I1 89.39(9) 3_666 3_766
N1 Cd1 I1 90.61(9) . 3_766
I1 Cd1 I1 90.025(10) . 3_766
I1 Cd1 I1 89.975(9) 3_666 3_766
I1 Cd1 I1 180.000(12) 1_455 3_766
Cd1 I1 Cd1 89.975(9) . 1_655
C1 N1 C4 117.2(4) . .
C1 N1 Cd1 121.8(3) . .
C4 N1 Cd1 119.2(3) . .
C3 N2 C2 122.2(5) . .
C3 N2 H21 117(4) . .
C2 N2 H21 120(4) . .
N1 C1 C2 125.0(5) . .
N1 C1 H1 117.5 . .
C2 C1 H1 117.5 . .
O1 C2 N2 120.9(5) . .
O1 C2 C1 125.2(5) . .
N2 C2 C1 113.8(5) . .
N2 C3 C4 120.3(5) . .
N2 C3 H3 119.8 . .
C4 C3 H3 119.8 . .
C3 C4 N1 121.4(5) . .
C3 C4 H4 119.3 . .
N1 C4 H4 119.3 . .
loop_
_geom_bond_atom_site_label_1
_geom_bond_atom_site_label_2
_geom_bond_distance
_geom_bond_site_symmetry_2
Cd1 N1 2.506(4) 3_666
Cd1 N1 2.506(4) .
Cd1 I1 2.8729(3) .
Cd1 I1 2.8729(3) 3_666
Cd1 I1 2.9957(3) 1_455
Cd1 I1 2.9957(3) 3_766
I1 Cd1 2.9957(3) 1_655
N1 C1 1.300(6) .
N1 C4 1.368(7) .
N2 C3 1.342(6) .
N2 C2 1.364(7) .
N2 H21 0.86(2) .
O1 C2 1.243(7) .
C1 C2 1.430(7) .
C1 H1 0.9300 .
C3 C4 1.342(7) .
C3 H3 0.9300 .
C4 H4 0.9300 .
loop_
_geom_hbond_atom_site_label_D
_geom_hbond_atom_site_label_H
_geom_hbond_atom_site_label_A
_geom_hbond_distance_DH
_geom_hbond_distance_HA
_geom_hbond_distance_DA
_geom_hbond_angle_DHA
_geom_hbond_site_symmetry_A
N2 H21 O1 0.86(2) 1.89(3) 2.714(6) 161(5) 2_545
C1 H1 I1 0.93 3.05 3.703(5) 128.2 1_455
C4 H4 I1 0.93 3.06 3.789(5) 136.0 3_766
loop_
_geom_torsion_atom_site_label_1
_geom_torsion_atom_site_label_2
_geom_torsion_atom_site_label_3
_geom_torsion_atom_site_label_4
_geom_torsion
C4 N1 C1 C2 3.6(8)
Cd1 N1 C1 C2 -161.1(4)
C3 N2 C2 O1 -177.2(6)
C3 N2 C2 C1 0.0(8)
N1 C1 C2 O1 174.4(6)
N1 C1 C2 N2 -2.7(8)
C2 N2 C3 C4 1.5(8)
N2 C3 C4 N1 -0.6(8)
C1 N1 C4 C3 -1.8(8)
Cd1 N1 C4 C3 163.3(4)
