#------------------------------------------------------------------------------
#$Date: 2019-11-12 04:58:26 +0200 (Tue, 12 Nov 2019) $
#$Revision: 227641 $
#$URL: file:///home/coder/svn-repositories/cod/cif/1/54/87/1548721.cif $
#------------------------------------------------------------------------------
#
# This file is available in the Crystallography Open Database (COD),
# http://www.crystallography.net/
#
# All data on this site have been placed in the public domain by the
# contributors.
#
data_1548721
loop_
_publ_author_name
'Lin, Zuzhang'
'Liu, Xiaotong'
'Zhang, Weifeng'
'Huang, Jianyao'
'Wang, Qiang'
'Shi, Keli'
'Chen, Zhihui'
'Zhou, Yankai'
'Wang, Liping'
'Yu, Gui'
_publ_section_title
;
 Cyanostyrylthiophene-Based Ambipolar Conjugated Polymers: Synthesis,
 Properties, and Analyses of Backbone Fluorination Effect
;
_journal_issue                   3
_journal_name_full               Macromolecules
_journal_page_first              966
_journal_paper_doi               10.1021/acs.macromol.7b02401
_journal_volume                  51
_journal_year                    2018
_chemical_absolute_configuration ad
_chemical_formula_moiety         'C13 H5 Br2 F2 N S'
_chemical_formula_sum            'C13 H5 Br2 F2 N S'
_chemical_formula_weight         405.06
_space_group_crystal_system      monoclinic
_space_group_IT_number           4
_space_group_name_Hall           'P 2yb'
_space_group_name_H-M_alt        'P 1 21 1'
_symmetry_space_group_name_Hall  'P 2yb'
_symmetry_space_group_name_H-M   'P 1 21 1'
_atom_sites_solution_hydrogens   geom
_atom_sites_solution_primary     dual
_audit_creation_date             2017-09-15
_audit_creation_method
;
Olex2 1.2
(compiled 2017.08.10 svn.r3458 for OlexSys, GUI svn.r5381)
;
_audit_update_record
;
????
;
_cell_angle_alpha                90
_cell_angle_beta                 91.654(12)
_cell_angle_gamma                90
_cell_formula_units_Z            2
_cell_length_a                   3.963(3)
_cell_length_b                   5.849(5)
_cell_length_c                   27.67(3)
_cell_measurement_reflns_used    2012
_cell_measurement_temperature    173(2)
_cell_measurement_theta_max      27.4620
_cell_measurement_theta_min      2.2094
_cell_volume                     641.1(10)
_computing_cell_refinement       'CrystalClear (Rigaku Inc., 2007)'
_computing_data_collection       'CrystalClear (Rigaku Inc., 2007)'
_computing_data_reduction        'CrystalClear (Rigaku Inc., 2007)'
_computing_molecular_graphics    'Olex2 (Dolomanov et al., 2009)'
_computing_publication_material  'CIFTAB (Sheldrick, 2013)'
_computing_structure_refinement  'ShelXL (Sheldrick, 2015)'
_computing_structure_solution    'ShelXT (Sheldrick, 2015)'
_diffrn_ambient_temperature      173.15
_diffrn_measured_fraction_theta_full 0.992
_diffrn_measured_fraction_theta_max 0.978
_diffrn_measurement_device_type  'MM007-HF CCD(Saturn 724+)'
_diffrn_measurement_method       '\w scans at fixed \c = 45\%'
_diffrn_radiation_monochromator  Confocal
_diffrn_radiation_type           MoK\a
_diffrn_radiation_wavelength     0.71073
_diffrn_reflns_av_R_equivalents  0.0496
_diffrn_reflns_av_unetI/netI     0.0417
_diffrn_reflns_Laue_measured_fraction_full 0.992
_diffrn_reflns_Laue_measured_fraction_max 0.978
_diffrn_reflns_limit_h_max       5
_diffrn_reflns_limit_h_min       -5
_diffrn_reflns_limit_k_max       7
_diffrn_reflns_limit_k_min       -7
_diffrn_reflns_limit_l_max       35
_diffrn_reflns_limit_l_min       -35
_diffrn_reflns_number            6072
_diffrn_reflns_point_group_measured_fraction_full 0.928
_diffrn_reflns_point_group_measured_fraction_max 0.903
_diffrn_reflns_theta_full        25.242
_diffrn_reflns_theta_max         27.450
_diffrn_reflns_theta_min         0.736
_diffrn_source                   'Rotating Anode'
_exptl_absorpt_coefficient_mu    6.492
_exptl_absorpt_correction_T_max  1.00000
_exptl_absorpt_correction_T_min  0.30986
_exptl_absorpt_correction_type   multi-scan
_exptl_absorpt_process_details   'CrystalClear (Rigaku Inc., 2007)'
_exptl_crystal_colour            colorless
_exptl_crystal_density_diffrn    2.099
_exptl_crystal_description       plate
_exptl_crystal_F_000             388
_exptl_crystal_size_max          0.576
_exptl_crystal_size_mid          0.136
_exptl_crystal_size_min          0.032
_refine_diff_density_max         0.674
_refine_diff_density_min         -0.520
_refine_diff_density_rms         0.116
_refine_ls_abs_structure_details
;
 Flack x determined using 937 quotients [(I+)-(I-)]/[(I+)+(I-)]
 (Parsons, Flack and Wagner, Acta Cryst. B69 (2013) 249-259).
;
_refine_ls_abs_structure_Flack   0.051(12)
_refine_ls_extinction_method     none
_refine_ls_goodness_of_fit_ref   1.083
_refine_ls_hydrogen_treatment    constr
_refine_ls_matrix_type           full
_refine_ls_number_parameters     172
_refine_ls_number_reflns         2633
_refine_ls_number_restraints     1
_refine_ls_restrained_S_all      1.083
_refine_ls_R_factor_all          0.0391
_refine_ls_R_factor_gt           0.0370
_refine_ls_shift/su_max          0.000
_refine_ls_shift/su_mean         0.000
_refine_ls_structure_factor_coef Fsqd
_refine_ls_weighting_details
'w=1/[\s^2^(Fo^2^)+(0.0399P)^2^+1.3937P] where P=(Fo^2^+2Fc^2^)/3'
_refine_ls_weighting_scheme      calc
_refine_ls_wR_factor_gt          0.0916
_refine_ls_wR_factor_ref         0.0944
_reflns_Friedel_coverage         0.679
_reflns_Friedel_fraction_full    0.849
_reflns_Friedel_fraction_max     0.812
_reflns_number_gt                2517
_reflns_number_total             2633
_reflns_threshold_expression     'I > 2\s(I)'
_cod_data_source_file            ma7b02401_si_002.cif
_cod_data_source_block           mx6292c
_cod_depositor_comments          'Adding full bibliography for 1548721.cif.'
_cod_original_cell_volume        641.0(10)
_cod_database_code               1548721
_shelx_shelxl_version_number     2016/6
_shelx_space_group_comment
;
The symmetry employed for this shelxl refinement is uniquely defined
by the following loop, which should always be used as a source of
symmetry information in preference to the above space-group names.
They are only intended as comments.
;
_shelx_estimated_absorpt_t_max   0.819
_shelx_estimated_absorpt_t_min   0.118
_olex2_refinement_description
;
1. Fixed Uiso
 At 1.2 times of:
  All C(H) groups
2.a Aromatic/amide H refined with riding coordinates:
 C2(H2), C3(H3), C7(H7), C9(H9), C12(H12)
;
_shelx_res_file
;
TITL mx6292c_a.res in P2(1)
    mx6292c.res
    created by SHELXL-2016/6 at 15:48:22 on 15-Sep-2017
CELL 0.71073 3.9628 5.8488 27.6659 90 91.654 90
ZERR 2 0.0034 0.0051 0.0251 0 0.012 0
LATT -1
SYMM -X,0.5+Y,-Z
SFAC C H Br F N S
UNIT 26 10 4 4 2 2

L.S. 4
PLAN  20
SIZE 0.576 0.136 0.032
TEMP -100
BOND $H
list 4
fmap 2
ACTA
OMIT 1 0 19
REM <olex2.extras>
REM <HklSrc "%.\\mx6292c.hkl">
REM </olex2.extras>

WGHT    0.039900    1.393700
FVAR       0.78682
BR1   3    0.905738    0.177257    0.040394    11.00000    0.03418    0.04134 =
         0.02752   -0.00644    0.00637   -0.00209
BR2   3    0.203524    0.362604    0.467728    11.00000    0.03494    0.05284 =
         0.02359    0.00257    0.00596    0.00162
S1    6    0.754365    0.276677    0.147568    11.00000    0.02864    0.02551 =
         0.02496    0.00052    0.00204    0.00244
F1    4    0.052180    0.745245    0.396678    11.00000    0.04722    0.03274 =
         0.03561   -0.00095    0.01261    0.01033
F2    4    0.739605    0.059671    0.312502    11.00000    0.04001    0.02772 =
         0.03055    0.00279    0.00640    0.01312
N1    5    0.155213    0.945006    0.227951    11.00000    0.03694    0.03252 =
         0.02897    0.00359    0.00098    0.00425
C1    1    0.741357    0.370244    0.088524    11.00000    0.02402    0.03293 =
         0.02037   -0.00062    0.00090   -0.00906
C2    1    0.601762    0.580623    0.083240    11.00000    0.03217    0.03044 =
         0.02344    0.00694    0.00267   -0.00493
AFIX  43
H2    2    0.575455    0.657226    0.053087    11.00000   -1.20000
AFIX   0
C3    1    0.500380    0.672520    0.127445    11.00000    0.03156    0.02390 =
         0.03276    0.00323    0.00062    0.00047
AFIX  43
H3    2    0.398200    0.818554    0.130481    11.00000   -1.20000
AFIX   0
C4    1    0.565283    0.527747    0.165947    11.00000    0.01840    0.02639 =
         0.02828   -0.00347    0.00071   -0.00193
C5    1    0.481307    0.564361    0.216777    11.00000    0.02112    0.02625 =
         0.02867    0.00184   -0.00379   -0.00443
C6    1    0.300755    0.774259    0.224004    11.00000    0.02744    0.02745 =
         0.02169    0.00035   -0.00176   -0.00083
C7    1    0.555286    0.414753    0.252542    11.00000    0.02414    0.01921 =
         0.02551   -0.00089   -0.00121   -0.00232
AFIX  43
H7    2    0.683318    0.285862    0.243042    11.00000   -1.20000
AFIX   0
C8    1    0.470341    0.418568    0.303706    11.00000    0.02135    0.01692 =
         0.02301    0.00195   -0.00167   -0.00106
C9    1    0.294058    0.593950    0.327438    11.00000    0.02573    0.02433 =
         0.03372   -0.00054    0.00140   -0.00073
AFIX  43
H9    2    0.222040    0.725480    0.309831    11.00000   -1.20000
AFIX   0
C10   1    0.226562    0.576427    0.375130    11.00000    0.02493    0.02135 =
         0.03272   -0.00585    0.00521   -0.00182
C11   1    0.321185    0.385635    0.402723    11.00000    0.02088    0.04057 =
         0.02261   -0.00402    0.00105   -0.00562
C12   1    0.497944    0.210349    0.380592    11.00000    0.02773    0.02722 =
         0.02634    0.00429   -0.00401    0.00118
AFIX  43
H12   2    0.569608    0.079569    0.398479    11.00000   -1.20000
AFIX   0
C13   1    0.566198    0.230356    0.332601    11.00000    0.02502    0.02288 =
         0.02920    0.00077    0.00299    0.00232
HKLF 4




REM  mx6292c_a.res in P2(1)
REM R1 =  0.0370 for    2517 Fo > 4sig(Fo)  and  0.0391 for all    2633 data
REM    172 parameters refined using      1 restraints

END

WGHT      0.0399      1.3937

REM Highest difference peak  0.674,  deepest hole -0.520,  1-sigma level  0.116
Q1    1   0.8956  0.5489  0.0409  11.00000  0.05    0.67
Q2    1   0.2000  0.3702  0.4290  11.00000  0.05    0.59
Q3    1   0.6742  0.1742  0.0167  11.00000  0.05    0.55
Q4    1   1.2385  0.2043  0.1000  11.00000  0.05    0.54
Q5    1   0.4618  0.3594  0.5018  11.00000  0.05    0.54
Q6    1   0.2277 -0.0154  0.4680  11.00000  0.05    0.53
Q7    1   0.9314  0.1705  0.0082  11.00000  0.05    0.46
Q8    1   0.1533  0.8387  0.4614  11.00000  0.05    0.46
Q9    1   0.2060  0.3563  0.5019  11.00000  0.05    0.43
Q10   1  -0.1702  0.3361  0.5232  11.00000  0.05    0.42
Q11   1   0.6435  0.3977  0.1616  11.00000  0.05    0.42
Q12   1   0.4863  0.6351  0.1035  11.00000  0.05    0.42
Q13   1   0.7757  0.6867  0.0497  11.00000  0.05    0.40
Q14   1   0.5201  0.1854  0.1166  11.00000  0.05    0.40
Q15   1   0.5057 -0.0517  0.2786  11.00000  0.05    0.39
Q16   1   0.5172  0.1767  0.0425  11.00000  0.05    0.39
Q17   1   0.3048  0.3544  0.5224  11.00000  0.05    0.38
Q18   1   0.9292  0.1702  0.0808  11.00000  0.05    0.37
Q19   1   0.7142  0.6861  0.0185  11.00000  0.05    0.37
Q20   1   0.7544  0.0079  0.0173  11.00000  0.05    0.37
;
_shelx_res_checksum              7709
_shelx_hkl_file
;
   0   0   1   -0.11    0.21
   0   0  -1   -0.44    0.23
   0   0   1   -0.61    0.23
   0   0  -1   -0.25    0.21
   0   0   2 1229.33   12.78
   0   0  -2 1257.63   13.06
   0   0  -3    0.96    0.30
   0   0  -3    2.09    0.47
   0   0   3   13.48    3.05
   0   0  -3    1.15    0.45
   0   0  -4   98.76    5.23
   0   0   4  129.33    7.18
   0   0   4  111.91    6.50
   0   0  -4  110.04    5.83
   0   0  -5   50.77    2.76
   0   0   5   57.22    3.12
   0   0  -5   51.06    2.84
   0   0   6  243.76   13.54
   0   0  -6  236.62   13.10
   0   0   6  261.67   14.47
   0   0  -6  253.46   14.03
   0   0   6  256.08   14.17
   0   0   7  285.41   15.84
   0   0  -7  293.01   16.22
   0   0   7  297.90   17.19
   0   0   7  300.46   17.35
   0   0   8  112.61    6.92
   0   0  -8  108.63    5.90
   0   0   8  110.07    5.92
   0   0  -8  102.88    5.61
   0   0   8   98.26    5.36
   0   0  -9  303.43   17.55
   0   0   9  300.44   17.36
   0   0  -9  288.38   15.99
   0   0   9  280.73   15.56
   0   0 -10 1938.82   20.80
   0   0  10 1983.08   21.18
   0   0 -10 1854.36   21.34
   0   0  10 1875.61   20.10
   0   0 -11 3535.03   37.94
   0   0 -11 3443.66   37.23
   0   0  11 3516.62   37.31
   0   0 -12 3280.38   35.03
   0   0 -12 3216.73   34.96
   0   0  12 3183.27   33.89
   0   0 -13 2445.34   29.37
   0   0 -13 2304.39   27.80
   0   0  13 2342.55   25.69
   0   0  14 5636.27   59.03
   0   0 -14 5423.82   56.73
   0   0 -14 5205.13   54.69
   0   0  14 5074.88   53.19
   0   0  15  110.43   21.30
   0   0 -15   57.37   15.76
   0   0 -15   90.99   14.09
   0   0  15   41.57    2.81
   0   0  16 4096.76   43.36
   0   0 -16 4068.42   43.11
   0   0 -16 3926.35   41.70
   0   0  17   16.18    3.45
   0   0 -17    6.05    4.69
   0   0 -17   30.84    3.42
   0   0  17    9.90    1.07
   0   0  18 1004.93   26.47
   0   0 -18  997.00   26.18
   0   0 -18 1000.67   26.26
   0   0  19  623.68   16.82
   0   0 -19  633.11   16.95
   0   0 -19  635.06   17.27
   0   0  20   13.54    4.28
   0   0 -20   12.68    3.16
   0   0 -20   25.99    2.97
   0   0  21  711.11   19.12
   0   0 -21  749.72   20.05
   0   0 -21  741.66   19.98
   0   0  22  371.30   14.14
   0   0 -22  367.93   13.43
   0   0 -22  384.93   14.07
   0   0  23  765.59   24.39
   0   0 -23  809.10   25.46
   0   0  24  381.78   12.74
   0   0 -24  403.25   13.19
   0   0  25   86.69    5.92
   0   0 -25  103.46   11.33
   0   0  26  999.25   46.10
   0   0 -26 1032.77  118.89
   0   0  27   93.77   12.18
   0   0 -27  108.36   12.89
   0   0 -28  716.30   37.87
   0   0 -29  236.82    8.68
   0   0 -29  263.56    9.06
   0   0  30  211.12    9.18
   0   0 -30  217.42    8.21
   0   0 -30  200.50    7.02
   0   0 -31  476.08   25.54
   0   0 -31  430.80   22.82
   0   0 -32  219.56   16.30
   0   0 -33  251.84   17.48
   0   0  34    2.88    2.62
   0   0 -34    6.37    2.75
   0   0  35  121.78   14.44
   0   0 -35  126.29   14.67
   0  -1   0    0.22    0.36
   0   1   0    0.20    0.39
   0   1   0   -0.14    0.33
   0  -1   0   -0.05    0.33
   0   1   0    0.80    0.44
   0  -1   1 1879.94   19.64
   0  -1   2  149.19    8.27
   0   1  -2  179.49    9.91
   0  -1  -2  191.75   10.60
   0   1   2  222.90   12.30
   0   1  -2  197.40   10.90
   0  -1   2  149.51    8.27
   0  -1  -2  162.90    9.01
   0   1  -2  220.25   12.16
   0   1  -4 2202.19   22.96
   0  -1  -4 2072.66   21.62
   0   1   4 2191.50   22.83
   0  -1  -4 2119.43   22.17
   0   1  -4 2238.69   23.31
   0  -1   5 2203.03   23.05
   0   1  -5 2253.33   23.54
   0   1   5 2124.64   22.18
   0  -1  -5 2214.17   23.17
   0   1   5 2350.54   24.56
   0   1  -6 2398.36   25.10
   0  -1  -6 2391.26   25.04
   0   1   7 7423.56   76.73
   0   1  -7 7940.25   82.00
   0   1   7 7715.97   79.67
   0  -1   7 8040.04   82.92
   0  -1   8 1871.45   19.92
   0   1   8 2009.77   21.26
   0  -1  -8 1775.65   19.02
   0   1   8 1847.65   19.68
   0  -1   8 1771.17   18.71
   0   1   9 4737.34   49.30
   0   1  -9 4919.56   51.30
   0  -1   9 4720.04   49.02
   0   1   9 4455.22   46.42
   0  -1   9 4748.56   49.28
   0   1  10 2549.70   26.96
   0  -1 -10 2577.63   27.48
   0   1 -10 2551.04   31.63
   0  -1  10 2480.54   26.13
   0  -1 -10 2330.18   24.76
   0  -1  10 2577.13   27.14
   0  -1  11  306.11   12.56
   0   1  11  292.70   16.28
   0  -1 -11  284.61   15.87
   0   1 -11  279.15   17.35
   0  -1  11  274.65   15.24
   0  -1 -11  265.79   14.82
   0   1  11  233.18   12.98
   0  -1  11  267.70   14.86
   0  -1  12  539.40   18.78
   0   1  12  491.57   17.09
   0  -1 -12  528.21   18.43
   0   1 -12  506.27   17.64
   0  -1  12  491.57   17.04
   0  -1 -12  520.44   18.14
   0   1  12  433.25   15.07
   0  -1  12  525.41   18.20
   0  -1  13  569.07   15.08
   0   1  13  537.12   18.68
   0   1 -13  580.64   15.31
   0  -1  13  502.71   17.44
   0   1  13  498.35   17.31
   0  -1  13  555.92   32.05
   0  -1  14   90.06    5.13
   0   1  14  100.18    5.60
   0   1 -14   99.23    5.70
   0  -1 -14  106.79    5.97
   0  -1  14   98.54    5.39
   0  -1 -14  115.58    6.73
   0   1  14   92.48    5.09
   0  -1  14   94.95    5.21
   0  -1  15  386.63   13.78
   0   1  15  327.86   11.74
   0   1 -15  371.25   13.15
   0  -1 -15  443.07   15.57
   0  -1  15  385.87   13.55
   0  -1 -15  440.47   15.58
   0  -1  15  406.26   14.21
   0  -1  16  536.48   18.89
   0   1  16  476.27   16.84
   0   1 -16  458.80   16.40
   0  -1 -16  557.10   32.21
   0  -1  16  523.33   18.26
   0  -1 -16  590.81   15.83
   0  -1  16  532.48   18.55
   0  -1  17  509.60   17.96
   0   1  17  540.69   18.97
   0   1 -17  515.81   18.68
   0  -1 -17  549.21   19.30
   0  -1 -17  548.23   19.29
   0  -1  17  492.78   17.20
   0  -1  18 1096.38   13.53
   0   1 -18 1262.26   16.18
   0  -1 -18 1120.33   13.16
   0  -1 -18 1153.86   13.96
   0  -1  19 3167.43   34.32
   0   1  19 3078.70   33.27
   0   1 -19 3178.90   34.61
   0  -1 -19 3091.63   33.44
   0  -1 -19 3057.52   33.48
   0   1  20  556.93   32.35
   0   1 -20  530.24   19.03
   0  -1 -20  507.75   18.07
   0  -1 -20  517.65   18.39
   0  -1  20  398.69   14.13
   0  -1  21  569.03   16.91
   0   1  21  585.34   15.94
   0   1 -21  596.03   16.31
   0  -1 -21  574.00   15.72
   0  -1 -21  581.01   16.30
   0  -1  21  508.29   17.81
   0  -1  22  710.48   19.26
   0   1  22  577.50   15.80
   0   1 -22  562.40   15.28
   0  -1 -22  716.00   19.36
   0  -1 -22  735.43   20.45
   0  -1  22  681.50   18.04
   0  -1  23  944.17   29.66
   0   1  23 1115.41   34.80
   0   1 -23 1090.22   34.15
   0  -1 -23  977.49   30.60
   0  -1 -23  934.91   29.95
   0  -1  23  916.81   28.60
   0   1  24  363.89   12.33
   0   1 -24  365.38   12.37
   0  -1 -24  347.91   11.64
   0  -1 -24  328.70   12.39
   0  -1  24  311.67   14.72
   0   1  25  324.21   15.61
   0   1 -25  321.23   15.54
   0  -1 -25  453.87   21.36
   0  -1 -25  425.06   20.32
   0  -1  25  422.24   19.72
   0   1  26  122.71    6.99
   0   1 -26  124.08    7.03
   0  -1 -26  108.10    6.17
   0  -1 -26   95.46    8.49
   0  -1  26   94.11    5.08
   0   1  27  242.57   13.66
   0   1 -27  219.73   12.46
   0  -1 -27  235.67   13.24
   0  -1 -27  207.11   12.81
   0  -1  27  224.90   12.31
   0   1  28  447.78   24.22
   0   1 -28  414.92   22.53
   0  -1 -28  420.58   22.71
   0  -1 -28  387.04   20.93
   0  -1  28  364.41   19.55
   0   1 -29  291.10   10.02
   0  -1 -29  310.75   10.61
   0  -1 -29  286.30   10.31
   0  -1  29  272.80    8.96
   0   1 -30  529.27   28.18
   0  -1 -30  527.63   28.05
   0  -1 -30  496.12   26.39
   0  -1  30  463.94   24.41
   0  -1  31   76.83   11.77
   0   1 -31   94.20   14.16
   0  -1 -31  131.73    8.02
   0  -1 -31   88.14   16.65
   0  -1  32  136.87   10.92
   0   1 -32  100.73    8.33
   0  -1 -32  152.63   11.63
   0  -1 -32  100.97   12.83
   0  -1  33   67.55    6.96
   0   1  33   44.60    6.01
   0   1 -33   65.69    5.90
   0  -1 -33   88.48    7.33
   0  -1  34   34.67    4.80
   0   1 -34   57.04    7.63
   0  -1 -34   54.30    7.13
   0  -2   0 1649.77   17.60
   0   2   0 1749.76   18.57
   0  -2   0 1836.17   19.32
   0   2   0 1707.52   18.04
   0   2  -1 4676.88   48.55
   0   2   1 4733.16   49.05
   0   2   2 1451.97   15.54
   0  -2   2 1635.97   17.55
   0   2  -2 1477.59   15.71
   0  -2  -2 1513.86   16.00
   0  -2   2 1611.31   17.03
   0  -2  -2 1513.76   16.18
   0  -2   3 5039.56   52.19
   0  -2  -3 5292.43   54.93
   0   2  -3 5243.03   54.37
   0   2   4  657.05   17.03
   0   2  -4  808.39   20.85
   0   2   4  790.24   20.50
   0  -2   4  662.55   17.13
   0  -2  -4  696.62   18.04
   0  -2  -4  727.06   18.88
   0   2   5  774.49   20.07
   0   2  -5  821.22   21.20
   0   2   5  812.21   21.07
   0  -2  -5  959.26   24.79
   0  -2   5  731.67   18.91
   0  -2  -5  747.55   19.34
   0  -2  -5  785.02   20.37
   0   2   5  898.11   23.18
   0  -2   5  773.74   20.04
   0   2   6   59.17    3.35
   0   2  -6   62.90    3.44
   0   2   6   57.83    3.30
   0  -2  -6  117.60    6.63
   0  -2   6   97.14    5.23
   0  -2  -6  100.82    5.45
   0  -2  -6  106.45    5.82
   0  -2   6  117.85    6.73
   0   2  -6   69.01    3.82
   0   2  -7  197.11   10.97
   0   2   7  185.36   10.37
   0  -2  -7  183.74   10.29
   0  -2  -7  252.22   14.01
   0  -2   7  215.98   12.00
   0  -2  -7  220.83   12.30
   0  -2  -7  212.64   11.90
   0   2   7  194.78   10.85
   0  -2   7  228.57   12.77
   0   2  -7  212.08   11.82
   0   2  -8  499.75   17.29
   0   2   8  457.04   15.88
   0  -2  -8  546.73   18.98
   0  -2   8  610.75   15.88
   0  -2  -8  658.27   17.15
   0   2   8  505.06   17.49
   0  -2  -8  588.75   15.45
   0   2   8  512.31   17.74
   0  -2   8  675.81   17.61
   0   2  -8  475.25   16.45
   0  -2   9  821.20   21.38
   0   2   9  970.71   25.16
   0  -2  -9  820.43   21.41
   0  -2  -9 1024.75   26.53
   0   2   9  987.29   25.52
   0  -2   9 1039.69   59.69
   0   2  -9  936.10   24.19
   0  -2  10  852.33   22.24
   0   2  10  952.26   24.71
   0  -2 -10  873.30   22.80
   0   2 -10  962.47   24.96
   0  -2 -10 1049.04   60.28
   0  -2 -10  806.52   21.01
   0  -2  10 1067.09   61.30
   0   2 -10  890.98   23.07
   0   2  11 2768.52   29.37
   0   2 -11 2519.26   26.67
   0   2  12  772.26   20.18
   0   2 -12  764.27   20.74
   0  -2  12  782.20   20.36
   0  -2 -12  721.36   18.95
   0  -2  12  962.89   25.19
   0  -2  13 2794.15   30.07
   0   2  13 2844.30   30.31
   0   2 -13 2866.07   30.68
   0  -2  14  184.37   10.79
   0   2  14  202.00   11.41
   0   2 -14  168.20   11.28
   0  -2 -14  241.61   13.67
   0  -2 -14  184.39   10.50
   0  -2  14  223.18   12.97
   0  -2  15 1846.09   20.55
   0   2  15 1615.67   17.87
   0  -2  16 1155.21   13.58
   0   2  16 1303.68   14.77
   0   2 -16 1191.27   14.33
   0   2  17 1605.01   17.96
   0   2 -17 1548.02   17.64
   0  -2  17 1580.60   17.78
   0  -2  18  573.10   15.75
   0   2  18  675.47   17.93
   0   2 -18  672.38   18.33
   0  -2 -18  740.05   19.70
   0  -2 -18  610.50   16.42
   0  -2  18  655.10   17.39
   0  -2  19   77.65    4.85
   0   2  19  154.67    9.10
   0   2 -19  144.37    8.79
   0  -2 -19  121.50    7.32
   0  -2 -19  108.97    6.36
   0  -2  19   87.17    5.17
   0  -2 -20  140.92    8.36
   0  -2 -20  125.40    7.55
   0  -2  20  130.45    7.63
   0  -2  21  376.30   12.66
   0   2  21  441.35   14.35
   0   2 -21  423.29   13.95
   0  -2 -21  447.36   14.47
   0  -2 -21  436.40   14.27
   0  -2  21  431.30   13.85
   0  -2  22  282.17   16.91
   0   2  22  357.49   12.08
   0   2 -22  328.00   11.30
   0  -2 -22  376.75   12.42
   0  -2 -22  356.38   11.90
   0  -2  22  366.86   11.95
   0   2  23  169.60   10.74
   0   2 -23  142.02    8.91
   0  -2 -23  196.45   11.94
   0  -2  23  103.40    6.28
   0  -2  24  341.19   16.61
   0   2  24  319.47   15.38
   0   2 -24  311.26   15.11
   0  -2 -24  399.45   18.90
   0  -2 -24  394.84   20.10
   0  -2  24  399.97   18.71
   0  -2  25  492.81   26.54
   0   2  25  484.98   25.88
   0   2 -25  486.37   26.19
   0  -2 -25  561.55   29.91
   0  -2 -25  511.79   27.56
   0  -2  25  543.40   28.77
   0  -2  26   98.76   11.90
   0   2  26  208.67   11.99
   0   2 -26  181.74   10.59
   0  -2 -26  179.87   10.26
   0  -2 -26  179.86   14.56
   0  -2  26  159.78    8.99
   0  -2  27  385.38   21.06
   0   2  27  519.30   27.63
   0   2 -27  515.68   27.71
   0  -2 -27  421.63   22.68
   0  -2 -27  402.59   22.69
   0  -2  27  419.68   22.44
   0  -2  28  202.50    7.86
   0   2  28  187.20    6.65
   0   2 -28  230.59    8.54
   0  -2 -28  255.68    8.78
   0  -2 -28  226.68   12.87
   0  -2  28  239.24    8.24
   0  -2  29  424.51   23.15
   0   2  29  439.08   23.51
   0   2 -29  433.85   23.35
   0  -2 -29  501.66   26.60
   0  -2 -29  463.42   25.71
   0  -2  29  470.44   24.81
   0  -2  30  115.54   10.29
   0   2  30  112.09    8.85
   0   2 -30  163.53   12.54
   0  -2 -30  143.48   11.03
   0  -2 -30  118.90   14.36
   0  -2  30  127.81    9.64
   0  -2  31  180.47   14.29
   0   2 -31  197.96   14.93
   0  -2 -31  230.40   17.07
   0  -2 -31  183.16   17.19
   0  -2  32  192.76   14.38
   0   2  32  148.71   10.69
   0   2 -32  236.52   16.65
   0  -2 -32  235.69   16.42
   0  -2 -32  159.13   14.68
   0  -2  33    4.47    2.27
   0   2  33   14.25    3.35
   0   2 -33    8.33    2.71
   0  -2 -33   12.70    3.07
   0  -2  34  255.54   29.84
   0   2 -34  223.90   25.91
   0  -3   0    0.63    0.62
   0   3   0    0.28    0.48
   0  -3   0    0.99    0.68
   0  -3   0    2.46    1.08
   0  -3  -1   43.75    3.05
   0  -3   1   49.49    3.17
   0   3   1   56.90    3.25
   0   3  -1   54.32    3.07
   0   3   1   78.50    4.51
   0   3  -1   55.28    3.54
   0  -3  -1   52.47    2.95
   0  -3   1   50.14    2.85
   0   3   2 1344.24   14.77
   0   3  -2 1241.09   13.53
   0   3  -2 1306.23   14.26
   0  -3  -2 1035.22   59.42
   0  -3   2 1064.39   61.10
   0  -3  -3    3.04    1.18
   0   3   3    1.24    0.75
   0   3  -3    0.92    0.47
   0  -3  -3    0.74    0.61
   0   3  -3    1.32    0.86
   0  -3   3    2.24    0.51
   0  -3  -3    4.58    1.27
   0   3   4 1497.69   16.36
   0  -3  -4 1532.05   16.45
   0   3  -4 1657.60   17.95
   0   3   5  691.19   18.08
   0  -3   5  864.67   22.64
   0   3   5  714.25   18.75
   0   3  -5  819.12   21.36
   0  -3  -5  854.82   22.21
   0  -3  -5  934.58   24.42
   0  -3   5  958.47   24.84
   0  -3   6 5085.10   53.46
   0   3   6 4730.73   49.69
   0  -3  -6 4989.71   52.09
   0   3   7   60.61    4.23
   0  -3   7   59.44    3.80
   0   3   7   77.20    4.45
   0   3  -7   82.28    4.69
   0  -3  -7   56.26    3.30
   0  -3  -7   53.76    3.55
   0  -3   7   49.05    3.13
   0  -3   8 2049.91   22.36
   0   3   8 1974.52   21.49
   0   3  -8 1914.46   20.84
   0   3   9  121.16    6.96
   0  -3   9  159.11    9.28
   0   3   9  137.52    7.89
   0   3  -9  153.43    8.79
   0  -3  -9  167.93    9.51
   0  -3  -9  155.62    8.96
   0  -3   9  156.83    9.11
   0  -3  10  886.76   23.26
   0   3  10  902.98   23.58
   0   3 -10  988.34   25.79
   0  -3 -10  865.50   22.61
   0  -3 -10  852.68   22.37
   0  -3  10  967.26   25.21
   0  -3  11  545.28   19.32
   0   3  11  584.34   15.48
   0   3 -11  643.65   17.06
   0  -3 -11  646.88   17.11
   0  -3 -11  520.56   18.29
   0  -3  11  609.59   16.21
   0  -3  12  669.30   17.90
   0   3  12  650.79   17.21
   0   3 -12  717.01   18.98
   0  -3 -12  768.26   20.19
   0  -3 -12  629.76   16.83
   0  -3  12  800.33   21.09
   0  -3  13  458.85   16.36
   0   3  13  534.60   18.71
   0   3 -13  545.60   19.17
   0  -3 -13  431.45   15.31
   0  -3  13  537.65   18.91
   0  -3  14   82.63    5.76
   0   3  14   77.19    4.54
   0   3 -14   70.11    4.28
   0  -3 -14  112.67    6.98
   0  -3 -14   77.58    4.63
   0  -3  14  107.65    6.31
   0  -3  15  533.84   19.02
   0   3  15  476.35   16.78
   0   3 -15  452.96   16.07
   0  -3 -15  484.91   17.18
   0  -3  15  634.18   17.02
   0  -3  16  649.08   18.65
   0   3  16  639.26   17.05
   0   3 -16  607.22   16.42
   0  -3 -16  596.46   16.14
   0  -3  16  779.31   20.67
   0  -3  17  300.74   18.03
   0   3  17  400.85   14.31
   0   3 -17  361.60   13.59
   0  -3 -17  290.97   16.47
   0  -3 -17  297.47   17.55
   0  -3  17  384.45   13.98
   0  -3  18 1119.13   35.07
   0   3  18 1417.17   64.85
   0   3 -18 1344.44   41.87
   0  -3 -18 1416.47   64.95
   0  -3  18 1378.86   63.16
   0  -3  19  105.52    7.19
   0   3  19   95.03    6.12
   0   3 -19   59.87    5.69
   0  -3 -19  155.34    9.59
   0  -3 -19  108.88    7.08
   0  -3  19   95.84    5.97
   0  -3  20 1011.08   31.80
   0   3  20 1231.74   38.24
   0   3 -20 1257.12   39.28
   0  -3 -20 1290.20   40.20
   0  -3 -20  981.31   30.88
   0  -3  20 1281.44   39.79
   0  -3  21   10.13    3.06
   0   3  21   -0.08    1.44
   0   3 -21   -0.37    2.98
   0  -3 -21    2.03    1.53
   0  -3 -21   -0.32    1.48
   0  -3  21   -1.55    1.19
   0  -3  22  762.26   35.49
   0   3  22  582.16   27.12
   0   3 -22  596.75   27.90
   0  -3 -22  923.73   42.65
   0  -3 -22  815.02   37.83
   0  -3  22  965.60   44.48
   0  -3  23  -13.23    1.97
   0   3  23    0.91    1.42
   0   3 -23   -0.47    1.72
   0  -3 -23    2.07    1.62
   0  -3 -23    0.53    1.48
   0  -3  23   -1.99    1.23
   0  -3  24  283.38   16.09
   0   3  24  286.77   15.48
   0   3 -24  353.75   19.23
   0  -3 -24  365.15   19.83
   0  -3 -24  327.23   17.85
   0  -3  24  386.59   20.89
   0  -3  25  141.52   18.26
   0   3  25  282.83    9.85
   0   3 -25  249.62    9.13
   0  -3 -25  268.32    9.22
   0  -3 -25  266.96    9.42
   0  -3  25  234.47    7.81
   0  -3  26  234.29    9.00
   0   3 -26  310.06   10.71
   0  -3 -26  315.67   10.75
   0  -3 -26  316.30   10.86
   0  -3  26  323.29   10.69
   0  -3  27  246.74   14.14
   0   3  27  311.86   16.91
   0   3 -27  290.67   15.94
   0  -3 -27  301.11   16.43
   0  -3 -27  283.53   15.57
   0  -3  27  308.86   16.81
   0  -3  28   -1.05    2.20
   0   3  28    2.32    2.34
   0   3 -28   18.14    5.19
   0  -3 -28   -0.71    1.63
   0  -3 -28    3.39    2.37
   0  -3  28    0.00    1.33
   0  -3  29  227.44   17.29
   0   3 -29  289.28   21.20
   0  -3 -29  256.44   18.69
   0  -3  30   70.11    6.73
   0   3 -30   98.66    7.74
   0  -3 -30   84.73    6.89
   0  -3 -30   64.82   11.28
   0  -3  31  121.04   10.29
   0   3  31  141.30   10.36
   0   3 -31  141.03   10.66
   0  -3 -31  162.98   11.75
   0  -3 -31  122.64   14.84
   0  -3  32  206.58   23.96
   0   3 -32  229.14   25.95
   0  -3 -32  260.91   29.25
   0  -3 -32  211.66   25.16
   0  -4   0  286.93   16.24
   0   4   0  422.60   15.14
   0   4   1 1056.34   60.82
   0  -4  -3  771.71   20.43
   0  -4   3  687.54   18.36
   0   4   3  801.62   21.11
   0   4  -3  660.02   17.47
   0  -4   4  803.85   21.32
   0   4   4 1015.53   26.54
   0   4  -4  855.82   22.40
   0  -4   5  533.69   18.85
   0   4  -5  573.15   15.30
   0  -4  -5  573.63   15.38
   0  -4   5  520.77   18.26
   0  -4   6  147.52    8.62
   0   4  -6  125.78    7.37
   0  -4  -6  155.18    8.85
   0  -4  -6  161.95    9.37
   0  -4   7  161.30    9.37
   0   4  -7  148.45    8.78
   0  -4  -7  159.92    9.12
   0  -4   8  107.27    6.29
   0   4   8   61.47    3.73
   0   4  -8   67.21    4.01
   0  -4  -8   95.28    5.33
   0  -4   9  223.51   12.76
   0   4   9  274.14   15.42
   0   4  -9  285.39   16.05
   0  -4  -9  231.47   13.02
   0  -4  -9  237.40   13.54
   0  -4   9  235.54   13.38
   0  -4  10  149.43    8.84
   0   4  10  173.70    9.94
   0   4 -10  200.45   11.43
   0  -4 -10  139.28    8.26
   0  -4  10  148.01    8.68
   0  -4  11  574.06   15.78
   0   4  11  603.00   16.10
   0   4 -11  708.00   18.90
   0  -4 -11  511.91   18.16
   0  -4  11  551.02   19.42
   0  -4  12  641.52   17.58
   0   4  12  607.65   16.24
   0   4 -12  670.65   17.97
   0  -4 -12  583.22   15.95
   0  -4  12  584.80   15.89
   0  -4  13 1200.75   37.53
   0   4  13 1056.97   32.86
   0   4 -13 1168.30   36.48
   0  -4 -13 1438.84   65.86
   0  -4 -13 1121.82   35.14
   0  -4  13 1212.25   37.56
   0  -4  14  856.54   27.77
   0   4  14  900.50   28.09
   0  -4 -14  769.67   24.34
   0  -4  14  893.05   28.04
   0  -4  15  402.43   13.83
   0   4  15  479.54   15.38
   0   4 -15  464.83   15.08
   0  -4 -15  383.93   12.64
   0  -4  15  475.64   15.42
   0  -4  16   97.78    7.55
   0   4  16   92.47    5.94
   0   4 -16   82.07    5.63
   0  -4 -16  129.82    8.10
   0  -4 -16   99.20    6.70
   0  -4  16  103.45    6.67
   0  -4  17  276.45   13.95
   0   4  17  407.95   19.09
   0   4 -17  406.49   19.22
   0  -4 -17  352.92   16.72
   0  -4 -17  249.30   12.11
   0  -4  17  307.74   14.67
   0  -4  18  309.50   15.62
   0   4  18  325.60   15.41
   0   4 -18  317.21   15.22
   0  -4 -18  389.40   18.35
   0  -4 -18  268.66   13.02
   0  -4  18  314.41   15.00
   0  -4  19  269.88   15.57
   0   4  19  221.16   12.13
   0   4 -19  222.73   12.42
   0  -4 -19  317.51   17.16
   0  -4 -19  224.14   12.54
   0  -4  19  264.40   14.45
   0  -4  20  112.39   14.14
   0   4  20  117.83   13.96
   0   4 -20  121.21   14.42
   0  -4 -20  143.13    8.42
   0  -4 -20  109.47   13.06
   0  -4  20  110.56   13.11
   0  -4  21   32.92    5.11
   0   4  21   73.16    8.95
   0   4 -21   65.88    8.37
   0  -4 -21   70.97    8.83
   0  -4 -21   45.66    5.98
   0  -4  21   48.37    6.28
   0  -4  22   43.34    6.78
   0   4  22   37.88    5.39
   0   4 -22   43.72    6.33
   0  -4 -22   72.21    9.67
   0  -4 -22   57.15    7.86
   0  -4  22   23.22    3.38
   0  -4  23  284.94   10.97
   0   4  23  297.22    9.72
   0   4 -23  306.99   10.36
   0  -4 -23  344.43   11.45
   0  -4 -23  281.67    9.89
   0  -4  23  271.89    9.21
   0  -4  24  332.52   18.38
   0   4  24  334.20   17.87
   0   4 -24  353.16   19.08
   0  -4 -24  432.77   23.16
   0  -4 -24  365.08   19.74
   0  -4  24  337.62   18.09
   0   4  25  148.34    8.79
   0   4 -25  149.76    9.06
   0  -4 -25  174.85   10.07
   0  -4 -25  152.61    9.13
   0  -4  25  103.17   15.12
   0  -4  26    8.29    2.95
   0   4 -26   55.54   13.22
   0  -4 -26   38.71    9.40
   0  -4 -26   35.69    8.87
   0  -4  26   33.52    8.19
   0  -4  27  101.06    8.87
   0   4  27  184.76   12.93
   0   4 -27  179.31   12.88
   0  -4 -27  149.51   10.83
   0  -4 -27  138.28   10.23
   0  -4  27  100.82    7.43
   0  -4  28    3.66    2.35
   0   4 -28   10.89    3.49
   0  -4 -28    9.42    2.86
   0  -4 -28   25.57    6.50
   0  -4  29   88.53   11.55
   0   4  29   63.53    7.64
   0   4 -29  120.91   14.11
   0  -4 -29  134.04   15.34
   0  -4 -29  131.13   15.20
   0   4  30   62.51    7.68
   0   4 -30   94.90   11.68
   0  -4 -30   86.95   10.44
   0  -4 -30   87.64   10.78
   0  -5   0   -0.51    0.89
   0   5   0   -0.02    1.34
   0  -5   1   65.85    4.93
   0  -5  -1   88.81    5.65
   0   5   1  134.23    8.25
   0   5  -1  127.46    8.65
   0  -5  -2   73.48    4.85
   0  -5   2   53.94    3.87
   0   5   2   91.53    5.99
   0   5  -2  106.64    7.13
   0  -5  -3  454.23   14.75
   0  -5   3  385.84   12.58
   0   5   3  496.82   15.88
   0  -5   4  237.31   14.10
   0   5   4  266.01   15.75
   0   5   4  333.13   10.92
   0  -5   5 1659.52   76.03
   0   5   5 1601.43   73.35
   0   5  -5 1702.15   77.82
   0  -5  -5 1851.43   84.62
   0  -5  -5 1824.35   83.61
   0  -5   6  489.99   15.89
   0   5   6  427.08   13.84
   0   5  -6  442.53   14.54
   0  -5  -6  528.98   16.80
   0  -5   7  296.58   17.56
   0   5   7  334.22   11.02
   0   5  -7  350.46   12.25
   0  -5  -7  337.38   11.01
   0  -5   8   92.66    6.10
   0   5   8  136.60    8.33
   0  -5   9  230.11   11.66
   0   5   9  205.98   10.01
   0   5  -9  223.54   10.78
   0  -5  -9  256.95   12.21
   0  -5  -9  268.90   13.13
   0  -5  10  102.73    5.90
   0   5  10  115.19    5.92
   0   5 -10  120.70    6.48
   0  -5  10  115.02    6.31
   0  -5  11  445.63   21.23
   0   5  11  414.14   19.38
   0   5 -11  477.00   22.33
   0  -5  11  443.29   20.80
   0  -5  12   36.56    3.80
   0   5  12   24.74    2.18
   0   5 -12   29.10    2.83
   0  -5  12   36.10    3.58
   0  -5  13   79.86    9.99
   0   5  13   90.33   10.73
   0   5 -13  104.94   12.48
   0  -5 -13   99.56   11.76
   0  -5 -13   82.73   10.09
   0  -5  13   85.84   10.62
   0  -5  14   24.00    3.88
   0   5  14   37.57    4.71
   0   5 -14   42.28    5.48
   0  -5 -14   38.89    5.03
   0  -5  14   39.39    5.30
   0  -5  15   62.37    8.33
   0   5  15   88.92   10.59
   0   5 -15  115.03   13.71
   0  -5 -15   86.10   10.33
   0  -5 -15   63.27    8.00
   0  -5  15   61.96    7.91
   0  -5  16  138.52    8.90
   0   5  16  147.48    8.33
   0   5 -16  131.42    7.85
   0  -5 -16  180.88   10.21
   0  -5 -16  133.01    7.96
   0  -5  16  130.77   16.85
   0  -5  17  498.35   16.35
   0   5  17  484.30   15.06
   0   5 -17  496.94   15.74
   0  -5 -17  447.53   14.41
   0  -5  17  480.24   15.12
   0  -5  18   23.53    9.12
   0   5  18   51.49    6.85
   0   5 -18   60.27    8.52
   0  -5 -18   42.84    6.04
   0  -5 -18   36.02    5.28
   0  -5  19   80.35   12.23
   0   5  19  112.07   25.95
   0   5 -19  108.16   25.14
   0  -5 -19  107.96   25.08
   0  -5 -19   68.44   10.28
   0  -5  19   89.54   13.31
   0  -5  20   25.02    4.53
   0   5  20   48.24    7.49
   0   5 -20   43.57    7.00
   0  -5 -20   59.05    9.15
   0  -5 -20   39.64    6.71
   0  -5  20   27.84    4.69
   0  -5  21  496.47   35.77
   0   5  21  515.75   36.62
   0   5 -21  552.15   39.41
   0  -5 -21  611.34   43.46
   0  -5 -21  457.34   32.78
   0  -5  21  495.47   35.31
   0  -5  22    8.40    3.10
   0   5  22   15.26    4.11
   0   5 -22    8.58    3.20
   0  -5 -22   43.34   10.50
   0  -5 -22   30.49    7.61
   0  -5  22    4.40    1.89
   0  -5  23  232.47   17.08
   0   5  23  249.98   17.05
   0   5 -23  264.24   18.32
   0  -5 -23  264.96   18.21
   0  -5 -23  192.78   13.69
   0  -5  23  179.92   12.72
   0  -5  24   54.20    6.42
   0   5  24   33.08    7.37
   0   5 -24   87.21    7.03
   0  -5 -24   98.31    7.66
   0  -5 -24   68.83    5.91
   0  -5  24   47.49    6.09
   0  -5  25   15.47    4.52
   0   5 -25    0.32    1.77
   0  -5 -25    9.17    2.20
   0  -5 -25    7.36    2.67
   0  -5  25    5.17    1.54
   0  -5  26  105.74   12.82
   0   5 -26  141.12   16.38
   0  -5 -26  166.65   18.90
   0  -5 -26  145.70   16.79
   0  -5  26   69.77    8.22
   0  -6   0  154.27    8.88
   0  -6  -1  191.79   10.85
   0   6  -1  230.51   12.77
   0   6   1  215.26   11.88
   0  -6  -2  720.70   38.24
   0  -6   2  503.87   26.79
   0   6   2  770.21   40.65
   0   6  -2  864.67   45.67
   0  -6   3    7.16    2.08
   0   6   3   18.07    2.85
   0   6   3   28.20    3.94
   0   6  -3   24.06    6.46
   0  -6   4  131.51   16.80
   0   6   4  145.62   18.58
   0  -6  -4  197.71    6.76
   0  -6  -4  175.44    6.52
   0  -6   4  179.39    6.62
   0  -6   5    0.67    1.50
   0   6   5    7.03    2.18
   0  -6  -5    5.70    1.37
   0  -6  -5   37.25    5.25
   0  -6   5    5.50    2.10
   0  -6   6    1.54    1.31
   0   6   6    3.19    1.68
   0   6  -6   -1.59    1.57
   0  -6  -6    3.10    1.45
   0  -6  -6    4.80    2.46
   0  -6   6    5.43    1.63
   0  -6   7   15.77    4.91
   0   6   7   42.86    5.82
   0   6  -7   47.12   10.71
   0  -6  -7   33.60    4.62
   0  -6  -7   35.12    5.30
   0  -6   8   19.47    7.11
   0   6   8   50.61    6.70
   0   6  -8   53.77    7.21
   0  -6  -8   39.73    5.38
   0  -6   9   12.09    7.08
   0   6   9   37.47    5.09
   0   6  -9   31.70    5.59
   0  -6  -9   41.83    5.62
   0  -6  10  129.11    7.60
   0   6  10  106.96   24.77
   0   6 -10   97.26   14.84
   0  -6 -10  150.94    8.72
   0  -6  10  154.50    9.09
   0   6  11   20.21    3.40
   0  -6  11   34.27    5.71
   0  -6  12  274.61   15.13
   0   6  12  254.12   13.69
   0   6 -12  278.04   15.36
   0  -6 -12  284.43   15.56
   0  -6  12  275.55   15.01
   0  -6  13  171.73   10.38
   0   6 -13  227.30   13.66
   0  -6  13  207.23   11.66
   0  -6  14  329.42   23.85
   0   6 -14  476.95   33.99
   0  -6  14  394.18   28.33
   0  -6  15    9.63    5.21
   0   6 -15   18.90    6.49
   0  -6  15   12.66    3.71
   0  -6  16   57.55   15.41
   0   6 -16   65.00   15.33
   0  -6 -16   87.22    6.93
   0  -6 -16   58.90   13.93
   0  -6  16   65.57    6.25
   0  -6  17   56.23    5.74
   0   6 -17   55.00    4.78
   0  -6 -17  101.82    7.61
   0  -6 -17   54.00    5.03
   0  -6  18   26.75    6.72
   0   6 -18   37.18    8.55
   0  -6 -18   24.05    5.74
   0  -6  18   17.05    4.43
   0  -6  19    5.95    3.07
   0   6 -19   12.83    2.97
   0  -6 -19   11.83    3.32
   0  -6 -19   10.55    2.51
   0  -6  19    6.45    1.82
   0  -6  20   38.21    5.82
   0   6 -20   35.08    5.11
   0  -6 -20   58.69    7.26
   0  -6 -20   37.83    5.38
   0  -6  20   40.47    5.83
   0  -6  21   15.31    3.37
   0   6 -21   11.28    2.72
   0  -6 -21   31.79    4.49
   0  -6 -21   13.66    2.94
   0  -6  21   10.60    2.37
   0   7   0    2.80    2.70
   0  -7   0    3.71    2.60
   0  -7  -1   11.97    3.61
   0   7  -6  192.81   14.09
   0  -7   7   24.52    8.30
   0  -7   8   96.89    7.19
   0   7  -8  147.13   12.02
   0  -7   8  143.74   10.38
   0  -7   9    2.52    1.46
   0  -7   9    9.13    3.22
   0  -7  10    6.26    3.56
   0  -7 -10   38.33    5.53
   0  -7  10   10.88    2.73
   0  -7  11   15.20    9.73
   0   7 -11   86.37   11.16
   0  -7 -11   77.48    9.52
   0  -7  11   73.47    9.54
   0  -7  12    1.47    1.16
   0   7 -12    3.38    2.27
   0  -7 -12    9.26    3.28
   0  -7  12    9.49    3.18
   0  -7  13    7.85    5.03
   0   7 -13   14.66    8.33
   0  -7 -13   44.63    6.36
   0  -7  13   36.08    5.35
  -1   0  35    3.23    1.79
   1   0 -35    9.45    3.23
   1   0 -34  262.32   29.60
  -1   0  33    9.40    3.25
   1   0 -33    6.72    2.90
  -1   0  32    4.02    2.00
   1   0 -32   11.86    3.80
  -1   0  31   22.56    5.86
   1   0 -31   41.98   10.34
  -1   0  30    2.17    1.77
   1   0 -30   -0.24    1.64
  -1   0  29  433.07   14.14
   1   0 -29  523.32   16.78
  -1   0  28  382.73   20.82
   1   0 -28  467.38   25.14
  -1   0  27   81.09    9.97
   1   0 -27  162.04    9.50
  -1   0  26  933.43   49.22
   1   0 -26 1079.02   56.81
  -1   0  25    5.26    1.84
   1   0 -25    9.46    3.11
  -1   0  24  761.08   24.07
   1   0 -24  890.06   28.10
  -1   0  23   12.36    1.93
   1   0 -23   36.78    4.72
   1   0 -23   31.97    2.26
  -1   0  22 1547.65   70.88
   1   0 -22 1807.23   82.74
   1   0 -22 1765.07   80.48
  -1   0  22 1519.13   69.29
  -1   0  21    9.44    2.60
   1   0 -21   -2.38    3.79
   1   0 -21   -1.50    0.80
  -1   0  21   -0.09    0.46
  -1   0  20 1658.08   18.85
  -1   0  20 1733.19   18.47
  -1   0  19  364.16   13.02
   1   0 -19  485.62   17.72
   1   0 -19  484.73   16.81
  -1   0  19  473.94   16.38
  -1   0  18 1252.20   14.47
   1   0 -18 1375.81   15.99
   1   0 -18 1407.04   15.07
  -1   0  17    2.29    1.45
   1   0 -17    4.66    2.24
   1   0 -17    0.96    0.69
  -1   0  17    0.41    0.57
  -1   0  16  577.57   15.42
   1   0 -16  624.49   16.71
   1   0 -16  615.88   15.94
  -1   0  16  647.42   16.71
  -1   0  15   21.42    4.33
   1   0 -15   30.43    2.68
   1   0 -15   20.25    2.05
  -1   0  15   17.93    1.10
  -1   0  14 2158.57   23.31
   1   0 -14 2270.90   23.67
  -1   0  13   31.04    2.27
   1   0 -13   36.85    2.62
   1   0 -13   26.03    2.54
   1   0 -12 3928.84   40.53
  -1   0  11  477.34   16.61
   1   0 -11  527.66   18.23
   1   0 -10 4264.81   44.37
  -1   0  10 4315.86   45.11
  -1   0   9   62.96    3.56
   1   0  -9   69.89    3.81
   1   0  -9   76.12    4.30
  -1   0   9   64.72    3.63
  -1   0   8 7462.29   77.19
  -1   0   7   97.95    5.29
   1   0  -7  100.77    5.39
   1   0  -7  112.29    6.63
  -1   0   7   99.02    5.32
  -1   0   6  709.73   18.39
   1   0  -6  657.02   16.96
   1   0  -6  776.47   20.07
  -1   0   6  688.92   17.80
   1   0  -6  788.70   20.16
  -1   0   5 2718.13   28.50
   1   0  -5 2607.65   27.20
   1   0  -5 2880.10   30.04
  -1   0   5 2651.16   27.66
   1   0  -5 2788.92   28.76
  -1   0   4 1192.60   12.85
   1   0  -4 1239.46   13.15
  -1   0   4 1240.38   13.17
   1   0  -4 1125.70   13.08
   1   0  -4 1165.84   12.18
  -1   0   3  129.32    7.28
   1   0  -3  137.97    7.67
  -1   0   3  142.60    7.90
   1   0  -3  130.37    8.83
  -1   0   2    8.52    1.24
   1   0  -2    6.52    0.59
  -1   0   2    7.29    0.64
   1   0  -2    7.71    1.41
  -1   0   1   68.95    3.73
  -1   0   1  107.69    5.73
  -1   0   1   93.18    4.99
  -1   0   0   30.25    1.86
   1   0   0   19.84    1.21
  -1   0   0   35.38    2.14
   1   0   0   25.11    1.42
  -1   0   0   30.07    2.24
   1   0   0   27.04    1.70
   1   0   1  317.44   11.03
   1   0   1  302.78   17.48
  -1   0  -1  332.33   11.44
   1   0   1  353.24   12.30
   1   0   3  329.95   11.50
  -1   0  -3  364.28   12.56
   1   0   3  338.81   11.67
   1   0   3  344.73   13.48
   1   0   4 9848.19  101.76
   1   0   4 9999.00  572.82
   1   0   5  134.56    7.58
  -1   0  -5  144.25    8.03
   1   0   5  139.00    7.72
   1   0   5  143.10    8.16
   1   0   6  474.58   16.46
  -1   0  -6  435.91   15.16
  -1   0  -6  490.70   16.91
   1   0   6  494.45   17.01
  -1   0  -6  376.98   13.28
   1   0   6  404.95   14.22
   1   0   7   13.78    1.18
  -1   0  -7   14.62    1.12
  -1   0  -7   14.50    1.11
   1   0   7   12.67    0.88
  -1   0  -7   10.71    2.64
   1   0   8 3538.83   37.23
  -1   0  -8 3285.21   34.78
  -1   0  -8 3570.32   37.22
   1   0   8 3695.87   38.47
  -1   0  -8 3388.69   36.47
   1   0   8 3448.86   36.82
   1   0   9 1811.31   19.59
  -1   0  -9 1848.07   19.66
   1   0   9 1870.65   19.82
  -1   0  -9 1725.17   20.14
   1   0  10   68.85    3.98
  -1   0 -10   72.80    4.17
   1   0  10   70.07    3.86
  -1   0 -10   81.19   14.67
   1   0  11 3625.52   38.42
  -1   0 -11 3671.32   38.52
  -1   0 -11 3583.82   38.76
   1   0  12  312.71   11.18
  -1   0 -12  289.56   17.41
  -1   0 -12  262.56   15.22
   1   0  13 1429.20   16.05
  -1   0 -13 1414.14   15.67
   1   0  14  421.11   14.99
  -1   0 -14  378.56   13.68
  -1   0 -14  415.74   14.89
   1   0  15  159.52    9.25
  -1   0 -15  139.60    8.18
  -1   0 -15  152.82   10.19
   1   0  16 1023.34   26.79
  -1   0 -16 1028.60   26.87
  -1   0 -16 1098.97   13.50
   1   0  17   70.23    4.54
  -1   0 -17   50.69    9.67
  -1   0 -17   99.20    9.62
  -1   0 -18 2359.59   25.89
  -1   0 -19   39.24    3.34
   1   0  20  500.33   17.97
  -1   0 -20  496.13   17.57
  -1   0 -20  591.48   16.38
   1   0  21 1098.72   13.48
  -1   0 -21 1065.31   61.41
  -1   0 -21 1213.86   17.64
   1   0  22   61.55    4.46
  -1   0 -22   41.00    4.39
  -1   0 -22   72.94    7.27
  -1   0 -23  634.81   20.30
   1   0  24  282.91   14.02
  -1   0 -24  260.91   12.73
  -1   0 -24  290.26   19.86
   1   0  25  624.29   29.04
  -1   0 -25  809.41   37.57
  -1   0 -25  865.18   40.21
   1   0  26   63.80    8.27
  -1   0 -26   59.89    7.65
  -1   0 -26   70.55   11.73
   1   0  27  586.18   31.32
  -1   0 -27  646.14   34.38
  -1   0 -27  666.20   35.46
  -1   0 -28  146.02   18.76
  -1   0 -28  145.12   18.71
  -1   0 -29  540.19   28.68
  -1   0 -29  557.04   29.61
  -1   0 -30  285.40   15.84
  -1   0 -30  303.11   16.67
  -1   0 -31   10.63    3.30
  -1   0 -31    8.04    2.67
   1   0  32    4.33    3.21
  -1   0 -32    3.76    2.45
  -1   0 -32    0.87    1.95
  -1   0 -33  124.62    9.34
  -1   0 -33  134.03    9.87
  -1   0 -34   93.14   11.15
  -1   0 -34  101.59   11.99
   1  -1 -35  259.32   29.77
  -1  -1  34   13.71    3.47
   1  -1 -34   34.23    5.22
   1   1 -34   48.14    6.56
  -1  -1  33  211.35   14.67
   1   1 -33  387.88   26.47
   1  -1 -33  385.95   26.33
  -1  -1  32  114.89    9.02
  -1   1  32  187.79   13.97
   1   1 -32  232.35   17.20
   1  -1 -32  188.72   14.20
  -1  -1  31  221.81   16.82
  -1   1  31  157.30   11.53
   1   1 -31  336.94   24.44
   1  -1 -31  284.27   20.80
  -1  -1  30  212.15   12.37
  -1   1  30  165.16    9.53
   1   1 -30  209.09   11.85
   1  -1 -30  283.55   15.62
  -1  -1  29  361.93   12.25
  -1   1  29  348.44   11.25
   1   1 -29  445.00   14.60
   1  -1 -29  470.95   15.05
  -1   1  28  318.80   10.53
   1   1 -28  383.87   12.70
   1  -1 -28  342.29   11.60
  -1  -1  27  741.48   39.39
  -1   1  27  816.20   43.11
   1   1 -27  962.68   50.83
   1  -1 -27  898.92   47.56
  -1  -1  26  117.95   14.04
  -1   1  26  256.62   14.50
   1   1 -26  301.18   16.55
   1  -1 -26  253.49   14.16
   1  -1 -26  108.68   12.73
  -1  -1  25  135.73    7.64
  -1   1  25  149.61    7.83
   1   1 -25  164.62    8.53
   1  -1 -25  177.72    9.15
   1  -1 -25  166.63    8.91
  -1  -1  25  136.97    6.52
  -1  -1  24    4.07    1.83
  -1   1  24    6.55    1.93
   1   1 -24    6.15    2.22
   1  -1 -24   10.88    2.04
   1  -1 -24   17.70    1.85
  -1  -1  24    5.78    1.04
  -1  -1  23   35.93    2.94
  -1   1  23   43.31    3.55
   1   1 -23   47.44    3.81
   1  -1 -23   63.74    4.69
   1  -1 -23   66.74    6.32
  -1  -1  23   60.08    3.79
  -1  -1  22  255.20   15.29
  -1   1  22  319.66   10.65
   1   1 -22  360.53   12.02
   1  -1 -22  327.09   11.04
   1  -1 -22  304.05   14.24
  -1   1  22  309.97   14.37
  -1  -1  22  316.51    9.99
  -1  -1  21  299.27   17.71
  -1   1  21  312.97   11.42
   1   1 -21  335.73   12.29
   1  -1 -21  323.88   11.90
   1  -1 -21  361.67   12.82
  -1  -1  21  311.70   10.89
  -1   1  21  315.34   11.09
  -1  -1  21  362.14   12.61
  -1  -1  20  319.60   12.65
  -1   1  20  301.07   17.64
   1   1 -20  349.00   12.75
   1  -1 -20  343.93   12.57
   1  -1 -20  393.95   13.88
  -1   1  20  312.74   10.94
  -1  -1  20  393.05   13.62
  -1   1  19 1100.23   12.89
   1   1 -19 1214.82   14.22
   1  -1 -19 1071.80   61.75
   1  -1 -19 1027.85   26.76
  -1   1  19 1161.37   12.67
  -1  -1  19 1155.34   12.39
  -1  -1  18  588.11   16.43
  -1   1  18  585.04   15.57
   1   1 -18  712.10   19.41
   1  -1 -18  819.24   21.82
   1  -1 -18  695.97   18.27
  -1  -1  18  660.85   17.15
  -1   1  18  676.12   17.56
  -1  -1  18  799.26   20.59
  -1  -1  17 3100.42   33.87
   1   1 -17 3311.62   35.52
  -1  -1  17 3098.29   32.42
   1  -1 -17 3077.22   32.71
  -1   1  17 3169.51   33.12
  -1  -1  16  672.97   18.49
  -1   1  16  714.73   18.76
   1   1 -16  851.28   23.96
   1  -1 -16  805.22   21.31
  -1  -1  16  655.50   16.98
   1  -1 -16  659.45   17.23
  -1   1  16  791.22   20.60
  -1  -1  16  785.87   20.22
  -1  -1  15 1539.12   18.26
  -1   1  15 1684.52   18.43
  -1  -1  15 1560.80   16.55
  -1   1  15 1697.00   17.95
  -1  -1  15 1771.43   18.51
  -1  -1  14 1145.78   13.16
  -1   1  14 1103.61   12.62
   1   1 -14 1110.27   13.68
  -1  -1  14 1159.15   12.36
   1  -1 -14 1033.92   59.35
  -1   1  14 1109.79   11.87
  -1  -1  14 1260.10   13.20
  -1  -1  13  933.20   24.40
  -1   1  13 1024.42   26.65
   1  -1 -13  955.42   24.77
   1   1 -13 1015.13   26.50
  -1  -1  13  970.83   24.93
  -1   1  13 1023.64   26.30
  -1  -1  13  980.16   25.10
  -1   1  12 1223.75   14.42
   1   1 -12 1186.94   13.28
  -1  -1  12 1209.33   12.72
  -1   1  12 1234.14   13.09
  -1   1  11 1735.81   18.54
   1  -1 -11 1748.17   18.71
   1   1 -11 1657.73   18.19
  -1  -1  11 1762.89   18.35
  -1  -1  11 1876.97   19.45
  -1   1  11 1707.40   17.92
  -1  -1  10  149.18    8.52
  -1   1  10  123.83    6.97
   1  -1 -10  136.43    7.65
   1   1 -10   99.20    5.50
  -1  -1  10  156.83    8.86
   1  -1 -10  169.82    9.61
   1  -1 -10  144.42    8.06
  -1   1  10  138.78    7.72
  -1  -1   9  336.22   11.91
  -1   1   9  365.71   12.65
   1  -1  -9  340.20   11.81
   1   1  -9  356.85   12.46
  -1  -1   9  402.48   14.06
   1  -1  -9  373.45   13.08
  -1  -1   9  359.08   12.32
   1  -1  -9  372.03   12.85
  -1   1   9  403.11   13.88
   1   1  -9  363.00   12.45
  -1  -1   8   36.01    2.31
  -1   1   8   59.89    3.26
   1   1  -8   66.41    3.76
   1  -1  -8   35.89    2.09
   1   1  -8   44.96    3.11
  -1  -1   8   34.18    2.05
   1  -1  -8   36.28    2.28
  -1   1   8   62.27    3.48
   1  -1  -8   36.12    2.06
  -1   1   8   69.89    3.77
   1   1  -7 2778.79   29.21
   1  -1  -7 3030.13   31.46
   1   1  -7 2796.24   29.27
   1  -1  -7 3088.88   32.44
  -1  -1   7 2797.81   28.96
   1  -1  -7 2960.82   30.71
   1   1  -6 2240.77   23.73
   1  -1  -6 2518.23   26.13
   1  -1  -6 2413.68   25.48
   1  -1  -6 2353.78   24.46
  -1   1   6 2538.82   26.46
  -1   1   5 3394.25   35.12
   1  -1  -5 3596.63   37.60
   1  -1  -5 3689.32   38.19
  -1   1   5 3682.93   38.19
   1  -1  -4 1119.26   11.65
  -1  -1   4  978.25   25.14
   1   1  -4  990.80   25.42
  -1  -1   3 2907.39   30.81
   1   1  -3 2796.60   29.52
   1  -1  -3 2918.65   30.08
  -1   1   3 2572.27   26.82
   1  -1  -2 3266.28   33.70
   1   1  -2 3212.88   33.16
   1   1  -2 3238.82   33.60
  -1   1   2 3247.01   33.76
   1   1   0 2959.61   31.14
   1  -1   0 2739.58   28.64
   1  -1   0 2872.91   30.01
  -1   1  -1 8696.21   89.58
   1  -1   1 9154.40   94.44
   1  -1   1 8942.22   92.29
  -1   1  -1 8823.37   91.08
   1   1   3  349.15   12.25
  -1   1  -3  362.29   12.53
   1   1   3  347.38   12.22
   1   1   3  347.69   12.13
   1   1   4 1530.99   16.72
  -1   1  -4 1611.77   17.12
   1   1   4 1643.35   17.12
   1  -1   4 1712.96   18.34
  -1   1  -5 1199.75   12.99
   1   1   5 1137.30   12.81
   1  -1   5 1259.39   13.52
   1  -1   5 1120.54   12.34
   1   1   5 1101.52   12.19
   1  -1   5 1049.41   60.28
   1  -1   6   18.96    1.44
  -1  -1  -6   16.04    1.28
   1  -1   6   17.12    1.13
  -1  -1  -6   16.90    1.11
   1  -1   7 1610.57   17.39
  -1   1  -7 1646.07   17.79
  -1  -1  -7 1642.28   17.33
   1  -1   7 1452.57   15.90
  -1   1  -8  783.41   20.45
  -1   1  -8  851.90   22.11
   1  -1   8  972.28   25.10
  -1  -1  -8  982.80   25.71
   1   1   8  786.79   20.47
  -1  -1  -8 1062.53   61.19
  -1   1  -9 1960.34   21.26
  -1   1  -9 2166.27   23.13
  -1  -1  -9 1980.06   21.04
   1   1   9 2128.81   22.55
  -1   1  -9 2198.10   24.15
  -1  -1  -9 2100.88   23.60
  -1  -1 -10 1261.67   14.88
   1   1  11 3196.26   34.08
  -1   1 -11 3414.48   36.06
  -1  -1 -11 3278.79   34.57
   1   1  11 3606.20   37.87
  -1   1 -11 3307.95   35.59
  -1  -1 -11 3457.01   37.63
   1   1  12  752.39   19.84
  -1   1 -12  711.20   18.64
  -1  -1 -12  612.94   16.51
   1   1  12  793.66   20.68
  -1   1 -12  709.80   18.76
   1  -1  13   76.32    4.82
  -1  -1 -13   54.01    6.42
  -1  -1 -13   83.70    6.03
   1  -1  14 2164.04   23.70
  -1   1 -14 2216.00   24.01
  -1  -1 -14 2046.83   22.20
  -1   1 -14 2189.41   24.14
  -1  -1 -14 2118.65   24.22
   1  -1  15 1301.24   15.32
  -1   1 -15 1185.03   14.85
  -1  -1 -15 1222.63   13.77
  -1   1 -15 1211.25   14.18
  -1  -1 -15 1297.82   17.18
   1  -1  16  703.79   18.79
  -1   1 -16  501.81   17.93
  -1  -1 -16  652.76   17.90
  -1   1 -16  532.67   18.78
  -1  -1 -16  651.06   17.79
  -1  -1 -17 1048.98   60.35
  -1   1 -17  871.32   23.07
  -1  -1 -17 1056.13   60.97
   1  -1  18  821.40   22.18
  -1   1 -18  738.53   19.69
  -1  -1 -18  742.78   19.72
  -1   1 -18  810.35   21.54
  -1  -1 -18  734.34   20.35
   1  -1  19  809.51   22.12
  -1   1 -19  691.75   18.59
  -1  -1 -19  763.64   20.37
  -1   1 -19  798.61   21.44
  -1  -1 -19  750.40   20.67
   1  -1  20  671.95   18.52
  -1   1 -20  603.76   16.57
  -1  -1 -20  621.68   16.94
  -1   1 -20  687.34   18.54
  -1  -1 -20  641.11   19.69
   1  -1  21 1245.70   39.86
   1   1  21 1202.71   37.60
  -1   1 -21 1154.53   36.37
  -1  -1 -21 1202.45   37.49
  -1   1 -21 1312.67   40.90
  -1  -1 -21 1110.08   35.04
   1  -1  22  852.04   27.19
   1   1  22  715.75   22.78
  -1   1 -22  673.63   21.59
  -1  -1 -22  801.16   25.30
  -1   1 -22  783.43   24.85
  -1  -1 -22  772.85   25.39
   1  -1  23  188.16   11.99
   1   1  23  162.80   10.32
  -1   1 -23  137.89    8.65
  -1  -1 -23  175.92   10.73
  -1   1 -23  190.67   11.73
  -1  -1 -23  172.07   12.89
   1  -1  24   51.54    3.86
   1   1  24   14.61    2.03
  -1   1 -24   20.84    2.80
  -1  -1 -24   43.24    3.06
  -1   1 -24   29.84    2.79
  -1  -1 -24   58.16    4.98
   1  -1  25  143.12    8.54
   1   1  25  156.67    8.49
  -1   1 -25  141.01    7.81
  -1  -1 -25  128.99    6.83
  -1  -1 -25  130.17   11.41
   1  -1  26   66.56    8.78
   1   1  26   61.35    7.77
  -1   1 -26   60.84    7.73
  -1  -1 -26   62.64    7.83
  -1  -1 -26   57.95    8.51
  -1   1 -27  376.25   20.49
  -1  -1 -27  481.50   25.86
  -1  -1 -27  421.37   23.63
   1  -1  28  113.89   14.99
  -1   1 -28  111.21   14.56
  -1  -1 -28  112.36   14.73
  -1  -1 -28   86.61   15.92
   1  -1  29   66.04   10.73
  -1  -1 -29   54.68    8.65
  -1   1 -29   64.52    9.97
  -1  -1 -29   44.66    9.75
   1  -1  29   51.00    8.15
  -1   1 -30  553.12   29.54
  -1  -1 -30  596.49   31.50
  -1  -1 -30  551.85   39.54
   1  -1  30  537.36   38.31
   1  -1  31  196.57   15.29
  -1   1 -31  179.98   13.71
  -1  -1 -31  200.22   14.92
  -1  -1 -31  182.66   16.39
   1  -1  31  187.17   14.24
   1  -1  32  200.56   14.00
  -1   1 -32  412.24   28.27
  -1  -1 -32  386.55   26.36
  -1  -1 -32  353.15   25.01
   1  -1  32  354.43   24.16
   1   1  33  118.95   13.82
  -1   1 -33  139.42   16.16
  -1  -1 -33  161.68   18.40
  -1  -1 -33  142.48   18.57
   1  -1  33  154.28   17.65
   1  -1  34   91.60   11.92
  -1   1 -34   74.61    9.51
  -1  -1 -34   82.52   10.28
  -1  -1 -34   43.68   12.06
   1  -1  34   72.96    9.01
  -1  -2  34   86.94   11.43
  -1   2  34   62.34    7.55
   1   2 -34  160.01   18.78
   1  -2 -34  131.54   15.55
  -1  -2  33  106.55   12.97
  -1   2  33  101.10   12.17
   1   2 -33  139.03   16.09
  -1   2  32   57.79    4.80
   1   2 -32   82.91    6.96
   1  -2 -32   91.38    7.32
  -1  -2  31   26.66    6.77
  -1   2  31   57.27    5.08
   1  -2 -31   68.29    5.84
  -1   2  30  126.74    9.63
   1   2 -30  136.53   10.60
   1  -2 -30  109.45    8.84
  -1  -2  29  109.44   25.86
  -1   2  29  147.24    8.90
   1   2 -29  145.81    8.73
   1  -2 -29  158.95    9.60
  -1  -2  28   24.76    4.42
  -1   2  28   65.57   10.05
   1   2 -28   72.74   11.03
   1  -2 -28   64.86   10.15
  -1  -2  27  292.13   10.68
  -1   2  27  348.92   11.53
   1   2 -27  376.37   12.51
   1  -2 -27  368.41   12.26
   1  -2 -27  345.48   11.30
  -1   2  26  420.63   22.49
   1   2 -26  419.68   22.70
   1  -2 -26  422.49   22.82
   1  -2 -26  401.50   21.99
  -1   2  25 1217.29   63.91
   1   2 -25 1283.13  161.17
   1  -2 -25 1234.82  155.11
   1  -2 -25 1067.94   56.15
  -1   2  24  252.87   12.32
   1   2 -24  244.28   12.30
   1  -2 -24  268.89   13.21
   1  -2 -24  246.12   11.82
  -1  -2  24  207.50    9.72
  -1   2  23 1011.29   46.44
   1   2 -23 1054.22  121.39
   1  -2 -23 1010.41   46.68
   1  -2 -23  865.24   39.85
  -1  -2  23  840.50   38.43
  -1   2  22    6.19    1.35
   1   2 -22    0.53    2.19
  -1  -2  22   17.86    1.28
  -1   2  21  863.63   26.91
   1   2 -21  872.18   27.38
   1  -2 -21  993.74   30.91
  -1  -2  21 1030.20   31.68
  -1   2  20  814.66   25.60
   1   2 -20  810.13   25.52
   1  -2 -20  737.51   23.10
  -1  -2  20  792.80   24.44
  -1  -2  19  604.22   16.93
  -1   2  19  692.21   18.41
   1   2 -19  647.36   17.50
  -1  -2  19  489.19   16.99
   1  -2 -19  543.87   19.06
  -1  -2  19  586.71   15.26
  -1  -2  18  221.20   13.00
  -1   2  18  304.76   10.93
   1   2 -18  279.73   15.77
  -1  -2  18  192.44   10.76
   1  -2 -18  205.83   11.64
  -1  -2  18  225.61   12.55
  -1  -2  17   90.34    6.01
  -1   2  17   94.04    5.49
   1   2 -17   84.47    4.96
  -1  -2  17   67.27    4.34
   1  -2 -17   77.58    4.49
  -1  -2  17   81.74    4.48
  -1  -2  16  418.65   15.19
   1   2 -16  426.94   15.08
  -1  -2  16  413.08   14.34
   1  -2 -16  363.11   12.79
  -1  -2  16  418.78   14.51
  -1  -2  15  424.32   15.37
  -1   2  15  521.93   18.19
   1   2 -15  487.30   17.14
  -1  -2  15  427.24   14.81
   1  -2 -15  391.23   13.71
  -1  -2  15  405.75   14.07
  -1  -2  14  303.02   18.00
  -1   2  14  251.59   14.06
   1  -2 -14  259.53   14.55
   1   2 -14  242.27   13.61
   1  -2 -14  266.43   14.86
  -1  -2  14  290.70   16.11
  -1  -2  13 1720.23   19.47
  -1   2  13 1545.13   16.77
   1  -2 -13 1606.61   17.72
   1   2 -13 1543.90   16.98
   1  -2 -13 1678.66   18.22
  -1  -2  12  217.47   12.48
  -1   2  12  262.48   14.57
   1  -2 -12  182.61   10.45
   1   2 -12  242.62   14.83
   1  -2 -12  257.08   14.54
   1  -2 -12  223.26   12.48
  -1  -2  12  225.05   12.49
  -1   2  12  295.90   17.14
  -1   2  11 3169.99   33.24
   1  -2 -11 3165.75   33.37
   1   2 -11 3362.97   35.45
   1  -2 -11 3505.16   36.89
  -1  -2  11 3534.14   36.78
  -1   2  11 3254.35   34.06
   1   2 -11 3353.90   34.94
  -1  -2  10  273.92   15.49
   1  -2 -10  259.10   14.39
   1   2 -10  216.55   13.72
  -1  -2  10  274.77   15.28
   1  -2 -10  293.45   16.41
   1  -2 -10  309.49   10.91
  -1  -2  10  300.81   17.39
  -1   2  10  236.27   13.15
   1   2 -10  268.80   14.91
  -1  -2   9 4761.14   50.31
   1  -2  -9 4781.48   50.10
  -1  -2   9 4981.71   51.67
   1  -2  -9 4918.74   51.23
  -1  -2   8 1257.40   14.54
  -1   2   8 1357.74   14.34
   1   2  -8 1331.18   14.37
  -1  -2   8 1245.02   13.57
   1  -2  -8 1351.24   14.94
  -1   2   8 1362.97   14.79
   1   2  -8 1417.93   15.09
  -1  -2   7 1920.22   21.14
  -1   2   7 1898.47   19.76
   1   2  -7 1839.73   19.46
  -1  -2   7 1799.18   19.12
   1  -2  -7 1896.25   20.49
  -1  -2   7 2041.84   21.57
   1  -2  -7 1884.12   20.01
  -1   2   7 1915.08   20.40
   1   2  -7 1880.82   19.77
  -1  -2   6  354.14   12.69
  -1   2   6  331.11   11.35
   1   2  -6  330.55   11.46
  -1  -2   6  336.64   11.69
   1  -2  -6  374.54   13.16
  -1  -2   6  376.76   13.14
   1  -2  -6  355.48   12.37
   1   2  -6  322.62   11.17
  -1   2   6  347.08   12.10
   1   2  -5 2010.35   21.09
  -1  -2   4  642.75   17.02
  -1   2   4  861.88   22.49
   1   2  -4  735.25   18.92
  -1  -2   4  663.63   17.11
  -1  -2   4  689.23   17.94
   1   2  -4  741.66   19.15
  -1   2   4  807.29   20.92
  -1  -2   3  104.86    5.83
  -1   2   3  111.27    6.71
   1   2  -3   90.74    4.82
  -1  -2   3  105.64    5.59
  -1  -2   3  107.98    5.85
   1   2  -3   93.68    5.01
  -1   2   3   97.01    5.30
  -1  -2   2  471.15   16.53
  -1   2   2  576.79   15.34
   1   2  -2  476.62   16.35
  -1  -2   2  567.46   14.59
  -1  -2   2  512.11   17.77
   1   2  -2  465.29   16.09
   1  -2  -2  595.28   15.53
  -1   2   2  482.72   16.72
  -1  -2   1  183.91   10.40
   1  -2  -1  180.21    9.92
  -1   2   1  166.00    9.13
  -1   2   1  292.29   16.51
   1   2  -1  213.10   11.74
  -1  -2   1  228.73   12.60
  -1  -2   1  212.61   11.88
   1   2  -1  217.40   12.09
   1  -2  -1  232.67   13.00
  -1   2   1  200.98   11.22
  -1   2   0  931.99   23.87
   1   2   0  918.81   23.75
   1  -2   0  946.18   24.51
   1   2   1 1782.19   19.46
   1  -2   1 1674.78   17.44
  -1  -2  -2 1335.97   15.19
  -1   2  -2 1292.07   14.35
  -1   2  -2 1412.15   15.49
  -1  -2  -2 1374.90   14.27
   1  -2   2 1464.17   15.96
  -1  -2  -3 3813.15   40.53
   1  -2   3 3610.20   37.43
  -1   2  -3 3499.38   36.47
  -1   2  -3 3713.52   39.16
   1  -2   4  295.62   17.07
   1   2   4  214.00   12.10
  -1   2  -4  241.44   13.50
   1  -2   4  280.06   15.70
   1  -2   6  377.53   13.23
  -1   2  -6  270.59   15.03
  -1   2  -6  354.03   12.51
  -1  -2  -6  370.48   12.83
   1   2   6  421.45   14.51
   1  -2   7 2786.08   29.54
  -1   2  -7 2575.01   27.49
  -1   2  -7 2860.34   30.44
  -1  -2  -7 2740.09   28.69
   1   2   7 2782.18   28.98
  -1   2  -8  708.07   18.57
  -1  -2  -8  715.31   18.52
   1   2   8  739.44   19.09
  -1  -2  -8  663.62   17.57
   1  -2   9   11.70    2.42
  -1  -2  -9    9.32    1.84
  -1  -2  -9   16.88    1.66
   1  -2   9   19.89    2.03
   1  -2  10  616.10   16.22
   1   2  10  497.01   17.52
  -1   2 -10  534.33   18.72
  -1  -2 -10  616.68   16.09
   1   2  10  531.38   18.37
  -1  -2 -10  598.57   16.05
   1  -2  10  651.35   17.22
   1  -2  11  514.45   17.94
   1   2  11  584.83   15.72
  -1   2 -11  630.86   16.78
  -1  -2 -11  535.06   18.62
   1   2  11  598.77   15.65
  -1  -2 -11  556.82   32.30
   1  -2  11  553.89   32.04
   1  -2  12 1172.79   13.34
   1   2  12 1138.83   13.47
  -1  -2 -12 1170.10   12.99
   1   2  12 1170.45   12.89
  -1  -2 -12 1156.19   14.00
   1  -2  12 1215.88   14.16
   1   2  13  474.04   16.81
  -1  -2 -13  459.86   16.13
  -1  -2 -13  464.16   16.56
   1  -2  13  456.61   16.10
   1  -2  14 1060.71   61.06
   1   2  14 1088.90   13.12
  -1  -2 -14 1117.14   12.64
  -1  -2 -14 1036.81   59.84
   1  -2  14 1084.17   12.77
   1  -2  15  878.64   23.17
   1   2  15  749.03   19.98
  -1   2 -15  767.82   20.38
  -1  -2 -15  863.96   22.56
  -1  -2 -15  827.32   22.16
   1  -2  15  856.17   22.60
   1  -2  16  252.38   14.22
   1   2  16  303.50   17.90
  -1   2 -16  311.38   11.51
  -1  -2 -16  328.49   11.71
  -1  -2 -16  320.41   11.86
   1  -2  16  283.66   16.08
   1  -2  17  753.92   20.26
   1   2  17  795.43   21.23
  -1   2 -17  799.23   21.27
  -1  -2 -17  799.34   21.05
  -1  -2 -17  754.06   20.40
   1  -2  17  755.94   20.15
   1  -2  18  530.11   21.33
   1   2  18  518.37   18.52
  -1   2 -18  497.82   18.05
  -1  -2 -18  553.85   32.04
  -1  -2 -18  534.41   19.25
   1  -2  18  506.09   17.96
   1  -2  19  531.54   21.05
   1   2  19  557.81   15.29
  -1   2 -19  565.29   15.47
  -1  -2 -19  533.43   18.79
  -1  -2 -19  507.05   19.63
   1  -2  19  483.95   17.23
   1  -2  20  933.66   29.44
   1   2  20  923.76   29.00
  -1   2 -20  928.55   29.40
  -1  -2 -20  942.40   29.37
  -1  -2 -20  842.98   26.97
   1  -2  20  823.11   25.91
   1  -2  21  421.95   14.28
   1   2  21  439.17   14.45
  -1   2 -21  401.43   13.73
  -1  -2 -21  406.95   13.17
  -1  -2 -21  373.56   12.77
   1  -2  21  374.64   12.40
   1  -2  22  229.69   11.99
   1   2  22  351.91   16.93
  -1   2 -22  328.84   15.69
  -1  -2 -22  236.17   11.41
  -1  -2 -22  220.41   12.33
   1  -2  22  199.41    9.88
   1  -2  23  249.41   13.32
   1   2  23  192.75    9.89
  -1   2 -23  174.08    8.89
  -1  -2 -23  253.04   12.20
  -1  -2 -23  251.14   16.70
   1  -2  23  217.11   10.69
   1  -2  24  515.14   27.85
   1   2  24  435.31   23.46
  -1   2 -24  425.01   22.96
  -1  -2 -24  513.61   27.32
  -1  -2 -24  449.32   26.44
   1  -2  24  472.48   25.19
   1  -2  25  105.26   13.18
   1   2  25  119.74   14.30
  -1   2 -25  119.17   14.38
  -1  -2 -25  115.08   13.71
  -1  -2 -25  118.73   16.06
   1  -2  25   65.55    8.24
   1  -2  26  484.81   15.51
   1   2  26  464.70   14.82
  -1   2 -26  491.51   16.03
  -1  -2 -26  644.51   21.17
   1  -2  26  666.24   20.73
   1  -2  27   81.03   10.80
   1   2  27   82.66   11.34
  -1   2 -27   61.76    8.65
  -1  -2 -27  100.97   13.15
  -1  -2 -27   94.13   14.39
   1  -2  28  432.39   23.43
   1   2  28  484.32   25.83
  -1  -2 -28  469.62   25.01
  -1  -2 -28  390.82   24.65
   1  -2  28  430.13   22.94
   1  -2  29   90.28    8.30
   1   2  29  107.24    9.27
  -1  -2 -29  117.55    9.17
  -1  -2 -29   84.10   11.20
   1  -2  29   94.40    8.09
   1  -2  30  148.13   12.15
   1   2  30  140.78   11.21
  -1  -2 -30  160.37   12.08
  -1  -2 -30  120.81   12.71
   1  -2  30  146.27   11.38
   1  -2  31   22.05    5.46
   1   2  31   49.44    5.42
  -1  -2 -31   73.80    6.11
  -1  -2 -31   41.83   10.78
   1  -2  31   75.20    6.45
   1  -2  32    1.05    1.95
   1   2  32    2.27    1.86
  -1  -2 -32    4.69    2.02
  -1  -2 -32    0.13    1.37
   1  -2  32    4.53    1.83
   1  -2  33  106.00   12.97
  -1   2 -33   87.46   10.63
  -1  -2 -33  123.99   14.34
  -1  -2 -33   51.63   15.39
   1  -2  33   97.38   11.44
  -1  -3  32  183.06   22.28
   1   3 -32  219.33   25.25
   1  -3 -32  216.35   24.90
  -1  -3  31   43.88    6.63
  -1   3  31   52.93    6.33
   1   3 -31   68.57    8.55
   1  -3 -31   73.87    9.18
  -1   3  30  481.31   32.23
   1   3 -30  575.58   63.75
   1  -3 -30  611.26   67.72
  -1  -3  29    9.57    3.51
  -1   3  29   37.36    9.14
   1   3 -29   45.77   11.09
   1  -3 -29   67.73    6.34
  -1  -3  28  365.24   27.00
  -1   3  28  420.10   29.91
   1   3 -28  428.08   30.72
   1  -3 -28  451.49   32.38
  -1  -3  27   35.44    6.19
  -1   3  27  118.27   27.45
   1   3 -27   94.34   14.10
   1  -3 -27   77.99   11.91
   1  -3 -27   65.11    9.86
  -1  -3  26  161.14   10.50
  -1   3  26  188.47   10.46
   1   3 -26  164.49    9.52
   1  -3 -26  215.68   12.28
   1  -3 -26  179.29   10.19
  -1  -3  25  109.98   14.72
  -1   3  25  134.02   17.29
   1   3 -25  109.87   14.24
   1  -3 -25  153.63   22.61
   1  -3 -25  124.52   16.06
  -1  -3  24  125.52   15.16
  -1   3  24  113.57   13.51
   1   3 -24  104.20   12.55
   1  -3 -24  145.05    8.77
   1  -3 -24  112.11   13.31
  -1  -3  23   69.26    8.89
  -1   3  23   93.09   11.06
   1   3 -23   74.10    9.17
   1  -3 -23  100.96   12.46
   1  -3 -23   74.25    8.96
  -1  -3  23   66.52    7.90
  -1  -3  22  200.05   12.49
  -1   3  22  213.41   11.81
   1   3 -22  186.04   10.54
   1  -3 -22  218.48   12.33
   1  -3 -22  166.70    9.32
  -1  -3  22  160.93    8.82
  -1  -3  21   45.29    4.49
  -1   3  21   61.57    3.63
   1  -3 -21   62.49    4.52
   1  -3 -21   33.98    2.47
  -1  -3  21   36.43    2.38
  -1  -3  20  860.19   40.18
  -1   3  20  714.27   32.84
   1   3 -20  643.79   29.86
   1  -3 -20 1037.21  119.47
   1  -3 -20  753.56   34.73
  -1  -3  20  802.90   36.79
  -1  -3  19   57.59    5.25
   1  -3 -19   76.27    5.53
   1  -3 -19   51.65    3.55
  -1  -3  19   44.62    3.02
  -1  -3  18  886.29   28.58
  -1   3  18  957.96   29.68
   1   3 -18  903.57   28.24
   1  -3 -18 1068.92   33.54
   1  -3 -18  757.50   23.72
  -1  -3  18  840.52   26.01
  -1  -3  17  253.33   15.75
  -1   3  17  222.11   13.18
   1  -3 -17  312.84   14.95
   1  -3 -17  215.55   12.75
  -1  -3  17  227.32   13.40
  -1  -3  16 2635.32   29.82
  -1  -3  15  134.71    8.73
  -1   3  15  136.13    7.90
   1  -3 -15  125.98    7.38
  -1  -3  15  142.11    8.77
  -1  -3  14 2295.17   26.02
  -1   3  14 2019.39   21.58
   1  -3 -14 2014.43   22.55
   1   3 -14 2072.39   22.60
   1  -3 -14 2193.30   24.03
  -1  -3  14 2253.17   24.00
  -1  -3  13  147.84    9.13
  -1   3  13  170.80    9.68
   1  -3 -13  116.85    6.74
   1   3 -13  158.37    9.11
   1  -3 -13  143.32    8.27
  -1  -3  13  140.52    8.07
  -1  -3  12  416.06   15.02
  -1   3  12  371.03   12.93
   1  -3 -12  378.81   13.32
   1   3 -12  393.39   13.86
   1  -3 -12  427.40   15.24
   1  -3 -12  422.62   14.91
  -1  -3  11   53.22    3.80
  -1   3  11   43.20    2.59
   1   3 -11   39.11    2.52
   1  -3 -11   51.70    3.41
   1  -3 -11   56.25    3.48
  -1  -3  11   56.98    3.52
  -1   3  10   41.91    2.45
  -1  -3  10   33.30    3.17
  -1   3  10   46.41    2.66
   1   3 -10   48.85    2.96
   1  -3 -10   36.31    2.60
   1  -3 -10   38.51    2.63
  -1  -3  10   36.47    2.40
  -1   3   9   39.23    2.39
  -1  -3   9   66.23    4.12
  -1   3   9   51.43    2.84
   1   3  -9   56.89    3.26
   1  -3  -9   65.11    3.95
  -1  -3   9   83.04    4.86
   1  -3  -9   73.16    4.31
  -1   3   8  480.97   16.56
  -1  -3   8  515.85   18.38
  -1   3   8  564.11   14.56
   1   3  -8  628.52   16.41
  -1  -3   8  512.20   17.71
   1  -3  -8  536.02   18.79
  -1  -3   8  604.79   16.00
   1  -3  -8  558.52   14.82
  -1  -3   7  132.24    8.07
  -1   3   7  144.72    8.04
  -1   3   7  158.23    8.76
   1   3  -7  166.08    9.33
  -1  -3   7  116.75    6.58
   1  -3  -7  120.04    7.00
  -1  -3   7  130.14    7.71
   1  -3  -7  189.41   10.71
  -1  -3   6  820.91   21.87
  -1   3   6  717.71   18.45
  -1   3   6  705.54   18.12
  -1   3   6  825.73   21.73
   1   3  -6  754.20   19.55
  -1  -3   6  859.43   22.21
  -1  -3   6  892.33   23.28
   1  -3  -6  826.67   21.54
  -1  -3   5  345.12   12.55
  -1   3   5  419.66   14.39
  -1   3   5  413.88   14.20
  -1   3   5  525.80   18.49
   1   3  -5  460.49   15.95
  -1  -3   5  378.35   13.11
  -1  -3   5  389.43   13.84
   1  -3  -5  400.66   14.11
  -1  -3   4 3443.71   37.07
   1   3  -4 3582.03   37.32
   1  -3  -4 3642.80   38.30
  -1   3   3 1814.62   18.84
   1   3  -3 1780.40   18.86
  -1  -3   3 1887.22   19.84
   1   3  -2 3789.04   39.36
  -1  -3   2 3755.56   38.94
  -1  -3   1  170.17   10.16
   1  -3  -1  149.92    8.32
   1   3  -1  215.81   12.04
  -1  -3   1  204.28   11.31
  -1  -3   0 1315.26   13.87
  -1  -3   0 1268.00   14.27
   1  -3   0 1386.64   15.33
  -1  -3  -1  136.53    7.87
   1  -3   1  188.00   10.49
  -1   3  -1  119.58    6.67
   1   3   1  136.22    7.61
  -1   3  -1  165.84    9.97
  -1  -3  -1  180.91   10.02
  -1  -3  -1  173.65    9.97
  -1  -3  -2  544.64   19.23
   1  -3   2  553.61   31.85
  -1   3  -2  560.96   14.56
  -1   3  -2  558.57   15.06
  -1  -3  -2  552.98   31.75
  -1  -3  -2  550.27   18.91
  -1  -3  -2  531.34   18.64
   1  -3   2  614.12   16.24
  -1  -3  -3  571.34   15.54
   1  -3   3  543.89   18.81
  -1   3  -3  588.95   15.33
  -1   3  -3  555.86   32.29
  -1  -3  -3  551.95   31.69
  -1  -3  -3  541.55   18.61
  -1  -3  -3  500.41   17.58
   1  -3   3  581.84   15.41
  -1  -3  -4   60.78    3.98
   1  -3   4   46.33    2.71
  -1   3  -4   49.84    2.82
  -1   3  -4   59.69    3.66
  -1  -3  -4   48.75    2.72
  -1  -3  -4   54.22    3.00
   1  -3   5  326.39   11.41
  -1   3  -5  370.73   12.96
   1   3   5  335.80   12.13
  -1  -3  -5  334.56   11.58
  -1   3  -5  377.99   13.91
  -1  -3  -5  393.58   13.61
   1  -3   6  337.75   11.85
  -1   3  -6  271.71   15.12
   1   3   6  257.89   14.60
  -1   3  -6  289.78   16.44
  -1  -3  -6  418.40   14.49
  -1  -3  -6  335.20   12.01
   1  -3   6  408.68   14.59
   1  -3   7  577.72   15.14
  -1   3  -7  506.01   17.61
   1   3   7  505.22   17.92
  -1  -3  -7  573.78   15.51
   1   3   8 1180.14   14.17
   1  -3   9  320.98   11.44
   1   3   9  411.46   14.83
  -1  -3  -9  411.83   14.35
  -1  -3  -9  391.54   13.73
  -1  -3  -9  300.27   17.61
   1  -3   9  369.26   13.44
   1   3  10 2119.50   23.82
   1  -3  11    9.46    3.87
   1   3  11    6.93    1.70
  -1  -3 -11    2.58    0.60
  -1  -3 -11    2.55    0.94
   1  -3  11    1.27    2.46
   1  -3  12 1214.65   13.86
   1   3  12 1239.17   14.87
   1  -3  13  196.59   11.35
   1   3  13  249.15   14.21
  -1   3 -13  269.01   15.28
  -1  -3 -13  223.77   12.65
  -1  -3 -13  192.80   11.25
   1  -3  13  221.50   12.85
   1  -3  14  381.33   13.61
   1   3  14  368.51   13.40
  -1   3 -14  388.62   14.07
  -1  -3 -14  403.63   14.25
  -1  -3 -14  386.23   14.06
   1  -3  14  472.64   17.02
   1  -3  15  676.42   18.01
   1   3  15  808.64   21.60
  -1  -3 -15  743.81   19.57
  -1  -3 -15  697.38   19.07
   1  -3  15  852.03   22.68
   1   3  16  297.27   17.57
  -1   3 -16  298.26   17.90
  -1  -3 -16  270.74   15.88
  -1  -3 -16  258.55   15.52
   1  -3  16  278.30   16.54
   1  -3  17  680.45   21.60
   1   3  17  638.43   20.35
  -1   3 -17  668.84   21.37
  -1  -3 -17  746.16   23.34
  -1  -3 -17  710.69   22.83
   1  -3  17  804.61   25.42
   1  -3  18   50.18    4.23
   1   3  18  118.09    7.63
  -1   3 -18  107.97    7.83
  -1  -3 -18   99.34    6.34
  -1  -3 -18   90.42    6.42
   1  -3  18   74.65    5.70
   1  -3  19  609.09   19.46
   1   3  19  731.90   23.31
  -1   3 -19  745.31   23.73
  -1  -3 -19  693.71   21.84
  -1  -3 -19  654.71   21.27
   1  -3  19  756.26   24.08
   1  -3  20   39.03    2.70
   1  -3  21  222.56   11.17
   1   3  21  281.42   13.63
  -1   3 -21  272.26   13.40
  -1  -3 -21  272.35   13.01
  -1  -3 -21  259.05   13.03
   1  -3  21  267.80   13.08
   1  -3  22  199.86   11.43
   1   3  22  234.14   13.26
  -1   3 -22  222.71   12.62
  -1  -3 -22  231.16   12.66
  -1  -3 -22  221.25   12.60
   1  -3  22  246.78   13.86
   1  -3  23   20.30    3.15
   1   3  23   52.17    7.16
  -1   3 -23   33.06    5.16
  -1  -3 -23   73.52    8.86
  -1  -3 -23   65.01    8.43
   1  -3  23   49.00    6.17
   1  -3  24  368.32   12.09
   1   3  24  324.74   11.15
  -1   3 -24  342.57   11.70
  -1  -3 -24  432.48   13.65
  -1  -3 -24  361.65   12.38
   1  -3  24  444.31   14.56
   1  -3  25   -0.78    1.75
   1   3  25    5.12    2.15
  -1   3 -25   -0.90    1.71
  -1  -3 -25    2.51    1.23
  -1  -3 -25    5.18    2.54
   1  -3  25   -3.28    1.62
   1  -3  26  148.14    9.56
   1   3  26  199.87   11.42
  -1   3 -26  199.15   11.49
  -1  -3 -26  155.21    8.92
  -1  -3 -26  146.44   14.81
   1  -3  26  170.72   10.48
   1  -3  27   77.03    7.51
   1   3  27   71.23    6.02
  -1   3 -27   73.71    6.61
  -1  -3 -27  107.70    8.44
  -1  -3 -27   81.82   11.72
   1  -3  27  110.17    9.09
   1   3  28  149.43   11.71
  -1   3 -28  140.07   11.09
  -1  -3 -28  141.46   10.67
  -1  -3 -28  108.56   14.86
   1  -3  28  113.24    9.10
   1   3  29  188.97   13.47
  -1   3 -29  191.86   13.81
  -1  -3 -29  216.55   15.07
  -1  -3 -29  191.67   15.76
   1  -3  29  222.08   15.59
   1  -3  30   48.11    5.94
   1   3  30   31.46    7.60
  -1   3 -30   50.54    5.88
  -1  -3 -30   60.02    5.19
  -1  -3 -30   47.66   10.50
   1  -3  30   58.31    5.56
   1   3  31  291.77   32.80
  -1   3 -31  261.89   29.58
  -1  -3 -31  255.41   28.55
  -1  -3 -31  195.24   27.94
   1  -3  31  255.92   28.89
   1  -3  32    1.20    1.89
   1   3  32    3.80    2.00
  -1  -3 -32    5.12    1.99
   1  -3  32    1.86    1.83
  -1  -4  29    5.96    3.99
   1   4 -29    4.84    2.11
   1  -4 -29   11.01    3.13
  -1  -4  28   29.45    5.35
   1   4 -28   63.93    8.06
   1  -4 -28   55.16    7.24
  -1  -4  27  234.12   17.66
   1   4 -27  220.97   15.49
   1  -4 -27  236.74   16.50
   1  -4 -27  213.32   14.80
  -1  -4  26   40.14   10.24
   1   4 -26   67.16    5.95
   1  -4 -26   73.58    6.67
   1  -4 -26   55.35   13.12
  -1  -4  25  246.77   19.43
   1   4 -25  285.39   20.63
   1  -4 -25  284.58   20.87
   1  -4 -25  215.41   15.84
  -1  -4  24  102.38   15.41
   1   4 -24  129.03    7.70
   1  -4 -24  178.21   10.66
   1  -4 -24  126.19    7.38
  -1  -4  23  603.33   32.34
  -1   4  23  380.51   20.01
   1   4 -23  582.03   30.68
   1  -4 -23  723.17   38.10
   1  -4 -23  514.29   27.16
  -1  -4  22  531.98   19.34
  -1   4  22  498.03   15.29
   1   4 -22  519.57   16.26
   1  -4 -22  453.56   14.27
  -1  -4  22  477.81   14.68
  -1  -4  21  279.80   11.33
  -1   4  21  222.05    7.27
   1   4 -21  197.65    6.96
   1  -4 -21  210.68    7.26
  -1  -4  20   86.78   11.01
   1   4 -20   86.26   10.36
   1  -4 -20  107.16   12.79
   1  -4 -20   67.79    8.22
  -1  -4  20   78.42    9.38
  -1  -4  19   19.08    4.26
   1   4 -19   29.81    4.10
   1  -4 -19   25.91    4.00
   1  -4 -19   14.96    2.56
  -1  -4  19   18.55    2.77
  -1  -4  18   62.25    8.31
   1   4 -18   79.91    9.67
   1  -4 -18   70.96    8.71
   1  -4 -18   60.71    7.40
  -1  -4  18   73.54    8.86
  -1  -4  17   26.82    3.47
  -1   4  17   34.88    2.40
   1   4 -17   31.12    2.51
   1  -4 -17   23.38    2.42
   1  -4 -17   13.34    1.79
  -1  -4  17   27.29    2.42
  -1  -4  16   72.75    5.19
   1   4 -16   77.02    4.23
   1  -4 -16   77.70    4.67
   1  -4 -16   66.25    3.95
  -1  -4  16   73.56    4.25
  -1  -4  15   41.03    4.23
  -1   4  15   45.77    3.15
   1   4 -15   41.61    3.04
   1  -4 -15   45.10    3.69
   1  -4 -15   48.27    3.66
  -1  -4  15   45.03    3.50
  -1  -4  14  118.39    8.27
  -1   4  14   99.09    6.06
   1   4 -14   87.06    5.53
   1  -4 -14  138.22    8.55
   1  -4 -14  115.60    7.21
  -1  -4  14  141.33    8.90
  -1  -4  13  241.60   14.91
  -1   4  13  250.24   14.55
   1   4 -13  256.13   15.03
   1  -4 -13  248.27   14.73
  -1  -4  13  259.04   15.30
  -1  -4  12  903.07   28.66
  -1   4  12  913.07   28.13
   1   4 -12  977.20   30.34
   1  -4 -12  982.88   30.78
  -1  -4  12  986.91   30.77
  -1  -4  11  818.58   26.21
  -1   4  11  820.11   25.28
   1   4 -11  861.59   26.84
  -1  -4  11  932.86   29.19
  -1  -4  10  722.37   19.86
  -1   4  10  689.35   17.90
   1   4 -10  712.16   18.79
  -1  -4  10  831.39   22.09
  -1  -4   9 1045.17   60.44
  -1   4   9 1066.19   61.21
  -1   4   9 1243.99   13.40
   1   4  -9 1258.14   14.16
   1  -4  -9 1093.07   13.15
  -1  -4   9 1108.63   13.17
   1  -4  -9 1229.06   14.36
  -1  -4   8  330.81   12.26
  -1   4   8  361.00   12.55
  -1   4   8  377.40   13.08
   1   4  -8  359.11   12.72
   1  -4  -8  366.10   13.19
  -1  -4   7  690.46   18.88
  -1   4   7  743.04   19.21
  -1   4   7  703.08   18.19
   1   4  -7  786.45   20.54
   1  -4  -7  789.08   20.96
  -1  -4   7  806.21   21.38
   1  -4  -7  765.84   20.29
  -1  -4   6  455.06   16.43
  -1   4   6  552.52   31.74
  -1   4   6  430.78   14.87
   1   4  -6  603.45   15.88
  -1  -4   6  547.23   19.37
  -1  -4   5   96.38    6.20
  -1   4   5   54.04    2.94
  -1   4   5   53.29    2.97
  -1   4   5   71.42    4.53
   1   4  -5   61.97    3.59
  -1  -4   4  164.40    9.82
  -1   4   4  158.28    8.78
  -1   4   4  138.16    7.75
  -1   4   4  207.03   11.89
   1   4  -4  171.83    9.70
  -1  -4   4  183.72   10.26
   1  -4  -4  207.10   11.78
  -1  -4   3   76.10    4.69
  -1   4   3   57.32    3.21
  -1   4   3   81.39    4.94
   1   4  -3   71.83    4.16
  -1  -4   3   87.14    4.74
  -1  -4   2  274.49   15.56
  -1   4   2  414.02   14.90
   1   4  -2  447.82   15.67
  -1  -4   2  303.28   17.51
   1  -4  -1  732.99   19.06
  -1  -4   1  662.42   17.79
   1   4  -1 1052.22   60.46
  -1  -4   1  797.57   20.62
  -1  -4   0  195.72   11.17
   1  -4   0  191.13   10.68
  -1  -4   0  242.22   13.44
  -1  -4  -1  390.77   14.21
  -1   4  -1  466.67   16.14
   1   4   1  521.22   18.07
  -1  -4  -1  386.40   13.39
  -1  -4  -2  313.98   11.59
   1  -4   2  305.42   10.84
  -1   4  -2  255.10   14.15
  -1   4  -2  388.97   14.38
  -1  -4  -2  302.00   17.44
  -1  -4  -3  582.73   16.06
   1  -4   3  551.28   31.84
  -1   4  -3  569.40   14.87
  -1  -4  -3  516.71   17.85
  -1  -4  -3  528.66   18.27
  -1  -4  -4 1069.71   61.78
   1  -4   4 1046.31   60.17
  -1   4  -4  907.53   23.51
  -1   4  -4 1018.97   27.32
  -1  -4  -4  972.15   25.08
  -1  -4  -4  977.66   25.24
   1  -4   5 1103.87   12.67
  -1   4  -5  917.64   24.27
  -1  -4  -5 1029.54   26.56
  -1  -4  -5 1121.48   12.28
   1  -4   6 1420.66   16.01
   1   4   6 1346.47   16.39
  -1   4  -6 1441.00   16.74
  -1  -4  -6 1440.36   15.59
   1  -4   7  641.80   17.06
   1   4   7  759.84   20.55
  -1  -4  -7  743.62   19.36
  -1  -4  -7  577.34   15.90
   1  -4   8  213.08   12.11
  -1  -4  -8  186.69   10.42
  -1  -4  -8  193.11   11.21
   1  -4   8  219.62   12.65
   1  -4   9  507.39   17.90
   1   4   9  460.81   16.66
  -1   4  -9  492.89   17.59
  -1  -4  -9  437.10   15.66
   1  -4   9  578.23   15.77
   1  -4  10  143.70    8.43
   1   4  10   99.72    6.48
  -1   4 -10  109.24    6.95
  -1  -4 -10  176.16   10.41
  -1  -4 -10  139.96    8.83
   1  -4  10  160.63    9.85
   1  -4  11   35.46    2.67
   1   4  11   51.41    3.83
  -1   4 -11   63.12    4.55
  -1  -4 -11   49.75    3.42
  -1  -4 -11   41.98    3.51
   1  -4  11   47.50    4.02
   1  -4  12   53.34    3.66
   1   4  12  115.98    7.39
  -1  -4 -12   60.49    3.95
  -1  -4 -12   54.99    4.14
   1  -4  12   70.78    5.37
   1  -4  13  187.81   11.33
   1   4  13  188.93   11.49
  -1   4 -13  205.62   12.45
  -1  -4 -13  230.85   13.56
  -1  -4 -13  162.19   10.14
   1  -4  13  229.57   14.02
   1  -4  14  257.70   15.41
   1   4  14  316.55   10.79
  -1   4 -14  374.61   12.63
  -1  -4 -14  350.95   11.38
  -1  -4 -14  271.55   16.49
   1  -4  14  350.57   11.87
   1  -4  15  613.98   28.56
   1   4  15  650.35   30.31
  -1  -4 -15  801.79   36.90
  -1  -4 -15  657.73   30.76
   1  -4  15  783.07   36.25
   1  -4  16  570.64   26.82
   1   4  16  682.89   31.84
  -1   4 -16  689.88   32.11
  -1  -4 -16  756.94   34.86
  -1  -4 -16  609.25   28.55
   1  -4  16  757.11   35.04
   1  -4  17  274.31   13.34
   1   4  17  307.99   14.85
  -1   4 -17  314.71   15.15
  -1  -4 -17  323.60   15.23
  -1  -4 -17  288.63   14.21
   1  -4  17  285.15   13.76
   1  -4  18    3.05    1.73
   1   4  18    8.49    2.52
  -1   4 -18    3.18    2.19
  -1  -4 -18    3.31    1.81
  -1  -4 -18    3.01    2.07
   1  -4  18   -1.51    1.67
   1  -4  19  225.68   12.78
   1   4  19  327.72   17.88
  -1   4 -19  343.78   18.81
  -1  -4 -19  248.44   13.47
  -1  -4 -19  223.61   12.79
   1  -4  19  276.39   15.50
   1  -4  20  194.58   11.00
   1   4  20  267.08   14.80
  -1   4 -20  261.77   14.70
  -1  -4 -20  232.76   12.70
  -1  -4 -20  228.36   12.99
   1  -4  20  244.65   13.74
   1   4  21  198.94    7.27
  -1   4 -21  197.97    7.83
  -1  -4 -21  223.65    7.68
  -1  -4 -21  214.90    8.14
   1  -4  21  235.32    8.58
   1  -4  22  291.02   10.04
   1   4  22  367.06   12.08
  -1   4 -22  378.11   12.75
  -1  -4 -22  382.09   12.10
  -1  -4 -22  364.51   12.42
   1  -4  22  406.41   13.51
   1  -4  23   46.76    7.39
   1   4  23   84.31   12.85
  -1   4 -23   77.34   11.75
  -1  -4 -23  116.14   26.92
  -1  -4 -23  107.88   25.20
   1  -4  23   89.98   13.52
   1  -4  24   59.11   14.05
   1   4  24   66.73    5.80
  -1   4 -24   45.99   11.12
  -1  -4 -24   97.06    7.59
  -1  -4 -24   94.11    8.10
   1  -4  24   61.03   14.57
   1   4  25  405.70   29.12
  -1   4 -25  423.08   30.53
  -1  -4 -25  346.28   24.81
  -1  -4 -25  321.85   23.53
   1  -4  25  356.96   25.92
   1  -4  26   65.84    6.20
   1   4  26   60.18    5.17
  -1   4 -26   74.21    6.45
  -1  -4 -26  106.86    7.87
  -1  -4 -26   98.41    7.88
   1  -4  26   97.46    7.83
   1  -4  27  103.38    9.07
   1   4  27  127.34    9.70
  -1   4 -27  121.20    9.68
  -1  -4 -27  131.10   10.19
   1  -4  27  138.69   10.56
   1  -4  28   83.22   10.21
   1   4  28  145.58   16.78
  -1   4 -28  134.82   15.75
  -1  -4 -28  126.04   14.33
  -1  -4 -28  111.79   15.33
   1  -4  28  138.23   16.26
   1  -4  29    6.21    2.02
   1   4  29    9.76    2.93
  -1   4 -29   12.19    3.40
  -1  -4 -29   25.56    3.89
  -1  -4 -29   14.87    5.26
   1  -4  29   20.88    3.45
  -1  -5  26   23.52    5.01
   1   5 -26   49.09    6.65
   1  -5 -26   40.39    5.76
   1  -5 -26   28.49    4.16
  -1  -5  25   24.98    5.06
   1   5 -25   54.67    7.02
   1  -5 -25   71.66    8.87
   1  -5 -25   39.18    5.21
  -1  -5  24  183.69   21.63
   1   5 -24  175.03   19.77
   1  -5 -24  203.98   22.96
   1  -5 -24  146.60   16.65
  -1  -5  23   34.84    9.06
   1   5 -23   26.05    6.10
   1  -5 -23   35.43    8.60
   1  -5 -23   19.54    4.82
  -1  -5  22    5.29    2.74
   1   5 -22    6.67    2.52
   1  -5 -22    6.93    2.39
   1  -5 -22    4.73    2.23
  -1  -5  21  145.66   12.25
   1   5 -21  157.81   11.80
   1  -5 -21  166.61   12.47
   1  -5 -21  120.47    9.17
  -1  -5  20   10.27    4.75
   1   5 -20    4.13    1.83
   1  -5 -20   16.40    4.37
   1  -5 -20    7.92    3.25
  -1  -5  20    4.25    1.71
  -1  -5  19  454.80   24.81
   1   5 -19  484.27   25.64
   1  -5 -19  535.42   28.35
   1  -5 -19  413.46   22.07
  -1  -5  19  453.44   24.00
  -1  -5  18   22.01    4.96
   1   5 -18   38.02    6.29
   1  -5 -18   26.95    4.51
  -1  -5  18   19.11    3.54
  -1  -5  17  270.86   10.40
   1   5 -17  281.33    9.40
   1  -5 -17  286.85    9.85
   1  -5 -17  229.44    7.96
  -1  -5  17  260.34    8.97
  -1  -5  16   46.45    7.29
   1   5 -16   55.45    7.37
   1  -5 -16   36.32    5.24
  -1  -5  16   39.18    6.00
  -1  -5  15  728.47   22.94
   1   5 -15  832.36   25.13
   1  -5 -15  832.50   25.40
   1  -5 -15  755.28   23.15
  -1  -5  15  841.11   25.44
  -1  -5  14   71.32   17.76
   1   5 -14   96.62   11.45
   1  -5 -14  161.35    9.41
  -1  -5  14  114.63   13.73
  -1  -5  13  711.22   38.03
   1   5 -13  824.83   43.43
   1  -5 -13  719.95   38.10
  -1  -5  13  781.47   41.23
   1   5 -12    8.20    2.58
   1  -5 -12    5.52    1.79
  -1  -5  12    2.32    1.34
  -1  -5  11   34.09    9.24
   1   5 -11   62.64    7.51
   1  -5 -11   62.56    7.72
   1  -5 -11   86.19   10.43
  -1  -5  11   83.15   10.26
  -1  -5  10   63.70    8.09
   1   5 -10   62.89    3.75
   1  -5 -10   81.55    4.54
  -1  -5  10   75.17    4.88
  -1  -5   9   75.82    5.42
  -1   5   9   95.13    4.60
   1   5  -9   86.98    4.65
   1  -5  -9   88.10    4.82
  -1  -5   9  103.65    5.96
  -1  -5   8   17.96    4.90
  -1   5   8   22.76    1.41
   1   5  -8   20.67    4.83
   1  -5  -8   23.70    2.22
  -1  -5   7   59.91    7.41
  -1   5   7   73.12    3.61
   1   5  -7   89.38    5.00
   1  -5  -7   69.63    4.01
   1  -5  -7   75.52    4.48
  -1  -5   7   68.80    4.40
  -1  -5   6   16.19    4.33
  -1   5   6   29.17    1.67
   1   5  -6   40.41    2.39
  -1  -5   5  300.26   15.26
  -1   5   5  280.49   13.02
  -1   5   5  412.35   19.50
   1   5  -5  485.61   22.60
   1  -5  -5  364.99   17.19
  -1  -5   4  129.70    9.01
  -1   5   4  115.61    6.88
   1   5  -4  198.50   11.95
  -1  -5   3  902.23   28.53
  -1   5   3  944.64   29.21
  -1  -5   2  216.71   13.07
  -1   5   2  196.33   11.51
   1   5  -2  279.80   16.48
   1  -5  -1  816.25   25.35
  -1  -5   1  674.55   22.06
  -1   5   1  982.93   31.15
   1   5  -1  937.95   29.13
  -1  -5   0  442.11   14.92
   1   5   0  575.21   18.03
  -1   5   0  653.05   21.20
  -1  -5  -1  440.20   14.83
   1   5   1  548.77   17.18
  -1   5  -1  670.01   21.66
  -1  -5  -2   32.86    3.42
   1  -5   2    6.45    1.91
  -1   5  -2   65.79    9.27
  -1  -5  -2   21.82    1.73
  -1  -5  -3   20.75    2.39
   1  -5   3    8.81    2.46
  -1   5  -3   32.22    6.76
  -1  -5  -3   24.22    1.82
  -1  -5  -3   17.81    2.37
   1  -5   4  118.29    7.20
  -1   5  -4  108.26    7.23
  -1  -5  -4  138.56    6.64
   1  -5   5   45.13    4.92
   1   5   5   50.56    3.31
  -1   5  -5   80.18    8.59
   1  -5   6  373.05   17.51
   1   5   6  380.44   18.16
  -1   5  -6  371.09   17.56
   1  -5   7  467.32   21.80
   1   5   7  509.57   24.03
  -1   5  -7  535.74   25.05
   1  -5   8  312.10   14.81
   1   5   8  294.83   14.29
  -1   5  -8  305.21   14.67
   1  -5   8  319.66   15.21
   1  -5   9  494.64   23.07
   1   5   9  452.60   21.39
  -1   5  -9  462.68   21.76
  -1  -5  -9  446.52   21.11
   1  -5   9  453.64   21.31
   1  -5  10    6.33    2.48
   1   5  10   15.92    2.74
  -1  -5 -10    8.13    2.44
   1  -5  10    4.37    1.25
   1  -5  11   63.59    7.84
   1   5  11   44.93    5.73
  -1  -5 -11   76.86    9.08
  -1  -5 -11   52.43    6.72
   1  -5  11   71.60    8.89
   1  -5  12  113.89   13.65
   1   5  12  130.69   16.82
  -1   5 -12  130.68   17.86
  -1  -5 -12  140.76    7.81
  -1  -5 -12   98.77   11.87
   1  -5  12  129.35   16.83
   1  -5  13  654.74   34.73
   1   5  13  642.66   34.20
  -1  -5 -13  585.98   31.28
   1  -5  13  681.02   36.04
   1  -5  14   94.31   11.38
   1   5  14  106.72   12.78
  -1   5 -14  109.63   13.25
  -1  -5 -14  120.97   14.20
  -1  -5 -14   88.94   10.88
   1  -5  14   77.31    9.39
   1  -5  15   28.89    4.37
   1   5  15   46.21    6.38
  -1   5 -15   58.68    8.10
  -1  -5 -15   42.71    5.75
  -1  -5 -15   36.92    5.93
   1  -5  15   24.56    3.95
   1  -5  16  222.19    8.07
   1   5  16  266.29    9.31
  -1   5 -16  292.20   10.08
  -1  -5 -16  277.35    8.98
  -1  -5 -16  224.61    8.16
   1  -5  16  248.61    9.05
   1  -5  17    3.43    1.62
   1   5  17   12.43    2.71
  -1   5 -17   15.00    3.68
  -1  -5 -17   10.01    1.88
  -1  -5 -17   18.93    4.38
   1  -5  17   10.59    2.41
   1  -5  18  122.67    7.48
   1   5  18  116.01   26.96
  -1   5 -18  130.77    7.81
  -1  -5 -18  141.22    7.94
  -1  -5 -18  119.80    7.41
   1  -5  18  132.68    8.42
   1  -5  19    1.95    1.74
   1   5  19    2.11    1.74
  -1  -5 -19   -0.18    1.07
  -1  -5 -19    2.56    1.90
   1  -5  19    4.33    2.32
   1   5  20  159.13   12.08
  -1   5 -20  156.97   12.12
  -1  -5 -20  182.39   13.26
  -1  -5 -20  160.45   12.23
   1  -5  20  191.65   14.71
   1  -5  21    4.74    1.95
   1   5  21   31.08    7.86
  -1   5 -21   35.35    8.89
  -1  -5 -21   19.75    4.93
  -1  -5 -21   27.49    7.20
   1  -5  21   14.68    4.31
   1  -5  22   27.19    6.52
   1   5  22   46.30    5.94
  -1   5 -22   43.87    6.11
  -1  -5 -22   31.10    7.11
  -1  -5 -22   35.25    8.45
   1  -5  22   10.13    3.34
   1   5  23  197.83   13.94
  -1   5 -23  197.19   14.13
  -1  -5 -23  163.05   11.93
   1  -5  23  164.37   11.92
   1  -5  24   84.94   10.09
   1   5  24  143.40   16.40
  -1   5 -24  127.90   14.91
  -1  -5 -24  149.15   17.25
   1  -5  24  134.06   15.53
   1  -5  25   45.38    5.81
   1   5  25  120.66   14.17
  -1   5 -25  132.91   15.81
  -1  -5 -25  128.75   15.50
   1  -5  25   97.77   11.84
  -1  -6  21   17.11    8.36
   1   6 -21   72.09    8.67
   1  -6 -21   43.38    5.64
  -1  -6  20   24.66   15.37
   1   6 -20  112.24   13.17
   1  -6 -20  125.11   14.68
   1  -6 -20   91.01   10.94
  -1  -6  19   20.07    7.99
   1   6 -19   41.18    5.35
   1  -6 -19   27.68    4.04
  -1  -6  19   20.17    3.25
  -1  -6  18    2.39    2.46
   1   6 -18    9.32    2.20
   1  -6 -18   15.94    3.05
   1  -6 -18    6.31    2.28
  -1  -6  18    4.40    1.68
  -1  -6  17    7.41    2.59
   1   6 -17    8.56    2.62
   1  -6 -17    5.68    2.62
   1  -6 -17    5.37    2.38
  -1  -6  17    1.19    1.48
  -1  -6  16    2.49    2.78
   1   6 -16    4.57    1.69
   1  -6 -16    2.76    2.10
   1  -6 -16   10.69    3.74
  -1  -6  16    0.06    1.48
  -1  -6  15   11.42    4.42
   1   6 -15   15.31    4.57
   1  -6 -15   29.25    7.19
   1  -6 -15   15.79    4.30
  -1  -6  15   28.87    7.39
  -1  -6  14   63.95   18.23
   1   6 -14   99.33    7.72
   1  -6 -14  105.04    8.12
  -1  -6  14  106.45    8.90
  -1  -6  13    4.72    2.97
   1   6 -13   20.26    7.56
  -1  -6  13   16.42    4.55
  -1  -6  12  183.16   13.70
   1   6 -12  247.38   18.14
   1  -6 -12  256.75   18.62
  -1  -6  12  241.66   17.82
  -1  -6  11   65.21    9.94
   1   6 -11   82.37   12.49
   1  -6 -11   85.29   12.67
   1   6 -10  355.65   18.80
   1  -6 -10  353.95   18.96
  -1  -6  10  360.77   19.48
   1   6  -9   88.90   13.27
   1  -6  -9  120.07    7.05
  -1  -6   8  169.17   10.12
   1   6  -8  193.99   10.71
   1  -6  -8  215.61   11.94
   1  -6  -8  233.23   12.90
  -1  -6   7   19.74    7.25
   1   6  -7   48.16    6.70
   1  -6  -7   41.12    5.69
  -1  -6   6  308.42   10.35
   1   6  -6  481.39   14.99
   1  -6  -6  411.59   13.18
  -1  -6   5   20.60    7.17
   1   6  -5   73.55    9.54
  -1  -6   4   31.11    9.65
  -1   6   4   89.05   11.61
   1   6  -4  100.35   13.21
  -1  -6   3   79.38   11.40
   1   6  -3  153.12   22.18
  -1   6   3  147.13   18.87
  -1  -6   2   71.11    9.66
   1   6  -2  111.29   14.20
  -1   6   2  103.88   13.52
  -1  -6   1   50.91    7.08
  -1   6   1   60.88    8.34
   1   6  -1   60.04    7.81
  -1  -6   0  179.20    7.10
  -1   6   0  182.31    6.98
   1   6   0  151.63   21.93
  -1  -6  -1   62.36    8.63
  -1  -6  -1   54.87    7.10
  -1  -6  -2   65.28    8.76
  -1   6  -3  154.80   24.32
   1   6   4  602.88   19.10
  -1   6  -4  858.45   26.55
   1   6   5    4.42    2.67
  -1   6  -5   27.27    7.54
   1   6   6  358.06   12.05
  -1  -6  -6  328.14   11.11
   1  -6   6  343.32   11.19
   1  -6   7   15.97    6.24
   1   6   7   29.66    5.11
   1  -6   8    0.09    0.98
   1   6   8    5.90    2.62
  -1  -6  -8    5.36    2.44
   1  -6   9  114.89   26.61
   1   6   9  154.60    9.01
  -1  -6  -9  112.91   26.26
   1  -6   9  128.83    7.87
   1  -6  10   15.42    5.77
   1   6  10   53.40    8.39
  -1  -6 -10   56.40    8.92
   1  -6  10   55.70    8.57
   1  -6  11    5.02    1.68
   1   6  11    6.96    1.87
  -1   6 -11   12.62    4.51
  -1  -6 -11   11.58    2.80
   1  -6  11    9.14    2.75
   1  -6  12    9.63    3.93
   1   6  12    6.34    2.24
  -1  -6 -12   18.05    4.95
   1  -6  12    8.01    3.01
   1  -6  13   39.20    9.43
   1   6  13   46.67   11.18
  -1   6 -13   30.25   10.91
   1  -6  13   42.20   10.41
   1  -6  14   61.91   13.76
   1   6  14   49.79   11.85
  -1   6 -14   33.86   12.03
  -1  -6 -14   59.00   13.99
   1  -6  14   58.89   13.99
   1  -6  15   96.05    7.27
   1   6  15  122.64    9.04
  -1   6 -15  122.76   10.64
  -1  -6 -15  120.38    9.40
   1  -6  15  120.82    9.19
   1  -6  16  177.23   12.56
   1   6  16  201.50   14.07
  -1   6 -16  187.11   15.21
  -1  -6 -16  191.14   13.61
   1  -6  16  166.80   11.96
   1  -6  17   56.46    5.55
   1   6  17   67.93    5.72
  -1   6 -17   56.72   10.20
  -1  -6 -17   64.19    6.17
   1  -6  17   44.58    5.85
   1  -6  18   71.94    8.64
   1   6  18   98.32   11.41
  -1   6 -18   87.36   13.16
  -1  -6 -18   91.13   11.02
   1  -6  18   82.80   10.02
   1  -6  19   58.46    7.34
   1   6  19   64.40    7.82
  -1   6 -19   52.08   11.02
  -1  -6 -19   65.66    8.29
   1  -6  19   77.70    9.63
   1  -6  20    8.48    2.40
   1   6  20   13.46    2.54
  -1   6 -20   16.70    4.49
  -1  -6 -20   12.59    3.10
   1  -6  20    6.99    2.82
  -1  -7  12   14.58    4.96
  -1  -7  12   28.11    4.24
   1  -7 -12   45.50    6.26
  -1  -7  11    3.09    1.96
  -1  -7  11    5.15    1.66
  -1  -7  10   14.96    9.82
  -1  -7  10   67.66    8.34
   1  -7 -10   74.88    9.22
  -1  -7   9   -0.20    1.65
   1  -7  -9    3.18    1.84
  -1  -7   8   21.35   10.58
   1  -7  -8  105.09   12.30
  -1  -7   8   88.15   10.80
  -1  -7   6   44.08    6.35
  -1  -7   5   29.11    4.14
  -1  -7   5   63.65    8.37
  -1  -7   2   85.47    7.12
  -1  -7   1   58.00    5.61
  -1  -7   0   76.01    6.41
   1   7   2   19.15    4.83
  -1  -7  -2   16.03    4.38
   1   7   4    2.30    2.00
  -1  -7  -4   18.12    5.16
   1   7   5   34.02    4.94
  -1  -7  -5   11.32    2.40
   1   7   6   43.58    5.68
  -1  -7  -6   44.13    5.84
   1   7   7   56.22    7.06
   1   7   8  106.61   12.38
   1  -7   8   89.96   10.73
   1   7   9   32.87    4.46
   1   7  10   55.06    7.20
  -1  -7 -10   72.54    9.43
   1  -7  10   85.05   10.58
   1   7  11   10.66    2.05
  -1   7 -11    9.38    3.88
  -1  -7 -11   21.80    4.38
   1  -7  11    7.12    1.86
  -2   0  33    3.86    3.03
   2   0 -33   -1.17    1.66
  -2   0  32  404.31   45.02
   2   0 -32  639.82   72.36
  -2   0  31   11.35    3.59
   2   0 -31   39.42    9.19
  -2   0  30  190.88   14.92
   2   0 -30  263.79   19.26
  -2   0  29   -0.39    2.26
   2   0 -29    3.78    2.27
  -2   0  28  186.89   11.46
  -2   0  27   10.69    3.28
   2   0 -27   17.06    3.31
  -2   0  26    4.67    3.66
   2   0 -26    5.90    2.64
  -2   0  25   -1.80    1.99
   2   0 -25   13.90    3.18
  -2   0  24  993.49   52.65
   2   0 -24  936.99   49.44
  -2   0  23   63.90    4.87
   2   0 -23  108.60    6.04
  -2   0  22  420.16   19.93
   2   0 -22  426.37   20.19
  -2   0  21   26.52    2.85
   2   0 -21   48.74    4.07
  -2   0  20 1304.69   40.62
   2   0 -20 1415.45   64.92
  -2   0  19   31.15    5.58
   2   0 -19   48.08    4.55
  -2   0  18 3045.74   33.29
   2   0 -18 3463.26   37.55
  -2   0  17   16.56    3.81
   2   0 -17   21.25    2.68
  -2   0  16 1983.22   22.19
   2   0 -16 2291.45   25.33
  -2   0  15   94.88    5.62
   2   0 -15  102.74    6.03
  -2   0  14  160.69    9.31
   2   0 -14  181.92   10.50
  -2   0  13  659.19   17.61
   2   0 -13  776.61   20.54
  -2   0  12  143.98    8.33
   2   0 -12  175.85   10.14
  -2   0  11  354.83   12.68
   2   0 -11  434.95   15.38
  -2   0  10  695.67   18.39
   2   0 -10  732.41   19.26
   2   0 -10  743.85   19.06
  -2   0   9  489.76   17.19
   2   0  -9  574.45   15.17
   2   0  -9  591.24   15.23
   2   0  -8 2222.09   23.79
   2   0  -8 2072.02   21.90
   2   0  -8 2217.45   23.12
  -2   0   7  416.38   14.67
   2   0  -7  433.82   15.13
   2   0  -7  477.46   16.63
   2   0  -7  444.01   15.50
   2   0  -7  456.47   15.74
   2   0  -6 4026.02   42.28
   2   0  -6 4136.36   43.25
   2   0  -6 4072.99   42.78
  -2   0   5  224.84   12.77
   2   0  -5  293.67   16.36
   2   0  -5  331.12   11.80
   2   0  -5  268.45   14.92
   2   0  -5  257.33   14.62
   2   0  -4 1960.73   21.19
   2   0  -4 1942.79   20.68
  -2   0   4 1973.22   20.95
   2   0  -4 1888.90   20.43
   2   0  -3  745.90   19.50
   2   0  -3  741.28   19.21
  -2   0   3  809.44   21.04
   2   0  -3  691.69   18.12
  -2   0   2 1030.72   59.29
   2   0  -2  897.18   23.34
  -2   0   2 1080.58   12.19
   2   0   0  458.87   15.99
   2   0   0  558.76   14.54
  -2   0   0  638.18   16.93
   2   0   0  471.28   16.50
   2   0   1  665.17   17.63
   2   0   1  672.68   17.44
  -2   0  -1  726.48   19.26
   2   0   1  591.21   15.72
   2   0   2   51.40    3.26
   2   0   2   74.44    4.45
  -2   0  -2   95.93    5.32
   2   0   2   76.77    4.18
  -2   0  -2   82.03    6.67
   2   0   3 1859.04   20.60
  -2   0  -3 1813.36   19.33
   2   0   3 1857.52   19.68
  -2   0  -3 1987.46   22.13
   2   0   4  894.92   23.45
  -2   0  -4  924.36   23.96
   2   0   4  914.81   23.61
  -2   0  -4  988.34   27.70
   2   0   5 1348.54   15.37
  -2   0  -5 1433.10   15.55
   2   0   5 1354.19   14.53
  -2   0  -5 1306.82   15.20
   2   0   6  401.24   14.22
  -2   0  -6  432.36   15.04
   2   0   6  443.57   15.35
  -2   0  -6  414.22   14.81
   2   0   7  118.16    6.94
  -2   0  -7  132.33    7.52
   2   0   7  117.08    6.59
  -2   0  -7   87.72    6.22
   2   0   8 1905.39   21.14
  -2   0  -8 2052.40   22.00
   2   0   9  191.62   11.01
  -2   0  -9  198.22   11.17
  -2   0  -9  152.74    8.90
   2   0  10 2017.71   22.44
  -2   0 -10 2131.88   22.95
  -2   0 -10 2000.95   23.07
   2   0  11  132.24    7.88
  -2   0 -11  135.39    7.77
  -2   0 -11  111.90    8.83
   2   0  12  163.88    9.48
  -2   0 -12  163.25    9.33
  -2   0 -12  147.30   22.26
   2   0  13 3403.97   36.72
  -2   0 -13 3554.42   37.73
  -2   0 -13 3569.83   39.46
   2   0  14   57.45    3.86
  -2   0 -14   50.62    3.49
  -2   0 -14   59.46    8.76
   2   0  15 1235.95   14.78
  -2   0 -15 1245.04   14.29
  -2   0 -15 1290.79   16.32
   2   0  16    6.54    1.93
  -2   0 -16    3.65    2.50
  -2   0 -16   -2.90    2.69
   2   0  17  526.31   18.95
  -2   0 -17  519.22   18.34
  -2   0 -17  567.29   16.29
   2   0  18    8.55    2.20
  -2   0 -18    6.60    2.91
  -2   0 -18    3.72    2.59
   2   0  19  930.56   29.42
  -2   0 -19  910.36   28.50
  -2   0 -19  979.91   31.89
   2   0  20  170.20   10.94
  -2   0 -20  154.46    9.72
  -2   0 -20  180.32   14.76
   2   0  21  215.58   10.88
  -2   0 -21  212.61   10.50
  -2   0 -21  238.71   13.76
   2   0  22  377.83   18.26
  -2   0 -22  368.21   17.57
  -2   0 -22  380.68   18.40
   2   0  23  482.43   25.98
  -2   0 -23  477.66   25.59
  -2   0 -23  543.60   29.82
   2   0  24   18.10    3.72
  -2   0 -24    7.76    2.20
  -2   0 -24   14.91    3.56
   2   0  25  241.13    9.16
  -2   0 -25  221.57    7.89
  -2   0 -25  267.68    9.90
   2   0  26  112.30   15.00
  -2   0 -26  104.06   13.55
  -2   0 -26  145.23   18.96
   2   0  27  190.63   11.31
  -2   0 -27  158.62    9.39
  -2   0 -27  232.83   13.42
   2   0  28    8.02    2.92
  -2   0 -28   11.33    3.90
  -2   0 -28   15.23    5.07
  -2   0 -29  548.60   39.22
  -2   0 -29  645.05   46.04
   2   0  30   13.78    4.53
  -2   0 -30   24.84    6.17
  -2   0 -30   44.02    6.65
  -2   0 -31  414.29   46.13
  -2   0 -31  470.54   53.47
   2   0  32    3.07    2.15
  -2   0 -32    2.46    2.31
  -2   0 -32   -1.62    1.98
  -2  -1  33   30.09    5.09
  -2   1  33   31.88    5.07
   2   1 -33   66.70    8.50
   2  -1 -33   62.55    8.09
  -2   1  32   12.82    2.81
  -2  -1  32    9.48    3.82
   2   1 -32   42.08    5.54
   2  -1 -32   31.12    4.77
  -2  -1  31   74.77    7.04
  -2   1  31   68.40    5.89
   2   1 -31  110.64    8.49
   2  -1 -31  102.30    8.11
  -2  -1  30   29.63    8.30
  -2   1  30   12.01    3.49
   2   1 -30   51.49    4.93
   2  -1 -30   55.60    5.36
  -2  -1  29  168.30   13.45
  -2   1  29  164.81   12.79
   2   1 -29  220.77   16.24
   2  -1 -29  182.71   13.79
  -2  -1  28  297.07   17.02
  -2   1  28  224.92   12.74
   2   1 -28  296.36   16.17
   2  -1 -28  312.79   17.12
  -2  -1  27  768.41   40.95
  -2   1  27  730.12   38.54
   2   1 -27  875.46  201.51
   2  -1 -27  767.64   40.32
  -2  -1  26  164.64    7.53
  -2   1  26  208.61    8.13
   2   1 -26  246.31    8.55
   2  -1 -26  233.62    8.80
  -2  -1  25 1404.25  202.07
  -2   1  25 1258.03   38.10
   2   1 -25 1381.09   41.44
   2  -1 -25 1474.66  212.07
  -2  -1  24  321.51   17.82
  -2   1  24  345.40   18.77
   2   1 -24  354.55   19.31
   2  -1 -24  384.24   20.82
  -2  -1  23  200.24   11.48
  -2   1  23  234.05   13.09
   2   1 -23  237.15   13.08
   2  -1 -23  255.36   14.21
  -2  -1  22  391.03   18.86
  -2   1  22  413.70   19.50
   2   1 -22  442.53   20.91
   2  -1 -22  457.17   21.62
  -2   1  21   41.82    2.88
   2   1 -21   57.36    3.83
   2  -1 -21   31.97    3.17
  -2  -1  20   15.07    2.27
  -2   1  20    5.71    1.67
   2   1 -20    6.19    2.42
   2  -1 -20   23.76    3.02
  -2  -1  19   84.13    6.00
  -2   1  19   59.31    4.15
   2   1 -19   61.95    4.43
   2  -1 -19  104.21    6.89
  -2  -1  18  215.19   13.11
  -2   1  18  183.66   10.97
   2   1 -18  189.22   11.37
   2  -1 -18  251.06   15.03
   2  -1 -18  180.65   10.45
  -2   1  17  336.46   12.09
  -2  -1  17  393.00   14.38
   2   1 -17  337.97   12.16
   2  -1 -17  475.09   17.06
  -2   1  16  577.49   15.43
  -2  -1  16  474.43   17.25
   2   1 -16  604.38   16.17
   2  -1 -16  591.83   16.19
  -2  -1  15 2055.44   23.47
  -2   1  15 2146.58   23.50
   2   1 -15 2109.32   23.20
  -2  -1  14  929.09   24.69
  -2   1  14  892.36   23.42
   2   1 -14  873.35   23.32
   2  -1 -14  857.54   22.07
  -2  -1  13 1281.62   15.20
  -2   1  13 1282.08   14.47
   2   1 -13 1328.76   15.06
   2  -1 -13 1432.98   16.42
   2  -1 -13 1294.02   13.73
  -2   1  12  321.19   11.38
  -2  -1  12  444.39   15.89
   2  -1 -12  429.17   14.89
   2   1 -12  313.81   11.29
   2  -1 -12  490.42   17.32
   2  -1 -12  456.60   15.73
  -2  -1  11 1578.16   18.20
   2  -1 -11 1587.66   16.97
   2  -1 -11 1720.81   19.11
   2  -1 -11 1580.52   16.63
  -2  -1  10 1760.04   20.00
  -2   1  10 1768.67   19.26
   2  -1 -10 1784.48   18.92
   2  -1 -10 1882.56   20.69
  -2  -1  10 1772.19   18.50
   2  -1 -10 1673.75   17.97
   2  -1 -10 1760.50   18.49
  -2   1   9 1944.17   20.99
  -2  -1   9 2025.70   22.53
   2  -1  -9 2062.13   21.72
   2  -1  -9 2156.12   23.38
  -2  -1   9 1976.71   21.05
   2  -1  -9 1980.45   21.13
  -2  -1   9 2129.51   22.28
   2   1  -9 2086.32   21.69
   2  -1  -9 2232.92   23.38
  -2   1   8  276.65   15.40
  -2  -1   8  179.44   10.32
   2  -1  -8  193.25   10.73
   2  -1  -8  200.91   11.38
  -2  -1   8  194.57   10.86
   2  -1  -8  191.50   10.70
  -2  -1   8  194.32   10.87
   2   1  -8  290.98   16.06
   2  -1  -8  235.28   13.05
  -2  -1   7   99.37    5.91
  -2   1   7  105.91    5.76
   2  -1  -7  100.40    5.37
   2   1  -7  143.21    8.15
  -2  -1   7  109.87    5.91
   2  -1  -7  105.10    5.88
   2  -1  -7  104.53    5.69
  -2  -1   7  103.84    5.91
   2   1  -7  108.86    5.79
   2  -1  -7  127.32    7.20
  -2  -1   6  919.68   24.15
   2  -1  -6 1028.27   26.48
   2   1  -6 1109.00   12.07
   2  -1  -6  979.84   25.49
   2  -1  -6 1036.68   59.55
  -2  -1   6 1080.26   12.27
  -2   1   5  581.00   15.12
   2  -1  -5  636.57   16.53
   2  -1  -5  602.67   15.89
   2  -1  -5  577.64   15.21
  -2  -1   5  637.58   16.98
   2   1  -5  643.47   16.70
   2  -1  -5  690.76   17.96
  -2   1   4 1076.03   61.80
   2  -1  -4 1036.80   59.52
  -2   1   4 1144.56   12.94
   2   1  -4 1175.73   12.67
  -2  -1   4 1003.01   26.19
   2  -1  -4 1050.10   60.29
  -2  -1   3  731.47   19.29
   2  -1  -3  921.72   23.85
  -2   1   3  797.92   20.90
   2   1  -3  873.73   22.56
   2   1  -3  770.84   19.90
   2  -1  -3  856.25   22.65
  -2  -1   3  944.65   25.42
   2  -1  -3  934.93   24.24
  -2  -1   2  356.42   12.67
   2  -1  -2  419.66   14.57
   2  -1  -2  443.96   15.49
  -2   1   2  435.32   15.30
   2   1  -2  338.70   11.69
   2   1  -2  376.59   13.01
   2  -1  -2  411.81   14.41
  -2  -1   2  450.61   15.87
   2   1  -2  304.70   17.65
   2  -1  -2  454.32   15.80
  -2  -1   1  710.62   18.87
   2  -1  -1  634.56   16.53
   2  -1  -1  750.09   19.57
   2   1  -1  776.76   19.98
   2   1  -1  784.83   20.19
  -2  -1   1  717.24   18.95
   2   1  -1  690.81   18.04
   2  -1  -1  752.41   19.66
  -2  -1   0  787.91   20.91
   2  -1   0  712.85   18.59
  -2   1   0 1047.62   60.28
   2   1   0  843.11   21.67
   2   1   0  790.38   20.32
  -2  -1   0  724.67   19.14
   2   1   0  712.60   18.63
   2  -1   0  764.05   20.02
   2  -1   1 2491.19   26.48
   2   1   1 2243.42   23.33
  -2  -1  -1 2455.30   26.89
   2  -1   1 2485.59   26.62
   2  -1   2 1673.69   18.18
   2  -1   2 1674.37   18.64
   2  -1   3 3525.36   37.14
   2   1   3 3623.13   39.08
  -2   1  -3 3680.78   38.73
   2   1   3 3675.33   38.02
  -2  -1  -3 3408.91   37.07
   2   1   4 1523.40   17.63
  -2   1  -4 1541.17   17.27
   2   1   4 1554.02   16.31
  -2  -1  -4 1484.04   17.45
   2  -1   5  553.92   31.95
  -2   1  -5  502.95   17.59
  -2  -1  -5  550.11   18.94
  -2   1  -5  575.24   15.33
   2   1   5  587.38   15.18
  -2  -1  -5  521.16   18.57
   2  -1   6 2714.47   28.97
  -2  -1  -6 2726.31   28.47
  -2   1  -6 2464.52   26.42
   2   1   6 2484.94   25.95
  -2  -1  -6 2637.70   29.47
   2  -1   7  346.59   12.28
   2   1   7  278.43   15.76
  -2  -1  -7  357.10   12.40
  -2   1  -7  336.55   12.03
   2   1   7  316.51   10.99
  -2  -1  -7  325.74   11.96
   2  -1   8  345.92   12.37
   2   1   8  365.51   13.34
  -2  -1  -8  366.47   12.75
   2   1   8  370.75   12.86
  -2   1  -8  379.72   13.80
  -2  -1  -8  338.05   12.44
   2  -1   9 1371.40   15.42
   2   1   9 1409.12   16.49
  -2  -1  -9 1498.79   16.12
   2   1   9 1418.24   15.29
  -2   1  -9 1503.59   17.40
   2  -1  10  621.60   16.61
   2   1  10  610.80   16.55
  -2   1 -10  670.83   17.80
  -2  -1 -10  597.96   15.62
   2   1  10  588.50   15.35
  -2   1 -10  567.24   15.71
  -2  -1 -10  564.33   15.72
   2  -1  11  397.26   14.26
   2   1  11  474.99   16.96
  -2  -1 -11  387.75   13.57
   2   1  11  444.87   15.46
  -2   1 -11  435.82   15.62
  -2  -1 -11  362.05   13.66
   2  -1  12 1434.39   16.46
   2   1  12 1400.33   16.55
  -2  -1 -12 1398.29   15.32
  -2   1 -12 1430.08   16.85
  -2  -1 -12 1414.67   18.58
   2  -1  13  438.32   15.57
   2   1  13  392.21   14.23
  -2   1 -13  420.78   14.97
  -2   1 -13  368.05   13.36
  -2  -1 -13  390.89   14.36
   2  -1  14  143.82    8.43
   2   1  14  160.57    9.58
  -2   1 -14  167.20    9.74
  -2  -1 -14  130.16    7.52
  -2   1 -14  162.91    9.60
  -2  -1 -14  145.31    9.89
   2  -1  15   54.89    3.79
   2   1  15   25.27    2.46
  -2   1 -15   28.43    2.52
  -2  -1 -15   53.24    3.34
  -2  -1 -15   70.13    8.34
   2  -1  16  375.09   13.62
   2   1  16  337.92   12.45
  -2   1 -16  367.72   13.28
  -2  -1 -16  367.90   13.07
  -2   1 -16  361.95   13.36
  -2  -1 -16  378.18   16.13
   2  -1  17  279.12   16.73
   2   1  17  295.20   17.65
  -2   1 -17  269.58   15.95
  -2  -1 -17  266.12   15.60
  -2   1 -17  280.21   16.75
  -2  -1 -17  254.05   15.38
   2  -1  18  253.16   15.26
   2   1  18  276.02   16.65
  -2   1 -18  272.29   16.12
  -2  -1 -18  239.15   14.07
  -2   1 -18  275.74   16.57
  -2  -1 -18  273.06   20.04
   2  -1  19  796.82   25.55
   2   1  19  723.00   23.13
  -2   1 -19  687.00   21.77
  -2  -1 -19  785.52   24.62
  -2   1 -19  700.43   22.73
  -2  -1 -19  765.94   24.78
   2  -1  20  701.82   32.67
   2   1  20  643.30   30.09
  -2   1 -20  599.82   28.04
  -2  -1 -20  689.05   31.84
  -2   1 -20  611.87   28.70
  -2  -1 -20  694.74   32.50
   2  -1  21  326.13   16.54
   2   1  21  346.51   16.84
  -2   1 -21  284.17   13.88
  -2  -1 -21  274.77   13.28
  -2   1 -21  311.20   15.16
  -2  -1 -21  307.29   19.81
   2  -1  22  712.93   37.82
   2   1  22 1025.04   54.21
  -2   1 -22 1024.40   53.94
  -2  -1 -22  759.98   40.15
  -2   1 -22 1059.11   55.97
  -2  -1 -22  825.24   44.00
   2   1  23  489.95   26.46
  -2   1 -23  486.64   26.09
  -2  -1 -23  373.93   20.16
  -2   1 -23  520.00   28.20
  -2  -1 -23  410.51   23.12
   2   1  24  242.51   13.83
  -2   1 -24  237.83   13.33
  -2  -1 -24  305.92   16.77
  -2   1 -24  266.79   15.21
  -2  -1 -24  337.47   22.15
   2   1  25   92.04   12.15
  -2   1 -25   96.74   12.75
  -2  -1 -25   87.28   11.48
  -2   1 -25   98.57   13.14
  -2  -1 -25   94.94   17.94
   2  -1  26  249.27   14.05
   2   1  26  256.68   14.32
  -2   1 -26  257.92   14.40
  -2  -1 -26  230.13   12.74
  -2   1 -26  284.03   15.83
  -2  -1 -26  264.96   14.95
   2  -1  27    7.39    3.07
   2   1  27    2.33    2.14
  -2   1 -27    5.57    3.12
  -2  -1 -27    3.96    2.17
  -2  -1 -27    7.94    2.49
   2  -1  28   17.59    4.82
   2   1  28   41.98   10.68
  -2   1 -28   25.75    6.75
  -2  -1 -28   12.56    3.51
  -2  -1 -28   27.78    7.98
   2  -1  29   47.72    4.56
   2   1  29   45.51    6.08
  -2  -1 -29   58.84    5.18
  -2   1 -29   51.20    4.88
  -2  -1 -29   53.79   10.26
   2  -1  30    8.35    3.29
   2   1  30    2.19    2.41
  -2  -1 -30    8.25    2.71
  -2   1 -30    7.03    2.88
  -2  -1 -30    4.69    1.87
   2  -1  30    5.82    2.30
   2   1  31   31.86    5.64
  -2  -1 -31   31.36    4.68
  -2   1 -31   27.87    4.30
  -2  -1 -31   21.79    6.00
   2  -1  31   37.05    5.38
  -2   1 -32  255.27   29.48
  -2  -1 -32  245.31   31.06
  -2  -2  32   66.57    9.06
   2   2 -32   99.66   11.98
   2  -2 -32  103.62   12.73
  -2  -2  31  311.71   35.46
   2   2 -31  338.69   37.76
   2  -2 -31  369.19   41.24
  -2  -2  30   11.10    4.78
  -2   2  30    5.52    2.48
   2   2 -30    9.90    3.40
   2  -2 -30    6.96    3.16
  -2  -2  29  401.88   28.15
  -2   2  29  228.01   15.76
   2   2 -29  399.45   27.12
   2  -2 -29  402.90   27.54
  -2  -2  28   29.87    7.77
  -2   2  28   30.28    7.56
   2   2 -28   58.59   13.95
  -2  -2  27  112.36   10.16
  -2   2  27   97.56    7.77
   2   2 -27  140.70   10.73
   2  -2 -27  123.38    9.86
  -2  -2  26    1.98    2.74
  -2   2  26    2.51    1.83
   2   2 -26    4.56    2.26
   2  -2 -26    5.72    2.92
  -2  -2  25  129.26   17.25
  -2   2  25  127.92   16.53
   2   2 -25  161.98    6.24
   2  -2 -25  132.48   17.20
  -2  -2  24   98.88   13.74
  -2   2  24   89.93   11.75
   2   2 -24  115.41   14.89
   2  -2 -24  122.15   15.96
  -2  -2  23  577.85   31.31
  -2   2  23  582.67   30.90
   2   2 -23  654.70   34.71
   2  -2 -23  697.90   37.19
  -2  -2  22  164.43   10.61
   2   2 -22  183.12   10.34
   2  -2 -22  193.88   11.45
  -2  -2  21 1114.86  128.49
  -2   2  21 1164.15  133.97
   2   2 -21 1271.34  159.62
   2  -2 -21 1395.10  160.66
   2  -2 -21  959.92   50.28
  -2  -2  20   11.03    2.93
  -2   2  20    7.99    1.94
   2   2 -20   13.41    2.62
   2  -2 -20   25.50    3.38
   2  -2 -20   13.65    1.23
  -2  -2  19  761.18   35.75
  -2   2  19  708.16   32.61
   2   2 -19  749.00   34.53
   2  -2 -19  946.54   43.80
   2  -2 -19  647.86   29.71
  -2  -2  18  446.09   15.64
  -2   2  18  384.91   12.32
   2   2 -18  394.96   12.79
   2  -2 -18  383.56   12.06
  -2  -2  17  982.70   31.98
  -2   2  17 1033.62   32.07
   2   2 -17 1075.09   33.35
   2  -2 -17 1142.17   35.73
   2  -2 -17  922.91   28.52
  -2  -2  16 1109.08   35.13
  -2   2  16 1082.48   33.51
   2   2 -16 1098.81   34.04
   2  -2 -16 1295.47   40.38
   2  -2 -16 1086.26   33.48
  -2  -2  15  802.25   21.93
  -2   2  15  806.75   21.09
   2   2 -15  803.91   21.09
   2  -2 -15  910.73   24.28
   2  -2 -15  791.77   20.63
  -2  -2  14  425.60   15.52
  -2   2  14  568.85   14.96
   2  -2 -14  402.24   14.06
   2   2 -14  592.73   15.68
  -2  -2  14  430.85   14.89
   2  -2 -14  461.07   16.05
   2   2 -14  542.21   18.60
  -2   2  13  127.88    7.26
  -2  -2  13  127.55    8.00
   2  -2 -13  119.39    6.77
   2   2 -13  127.62    7.33
   2  -2 -13  145.34    8.59
  -2  -2  13  125.91    7.10
   2  -2 -13  135.18    7.69
   2   2 -13  144.45    8.04
  -2  -2  12  342.58   12.75
  -2   2  12  372.69   13.01
   2  -2 -12  340.03   11.84
   2   2 -12  366.11   12.91
   2  -2 -12  357.20   12.85
  -2  -2  12  350.27   12.24
   2  -2 -12  357.86   12.51
   2   2 -12  426.90   14.73
  -2  -2  11  150.24    9.41
  -2   2  11  127.41    7.20
   2  -2 -11  137.31    7.73
   2   2 -11  120.38    6.86
   2  -2 -11  143.88    8.37
  -2  -2  11  134.59    7.62
   2  -2 -11  158.93    8.96
   2   2 -11  141.82    7.92
  -2   2  10  288.73   15.98
  -2  -2  10  431.40   15.69
   2  -2 -10  428.38   14.79
   2   2 -10  291.82   16.21
  -2  -2  10  417.60   14.55
   2  -2 -10  433.17   15.36
  -2  -2  10  401.47   14.01
   2  -2 -10  450.95   15.66
   2   2 -10  326.36   11.30
  -2  -2   9 1325.48   17.53
   2  -2  -9 1339.21   14.21
   2   2  -9 1427.16   15.42
  -2  -2   9 1390.75   15.02
   2  -2  -9 1392.00   15.86
  -2  -2   9 1334.16   14.76
   2  -2  -9 1409.98   15.24
  -2   2   8  242.65   13.39
  -2  -2   8  238.22   13.89
   2  -2  -8  220.32   12.19
   2   2  -8  286.85   15.88
  -2  -2   8  233.87   13.01
   2  -2  -8  243.69   13.78
   2  -2  -8  274.32   15.28
  -2  -2   7 2107.77   22.17
   2  -2  -7 2148.60   23.49
  -2  -2   7 2069.94   22.46
   2   2  -7 2322.30   24.39
   2  -2  -7 2330.29   24.77
   2   2  -6  644.28   16.68
   2  -2  -6  694.66   18.43
  -2  -2   6  680.79   17.59
  -2  -2   6  645.29   17.01
   2   2  -6  647.34   16.83
   2  -2  -6  802.75   20.92
   2  -2  -5 1594.36   16.49
   2   2  -5 1667.06   17.55
   2   2  -5 1567.19   16.79
   2  -2  -5 1679.66   18.30
   2  -2  -4  326.38   11.18
   2  -2  -4  317.21   10.89
   2   2  -4  300.51   17.29
  -2   2   4  309.85   11.26
   2   2  -4  277.44   15.30
  -2  -2   4  284.79   15.94
   2   2  -4  259.75   14.44
  -2   2   3 2962.45   32.06
   2   2  -3 3002.32   31.08
  -2  -2   3 2855.33   31.02
   2  -2  -3 3024.65   32.19
   2  -2  -2 1032.92   59.22
   2  -2  -2 1069.94   61.34
  -2   2   2 1247.51   14.61
  -2  -2   2  997.41   26.18
   2  -2  -2 1171.87   13.44
   2  -2  -1  237.70   13.14
   2  -2  -1  280.02   15.48
  -2  -2   1  291.15   16.42
   2  -2  -1  343.99   12.36
  -2  -2   0 1542.44   17.89
   2  -2   0 1587.34   17.65
  -2  -2  -1   46.23    3.67
   2  -2   1   36.01    2.09
   2  -2   1   38.97    2.39
  -2   2  -1   31.56    6.11
  -2  -2  -1   37.57    2.79
   2  -2   1   46.09    3.21
  -2  -2  -2 2326.39   26.20
  -2  -2  -2 2305.14   25.94
   2  -2   2 2296.19   24.98
  -2   2  -3 1389.06   15.20
  -2  -2  -3 1416.67   16.97
   2  -2   3 1353.52   15.56
   2  -2   4  331.50   11.82
  -2   2  -4  259.93   14.50
   2   2   4  282.80   16.14
  -2   2  -4  298.73   17.66
  -2  -2  -4  342.05   12.54
   2  -2   4  331.53   12.10
   2  -2   5 1421.26   15.70
   2   2   5 1392.53   16.78
  -2   2  -5 1450.08   16.45
   2  -2   5 1535.82   17.42
   2  -2   6  176.39   10.25
   2   2   6  197.47   11.46
  -2   2  -6  181.30   10.24
  -2   2  -6  214.37   12.45
  -2  -2  -6  175.69    9.69
   2   2   6  221.05   12.19
  -2  -2  -6  183.86   10.87
   2  -2   6  174.47   10.33
   2  -2   7  664.66   17.51
   2   2   7  550.55   19.63
  -2   2  -7  604.02   16.25
  -2  -2  -7  723.65   18.60
   2   2   7  685.20   17.65
  -2  -2  -7  717.18   19.75
   2  -2   7  700.92   19.01
   2  -2   8   98.80    6.49
   2   2   8   80.00    5.04
  -2  -2  -8  112.18    6.56
   2   2   8   99.17    5.33
  -2  -2  -8  103.36    6.46
   2  -2   8   97.45    5.76
   2  -2   9  945.50   24.97
  -2   2  -9 1084.49   12.98
  -2  -2  -9 1001.37   25.76
  -2  -2  -9  974.09   26.14
   2  -2   9  973.94   25.67
   2  -2  10  593.87   16.27
   2   2  10  444.59   16.05
  -2   2 -10  535.03   18.95
  -2  -2 -10  590.22   15.33
   2   2  10  555.71   31.97
   2  -2  10  519.69   18.48
   2  -2  11  274.67   15.65
   2   2  11  271.48   15.53
  -2   2 -11  316.67   11.70
  -2  -2 -11  291.12   16.14
   2   2  11  285.29   15.85
  -2  -2 -11  299.23   18.82
   2  -2  11  270.02   15.34
   2  -2  12  650.97   17.68
   2   2  12  686.81   18.65
  -2   2 -12  758.41   20.31
  -2  -2 -12  631.95   16.50
   2   2  12  737.38   19.22
  -2  -2 -12  652.70   18.21
   2  -2  12  634.96   17.21
   2  -2  13  464.36   16.77
   2   2  13  423.93   15.48
  -2  -2 -13  433.48   15.10
   2   2  13  410.03   14.37
  -2  -2 -13  470.19   17.26
   2  -2  13  438.63   15.81
   2  -2  14  617.02   16.55
   2   2  14  797.10   21.48
  -2  -2 -14  670.43   17.55
  -2  -2 -14  684.16   19.05
   2  -2  15   38.51   10.25
   2   2  15   54.65    4.29
  -2   2 -15   57.66    4.54
  -2  -2 -15   27.11    3.15
  -2  -2 -15   50.64    5.88
   2  -2  15   18.49    3.01
   2   2  16 1737.27   79.69
  -2  -2 -16 1834.16   83.73
  -2  -2 -16 1856.02   85.37
   2  -2  16 1873.55   85.83
   2  -2  17   84.38    7.16
   2   2  17   69.45    5.24
  -2   2 -17   66.04    7.07
  -2  -2 -17   36.91    2.58
  -2  -2 -17   94.70   11.36
   2   2  18  417.85   14.00
  -2   2 -18  415.61   13.82
  -2  -2 -18  437.27   14.05
  -2  -2 -18  455.37   17.96
   2  -2  18  446.85   14.88
   2  -2  19  182.74    9.47
  -2   2 -19  258.18   12.79
  -2  -2 -19  223.86   10.80
  -2  -2 -19  271.63   19.14
   2  -2  19  223.61   11.17
   2  -2  20  323.07   15.84
  -2   2 -20  332.50   15.97
  -2  -2 -20  265.53   12.72
  -2  -2 -20  309.89   19.41
   2  -2  20  278.44   13.68
  -2   2 -21  125.14   14.96
  -2  -2 -21   96.32   11.52
  -2  -2 -21  117.53   17.93
   2  -2  21   95.86   11.60
   2  -2  22   71.58    9.23
  -2   2 -22   86.83   10.66
  -2  -2 -22   54.81    6.94
  -2  -2 -22   82.18   13.07
   2  -2  22   70.08    8.82
   2  -2  23   29.97    5.16
   2   2  23   25.47    4.29
  -2   2 -23    9.60    2.33
  -2  -2 -23   31.03    4.52
  -2  -2 -23   33.60    7.44
   2  -2  23   30.99    4.82
   2   2  24  186.59    7.87
  -2   2 -24  192.61    7.76
  -2  -2 -24  140.72   18.05
  -2  -2 -24  133.35   20.83
   2  -2  24  164.15    6.70
   2  -2  25   67.68   10.61
   2   2  25   53.08    8.52
  -2   2 -25   57.83    9.09
  -2  -2 -25   74.30   11.14
  -2  -2 -25   68.20   13.18
   2  -2  25   60.42    9.55
   2   2  26  230.98   13.57
  -2   2 -26  222.33   12.68
  -2  -2 -26  213.69   11.92
  -2  -2 -26  212.38   18.13
   2  -2  26  258.52   14.74
   2  -2  27   12.68    4.08
   2   2  27   43.03   10.90
  -2   2 -27   27.47    7.04
  -2  -2 -27   20.91    5.37
  -2  -2 -27   24.36    6.60
   2  -2  27   18.87    5.51
   2  -2  28  211.37   14.98
   2   2  28  268.63   18.77
  -2   2 -28  238.44   16.77
  -2  -2 -28  283.01   19.40
  -2  -2 -28  289.54   21.38
   2  -2  28  319.33   22.22
   2  -2  29   92.74    9.02
   2   2  29  100.20    8.14
  -2   2 -29   85.62    7.26
  -2  -2 -29   87.58    6.77
  -2  -2 -29   63.08   11.76
   2  -2  29   89.70    7.79
   2   2  30  209.69   23.90
  -2   2 -30  210.77   24.04
  -2  -2 -30  174.49   19.73
  -2  -2 -30  117.68   19.12
   2  -2  30  178.28   20.54
   2  -2  31   29.18    4.90
   2   2  31   53.43    7.29
  -2   2 -31   35.56    5.71
  -2  -2 -31   53.29    6.93
  -2  -2 -31   37.74    8.72
   2  -2  31   58.02    7.85
  -2  -3  30  153.79   19.20
   2   3 -30  155.40   18.15
   2  -3 -30  203.08   23.60
  -2  -3  29    7.82    3.16
   2   3 -29   23.61    3.81
   2  -3 -29    7.74    2.99
  -2  -3  28  461.84   32.29
   2   3 -28  472.10   31.88
   2  -3 -28  524.99   58.35
  -2  -3  27    5.25    3.73
   2   3 -27    7.93    3.09
   2  -3 -27   19.39    5.38
  -2  -3  26  684.93   49.23
   2   3 -26  713.51   50.58
   2  -3 -26  778.13  168.22
  -2  -3  25    8.94    4.77
   2   3 -25    1.07    1.72
   2  -3 -25    2.05    2.10
  -2  -3  24  491.63   27.02
   2   3 -24  522.80   27.61
   2  -3 -24  569.29   30.24
  -2  -3  23   30.23    5.88
   2   3 -23   43.15    6.82
   2  -3 -23   45.96    7.49
  -2  -3  22  516.37   17.30
   2   3 -22  399.71   12.69
   2  -3 -22  579.18   18.48
   2  -3 -22  428.83   13.21
  -2  -3  21  114.82   14.29
   2   3 -21  143.57    8.21
   2  -3 -21  163.31    9.69
   2  -3 -21  113.83   13.30
   2   3 -20  107.64   12.71
   2  -3 -20  112.04   13.50
   2  -3 -20   78.91    9.38
  -2   3  19  113.93   13.28
   2   3 -19  118.22   13.88
   2  -3 -19  185.48   10.72
   2  -3 -19  139.96    7.77
  -2   3  18  276.80   12.90
   2   3 -18  293.11   13.89
   2  -3 -18  344.22   16.58
   2  -3 -18  284.89   13.41
  -2   3  17  131.70    6.31
   2   3 -17  136.23    6.71
   2  -3 -17  133.26    7.16
  -2  -3  17   94.79    4.71
   2  -3 -17  116.12    5.82
  -2   3  16  384.81   17.74
   2   3 -16  454.72   21.07
   2  -3 -16  459.28   21.72
  -2  -3  16  320.34   14.87
   2  -3 -16  420.36   19.53
  -2  -3  15   61.20    9.27
  -2   3  15   29.32    2.00
   2   3 -15   40.52    2.80
   2  -3 -15   65.37    4.70
  -2  -3  15   40.24    2.76
   2  -3 -15   66.31    4.33
  -2   3  14  687.13   21.18
   2   3 -14  874.35   27.14
   2  -3 -14  638.11   20.40
  -2  -3  14  605.07   18.94
   2  -3 -14  749.16   23.38
  -2  -3  13   23.99    4.59
  -2   3  13    9.49    0.74
   2  -3 -13   19.89    1.37
   2   3 -13   19.54    1.92
  -2  -3  13    6.72    2.13
   2   3 -12 1963.68   89.56
   2  -3 -12 1818.58   83.19
  -2  -3  12 1725.65   78.79
   2  -3 -12 2084.63   95.12
  -2  -3  11  163.36   13.81
   2   3 -11  200.96   11.30
  -2  -3  10 1003.78   27.03
   2   3 -10 1048.80   60.23
  -2  -3  10  964.57   25.20
  -2  -3   9  238.79   13.88
   2   3  -9  172.35    9.64
  -2  -3   9  276.91   15.42
   2  -3  -9  286.02   16.26
  -2  -3   9  212.50   12.00
  -2  -3   8  537.03   19.48
   2   3  -8  694.54   18.00
  -2  -3   8  631.01   16.46
   2  -3  -8  596.98   16.18
  -2  -3   8  506.19   17.78
   2  -3  -8  646.22   17.07
  -2  -3   7  540.07   19.65
   2   3  -7  690.77   17.86
  -2  -3   7  670.51   17.39
   2  -3  -7  629.56   16.96
  -2  -3   7  538.05   18.86
   2  -3  -7  679.38   17.84
  -2  -3   6   29.01    3.35
  -2   3   6   27.02    2.51
  -2  -3   6   32.28    1.92
  -2  -3   6   31.38    2.76
   2  -3  -6   42.61    2.78
  -2  -3   5  462.40   15.90
  -2  -3   5  427.04   15.24
   2  -3  -5  489.02   17.10
  -2  -3   4  302.35   17.84
  -2   3   4  463.79   16.66
   2   3  -4  402.12   13.79
  -2  -3   4  342.24   11.75
  -2  -3   4  341.19   12.39
   2  -3  -4  392.15   13.86
  -2   3   3  714.04   19.24
  -2  -3   3  551.60   32.00
   2  -3  -3  656.07   17.38
  -2  -3   2  570.69   15.65
  -2  -3   2  654.09   17.69
  -2  -3   1  555.67   32.34
  -2   3   1  897.80   24.49
  -2  -3   1  688.46   18.55
  -2  -3   0 1027.55   27.31
   2  -3   1   16.07    1.06
  -2  -3  -1   17.79    2.40
   2  -3   1   19.54    1.18
  -2   3  -1   21.87    3.47
  -2  -3  -1   17.32    1.71
  -2  -3  -2 1025.64   27.44
  -2  -3  -2  904.94   24.07
  -2  -3  -3  109.24    6.86
   2  -3   3  118.71    6.66
  -2  -3  -3   88.47    5.48
   2  -3   4  727.42   18.83
  -2   3  -4  601.26   15.77
  -2   3  -4  712.36   19.59
  -2  -3  -4  719.30   19.61
   2  -3   4  865.75   22.99
   2  -3   5  497.23   17.25
  -2   3  -5  540.83   18.81
  -2  -3  -5  495.36   17.97
   2  -3   5  595.98   16.27
   2  -3   6   71.63    3.99
  -2   3  -6   60.49    3.49
  -2   3  -6   74.65    7.88
  -2  -3  -6   82.81    5.32
   2  -3   6   95.01    5.80
   2  -3   7 1207.92   13.35
  -2  -3  -7 1185.29   15.04
   2  -3   7 1338.67   16.02
   2  -3   8  484.49   16.93
  -2  -3  -8  638.83   16.41
  -2  -3  -8  518.61   17.76
  -2  -3  -8  481.72   17.69
   2  -3   8  522.43   18.87
   2  -3   9  585.67   15.49
   2   3   9  510.12   18.47
  -2  -3  -9  722.78   18.61
  -2  -3  -9  625.73   16.12
  -2  -3  -9  603.76   16.80
   2  -3   9  630.22   17.27
   2   3  10   81.26    5.32
  -2  -3 -10   68.84    3.77
  -2  -3 -10   63.94    3.52
  -2  -3 -10   66.52    4.98
   2  -3  10   59.93    3.99
   2  -3  11  568.66   17.86
   2   3  11  640.10   20.75
  -2  -3 -11  568.47   17.58
   2  -3  11  641.66   20.48
   2  -3  12  197.79   11.67
   2   3  12  258.06   15.53
  -2  -3 -12  218.36   12.69
   2   3  12  258.80   14.98
  -2  -3 -12  220.56   13.53
   2  -3  12  226.79   13.57
   2  -3  13  258.40   15.14
   2   3  13  361.56   12.42
  -2  -3 -13  303.51   17.58
  -2  -3 -13  304.48   15.02
   2  -3  14  457.57   14.65
   2   3  14  542.49   17.87
  -2  -3 -14  535.36   16.73
  -2  -3 -14  514.68   17.29
   2   3  15   81.74    5.01
  -2   3 -15   80.65    4.91
  -2  -3 -15   72.39    3.89
  -2  -3 -15   77.41    5.45
   2  -3  15   52.45    3.70
   2  -3  16  210.66   10.41
   2   3  16  168.95    8.79
  -2   3 -16  164.25    8.47
  -2  -3 -16  190.30    9.12
  -2  -3 -16  207.26   10.83
   2  -3  16  246.08   12.26
   2  -3  17  173.73    8.79
   2   3  17  185.68    9.66
  -2   3 -17  184.48    9.38
  -2  -3 -17  176.42    8.54
  -2  -3 -17  193.50   10.35
   2  -3  17  178.83    9.39
   2  -3  18   86.93   10.76
   2   3  18  142.19    8.54
  -2   3 -18  141.85    8.49
  -2  -3 -18   89.10   10.54
  -2  -3 -18   97.57   12.22
   2  -3  18   62.19    8.01
   2  -3  19  444.10   23.80
   2   3  19  418.96   22.88
  -2   3 -19  458.00   24.66
  -2  -3 -19  403.77   21.52
  -2  -3 -19  451.97   26.18
   2  -3  19  527.29   28.46
   2  -3  20    5.58    1.92
   2   3  20   30.88    4.81
  -2   3 -20   25.32    5.45
  -2  -3 -20   21.25    2.95
  -2  -3 -20   34.10    5.60
   2  -3  20   18.97    4.36
   2   3  21  697.49   21.91
  -2  -3 -21  574.95   17.68
  -2  -3 -21  590.98   22.69
   2  -3  21  629.89   19.98
   2  -3  22   -1.48    1.77
   2   3  22    2.50    2.32
  -2   3 -22   -0.59    3.04
  -2  -3 -22   -0.24    1.07
  -2  -3 -22    7.36    2.60
   2  -3  22   -0.36    1.99
   2  -3  23  339.23   18.39
   2   3  23  451.44   24.30
  -2   3 -23  463.40   25.00
  -2  -3 -23  400.52   21.23
  -2  -3 -23  406.63   24.66
   2  -3  23  444.81   24.19
   2  -3  24   15.85    4.16
   2   3  24   22.82    5.92
  -2   3 -24   13.93    4.66
  -2  -3 -24   35.51    8.59
  -2  -3 -24   30.73    8.97
   2  -3  24   13.23    4.38
  -2   3 -25  204.45   15.40
  -2  -3 -25  231.33   16.79
  -2  -3 -25  194.92   20.96
   2  -3  25  244.73   18.41
   2  -3  26   83.41    6.89
   2   3  26   94.83    7.67
  -2   3 -26   98.97    8.02
  -2  -3 -26  115.30    8.50
  -2  -3 -26   96.07   16.01
   2  -3  26  129.67   10.36
   2  -3  27   11.06    3.06
   2   3  27   21.48    5.67
  -2   3 -27   27.74    7.10
  -2  -3 -27   43.06    9.70
  -2  -3 -27   25.18    9.26
   2  -3  27   40.23    9.68
   2  -3  28   66.19    8.13
   2   3  28   91.55   11.08
  -2   3 -28   90.94   11.03
  -2  -3 -28   58.39   12.24
   2  -3  28   74.21    9.91
   2  -3  29    5.09    1.96
   2   3  29   16.61    3.74
  -2   3 -29   13.56    2.95
  -2  -3 -29    8.61    3.37
   2  -3  29   15.52    3.80
  -2  -4  27   39.37    7.51
   2   4 -27   34.26    4.87
   2  -4 -27   29.86    4.77
  -2  -4  26   12.12    4.51
   2   4 -26    3.46    1.81
   2  -4 -26   14.65    3.80
  -2  -4  25   29.56    7.48
   2   4 -25   63.71    5.12
   2  -4 -25   49.83    5.10
  -2  -4  24    7.90    4.15
   2   4 -24   11.35    3.20
   2  -4 -24    9.82    3.40
  -2  -4  23  137.32   11.86
   2   4 -23  154.61   11.42
   2  -4 -23  165.91   12.59
  -2  -4  22  169.80   13.43
   2   4 -22  212.49   15.49
   2  -4 -22  249.50   18.40
   2  -4 -22  187.77   13.62
  -2  -4  21  353.84   19.78
   2   4 -21  392.33   20.82
   2  -4 -21  356.10   18.90
  -2  -4  20  412.51   23.24
   2  -4 -20  374.81   19.92
  -2  -4  19  446.96   15.16
   2   4 -19  440.00   13.68
   2  -4 -19  432.08   13.51
  -2  -4  18   40.92    9.39
   2   4 -18   40.79    5.55
   2  -4 -18   63.25    8.62
   2  -4 -18   62.01    8.17
  -2  -4  17   28.18    6.39
   2   4 -17   64.78    8.49
  -2  -4  17   30.73    4.29
   2  -4 -17   38.23    5.28
  -2  -4  16  216.45   14.56
   2   4 -16  307.50   16.48
   2  -4 -16  267.68   14.78
  -2  -4  16  210.20   11.57
   2  -4 -16  236.80   12.89
  -2  -4  15  123.10   17.32
   2   4 -15  139.56    7.80
   2  -4 -15  153.56    8.87
  -2  -4  15  111.49   13.16
   2  -4 -15  125.03   14.66
  -2  -4  14  435.88   24.91
   2   4 -14  512.96   27.07
  -2  -4  14  447.79   23.80
  -2  -4  13   93.43   12.45
   2   4 -13   73.96    8.69
  -2  -4  13   79.37    9.52
  -2  -4  12  163.05   11.32
   2   4 -12  158.02    7.57
  -2  -4  12  143.00    7.33
   2  -4 -12  231.19   11.20
  -2  -4  11  390.42   22.39
   2   4 -11  438.28   20.22
  -2  -4  11  391.95   18.41
   2  -4 -11  444.65   20.76
  -2  -4  10  382.39   18.50
   2   4 -10  336.85   15.58
  -2  -4  10  355.22   16.67
  -2  -4   9  209.45   13.02
   2   4  -9  322.24   14.92
  -2  -4   9  225.05   10.96
  -2  -4   8  310.29   15.36
   2   4  -8  368.21   11.53
  -2  -4   8  317.38   10.61
  -2  -4   7  265.33   16.07
   2   4  -7  387.78   12.11
  -2  -4   7  260.72   15.55
  -2  -4   6  162.97   10.33
  -2   4   6  184.67   11.35
   2   4  -6  154.23    8.96
  -2  -4   6  192.33   11.83
  -2  -4   5  542.24   18.11
   2   4  -5  624.50   19.20
  -2  -4   5  580.95   18.67
  -2  -4   4  324.98   11.28
  -2  -4   4  399.53   13.55
  -2  -4   3  152.28   10.53
  -2  -4   3  164.96    9.98
  -2  -4   2  153.68    9.84
  -2  -4   2  185.50   11.36
  -2  -4   1  384.13   13.35
  -2  -4   1  341.55   11.45
  -2  -4   0  873.34   28.04
  -2  -4   0  760.58   24.22
  -2  -4  -1  756.88   24.68
  -2  -4  -1  620.49   20.02
  -2  -4  -2  314.32   15.59
   2  -4   2  226.34   13.06
  -2  -4  -2  254.39   15.40
  -2  -4  -3  610.39   20.12
   2  -4   3  551.35   17.08
  -2  -4  -3  493.30   16.16
   2  -4   4  123.27    7.27
  -2   4  -4  154.90   15.14
  -2  -4  -4  117.57    7.41
   2   4   5   98.86    6.69
  -2   4  -5  150.29   12.32
  -2  -4  -5   54.96    4.50
   2   4   6  500.65   16.75
  -2   4  -6  504.31   16.38
  -2  -4  -6  463.24   15.44
   2  -4   6  619.35   20.06
   2  -4   7  611.39   19.11
   2   4   7  585.36   19.34
  -2   4  -7  628.65   20.17
  -2  -4  -7  621.41   20.42
   2  -4   7  758.51   24.23
   2  -4   8  415.22   13.12
   2   4   8  474.30   16.09
  -2  -4  -8  467.53   15.71
   2  -4   8  516.59   17.27
   2  -4   9  107.77    5.33
   2   4   9  168.02    9.03
  -2  -4  -9  125.51    6.94
   2  -4   9  130.44    7.06
   2  -4  10  105.12    5.32
   2   4  10   77.35    4.90
  -2  -4 -10  121.55    7.05
   2  -4  10  121.80    6.85
   2  -4  11  300.32   14.06
   2   4  11  362.25   17.57
   2  -4  11  388.70   18.53
   2  -4  12   70.52    8.40
   2   4  12   65.72    8.31
  -2  -4 -12   81.00    9.99
   2  -4  13   88.46   10.48
   2   4  13   61.58    7.85
  -2  -4 -13  104.07   12.80
   2  -4  13   99.39   12.27
   2  -4  14  303.67   16.26
   2   4  14  409.53   22.25
  -2  -4 -14  344.21   19.09
   2  -4  14  407.02   22.04
   2  -4  15  290.79   15.68
   2   4  15  336.31   18.44
  -2   4 -15  332.92   18.22
  -2  -4 -15  297.61   16.85
   2  -4  15  388.43   21.21
   2  -4  16   36.14    4.91
   2   4  16  109.60   14.30
  -2   4 -16  113.41   14.74
  -2  -4 -16   85.91   11.58
   2  -4  16   30.92    4.57
   2  -4  17  339.27   10.86
   2   4  17  448.70   14.85
  -2  -4 -17  408.70   14.01
   2  -4  17  480.01   15.73
   2   4  18  283.66   10.03
  -2   4 -18  299.36   10.93
  -2  -4 -18  314.72   11.42
   2  -4  18  322.10   10.95
   2  -4  19   53.22    8.10
   2   4  19  112.48   26.20
  -2   4 -19  104.34   15.71
  -2  -4 -19   78.39   11.99
   2  -4  19   54.61    8.82
   2  -4  20   14.40    2.94
   2   4  20   59.26    9.45
  -2   4 -20   56.74    8.97
  -2  -4 -20   33.98    6.10
   2  -4  20   28.33    5.23
   2  -4  21    1.88    1.55
   2   4  21   30.90    8.30
  -2   4 -21   15.13    4.69
  -2  -4 -21    2.64    2.75
   2  -4  21    3.49    2.52
   2  -4  22   11.24    3.27
   2   4  22   20.97    5.85
  -2   4 -22   23.70    6.32
  -2  -4 -22   16.38    5.30
   2  -4  22   14.68    4.67
   2   4  23   37.68    8.88
  -2   4 -23   49.89    5.07
  -2  -4 -23   59.05    8.32
   2  -4  23   61.45    6.30
   2   4  24  112.08    8.69
  -2   4 -24  125.52    9.73
  -2  -4 -24   87.16   13.49
   2  -4  24   78.43    7.30
   2  -4  25   11.98    2.63
   2   4  25   20.98    3.65
  -2   4 -25   16.18    3.70
  -2  -4 -25   33.23    6.29
   2  -4  25   26.83    4.86
   2   4  26  135.21   16.28
  -2   4 -26  134.78   16.15
  -2  -4 -26  108.52   23.94
   2  -4  26  179.26   21.27
  -2  -5  23  191.26   22.85
   2  -5 -23  240.37   27.68
  -2  -5  22   10.07    3.32
   2  -5 -22   20.69    3.77
   2  -5 -22    9.55    2.19
  -2  -5  21   56.46   21.07
   2  -5 -21  168.97   19.28
   2  -5 -21  114.40   13.08
  -2  -5  20    5.07    2.54
   2  -5 -20   20.17    5.69
   2  -5 -20    4.62    2.14
  -2  -5  19   28.84   13.19
   2  -5 -19   68.27    5.86
   2  -5 -19   60.02    4.79
  -2  -5  18   28.37   12.44
   2  -5 -18   77.94    6.86
   2  -5 -18   76.55    6.26
  -2  -5  17   48.74   18.51
   2  -5 -17  110.95    8.69
   2  -5 -17  104.93    8.13
  -2  -5  16    5.81    3.40
   2  -5 -16   22.48    5.70
   2  -5 -16    7.84    2.48
  -2  -5  15   91.15   15.51
   2  -5 -15  135.63    7.98
  -2  -5  15  111.80   25.98
   2  -5 -15  119.63    7.10
  -2  -5  14    3.10    1.65
  -2  -5  14    6.67    2.24
  -2  -5  13  579.39   31.09
   2  -5 -13  646.03   33.97
  -2  -5  13  602.16   31.72
   2  -5 -13  635.73   33.31
   2  -5 -12  198.54    7.52
   2  -5 -11  605.98   18.99
  -2  -5  11  610.29   19.04
  -2  -5  10   12.24    4.11
   2  -5 -10   18.25    3.30
  -2  -5  10   21.60    3.74
  -2  -5   9  101.92   13.31
   2  -5  -9  142.30   18.18
  -2  -5   8  231.25   13.07
   2  -5  -8  257.37   14.08
  -2  -5   7    4.33    2.84
   2  -5  -7   12.24    2.84
  -2  -5   7    9.96    2.06
  -2   5   6   91.01   11.00
  -2  -5   6   95.77   11.60
  -2  -5   5   26.12    6.74
  -2   5   5   55.70    7.14
  -2  -5   5   37.53    5.26
  -2   5   4  177.42   10.24
  -2  -5   4  116.91   14.09
   2  -5  -4  145.29    8.40
  -2   5   3  159.65    9.57
  -2  -5   3  141.11    8.49
  -2  -5   2  238.73   13.87
  -2   5   2  281.17   15.69
  -2  -5   2  208.78   11.81
  -2  -5   1  429.83   23.45
  -2   5   1  523.02   28.10
  -2  -5   1  368.95   20.06
  -2  -5   0   60.21    7.99
  -2   5   0   91.06   11.30
  -2  -5   0   46.02    6.03
  -2  -5  -1  182.78   11.09
  -2  -5  -1  143.86    8.34
  -2  -5  -2   63.32    8.39
  -2  -5  -2   49.18    6.47
  -2  -5  -3  334.30   18.78
  -2  -5  -3  252.60   14.15
   2   5   4   19.59    3.28
  -2  -5  -4   12.51    2.50
   2   5   5  219.72   12.57
  -2  -5  -5  183.09   10.79
   2   5   6   67.76    8.86
  -2  -5  -6   82.93   10.10
   2   5   7    8.87    3.66
  -2  -5  -7    6.20    2.19
   2   5   8  732.31   23.20
  -2  -5  -8  642.53   20.55
   2  -5   8  733.49   22.70
   2   5   9   73.79   10.10
  -2  -5  -9   58.99    8.66
   2  -5   9   43.39    6.45
   2   5  10  249.91    9.18
  -2  -5 -10  254.04    9.13
   2  -5  11   54.06    7.09
   2   5  11   54.00    7.55
  -2  -5 -11   69.80    9.54
   2   5  12   51.39    8.19
  -2  -5 -12   30.49    5.54
   2  -5  12   20.19    4.47
   2  -5  13   64.24    9.50
   2   5  13   65.12    9.92
  -2  -5 -13   78.93   12.19
   2  -5  13   96.72   14.60
   2  -5  14   82.90   12.25
   2   5  14   89.63   13.44
  -2  -5 -14   91.28   13.82
   2  -5  14  112.12   26.29
   2  -5  15   95.88    7.27
   2   5  15  124.13    9.82
  -2  -5 -15  120.60    9.86
   2  -5  15  126.56   10.03
   2  -5  16    8.99    2.43
   2   5  16   26.58    6.67
  -2   5 -16   22.43    8.08
  -2  -5 -16   38.65    9.72
   2  -5  16   21.99    5.88
   2  -5  17    4.85    1.87
   2   5  17   18.80    5.08
  -2   5 -17    7.78    4.38
  -2  -5 -17   13.47    4.49
   2  -5  17   13.03    4.73
   2  -5  18  180.13   12.47
   2   5  18  275.42   19.32
  -2   5 -18  274.72   20.28
  -2  -5 -18  260.53   18.74
   2  -5  18  280.58   19.61
   2  -5  19    9.36    2.75
   2   5  19   22.03    5.62
  -2   5 -19   10.82    3.98
  -2  -5 -19   28.17    7.20
   2  -5  19   18.02    4.60
   2  -5  20   51.40    6.23
   2   5  20   98.05   11.49
  -2   5 -20  106.14   14.10
  -2  -5 -20  116.02   13.93
   2  -5  20  117.94   14.08
   2  -5  21   15.75    2.62
   2   5  21   47.13    6.28
  -2   5 -21   46.56    6.67
  -2  -5 -21   35.53    5.76
   2  -5  21   26.30    4.47
   2  -5  22   54.31    6.61
   2   5  22  130.96   15.57
  -2   5 -22  123.29   14.73
  -2  -5 -22  139.91   16.85
   2  -5  22  166.47   19.85
  -2  -6  17   11.40    6.65
   2  -6 -17   44.00    5.91
  -2  -6  16    6.33    5.74
   2  -6 -16   40.63    5.52
  -2  -6  15    3.31    2.28
   2  -6 -15   13.40    3.41
   2  -6 -15   14.10    3.30
  -2  -6  14   31.26   13.01
   2  -6 -14   80.13    9.63
   2  -6 -14   87.24   10.27
  -2  -6  13    5.19    2.71
   2  -6 -13   10.99    3.61
  -2  -6  13    1.45    1.53
  -2  -6  12   10.24    4.34
   2  -6 -12   24.58    5.96
  -2  -6  12    8.74    2.51
   2  -6 -12   22.91    5.53
  -2  -6  11   87.49    9.85
   2  -6 -11  149.94   10.71
  -2  -6  11  130.33    9.88
   2  -6 -10  229.97   15.94
  -2  -6  10  189.53   13.69
  -2  -6   9   36.80    9.97
  -2  -6   9   64.35   14.52
  -2  -6   8   48.63   13.11
  -2  -6   8   66.50    6.30
  -2  -6   7   24.31    9.95
  -2  -6   7   50.16   12.00
   2  -6  -7   68.14    5.77
  -2  -6   6   74.47    6.32
  -2  -6   5   36.90    9.86
  -2  -6   5   47.29   11.31
  -2   6   4  356.98   25.79
  -2  -6   4  312.67   22.75
  -2   6   3   44.26   10.83
  -2  -6   3   10.69    3.29
  -2   6   2  154.77   11.84
  -2  -6   2  105.05    8.45
  -2  -6   1  115.03    9.27
  -2  -6   0   15.13    4.41
  -2  -6  -1  202.54   15.45
  -2  -6  -1  153.10   11.83
  -2  -6  -2   52.20   12.36
   2   6   3   40.63   10.03
  -2  -6  -3   57.60   13.87
   2   6   4    9.52    3.29
  -2  -6  -4   30.66    8.15
   2   6   5  183.40   13.88
  -2  -6  -5  137.44   10.88
   2   6   6  332.69   24.34
  -2  -6  -6  288.07   20.95
   2   6   7   24.39    6.49
   2   6   8  183.62   13.92
  -2  -6  -8  150.10   11.61
   2  -6   8  118.73    9.37
   2   6   9    7.17    2.98
  -2  -6  -9    6.22    2.55
   2  -6   9    5.33    2.06
   2   6  10    8.11    3.79
  -2  -6 -10    5.72    3.24
   2   6  11   88.96    7.16
  -2  -6 -11  101.76    8.12
   2   6  12   19.92    5.02
  -2  -6 -12   23.74    6.23
   2  -6  12    3.49    1.91
   2   6  13   16.43    3.44
  -2  -6 -13   15.29    3.25
   2  -6  13   11.95    3.32
   2   6  14   44.72    6.10
  -2   6 -14   31.34    8.47
  -2  -6 -14   51.29    7.23
   2  -6  14   45.78    6.52
   2   6  15   79.47    9.60
  -2   6 -15   48.39   10.70
  -2  -6 -15   84.73   10.75
   2  -6  15   83.63   10.39
   2   6  16   10.67    3.40
  -2  -6 -16    2.70    2.55
   2  -6  16    0.72    1.78
  -3   0  29   -0.09    2.58
   3   0 -29    0.82    1.60
  -3   0  28  363.16   40.68
   3   0 -28  376.37   41.85
  -3   0  27    8.14    3.06
   3   0 -27    8.21    3.19
  -3   0  26  554.08   39.79
   3   0 -26  529.03   37.76
  -3   0  25    5.34    2.59
   3   0 -25    4.58    2.38
  -3   0  24  215.31   16.06
   3   0 -24  220.01   16.26
  -3   0  23  476.95   25.57
   3   0 -23  462.29   24.61
  -3   0  22   15.83    3.64
   3   0 -22   23.22    4.09
  -3   0  21  375.95   12.57
   3   0 -21  412.91   13.37
  -3   0  20  232.81   16.15
   3   0 -20  261.43   14.50
  -3   0  19    6.28    2.03
   3   0 -19    9.96    2.43
  -3   0  18  394.65   21.29
   3   0 -18  471.77   25.22
  -3   0  17   78.60    7.99
   3   0 -17  108.26    6.05
  -3   0  16  859.06   39.74
   3   0 -16 1106.16  127.36
  -3   0  15  123.37    8.70
   3   0 -15  165.18    8.46
  -3   0  14  914.06   28.75
   3   0 -14 1202.95   37.46
  -3   0  13  380.54   12.49
   3   0 -13  538.60   17.28
  -3   0  12  290.50   17.13
   3   0 -12  415.52   13.60
   3   0 -12  341.64   10.56
  -3   0  11  355.83   11.68
   3   0 -11  477.00   15.29
   3   0 -11  303.85   17.52
   3   0 -11  480.24   14.87
  -3   0  10  312.37   14.78
   3   0 -10  433.04   13.88
   3   0 -10  453.70   14.16
   3   0  -9 1165.64   13.42
   3   0  -9 1181.52   12.84
  -3   0   8   10.70    1.38
   3   0  -8   12.82    1.35
   3   0  -8    3.67    0.78
   3   0  -8    9.97    1.19
  -3   0   7  748.28   19.86
   3   0  -7  949.73   24.78
   3   0  -7  887.05   23.01
  -3   0   6  786.84   21.06
   3   0  -6  750.86   19.76
   3   0  -6  756.82   19.83
  -3   0   5 1131.47   13.95
   3   0  -5 1035.35   59.52
   3   0  -5 1031.38   59.29
  -3   0   4  790.55   21.21
   3   0  -4  724.12   18.97
  -3   0   3   34.18    2.86
   3   0  -3   25.25    1.84
   3   0  -2  124.70    7.45
   3   0  -2  120.62    6.95
  -3   0   2  149.24    8.70
   3   0  -1   29.99    2.50
  -3   0   1   35.83    2.67
   3   0   0  809.43   21.68
  -3   0   0  955.35   24.90
  -3   0   0  897.07   23.74
   3   0   1  174.31   10.19
  -3   0  -1  202.96   11.44
  -3   0  -1  195.38   11.54
   3   0   2  220.47   12.66
  -3   0  -2  275.46   15.42
  -3   0  -2  237.55   13.63
  -3   0  -3 1174.97   14.70
   3   0   4   27.34    2.62
  -3   0  -4   13.35    2.72
   3   0   5 2221.32   25.18
  -3   0  -5 2313.30   26.26
   3   0   6   96.91    5.93
  -3   0  -6   81.88    5.51
   3   0   7 1262.17   15.41
  -3   0  -7 1213.57   13.78
  -3   0  -7 1314.52   16.31
   3   0   8   54.70    4.13
  -3   0  -8   52.17    6.87
  -3   0  -8   53.80    8.19
   3   0   9  593.35   19.11
  -3   0  -9  591.33   18.70
  -3   0  -9  620.49   20.32
   3   0  10   68.29    4.75
  -3   0 -10   71.62    7.56
  -3   0 -10   64.63    5.65
   3   0  11   42.06    3.91
  -3   0 -11   40.83    4.47
  -3   0 -11   22.76   10.88
   3   0  12  724.96   23.13
  -3   0 -12  778.92   24.36
  -3   0 -12  740.29   25.89
   3   0  13    1.63    1.96
  -3   0 -13    4.74    1.37
  -3   0 -13    5.54    1.71
   3   0  14    8.11    2.88
  -3   0 -14   19.03    1.80
   3   0  15  424.65   20.14
  -3   0 -15  442.88   20.63
  -3   0 -15  437.52   21.20
   3   0  16   29.49    4.22
  -3   0 -16   35.84    5.04
  -3   0 -16   37.53    8.16
   3   0  17  753.36   39.95
  -3   0 -17  738.69   38.98
  -3   0 -17  745.29   39.99
   3   0  18   40.09    5.90
  -3   0 -18   36.43    4.87
  -3   0 -18   24.10    4.88
   3   0  19  314.65   10.87
  -3   0 -19  319.16   10.38
  -3   0 -19  316.35   11.33
   3   0  20   15.80    3.28
  -3   0 -20   14.65    3.26
  -3   0 -20    8.68    5.16
   3   0  21  773.84   40.68
  -3   0 -21  828.19  190.61
  -3   0 -21  862.77  198.69
   3   0  22    5.51    2.17
  -3   0 -22    0.93    1.59
  -3   0 -22    0.45    3.22
  -3   0 -23  690.17   48.96
  -3   0 -23  775.16  167.67
  -3   0 -24    4.38    2.40
  -3   0 -24   10.19    4.74
  -3   0 -25  113.99    8.67
  -3   0 -25  117.74    9.68
   3   0  26   10.14    3.79
  -3   0 -26    0.84    1.56
  -3   0 -26    0.62    2.56
   3   0  27    9.07    3.08
  -3   0 -27    8.25    2.13
  -3   0 -27    4.13    2.43
   3   0  28   13.82    3.35
  -3   0 -28    4.70    2.50
  -3   0 -28   10.45    3.52
  -3  -1  29    7.96    4.14
   3   1 -29    6.95    2.52
  -3  -1  28   14.50    4.08
   3   1 -28   20.98    3.67
  -3   1  27   28.91    7.16
  -3  -1  27   36.42    8.98
   3   1 -27   31.20    7.38
   3  -1 -27   51.32    4.77
  -3  -1  26   35.12    8.52
   3   1 -26   54.32    4.81
   3  -1 -26   64.25    5.59
  -3   1  25  408.29   29.37
  -3  -1  25  467.54   33.82
   3   1 -25  484.14   34.56
   3  -1 -25  495.39   35.50
  -3   1  24  253.17   18.62
  -3  -1  24  200.24   15.09
   3   1 -24  260.05   18.90
   3  -1 -24  239.02   17.61
  -3  -1  23  643.96   34.27
  -3   1  23  777.28   40.91
   3   1 -23  738.77   38.68
   3  -1 -23  787.44   41.43
  -3  -1  22  167.66   10.43
  -3   1  22  132.08    7.74
   3   1 -22  157.04    9.16
   3  -1 -22  218.54   12.52
  -3   1  21  144.79   18.55
  -3  -1  21  204.86   15.57
   3   1 -21  194.89    6.98
   3  -1 -21  270.79    9.45
  -3   1  20  511.81   16.19
  -3  -1  20  464.82   15.21
   3   1 -20  523.86   16.33
   3  -1 -20  583.31   18.46
  -3   1  19  262.46   14.33
  -3  -1  19  206.04   12.45
   3   1 -19  280.33   15.24
   3  -1 -19  266.56   14.90
  -3  -1  18   50.37    7.44
  -3   1  18   90.73   11.49
   3   1 -18   97.21   11.58
   3  -1 -18   69.59    8.76
  -3  -1  17  382.10   21.23
  -3   1  17  300.24   16.22
   3   1 -17  364.55   19.52
   3  -1 -17  464.06   24.93
  -3   1  16  209.40   10.20
  -3  -1  16  278.73   14.08
   3   1 -16  263.10   12.66
   3  -1 -16  350.41   16.73
  -3  -1  15  157.09    8.09
  -3   1  15  107.46    5.56
   3   1 -15  157.34    7.84
   3  -1 -15  193.78    9.73
  -3  -1  14 1019.52  117.46
  -3   1  14 1118.75  128.75
   3   1 -14 1332.89  153.34
   3  -1 -14 1236.65  142.36
   3  -1 -14  891.13   40.65
  -3   1  13  915.64   28.56
   3   1 -13 1172.34   36.47
   3  -1 -13 1122.68   35.08
   3  -1 -13  939.68   28.85
  -3   1  12  278.85   16.32
  -3  -1  12  314.46   15.12
   3   1 -12  394.75   12.90
   3  -1 -12  374.82   12.29
   3   1 -12  350.53   10.83
  -3   1  11  311.29   14.56
  -3  -1  11  306.05   14.68
   3   1 -11  454.34   14.56
   3  -1 -11  410.48   12.85
   3   1 -11  366.39   11.39
  -3   1  10  131.07    7.87
  -3  -1  10  189.62   11.45
   3   1 -10  209.85   12.50
   3  -1 -10  217.69   12.94
   3  -1 -10  148.80    8.79
   3   1 -10  150.32    8.75
   3  -1 -10  264.51   15.40
  -3   1   9  416.54   13.26
  -3  -1   9  407.80   13.37
   3  -1  -9  463.55   14.85
  -3  -1   9  490.58   15.28
   3   1  -9  438.01   13.60
   3  -1  -9  587.70   18.33
  -3   1   8  168.65   10.12
  -3  -1   8  142.17    8.70
   3   1  -8  209.29   12.35
   3  -1  -8  171.67   10.25
  -3  -1   8  179.87   10.58
   3   1  -8  132.74    7.80
   3  -1  -8  217.65   12.80
  -3   1   7 1050.15   60.49
   3  -1  -7  917.50   24.10
  -3  -1   7  984.66   25.62
   3  -1  -7 1073.00   61.66
  -3   1   6  493.13   17.48
  -3  -1   6  280.85   16.01
   3  -1  -6  340.35   12.21
  -3  -1   6  358.46   12.87
   3  -1  -6  360.25   12.78
  -3  -1   5  177.09   10.31
   3  -1  -5  221.15   12.57
   3   1  -5  231.27   12.87
   3  -1  -5  221.54   12.55
  -3  -1   5  241.06   13.66
   3  -1  -5  256.38   14.45
  -3  -1   4  878.50   23.55
   3  -1  -4  866.24   22.89
   3   1  -4  911.72   23.66
   3  -1  -4  882.98   23.22
  -3  -1   4  937.27   24.67
   3  -1  -4  910.08   23.78
  -3  -1   3  121.23    7.53
   3  -1  -3  107.22    6.12
   3   1  -3  158.03    8.85
   3   1  -3  178.34   10.01
  -3  -1   3  110.37    6.98
   3  -1  -3  111.07    6.80
  -3  -1   2 1650.75   19.61
  -3   1   2 1653.54   18.68
  -3  -1   2 1624.83   19.83
   3  -1  -2 1525.93   17.09
  -3  -1   1  861.50   23.30
   3  -1  -1  763.60   20.29
  -3   1   1  773.34   20.56
   3   1  -1  639.20   16.61
  -3  -1   1  808.14   22.27
   3  -1  -1  765.38   20.69
   3  -1   0  404.65   14.49
   3   1   0  459.21   16.68
   3   1   0  502.58   17.36
   3   1   0  470.64   16.28
  -3  -1   0  389.47   15.74
   3  -1   0  404.06   14.61
   3  -1   1  340.23   12.27
   3   1   1  277.82   15.93
  -3   1  -1  357.19   12.94
   3   1   1  274.40   15.20
   3   1   1  265.47   14.73
  -3  -1  -1  311.81   11.64
   3  -1   1  308.93   11.42
   3  -1   2  466.72   16.57
   3   1   2  430.54   15.72
   3   1   2  427.50   14.78
  -3  -1  -2  436.07   15.69
   3  -1   2  453.18   16.30
   3  -1   3  620.42   16.63
   3   1   3  639.23   17.66
  -3  -1  -3  705.14   18.32
   3   1   3  629.07   16.30
  -3  -1  -3  585.64   16.44
   3  -1   3  570.64   15.65
   3  -1   4  466.28   16.53
   3   1   4  492.44   17.89
  -3  -1  -4  553.11   31.86
   3   1   4  455.95   15.75
  -3  -1  -4  410.87   14.94
   3  -1   4  435.06   15.66
   3  -1   5  367.63   13.17
   3   1   5  367.41   13.64
  -3  -1  -5  454.04   15.86
   3   1   5  329.23   11.45
  -3  -1  -5  323.05   12.27
   3  -1   5  387.33   14.31
   3  -1   6  139.65    8.15
   3   1   6  130.91    8.07
  -3  -1  -6  184.87   10.85
   3   1   6  123.31    6.94
  -3  -1  -6  135.17    8.10
   3  -1   6  148.47    8.81
   3  -1   7  122.22    7.51
   3   1   7  152.59    9.77
  -3  -1  -7  164.04   10.10
  -3   1  -7  157.02    9.51
   3   1   7  131.26    7.69
  -3  -1  -7   95.57    6.24
   3  -1   7  117.73    7.60
   3  -1   8  313.32   14.80
   3   1   8  332.17   11.45
  -3   1  -8  310.47   15.19
  -3  -1  -8  305.31   14.14
   3   1   8  274.27   15.88
  -3  -1  -8  277.40   16.64
   3  -1   9  267.09   15.77
   3   1   9  268.03   16.15
  -3   1  -9  246.36   15.04
  -3  -1  -9  261.45   15.35
  -3  -1  -9  234.19   18.43
   3  -1  10  459.62   14.91
   3   1  10  510.21   16.94
  -3  -1 -10  476.70   14.98
  -3  -1 -10  453.25   26.18
   3  -1  11  490.88   15.87
   3   1  11  448.83   14.98
  -3  -1 -11  478.72   15.11
  -3   1 -11  414.20   17.19
  -3  -1 -11  408.04   15.40
   3  -1  12  925.27   28.99
   3   1  12  888.62   28.39
  -3  -1 -12  891.56   27.68
  -3   1 -12  858.10   27.55
  -3  -1 -12  854.68   27.44
   3  -1  13  354.40   17.00
   3   1  13  396.20   18.96
  -3  -1 -13  362.81   16.93
  -3  -1 -13  278.62   13.79
   3  -1  14  924.36   42.68
   3   1  14  919.34   42.60
  -3  -1 -14  987.60   45.27
  -3  -1 -14  877.24   40.85
   3  -1  15  124.98    7.20
   3   1  15   97.38    5.83
  -3  -1 -15  124.89    6.35
  -3   1 -15  113.56    6.12
  -3   1 -15   82.88    5.69
   3  -1  16  127.04   15.09
   3   1  16  103.49   12.49
  -3   1 -16  115.26   13.68
  -3  -1 -16  141.76    8.01
  -3   1 -16  123.73   14.94
  -3  -1 -16  136.45   12.09
   3  -1  17  107.88   13.05
   3   1  17   87.91   11.09
  -3   1 -17   88.05   10.59
  -3  -1 -17  113.49   13.33
  -3   1 -17   73.85    9.45
  -3  -1 -17  116.60   15.75
   3  -1  18    8.96    2.63
   3   1  18   14.93    3.51
  -3   1 -18    8.23    2.11
  -3  -1 -18    2.30    1.34
  -3   1 -18    6.18    2.20
  -3  -1 -18    6.37    2.70
   3  -1  19   19.56    3.99
   3   1  19   17.00    3.70
  -3   1 -19   19.76    3.45
  -3  -1 -19   19.92    3.16
  -3   1 -19    9.66    3.07
  -3  -1 -19   25.36    5.51
   3  -1  20    3.11    1.77
   3   1  20    8.80    3.18
  -3   1 -20    7.84    2.56
  -3  -1 -20   -0.05    0.99
  -3   1 -20    3.27    2.40
  -3  -1 -20   -0.72    2.31
   3  -1  21   44.44    7.79
   3   1  21   34.62    5.67
  -3  -1 -21   49.03    7.48
  -3   1 -21   41.87    6.71
  -3   1 -21   46.74    7.78
  -3  -1 -21   48.20   10.74
   3  -1  22   98.61   14.96
   3   1  22   97.82   14.80
  -3  -1 -22  117.24   27.17
  -3   1 -22   97.45   14.56
  -3  -1 -22   80.00   18.89
   3  -1  23  133.33   10.79
   3   1  23  150.73   12.02
  -3  -1 -23  134.94   10.19
  -3   1 -23  135.32   10.40
  -3  -1 -23  131.22   15.02
   3  -1  24  436.84   31.45
   3   1  24  531.51   38.14
  -3  -1 -24  457.93   32.68
  -3   1 -24  530.09   37.89
  -3  -1 -24  490.95   35.55
   3  -1  25   45.05    6.27
   3   1  25   43.63    6.23
  -3  -1 -25   45.51    5.90
  -3   1 -25   47.16    6.31
  -3  -1 -25   35.36   10.79
   3  -1  26   57.05    7.12
   3   1  26   52.71    7.05
  -3  -1 -26   67.68    8.22
  -3   1 -26   59.22    7.66
  -3  -1 -26   41.06   12.68
   3  -1  26   54.20    7.48
   3   1  27   83.14   10.09
  -3  -1 -27   88.63   10.53
  -3   1 -27  110.39   12.96
  -3  -1 -27   73.88   19.46
   3  -1  27  113.68   14.02
   3  -1  28  125.19   15.11
   3   1  28  104.66   12.66
  -3  -1 -28  129.91   15.33
  -3   1 -28  123.01   14.75
  -3  -1 -28  131.62   17.48
   3  -1  28  157.65   19.23
  -3  -2  28    6.20    3.18
   3   2 -28    7.10    2.38
   3  -2 -28    3.37    1.88
  -3  -2  27  398.78   44.94
   3   2 -27  404.30   44.90
   3  -2 -27  449.84   51.09
  -3  -2  26   82.80   10.51
   3   2 -26  105.80   12.31
   3  -2 -26  108.03   12.97
  -3  -2  25  179.90   13.52
   3   2 -25  268.64   18.40
   3  -2 -25  233.81   16.55
  -3  -2  24   45.18   19.32
   3   2 -24   78.55    6.39
   3  -2 -24  131.79   10.40
  -3  -2  23   41.26   16.40
   3   2 -23   84.54    6.83
   3  -2 -23  111.27    9.09
  -3  -2  22   49.93   16.48
   3   2 -22  127.53    9.78
   3  -2 -22   98.75    8.09
  -3  -2  21  119.69    7.77
   3   2 -21  131.91    7.62
   3  -2 -21  163.54    9.75
  -3  -2  20  303.35   18.02
   3   2 -20  309.80   16.53
   3  -2 -20  384.95   20.90
  -3  -2  19  227.93    9.63
   3   2 -19  208.86    7.14
   3  -2 -19  276.09    9.67
  -3  -2  18  124.58   20.65
   3   2 -18  137.38   17.47
   3  -2 -18  166.89    6.79
  -3  -2  17  538.65   28.99
   3   2 -17  630.71   33.27
  -3  -2  16  160.35   12.52
   3   2 -16  168.64    9.26
   3  -2 -16  183.77   10.61
  -3   2  15  305.57   16.23
  -3  -2  15  319.32   17.64
   3   2 -15  396.20   21.05
   3  -2 -15  326.69   17.25
  -3   2  14  254.97   11.90
  -3  -2  14  324.06   17.47
   3   2 -14  343.15   16.03
   3  -2 -14  344.54   15.94
  -3   2  13  431.45   19.88
   3   2 -13  614.03   28.26
   3  -2 -13  548.35   25.21
  -3   2  12  126.52    6.11
  -3  -2  12   88.98    8.71
   3   2 -12  139.80    6.73
   3  -2 -12  109.62    5.97
  -3  -2  12  100.09    4.93
   3  -2 -12  167.76    7.96
  -3   2  11  453.32   20.93
  -3  -2  11  446.37   21.22
   3   2 -11  456.51   21.05
  -3  -2  11  491.25   22.63
   3  -2 -11  528.40   24.29
   3   2 -10  496.77   15.53
  -3  -2  10  402.71   12.72
   3  -2 -10  461.25   14.52
  -3  -2   9   35.18    6.06
   3  -2  -9   35.04    2.40
   3   2  -9   69.24    4.25
  -3  -2   9   29.85    5.29
  -3  -2   8  744.46   23.84
   3  -2  -8  869.92   26.92
   3  -2  -8  886.73   27.84
  -3  -2   8  913.19   28.60
   3  -2  -8 1113.52   34.42
  -3  -2   7  348.39   11.79
   3  -2  -7  430.95   13.55
  -3  -2   7  448.10   14.73
   3  -2  -6  549.62   17.15
   3   2  -6  634.64   19.59
   3  -2  -6  603.94   19.28
  -3  -2   6  592.31   19.13
  -3  -2   5  303.45   18.10
   3  -2  -5  362.51   11.30
   3  -2  -5  397.34   12.50
   3   2  -5  351.41   10.90
   3   2  -5  374.61   11.64
  -3  -2   5  399.85   13.00
  -3  -2   4  300.77   18.00
   3  -2  -4  306.02   14.11
  -3   2   4  409.55   13.43
   3   2  -4  336.17   10.41
   3   2  -4  337.21   10.47
  -3  -2   4  320.06   10.75
   3  -2  -4  421.34   13.61
  -3  -2   3  533.86   17.53
   3  -2  -3  576.90   17.96
  -3   2   3  598.13   19.14
   3   2  -3  496.29   15.26
   3   2  -3  479.87   14.76
  -3  -2   3  552.09   18.15
   3  -2  -3  690.19   21.72
  -3  -2   2  128.40    8.39
  -3   2   2  119.16    7.44
   3   2  -2   93.90    5.42
  -3  -2   2  130.41    8.06
  -3  -2   1  554.44   18.57
   3  -2  -1  467.87   14.66
  -3   2   1  556.47   17.88
  -3  -2   1  525.40   17.17
  -3  -2   0  108.45    7.58
   3  -2   0   69.71    5.00
  -3  -2   0   78.58    5.24
   3  -2   1   83.46    5.05
  -3  -2  -1  105.23    7.58
   3  -2   1  132.35    8.20
   3   2   2  660.60   21.54
  -3   2  -2  961.52   30.36
  -3  -2  -2  870.66   28.02
   3  -2   2  903.79   28.40
   3  -2   3    6.09    1.51
   3   2   3   36.09    3.88
  -3   2  -3   33.49    7.02
  -3  -2  -3   13.24    2.48
   3  -2   4 1848.15   84.39
   3   2   4 1846.85   84.91
  -3   2  -4 2624.38  120.00
  -3  -2  -4 1634.59   75.32
   3   2   5  911.76   29.27
  -3  -2  -5  802.44   26.23
   3  -2   5  829.61   26.21
   3  -2   6  989.74   30.82
   3   2   6  946.59   30.23
  -3  -2  -6  962.59   30.91
   3  -2   6  992.06   31.28
   3  -2   7  211.69   12.61
   3   2   7  200.48   12.67
  -3   2  -7  222.00   15.19
  -3  -2  -7  175.19   10.82
   3  -2   7  186.69   11.31
   3  -2   8  398.15   12.85
   3   2   8  273.95   16.56
  -3  -2  -8  350.57   10.85
  -3   2  -8  296.38   17.47
  -3  -2  -8  397.82   18.43
   3  -2   8  395.19   13.26
   3  -2   9   55.95    4.03
   3   2   9   44.87    4.29
  -3  -2  -9   64.75    3.97
  -3  -2  -9   63.39    7.94
   3  -2   9   39.74    3.45
   3  -2  10  166.24    8.19
   3   2  10  324.57   15.81
  -3  -2 -10  230.50   10.64
  -3  -2 -10  265.76   15.63
   3  -2  10  240.00   11.86
   3  -2  11   85.27    4.95
   3   2  11  105.16    6.36
  -3  -2 -11   70.29    3.50
  -3  -2 -11   90.08   13.05
   3  -2  11   70.79    4.54
   3  -2  12   81.82    5.03
   3   2  12   85.83    5.46
  -3  -2 -12   87.38    4.27
  -3  -2 -12   87.33   12.34
   3  -2  12   91.61    6.13
   3  -2  13   48.42    6.48
   3   2  13   50.40    6.64
  -3  -2 -13   42.89    5.09
  -3   2 -13   50.30    8.10
  -3  -2 -13   45.12    6.94
   3  -2  13   41.36    5.56
   3  -2  14   42.26    5.51
   3   2  14   60.86    8.19
  -3  -2 -14   53.73    6.37
  -3   2 -14   51.11    9.27
  -3  -2 -14   45.67    7.82
   3  -2  14   30.37    4.71
   3  -2  15  227.61   12.56
   3   2  15  241.50   14.01
  -3  -2 -15  257.88   13.74
  -3   2 -15  245.95   13.67
  -3  -2 -15  241.63   19.41
   3  -2  15  247.48   13.95
   3  -2  16  239.74   13.15
   3   2  16  380.29   20.83
  -3   2 -16  397.47   21.42
  -3  -2 -16  281.97   15.02
   3  -2  16  283.30   15.73
   3  -2  17   14.06    2.88
   3   2  17   15.46    3.31
  -3   2 -17   12.23    3.09
  -3  -2 -17   15.16    2.45
   3  -2  17    9.24    3.26
   3  -2  18  462.61   14.60
   3   2  18  584.54   18.62
  -3   2 -18  641.39   20.05
  -3  -2 -18  707.55   24.20
   3  -2  19    1.35    2.02
   3   2  19   12.17    2.93
  -3   2 -19    9.92    5.25
  -3  -2 -19    8.72    3.11
   3  -2  19    4.18    3.24
   3  -2  20  293.05   16.67
   3   2  20  489.38   26.29
  -3   2 -20  500.70   26.57
  -3  -2 -20  502.36   28.04
   3  -2  21  112.08    8.71
   3   2  21  193.70   14.70
  -3   2 -21  205.80   15.39
  -3  -2 -21  205.93   21.97
   3  -2  21  204.79   15.40
   3  -2  22   89.72    7.08
  -3   2 -22  190.16   14.28
  -3  -2 -22  155.93   18.15
   3  -2  22  179.63   13.91
   3  -2  23    4.40    1.99
   3   2  23   10.61    4.24
  -3   2 -23    0.81    2.02
  -3  -2 -23    5.19    2.77
   3  -2  23   10.22    4.71
   3  -2  24   54.15    5.25
   3   2  24   73.43    7.16
  -3   2 -24   91.81    7.60
  -3  -2 -24   52.96   12.67
   3  -2  24   86.11    8.21
   3  -2  25    2.28    1.75
   3   2  25    8.43    2.85
  -3   2 -25    9.24    2.92
  -3  -2 -25   11.85    3.63
   3  -2  25    6.68    3.26
   3  -2  26    3.28    1.75
   3   2  26    8.24    2.80
  -3   2 -26    6.50    3.06
  -3  -2 -26    2.07    1.61
   3  -2  26    3.04    2.31
  -3  -3  26   87.27   16.86
   3  -3 -26  189.35   22.08
  -3  -3  25   10.23    3.54
   3   3 -25   44.59    5.77
   3  -3 -25   29.80    4.88
  -3  -3  24  300.91   33.89
   3   3 -24  377.79   41.86
   3  -3 -24  427.85   47.67
  -3  -3  23    3.68    2.37
   3   3 -23    1.31    1.31
   3  -3 -23   18.58    5.52
  -3  -3  22  395.78   27.28
   3   3 -22  479.54   32.13
   3  -3 -22  527.71   58.52
   3   3 -21   21.42    5.35
   3  -3 -21   40.42   10.22
  -3  -3  20  275.41   22.14
   3   3 -20  264.83   19.00
   3  -3 -20  377.44   27.29
  -3  -3  19  136.81   10.39
   3   3 -19  175.09    9.59
  -3  -3  18  160.49   10.03
   3   3 -18  195.29   10.59
   3  -3 -18  216.79   12.17
  -3  -3  17  192.83   11.22
   3   3 -17  175.96    9.57
  -3  -3  16   24.28    7.46
   3   3 -16   49.03    6.39
   3  -3 -16   52.11    6.78
  -3  -3  15  298.59   11.34
   3   3 -15  383.62   11.81
   3  -3 -15  352.77   10.93
  -3  -3  14  129.91   17.79
   3   3 -14  186.92   10.12
   3  -3 -14  134.69    7.96
   3  -3 -14  172.74    9.50
  -3  -3  13  212.71   12.31
   3   3 -13  191.97   10.35
   3  -3 -13  204.97   11.14
  -3  -3  12  143.23   11.05
   3   3 -12  121.72   14.11
   3  -3 -12  193.47   10.52
  -3  -3  11  186.18   12.19
   3  -3 -11  209.46   11.74
  -3  -3  11  222.61   12.17
   3  -3 -11  244.12   13.12
   3  -3 -10  432.75   23.22
  -3  -3  10  426.20   22.73
   3  -3 -10  427.80   22.63
  -3  -3   9   19.41    4.35
   3  -3  -9   29.26    4.21
  -3  -3   9   12.34    2.16
   3  -3  -9   51.38    6.22
  -3  -3   8  556.99   26.42
   3  -3  -8  672.56   31.27
  -3  -3   8  762.14   35.33
   3  -3  -8  666.79   30.69
  -3  -3   7   58.72    9.33
  -3  -3   7   70.13    4.02
  -3  -3   6  371.17   17.71
  -3  -3   6  510.06   24.02
   3  -3  -6  517.36   23.97
  -3   3   5  245.18   12.07
  -3  -3   5  229.29   11.33
   3  -3  -5  327.43   15.46
  -3  -3   4  172.26    9.28
  -3   3   4  192.68    9.82
  -3  -3   4  152.41    7.79
  -3  -3   3  624.83   29.40
  -3   3   3  994.16   45.97
  -3  -3   3  665.58   31.21
  -3  -3   2   12.68    2.08
  -3  -3   2   11.71    3.14
  -3  -3   1  902.12   42.04
  -3  -3   1  935.52   43.68
  -3   3   0  364.13   17.58
  -3  -3   0  221.10   11.13
   3  -3   1  693.50   31.65
  -3   3  -1  950.06   44.03
  -3  -3  -1  840.91   39.31
  -3   3  -2   60.84    9.12
  -3  -3  -2   19.20    3.51
   3  -3   3  409.80   18.82
   3   3   3  542.87   25.82
  -3  -3  -3  501.05   23.87
   3  -3   3  493.94   23.13
   3  -3   4  127.22    6.03
   3   3   4   80.61    5.51
  -3   3  -4  125.23   11.90
  -3  -3  -4  146.96    8.32
   3   3   5   14.61    2.97
  -3   3  -5   25.38    4.97
  -3  -3  -5   24.29    3.59
   3  -3   5   20.68    2.57
   3  -3   6  415.04   19.15
   3   3   6  471.74   22.70
  -3   3  -6  660.44   30.93
  -3  -3  -6  465.89   22.48
   3  -3   6  460.39   21.72
   3  -3   7  202.30    9.56
   3   3   7  290.82   14.54
  -3  -3  -7  267.53   18.80
   3  -3   7  261.00   13.08
   3  -3   8   35.59    4.35
   3   3   8   49.65    6.87
  -3  -3  -8   77.87   13.36
   3  -3   8   66.37    8.21
   3  -3   9  481.39   25.44
   3   3   9  479.77   26.08
  -3  -3  -9  545.56   30.16
   3  -3   9  589.11   31.47
   3  -3  10  234.33   12.68
   3   3  10  313.84   17.51
  -3  -3 -10  283.20   16.28
   3  -3  10  252.99   14.12
   3  -3  11  552.16   29.19
   3   3  11  458.07   24.89
  -3  -3 -11  553.09   30.06
   3  -3  11  612.72   32.75
   3  -3  12   -0.75    1.32
   3   3  12   -0.35    2.46
  -3  -3 -12    7.17    2.65
   3  -3  12   -0.73    2.24
   3  -3  13  269.27    8.74
   3   3  13  319.89   11.30
  -3   3 -13  346.05   11.75
  -3  -3 -13  290.09   11.60
   3  -3  13  307.15   10.93
   3  -3  14    4.52    1.75
   3   3  14   18.95    3.97
  -3  -3 -14   11.75    3.23
   3  -3  14    3.12    2.01
   3  -3  15  445.51   14.12
   3   3  15  403.65   13.83
  -3  -3 -15  418.46   14.75
   3  -3  15  383.04   12.80
   3  -3  16   41.15    6.54
   3   3  16   47.07    7.76
  -3   3 -16   40.34   10.57
  -3  -3 -16   49.13   11.62
   3  -3  16   16.44    3.88
   3   3  17  313.06   17.42
  -3   3 -17  293.59   17.25
   3  -3  17  285.91   16.15
   3  -3  18    5.10    1.75
   3   3  18   26.17    7.04
  -3  -3 -18   14.76    5.07
   3  -3  18   15.58    4.46
   3  -3  19   -0.11    1.51
   3   3  19    4.12    2.58
  -3   3 -19    1.68    2.05
  -3  -3 -19    1.50    1.61
   3  -3  19    0.11    2.31
   3  -3  20   45.08   10.87
   3   3  20   47.95   11.68
  -3   3 -20   58.48   14.04
  -3  -3 -20   38.50   12.31
   3  -3  20   48.52   11.72
   3   3  21   91.99    7.47
  -3   3 -21   95.16    7.40
  -3  -3 -21  109.30   18.05
   3  -3  21  113.22    9.38
   3  -3  22   -0.10    1.75
   3   3  22    8.15    3.10
  -3   3 -22    1.49    1.94
  -3  -3 -22    3.41    2.27
   3  -3  22    5.69    2.61
  -3   3 -23  205.77   23.37
  -3  -3 -23  131.23   18.89
   3  -3  23  156.24   18.42
   3  -3  24    3.89    2.17
  -3   3 -24   12.59    3.04
  -3  -3 -24    9.57    3.61
   3  -3  24    7.62    3.29
  -3  -4  22   13.28    6.10
   3  -4 -22   41.62    6.12
  -3  -4  21    6.31    1.95
   3  -4 -21   -1.75    1.97
  -3  -4  20   81.02   11.57
  -3  -4  19  293.48   20.90
  -3  -4  18  229.80   16.39
  -3  -4  17   96.48   11.32
  -3  -4  16    8.25    2.98
   3  -4 -15  139.66   10.28
   3  -4 -13  102.01   15.17
   3  -4 -12  383.41   20.54
   3  -4 -12  414.92   21.87
  -3  -4  11   94.53   14.86
   3  -4 -11  157.77    9.11
   3  -4 -11  141.89    7.97
  -3  -4  10  169.68    9.74
   3  -4 -10  228.83    8.37
  -3  -4  10  217.35    7.86
   3  -4 -10  226.13    7.56
  -3  -4   9  371.05   12.27
   3  -4  -9  400.52   12.49
  -3  -4   8  312.98   10.62
   3  -4  -7  161.15    6.22
  -3  -4   7  154.05   22.56
  -3  -4   6   69.02    9.27
  -3  -4   5   28.29    4.56
  -3   4   5   51.12    6.61
  -3  -4   5   30.97    4.51
   3  -4  -5   68.05    8.24
  -3   4   4  171.46    9.97
  -3  -4   4  153.53    9.26
  -3   4   3  195.99   11.18
  -3  -4   3  192.90   11.36
  -3  -4   2   64.17    8.50
  -3   4   2  106.93   12.86
  -3  -4   2   80.24    9.84
  -3  -4   1  138.76    8.99
  -3   4   1  134.56    8.09
  -3  -4   1  155.04    9.30
  -3  -4   0   88.19   11.19
  -3   4   0  127.24   15.18
  -3  -4   0   78.92   10.17
  -3  -4  -1  164.01    9.96
  -3   4  -1  204.51   11.66
  -3  -4  -1  169.38   10.34
  -3   4  -2  225.84   12.78
  -3  -4  -2  204.93   12.23
   3   4   3  263.87   14.99
  -3   4  -3  398.83   21.79
  -3  -4  -3  322.57   18.10
   3   4   4  308.11   17.34
  -3  -4  -4  280.80   15.89
   3   4   5  196.53    8.01
  -3  -4  -5  180.01    7.50
  -3  -4  -6  140.12   18.48
  -3  -4  -7  173.50    8.16
   3  -4   7  186.15    7.28
  -3  -4  -8  249.86    9.85
  -3  -4  -9  248.98    9.57
   3  -4   9  232.71    9.23
  -3  -4 -10  148.83    9.46
   3  -4  10  166.33    9.86
  -3  -4 -11   32.15    5.80
   3  -4  11   34.05    6.27
  -3  -4 -12   -0.42    2.22
   3  -4  12   -0.08    2.23
   3   4  13   38.23    6.55
  -3   4 -13   35.99    8.75
  -3  -4 -13   37.05    6.31
   3  -4  13   29.51    5.83
   3   4  14   20.19    5.92
  -3   4 -14    6.22    2.40
  -3  -4 -14   13.95    5.09
   3  -4  14   12.35    4.38
   3   4  15   13.81    4.18
  -3   4 -15   15.30    5.35
  -3  -4 -15   24.09    7.17
   3  -4  15   20.24    6.07
   3   4  16  118.40    9.72
  -3   4 -16   96.62   11.58
  -3  -4 -16   69.88   16.51
   3  -4  16   99.19    8.02
   3   4  17   78.75    6.62
  -3   4 -17   58.77   15.59
  -3  -4 -17   67.70   14.56
   3  -4  17  102.42    8.81
   3   4  18  165.17   12.18
  -3   4 -18  134.43   11.32
   3   4  19  254.92   28.72
  -3   4 -19  249.43   28.90
  -3  -4 -19  242.00   28.11
   3  -4  19  239.65   27.20
   3  -4  20    9.43    2.01
  -3   4 -20   34.18   11.71
  -3  -4 -20   37.48   11.05
   3  -4  20   22.84    3.59
   3  -4  21    3.71    1.78
   3   4  21   16.08    3.59
  -3   4 -21    8.18    1.55
  -3  -4 -21    7.65    3.86
   3  -4  21   16.45    4.28
  -3  -5  17   16.33    9.70
   3  -5 -17   73.17    9.32
  -3  -5  16   15.35    6.33
   3  -5 -16   33.75    4.95
   3  -5 -16   25.46    3.77
  -3  -5  15   10.45    4.83
  -3  -5  14   32.60   11.49
   3  -5 -13    6.34    2.32
   3  -5 -13    3.85    1.52
  -3  -5  12   37.19   14.49
   3  -5 -12  110.65    8.35
   3  -5 -12  124.77    9.06
   3  -5 -11  276.90   18.85
   3  -5 -10  178.08   12.50
  -3  -5   9  193.71   14.74
   3  -5  -9  243.13   17.58
  -3  -5   8    3.12    2.68
   3  -5  -8   11.09    4.13
  -3  -5   8    8.46    3.27
   3  -5  -7   40.75    9.88
  -3  -5   7   46.28   11.43
   3  -5  -7   68.05    5.52
  -3  -5   6  105.39    8.82
  -3   5   5  119.94    9.56
  -3  -5   5  112.56    9.46
  -3  -5   4  110.36    9.38
   3  -5  -4   97.64    7.59
  -3  -5   3   17.89    5.32
  -3  -5   3   13.67    4.17
  -3  -5   2  126.11   10.39
  -3  -5   1   41.20   10.12
  -3  -5   0  546.45   39.31
  -3  -5  -1   60.56   14.47
   3   5   2   40.02    9.83
  -3  -5  -2   66.98    6.01
   3   5   3   30.21    7.78
  -3  -5  -3    5.88    2.58
   3  -5   3    8.80    3.26
   3   5   4   14.09    4.94
  -3  -5  -4    3.76    2.28
   3  -5   4   16.43    4.49
   3   5   5   45.58   11.21
  -3  -5  -5   36.06    8.97
   3   5   6   39.80    9.91
  -3  -5  -6   44.05   10.98
   3   5   7  104.25    8.78
  -3  -5  -7  113.87    9.63
   3   5   8  100.23    8.58
  -3  -5  -8  114.20    9.37
   3   5   9   10.65    5.15
  -3  -5  -9    0.28    2.53
   3   5  10  405.69   28.01
  -3  -5 -10  346.11   23.89
   3  -5  10  358.26   24.52
   3   5  11   19.38    5.45
  -3  -5 -11   23.19    6.25
   3  -5  11   11.60    4.20
   3   5  12  170.75   12.70
  -3  -5 -12  165.19   12.60
   3  -5  12  158.15   12.01
   3   5  13   26.13    4.99
  -3  -5 -13   16.74    4.48
   3  -5  13    2.50    2.44
   3   5  14   42.16    5.84
  -3  -5 -14   40.83    5.85
   3  -5  14   31.96    5.34
   3   5  15    5.29    2.71
  -3  -5 -15    9.55    3.52
   3  -5  15    2.79    2.39
   3   5  16  107.83   13.20
  -3  -5 -16  102.60   12.82
   3  -5  16  113.31   14.15
  -3  -6   7  106.22   12.95
  -3  -6   6    3.92    2.55
  -3  -6   6    7.62    2.62
  -3  -6   5   19.70    3.81
   3  -6  -5    9.51    2.34
  -3  -6   4    6.93    2.78
   3  -6  -4    2.47    1.50
  -3  -6   3   13.56    2.58
  -3  -6   2  131.14   15.84
   3  -6  -2  137.38   15.93
  -3  -6   1   15.00    3.17
  -3  -6   0   32.54    4.69
   3   6   1   52.30    7.21
  -3  -6  -1   48.28    6.92
   3   6   2    0.72    2.82
  -3  -6  -2   -2.08    2.23
   3  -6   2   12.90    3.58
   3   6   3  105.77   12.84
  -3  -6  -3  108.82   13.48
   3  -6   3   82.89    9.95
   3   6   4   44.85    6.52
  -3  -6  -4   56.20    7.59
   3   6   5   20.64    4.39
  -3  -6  -5   30.37    4.62
   3  -6   5   38.66    5.75
   4   0 -23   18.46    3.33
   4   0 -22  160.54   18.25
  -4   0  21  245.65   27.51
   4   0 -21  305.96   34.09
  -4   0  20    4.69    2.10
   4   0 -20   20.21    5.36
  -4   0  19  434.36   29.30
   4   0 -19  572.15   63.29
  -4   0  18   -0.03    1.30
   4   0 -18    6.62    2.82
  -4   0  17   15.37    5.88
   4   0 -17   40.36    9.68
  -4   0  16   84.05    8.76
   4   0 -16  151.59   11.33
  -4   0  15  208.27   11.49
   4   0 -15  309.23   16.72
  -4   0  14   85.44   13.48
   4   0 -14  120.97    7.06
  -4   0  13  586.31   30.83
   4   0 -13  855.93  196.99
  -4   0  12   34.21    5.51
  -4   0  11  146.73   18.84
   4   0 -11  171.32    6.10
  -4   0  10  145.03   18.70
  -4   0   9  209.79    7.64
   4   0  -9  205.54    6.99
  -4   0   8  211.50    7.79
   4   0  -8  200.02    6.51
  -4   0   7  317.81   17.40
   4   0  -7  291.47   15.60
   4   0  -6  108.24   12.76
   4   0  -5  953.19   50.40
   4   0  -5  887.25   46.59
   4   0  -4  126.39   15.03
   4   0  -4  120.87   14.22
   4   0  -3  685.84   36.48
   4   0  -3  699.78   36.98
   4   0  -2  108.73   13.01
   4   0  -2  106.00   12.58
   4   0  -1  168.94    9.71
   4   0  -1  161.45    9.17
   4   0   0  111.75   13.29
   4   0   0  114.75   13.62
   4   0   1  194.70   10.96
   4   0   2   62.47    7.76
  -4   0  -2   68.17    8.53
   4   0   3    3.59    1.74
  -4   0  -3    7.31    1.59
  -4   0  -3    4.43    2.60
   4   0   4   86.02   10.35
  -4   0  -4   94.06   11.51
   4   0   5  176.12   10.06
  -4   0  -5  186.69   10.88
   4   0   6    9.21    2.28
  -4   0  -6   13.29    3.95
   4   0   7  778.65   24.01
  -4   0  -7  840.98   26.21
   4   0   8    2.52    1.90
  -4   0  -8   -4.07    2.62
   4   0   9  477.35   15.35
  -4   0  -9  636.18   19.56
  -4   0  -9  509.41   16.90
   4   0  10    7.40    2.71
  -4   0 -10    7.31    2.46
  -4   0 -10    2.06    3.50
   4   0  11  476.22   25.33
  -4   0 -11  603.32   31.71
  -4   0 -11  456.28   24.79
   4   0  12    8.23    2.22
  -4   0 -12    4.63    1.99
  -4   0 -12    5.62    3.65
   4   0  13  246.56   13.78
  -4   0 -13  223.26   12.44
  -4   0 -13  241.54   14.27
   4   0  14   17.86    4.99
  -4   0 -14   10.63    3.09
  -4   0 -14    7.76    4.26
   4   0  15   27.61    6.89
  -4   0 -15   15.68    5.38
  -4   0 -15   26.53    7.04
   4   0  16   54.27   12.93
  -4   0 -16   24.87    8.05
  -4   0 -16   49.63   12.39
   4   0  17   26.19    6.35
  -4   0 -17   16.29    5.09
  -4   0 -17   28.64    7.50
   4   0  18   70.26    6.86
  -4   0 -18   82.30    8.15
   4   0  19   49.99    7.38
  -4   0 -19   27.39    4.98
   4   0  20    2.53    2.05
  -4   0 -20    5.36    3.77
   4   0  21  111.10   13.80
  -4  -1  22  202.85   23.53
   4   1 -22  249.85   28.46
  -4  -1  21   72.03    8.57
   4   1 -21  123.24   14.17
  -4  -1  20   30.28   10.90
   4   1 -20   67.35    8.12
   4  -1 -20   83.86   10.08
  -4  -1  19    7.56    3.07
   4   1 -19   24.88    5.88
   4  -1 -19   18.71    5.05
  -4  -1  18   90.59    8.12
   4   1 -18   98.44    7.28
   4  -1 -18  121.16    9.21
  -4  -1  17  159.07   12.06
   4   1 -17  175.94   12.89
   4  -1 -17  211.93   15.72
  -4  -1  16   20.21    7.76
   4   1 -16   51.38   12.06
   4  -1 -16   57.05   13.56
  -4  -1  15  158.13   11.95
   4   1 -15  210.06   15.26
   4  -1 -15  214.43   15.75
  -4  -1  14   37.23    9.72
   4   1 -14   60.70    9.09
   4  -1 -14   72.77   11.06
  -4  -1  13   57.80   12.61
   4   1 -13   86.64   12.71
  -4  -1  12  567.33   29.97
   4   1 -12  941.11  216.56
  -4   1  11  302.05   16.30
  -4  -1  11  206.49   11.53
   4   1 -11  303.93   16.30
  -4  -1  10  343.66   11.53
   4   1 -10  404.73   12.72
   4   1  -9  245.07    8.00
  -4  -1   8  152.13   22.31
   4  -1  -8  177.16    5.87
   4  -1  -7   77.18   10.01
   4  -1  -7   78.21   10.09
  -4  -1   6  280.46   10.07
   4  -1  -6  229.49    7.79
  -4  -1   5  149.11   19.22
   4  -1  -5  124.21   15.90
  -4  -1   5  150.08   19.12
   4  -1  -4    5.70    1.92
   4  -1  -4    7.40    1.48
  -4  -1   4   10.49    2.13
   4  -1  -4    6.36    1.52
   4  -1  -3   26.17    3.77
   4   1  -3   29.20    4.37
   4  -1  -3   23.86    3.31
  -4  -1   3   28.43    3.96
   4  -1  -3   23.73    3.39
   4  -1  -2  312.10   16.90
   4   1  -2  316.70   17.64
   4  -1  -2  302.20   16.22
  -4  -1   2  348.77   18.87
   4  -1  -2  325.13   17.51
   4  -1  -1   44.45    5.67
   4   1  -1   66.00    8.49
  -4  -1   1   49.76    6.55
   4  -1  -1   45.87    5.93
   4   1   0  327.92   18.18
  -4   1   0  363.48   19.48
  -4  -1   0  379.52   20.58
   4  -1   0  352.37   19.01
   4   1   1  339.51   18.70
  -4  -1  -1  381.83   20.75
   4  -1   1  376.60   20.30
   4  -1   2  278.84   15.15
   4   1   2  290.56   16.13
  -4  -1  -2  306.99   16.95
   4  -1   2  280.26   15.37
   4  -1   3  156.45    8.93
   4   1   3  137.78    8.73
  -4  -1  -3  138.39   11.57
   4  -1   3  171.79   10.23
   4  -1   4  485.31   15.22
   4   1   4  520.22   16.88
  -4  -1  -4  499.82   16.02
   4  -1   4  448.43   14.33
   4   1   5  222.84    8.31
  -4  -1  -5  185.70    7.49
   4  -1   5  163.70    6.34
   4   1   6  315.66   10.96
  -4  -1  -6  307.81   10.76
   4  -1   6  315.68   10.46
   4  -1   7   47.45    6.57
   4   1   7   45.24    6.56
  -4  -1  -7   27.77    7.27
   4  -1   7   37.73    5.51
   4  -1   8    6.17    2.23
   4   1   8   14.08    3.32
  -4  -1  -8    3.37    2.12
   4  -1   8    3.53    1.90
   4  -1   9    6.98    2.04
   4   1   9   16.16    3.59
  -4   1  -9   11.89    2.69
  -4  -1  -9    6.18    2.83
   4  -1   9    8.44    2.33
   4  -1  10    5.40    1.72
   4   1  10   15.84    3.65
  -4   1 -10    9.03    3.27
  -4  -1 -10    7.48    2.74
   4  -1  10   12.35    3.83
   4  -1  11   22.57    4.03
   4   1  11   13.47    3.04
  -4   1 -11   21.77    5.03
  -4  -1 -11   19.81    4.33
   4  -1  11   15.93    3.96
   4  -1  12   45.55    7.52
   4   1  12   65.00   10.06
  -4   1 -12   45.09   10.75
  -4  -1 -12   30.79    8.18
   4  -1  12   37.45    6.45
   4  -1  13  103.45    8.17
   4   1  13   96.01    7.83
  -4   1 -13   63.83   16.14
  -4  -1 -13   81.20    9.87
   4  -1  13   96.48    7.78
   4  -1  14  398.22   28.57
   4   1  14  382.58   27.71
  -4  -1 -14  373.82   27.25
   4  -1  14  364.65   26.47
   4  -1  15  100.03    8.28
   4   1  15  153.63   12.24
   4  -1  15   31.83    7.93
   4  -1  16  365.96   24.83
   4   1  16  358.25   24.69
  -4   1 -16  329.65   23.50
  -4  -1 -16  342.86   25.94
   4  -1  16  356.30   24.67
   4  -1  17  103.23    8.18
   4   1  17   95.30    7.65
  -4  -1 -17   59.93   15.72
   4  -1  17   63.32    5.72
   4  -1  18   32.60    7.59
   4   1  18   45.04    6.01
  -4   1 -18   25.48    8.89
  -4  -1 -18   30.96   11.06
   4  -1  18   27.02    6.89
   4  -1  19   94.11   11.65
   4   1  19   74.81    9.24
  -4   1 -19   36.99   10.26
  -4  -1 -19   45.19   15.72
   4  -1  19  105.15   12.74
   4  -1  20   44.59    6.37
   4   1  20   57.85    7.39
  -4   1 -20   25.72    7.46
  -4  -1 -20   38.39   11.55
   4  -1  20   58.73    7.96
   4  -1  21    8.54    2.31
   4   1  21   26.65    4.39
  -4   1 -21   14.39    4.75
   4  -1  21   20.03    4.86
  -4  -2  21  129.66   17.78
   4  -2 -21  191.31   22.14
  -4  -2  20   12.48    6.53
   4  -2 -20   37.78    5.50
  -4  -2  19    5.84    3.66
   4  -2 -19   32.17    4.83
  -4  -2  18  281.48   19.53
   4  -2 -18  394.42   26.76
  -4  -2  17    2.63    1.80
   4  -2 -17    9.44    3.18
  -4  -2  16  255.55   17.75
  -4  -2  15  122.72    9.48
  -4  -2  14  148.69   11.40
  -4  -2  13   85.27    7.15
  -4  -2  12    1.64    1.82
   4  -2 -12    7.76    3.39
  -4  -2  11   26.35    7.93
   4  -2 -11   44.82    7.13
  -4  -2  10   14.45    3.00
   4  -2 -10   16.66    3.24
  -4  -2   9   99.22   14.80
   4  -2  -9  160.59    8.85
  -4  -2   8  223.57   12.71
   4  -2  -8  246.08   13.18
   4  -2  -7  158.02    8.88
  -4  -2   6  496.06   16.42
  -4  -2   6  456.54   14.26
   4  -2  -5   76.86   10.03
  -4  -2   5   77.84   10.18
  -4  -2   4  418.47   13.34
  -4  -2   3  287.93    9.94
   4  -2  -3  333.91   10.73
   4   2  -2  449.45   14.97
  -4  -2   2  470.69   15.09
   4   2  -1   26.95    4.38
  -4  -2   1   36.87    9.12
   4   2   0   87.57   11.64
  -4  -2   0  141.90   18.32
   4   2   1   35.19    5.39
  -4  -2  -1   39.58   10.35
   4   2   2   23.26    3.86
  -4  -2  -2   21.61    4.90
   4  -2   2   28.88    4.44
   4   2   3   44.61    6.57
  -4  -2  -3   26.70    6.42
   4  -2   3   43.48    6.28
   4   2   4   48.24    7.07
  -4   2  -4   48.82    6.76
  -4  -2  -4   43.11    9.79
   4  -2   4   69.21    9.45
   4  -2   5   62.43    9.31
   4   2   5   42.76    7.17
  -4   2  -5   30.78    7.61
  -4  -2  -5   28.04    7.56
   4  -2   5   46.07    7.26
   4  -2   6  333.07   17.69
   4   2   6  330.57   18.30
  -4  -2  -6  298.79   16.85
   4  -2   6  307.12   16.67
   4   2   7  240.18   13.66
  -4  -2  -7  166.58    9.69
   4  -2   7  164.29    9.46
   4  -2   8  592.00   31.06
   4   2   8  710.38   37.71
  -4  -2  -8  593.23   31.92
   4  -2   8  582.89   30.83
   4   2   9   29.08    5.19
  -4  -2  -9   28.84    7.27
   4  -2   9   24.14    4.59
   4  -2  10  402.30   28.68
   4   2  10  344.66   25.12
  -4  -2 -10  408.73   29.66
   4  -2  10  366.90   26.54
   4  -2  11    2.61    1.57
   4   2  11   28.79    7.43
  -4  -2 -11    4.09    1.76
   4  -2  11   10.33    3.85
   4  -2  12  127.59    9.87
   4   2  12  205.07   15.74
  -4  -2 -12  125.28   13.26
   4  -2  12  132.54   10.40
   4   2  13  137.21   10.91
  -4  -2 -13  123.74   16.83
   4  -2  13  137.21   10.99
   4  -2  14   29.86    6.93
  -4  -2 -14   22.24    8.41
   4  -2  14   23.18    5.88
   4  -2  15    7.97    2.32
   4   2  15    6.22    2.89
  -4   2 -15    6.45    2.72
  -4  -2 -15   11.87    3.66
   4  -2  15    3.47    3.25
   4  -2  16   27.68    6.56
   4   2  16   44.29    6.34
  -4   2 -16   15.69    6.62
  -4  -2 -16   28.68   10.06
   4  -2  16   41.39    9.98
   4  -2  17    8.35    2.20
   4   2  17   12.47    3.83
  -4   2 -17    3.57    1.88
  -4  -2 -17    5.82    3.06
   4  -2  17    7.49    2.04
   4  -2  18    1.76    1.44
   4   2  18    8.07    2.78
  -4   2 -18    7.65    2.66
  -4  -2 -18    5.24    2.75
   4  -2  18   -1.39    2.24
   4  -2  19   24.48    3.80
   4   2  19   39.84    6.20
  -4   2 -19   20.60    6.81
  -4  -2 -19   30.39    8.68
   4  -2  19   36.49    5.40
  -4  -3  18   51.77   13.38
   4  -3 -18  106.09   12.69
  -4  -3  17   11.04    5.67
   4  -3 -17   55.57    7.24
  -4  -3  16   30.55   12.02
  -4  -3  15   25.03   10.03
  -4  -3  14   13.50    5.96
  -4  -3  13  233.84   16.27
  -4  -3  12    0.82    2.04
  -4  -3  11  213.74   14.93
  -4  -3  10   21.12    5.73
   4  -3 -10   24.64    6.17
   4  -3  -9  320.43   23.10
   4  -3  -9  387.69   27.55
   4  -3  -8  198.87   14.70
   4  -3  -8  203.66   14.74
   4  -3  -7  144.52   10.89
  -4  -3   6   52.72   12.72
   4  -3  -6   74.40    6.05
  -4  -3   5    6.41    2.91
  -4  -3   5    3.65    1.71
  -4  -3   4   82.19    6.62
   4  -3  -4   96.31    7.45
  -4  -3   3    9.89    3.09
   4  -3  -3   10.58    3.72
  -4  -3   2   27.45    9.67
  -4  -3   1   79.00   15.66
   4  -3  -1  127.86    7.86
   4   3   0    3.18    3.95
  -4  -3   0    4.06    2.16
   4   3   1  366.91   26.94
  -4  -3  -1  410.83   29.73
   4   3   2  116.54    9.75
  -4  -3  -2   75.13   11.52
   4   3   3  435.32   31.50
  -4  -3  -3  484.58   35.14
   4  -3   3  531.96   37.98
  -4  -3  -4    4.34    1.92
   4  -3   4   34.75    8.64
   4   3   5  610.45   43.79
  -4  -3  -5  470.29   34.14
   4   3   6  110.21    9.51
  -4  -3  -6   94.61   11.49
   4  -3   6  108.40    9.14
   4   3   7  108.11    8.79
  -4  -3  -7  122.18   11.59
   4  -3   7  130.56   10.25
   4   3   8   18.94    5.94
  -4   3  -8   12.28    5.88
  -4  -3  -8    1.36    4.08
   4  -3   8    9.34    3.55
   4   3   9   33.62    8.72
  -4   3  -9   41.68   13.14
  -4  -3  -9   37.75   11.68
   4  -3   9   57.57   14.01
   4   3  10    8.18    4.32
  -4  -3 -10    4.43    3.70
   4  -3  10    2.20    3.10
   4   3  11   65.44    6.39
  -4   3 -11   65.18   13.78
  -4  -3 -11   43.89   10.74
   4  -3  11   60.07    5.34
   4   3  12   27.88    7.09
  -4  -3 -12   21.15    7.30
   4  -3  12    8.24    2.80
   4   3  13  113.99   13.51
  -4   3 -13  146.64   20.82
  -4  -3 -13  135.72   21.25
   4  -3  13  147.10   16.91
   4   3  14    9.60    4.08
  -4   3 -14    5.89    2.35
  -4  -3 -14    5.36    2.07
   4  -3  14    1.13    2.39
   4   3  15  146.99   17.10
  -4   3 -15  134.21   15.80
  -4  -3 -15   67.94   19.64
   4  -3  15   88.11   10.88
   4   3  16    9.07    3.75
  -4   3 -16    2.74    1.30
  -4  -3 -16   -1.79    2.86
   4  -3  16    2.24    2.29
  -4  -4  13    6.17    3.13
  -4  -4  12   18.54    8.63
  -4  -4  11   67.55    8.74
  -4  -4  10   92.67   11.50
   4  -4  -9    6.17    2.09
   4  -4  -7  179.21   20.02
  -4  -4   3   28.38   10.29
  -4  -4   2   84.70    6.95
   4   4  -1  127.17    9.86
  -4  -4   1  138.28   10.88
   4   4   0   92.17    7.64
   4   4   1   17.53    5.14
  -4  -4  -1   11.03    4.55
   4  -4   1   10.79    3.25
   4   4   2   15.65    5.36
  -4  -4  -2   11.57    3.71
   4  -4   2   15.09    4.21
   4   4   3   47.07    6.79
  -4  -4  -3   19.09    7.92
   4  -4   3   19.64    4.98
   4   4   4    8.21    4.56
  -4  -4  -4   11.56    4.44
   4  -4   4    2.50    2.04
   4   4   5    7.43    3.10
  -4  -4  -5    0.21    1.73
   4  -4   5    9.21    2.99
   4   4   6   37.95    5.71
  -4  -4  -6   16.47    3.56
   4  -4   6   16.18    3.39
   4   4   7   68.53    9.00
  -4  -4  -7   37.63   13.27
   4   4   8  141.19   16.43
  -4  -4  -8  130.36   16.21
   4   4   9  117.16   14.15
  -4  -4  -9  140.03   18.56
   4  -4   9  140.54   16.40
   4   4  10  132.98   15.88
  -4  -4 -10  153.77   18.44
   4  -4  10  153.02   17.88
   4   4  11  156.12   18.80
  -4   4 -11  209.31   25.78
  -4  -4 -11  144.81   17.47
   4  -4  11  167.19   19.51
   5   0  -2   12.64    2.78
   5   0  -1  399.50   44.44
   5   0   0   16.04    3.14
   5   0   0    5.71    2.09
   5   0   1   61.86    7.65
   5   0   1   62.62    7.80
   5   0   2   69.55    8.36
   5   0   2   76.13    9.11
   5   0   3  129.88   14.85
   5   0   3  127.71   14.67
   5   0   4    0.90    1.59
   5   0   4   -0.74    1.63
   5   0   5   80.27    9.58
   5   0   5   85.43   10.57
   5   0   6    5.91    1.68
   5   0   6    0.58    1.92
   5   0   7    3.96    1.63
   5   0   7    0.94    1.91
   5   1  -5   64.38    8.24
   5   1  -2   15.18    3.18
   5   1  -1   21.39    3.78
   5  -1  -1   22.61    3.72
   5   1   0   61.83    7.89
   5  -1   0   50.86    6.41
   5   1   1    6.67    2.90
   5  -1   1   10.91    2.81
   5   1   2    9.20    2.98
  -5  -1  -2    3.88    1.47
   5  -1   2    3.96    2.79
   5   1   3   89.28   10.76
  -5  -1  -3   89.79   11.01
   5  -1   3   92.18   11.10
   5   1   4   28.01    4.26
  -5  -1  -4   28.32    4.38
   5  -1   4   31.24    4.51
   5   1   5   39.99    5.50
  -5  -1  -5   36.45    4.88
   5  -1   5   26.99    4.53
   0   0   0    0.00    0.00

_computing_structure_solution     'SHELXT 2014/5 (Sheldrick, 2014)'
;
_shelx_hkl_checksum              31332
_olex2_submission_special_instructions 'No special instructions were received'
loop_
_space_group_symop_operation_xyz
'x, y, z'
'-x, y+1/2, -z'
loop_
_atom_site_label
_atom_site_type_symbol
_atom_site_fract_x
_atom_site_fract_y
_atom_site_fract_z
_atom_site_U_iso_or_equiv
_atom_site_adp_type
_atom_site_occupancy
_atom_site_site_symmetry_order
_atom_site_calc_flag
_atom_site_refinement_flags_posn
Br1 Br 0.90574(19) 0.17726(14) 0.04039(3) 0.0342(2) Uani 1 1 d .
Br2 Br 0.20352(19) 0.36260(15) 0.46773(2) 0.0370(2) Uani 1 1 d .
S1 S 0.7544(5) 0.2767(3) 0.14757(6) 0.0263(4) Uani 1 1 d .
F1 F 0.0522(13) 0.7452(8) 0.39668(16) 0.0383(11) Uani 1 1 d .
F2 F 0.7396(11) 0.0597(7) 0.31250(15) 0.0327(10) Uani 1 1 d .
N1 N 0.1552(17) 0.9450(12) 0.2280(2) 0.0328(14) Uani 1 1 d .
C1 C 0.7414(17) 0.3702(14) 0.0885(2) 0.0258(13) Uani 1 1 d .
C2 C 0.6018(19) 0.5806(13) 0.0832(2) 0.0286(15) Uani 1 1 d .
H2 H 0.575455 0.657226 0.053087 0.034 Uiso 1 1 calc R
C3 C 0.5004(18) 0.6725(15) 0.1274(2) 0.0294(14) Uani 1 1 d .
H3 H 0.398200 0.818554 0.130481 0.035 Uiso 1 1 calc R
C4 C 0.5653(17) 0.5277(12) 0.1659(2) 0.0244(14) Uani 1 1 d .
C5 C 0.4813(17) 0.5644(13) 0.2168(3) 0.0254(14) Uani 1 1 d .
C6 C 0.3008(18) 0.7743(13) 0.2240(2) 0.0256(14) Uani 1 1 d .
C7 C 0.5553(16) 0.4148(11) 0.2525(2) 0.0230(14) Uani 1 1 d .
H7 H 0.683318 0.285862 0.243042 0.028 Uiso 1 1 calc R
C8 C 0.4703(16) 0.4186(10) 0.3037(2) 0.0205(13) Uani 1 1 d .
C9 C 0.2941(18) 0.5939(13) 0.3274(3) 0.0279(14) Uani 1 1 d .
H9 H 0.222040 0.725480 0.309831 0.033 Uiso 1 1 calc R
C10 C 0.2266(18) 0.5764(13) 0.3751(3) 0.0263(14) Uani 1 1 d .
C11 C 0.3212(16) 0.3856(14) 0.4027(2) 0.0280(15) Uani 1 1 d .
C12 C 0.4979(17) 0.2103(13) 0.3806(2) 0.0272(15) Uani 1 1 d .
H12 H 0.569608 0.079569 0.398479 0.033 Uiso 1 1 calc R
C13 C 0.5662(18) 0.2304(11) 0.3326(3) 0.0257(15) Uani 1 1 d .
loop_
_atom_site_aniso_label
_atom_site_aniso_U_11
_atom_site_aniso_U_22
_atom_site_aniso_U_33
_atom_site_aniso_U_23
_atom_site_aniso_U_13
_atom_site_aniso_U_12
Br1 0.0342(4) 0.0413(4) 0.0275(4) -0.0064(3) 0.0064(3) -0.0021(4)
Br2 0.0349(4) 0.0528(5) 0.0236(3) 0.0026(3) 0.0060(3) 0.0016(4)
S1 0.0286(8) 0.0255(8) 0.0250(8) 0.0005(6) 0.0020(6) 0.0024(7)
F1 0.047(3) 0.033(3) 0.036(2) -0.0010(18) 0.0126(19) 0.010(2)
F2 0.040(2) 0.028(2) 0.031(2) 0.0028(17) 0.0064(18) 0.013(2)
N1 0.037(3) 0.033(3) 0.029(3) 0.004(2) 0.001(3) 0.004(3)
C1 0.024(3) 0.033(3) 0.020(3) -0.001(3) 0.001(2) -0.009(3)
C2 0.032(4) 0.030(4) 0.023(3) 0.007(3) 0.003(3) -0.005(3)
C3 0.032(4) 0.024(3) 0.033(3) 0.003(3) 0.001(3) 0.000(3)
C4 0.018(3) 0.026(4) 0.028(3) -0.003(3) 0.001(2) -0.002(3)
C5 0.021(3) 0.026(4) 0.029(3) 0.002(3) -0.004(3) -0.004(3)
C6 0.027(3) 0.027(3) 0.022(3) 0.000(3) -0.002(3) -0.001(3)
C7 0.024(3) 0.019(3) 0.026(3) -0.001(2) -0.001(2) -0.002(3)
C8 0.021(3) 0.017(3) 0.023(3) 0.002(2) -0.002(2) -0.001(2)
C9 0.026(3) 0.024(3) 0.034(4) -0.001(3) 0.001(3) -0.001(3)
C10 0.025(3) 0.021(3) 0.033(4) -0.006(3) 0.005(3) -0.002(3)
C11 0.021(3) 0.041(4) 0.023(3) -0.004(3) 0.001(2) -0.006(3)
C12 0.028(3) 0.027(4) 0.026(3) 0.004(3) -0.004(3) 0.001(3)
C13 0.025(3) 0.023(4) 0.029(3) 0.001(2) 0.003(3) 0.002(3)
loop_
_atom_type_symbol
_atom_type_description
_atom_type_scat_dispersion_real
_atom_type_scat_dispersion_imag
_atom_type_scat_source
C C 0.0033 0.0016 'International Tables Vol C Tables 4.2.6.8 and 6.1.1.4'
H H 0.0000 0.0000 'International Tables Vol C Tables 4.2.6.8 and 6.1.1.4'
Br Br -0.2901 2.4595 'International Tables Vol C Tables 4.2.6.8 and 6.1.1.4'
F F 0.0171 0.0103 'International Tables Vol C Tables 4.2.6.8 and 6.1.1.4'
N N 0.0061 0.0033 'International Tables Vol C Tables 4.2.6.8 and 6.1.1.4'
S S 0.1246 0.1234 'International Tables Vol C Tables 4.2.6.8 and 6.1.1.4'
loop_
_geom_angle_atom_site_label_1
_geom_angle_atom_site_label_2
_geom_angle_atom_site_label_3
_geom_angle
C1 S1 C4 90.4(4)
S1 C1 Br1 118.7(5)
C2 C1 Br1 128.2(5)
C2 C1 S1 113.1(5)
C1 C2 H2 123.8
C1 C2 C3 112.3(6)
C3 C2 H2 123.8
C2 C3 H3 123.7
C4 C3 C2 112.7(7)
C4 C3 H3 123.7
C3 C4 S1 111.5(6)
C3 C4 C5 127.4(7)
C5 C4 S1 121.1(5)
C6 C5 C4 112.6(6)
C7 C5 C4 123.9(7)
C7 C5 C6 123.5(7)
N1 C6 C5 177.4(8)
C5 C7 H7 114.8
C5 C7 C8 130.5(6)
C8 C7 H7 114.8
C9 C8 C7 126.2(6)
C13 C8 C7 118.1(6)
C13 C8 C9 115.7(6)
C8 C9 H9 119.7
C10 C9 C8 120.7(7)
C10 C9 H9 119.7
F1 C10 C9 119.4(7)
F1 C10 C11 118.3(6)
C9 C10 C11 122.3(7)
C10 C11 Br2 120.7(5)
C12 C11 Br2 120.7(6)
C12 C11 C10 118.6(6)
C11 C12 H12 120.7
C13 C12 C11 118.7(6)
C13 C12 H12 120.7
F2 C13 C8 118.7(6)
F2 C13 C12 117.2(6)
C12 C13 C8 124.1(6)
loop_
_geom_bond_atom_site_label_1
_geom_bond_atom_site_label_2
_geom_bond_distance
Br1 C1 1.877(7)
Br2 C11 1.876(7)
S1 C1 1.722(7)
S1 C4 1.732(7)
F1 C10 1.353(8)
F2 C13 1.342(8)
N1 C6 1.160(10)
C1 C2 1.355(11)
C2 H2 0.9500
C2 C3 1.405(10)
C3 H3 0.9500
C3 C4 1.379(10)
C4 C5 1.470(10)
C5 C6 1.438(11)
C5 C7 1.347(9)
C7 H7 0.9500
C7 C8 1.465(9)
C8 C9 1.413(10)
C8 C13 1.406(9)
C9 H9 0.9500
C9 C10 1.358(10)
C10 C11 1.397(11)
C11 C12 1.393(11)
C12 H12 0.9500
C12 C13 1.368(10)
