#------------------------------------------------------------------------------
#$Date: 2018-01-13 08:33:12 +0200 (Sat, 13 Jan 2018) $
#$Revision: 205183 $
#$URL: file:///home/coder/svn-repositories/cod/cif/1/54/86/1548675.cif $
#------------------------------------------------------------------------------
#
# This file is available in the Crystallography Open Database (COD),
# http://www.crystallography.net/. The original data for this entry
# were provided by IUCr Journals, http://journals.iucr.org/.
#
# The file may be used within the scientific community so long as
# proper attribution is given to the journal article from which the
# data were obtained.
#
data_1548675
loop_
_publ_author_name
'Noland, Wayland E.'
'Tritch, Kenneth J.'
_publ_section_title
;
 3,5-Dibromobenzonitrile
;
_journal_coeditor_code           SJ4154
_journal_issue                   1
_journal_name_full               IUCrData
_journal_page_first              x180059
_journal_paper_doi               10.1107/S2414314618000597
_journal_volume                  3
_journal_year                    2018
_chemical_formula_iupac          'C7 H3 Br2 N'
_chemical_formula_moiety         'C7 H3 Br2 N'
_chemical_formula_sum            'C7 H3 Br2 N'
_chemical_formula_weight         260.92
_chemical_melting_point          367
_chemical_name_common            I
_chemical_name_systematic        3,5-Dibromobenzonitrile
_space_group_crystal_system      monoclinic
_space_group_IT_number           11
_space_group_name_Hall           '-P 2yb'
_space_group_name_H-M_alt        'P 1 21/m 1'
_symmetry_space_group_name_Hall  '-P 2yb'
_symmetry_space_group_name_H-M   'P 1 21/m 1'
_atom_sites_solution_hydrogens   geom
_audit_creation_method           SHELXL-2014/6
_cell_angle_alpha                90
_cell_angle_beta                 97.440(3)
_cell_angle_gamma                90
_cell_formula_units_Z            2
_cell_length_a                   4.0047(2)
_cell_length_b                   13.2585(8)
_cell_length_c                   7.3356(4)
_cell_measurement_reflns_used    2765
_cell_measurement_temperature    100(2)
_cell_measurement_theta_max      36.36
_cell_measurement_theta_min      2.80
_cell_volume                     386.21(4)
_computing_cell_refinement
;
SAINT (Bruker, 2012)
;
_computing_data_collection
;
APEX3 (Bruker, 2012)
;
_computing_data_reduction
;
SAINT (Bruker, 2012)
;
_computing_molecular_graphics
;
Mercury (Macrae <i>et al.</i>, 2008)
;
_computing_publication_material
;
publCIF (Westrip, 2010)
;
_computing_structure_refinement
;
SHELXL2014 (Sheldrick, 2015b)
;
_computing_structure_solution
;
SHELXT2014 (Sheldrick, 2015a)
;
_diffrn_ambient_temperature      100(2)
_diffrn_measured_fraction_theta_full 1.000
_diffrn_measured_fraction_theta_max 0.999
_diffrn_measurement_device_type  'Bruker AXS VENTURE PHOTON-II'
_diffrn_measurement_method       '\f and \w scans'
_diffrn_radiation_type           MoK\a
_diffrn_radiation_wavelength     0.71073
_diffrn_reflns_av_R_equivalents  0.0359
_diffrn_reflns_limit_h_max       6
_diffrn_reflns_limit_h_min       -6
_diffrn_reflns_limit_k_max       22
_diffrn_reflns_limit_k_min       -20
_diffrn_reflns_limit_l_max       12
_diffrn_reflns_limit_l_min       -12
_diffrn_reflns_number            8873
_diffrn_reflns_theta_full        25.242
_diffrn_reflns_theta_max         36.365
_diffrn_reflns_theta_min         2.800
_exptl_absorpt_coefficient_mu    10.410
_exptl_absorpt_correction_T_max  0.625
_exptl_absorpt_correction_T_min  0.231
_exptl_absorpt_correction_type   multi-scan
_exptl_absorpt_process_details
;
(SADABS; Krause <i>et al</i>., 2015)
;
_exptl_crystal_colour            colourless
_exptl_crystal_density_diffrn    2.244
_exptl_crystal_description       needle
_exptl_crystal_F_000             244
_exptl_crystal_size_max          0.200
_exptl_crystal_size_mid          0.070
_exptl_crystal_size_min          0.050
_refine_diff_density_max         0.976
_refine_diff_density_min         -0.493
_refine_ls_extinction_coef       0.0102(18)
_refine_ls_extinction_expression Fc^*^=kFc[1+0.001xFc^2^\l^3^/sin(2\q)]^-1/4^
_refine_ls_extinction_method
;
SHELXL2014 (Sheldrick, 2015b)
;
_refine_ls_goodness_of_fit_ref   1.074
_refine_ls_hydrogen_treatment    constr
_refine_ls_matrix_type           full
_refine_ls_number_parameters     53
_refine_ls_number_reflns         1945
_refine_ls_number_restraints     0
_refine_ls_restrained_S_all      1.074
_refine_ls_R_factor_all          0.0306
_refine_ls_R_factor_gt           0.0244
_refine_ls_shift/su_max          0.001
_refine_ls_shift/su_mean         0.000
_refine_ls_structure_factor_coef Fsqd
_refine_ls_weighting_details
'w=1/[\s^2^(Fo^2^)+(0.0202P)^2^+0.2462P] where P=(Fo^2^+2Fc^2^)/3'
_refine_ls_weighting_scheme      calc
_refine_ls_wR_factor_gt          0.0562
_refine_ls_wR_factor_ref         0.0580
_reflns_number_gt                1696
_reflns_number_total             1945
_reflns_threshold_expression     'I > 2\s(I)'
_cod_data_source_file            sj4154sup1.cif
_cod_data_source_block           I
_cod_database_code               1548675
_shelx_space_group_comment
;
The symmetry employed for this shelxl refinement is uniquely defined
by the following loop, which should always be used as a source of
symmetry information in preference to the above space-group names.
They are only intended as comments.
;
_shelx_estimated_absorpt_t_min   0.231
_shelx_estimated_absorpt_t_max   0.625
_shelx_hkl_file
;
   1   0   0 593.122 25.2075   6
   1   0   0 577.039 25.1883   2
  -2   0   0 787.001 33.5735   3
  -2   0   0 762.786 33.7177   2
  -2   0   0 783.099 33.2639   4
  -3   0   0 1842.11 80.5192   2
   4   0   0 468.900 20.6674   5
  -4   0   0 477.578 21.5822   2
  -4   0   0 451.913 20.8614   3
   5   0   0 27.9833 3.19243   5
  -5   0   0 29.4861 3.59425   3
   6   0   0 61.8481 5.11046   5
  -6   0   0 69.1987 5.65439   3
  -1  -1   0 751.265 37.9531   1
   1  -1   0 773.043 41.6571   1
  -1   1   0 758.344 41.1311   1
   1   1   0 722.424 37.8871   1
  -2  -1   0 152.779 7.27428   6
  -2  -1   0 153.636 7.06302   3
  -2  -1   0 154.082 6.67585   4
  -2   1   0 152.284 7.08984   3
  -2   1   0 161.208 7.31129   2
  -2   1   0 157.593 6.81434   4
  -3  -1   0 13.0255 1.77695   3
   3  -1   0 11.2345 1.47174   5
   3   1   0 15.2198 1.66141   5
  -3   1   0 16.9503 1.95358   3
  -3   1   0 10.6442 0.96594   4
  -3   1   0 16.6079 2.21704   2
  -4  -1   0 73.4167 4.47070   3
   4  -1   0 69.4672 4.19296   5
  -4   1   0 72.9489 4.50967   3
  -4   1   0 78.3695 5.19017   2
   4   1   0 71.2924 4.21710   5
  -5  -1   0 11.9822 3.21687   3
   5  -1   0 9.91544 2.75223   5
   5   1   0 12.9926 2.63949   5
  -5   1   0 15.0600 3.28219   3
   6  -1   0 2.56341 3.14954   5
  -6  -1   0 2.79540 3.37471   3
   6   1   0 6.74422 2.84257   5
  -6   1   0 4.25212 3.27826   3
   0  -2   0 1106.53 51.0467   1
   0   2   0 1115.03 51.1002   1
   1  -2   0 2242.84 104.411   1
  -1  -2   0 2170.39 96.4085   1
  -1   2   0 2239.45 103.832   1
   1   2   0 1995.04 96.1420   1
  -2  -2   0 170.202 7.80950   3
  -2  -2   0 171.251 8.04971   6
   2   2   0 176.836 7.45327   4
  -2   2   0 170.657 7.59954   4
  -2   2   0 174.262 8.05562   2
  -3  -2   0 1167.70 50.8892   3
   3  -2   0 1200.21 50.7440   5
   3   2   0 1178.40 50.7673   5
  -3   2   0 1186.35 51.2391   2
  -3   2   0 1149.44 50.5150   4
  -3   2   0 1190.62 50.9477   3
  -4  -2   0 365.485 16.8473   3
   4  -2   0 377.284 16.6805   5
   4   2   0 385.085 16.6929   5
  -4   2   0 353.797 16.0153   4
  -4   2   0 386.091 17.4410   2
  -4   2   0 363.636 16.8873   3
  -5  -2   0 1.38826 2.58539   3
   5  -2   0 -1.6497 2.20801   5
  -5   2   0 2.26381 2.70357   3
   5   2   0 1.52087 2.24010   5
  -5   2   0 -0.6838 2.88734   2
   6  -2   0 114.661 6.85523   5
  -6  -2   0 117.720 7.37640   3
   6   2   0 115.077 7.06687   5
  -6   2   0 103.976 7.21433   3
   0  -3   0 0.21079 0.38681   2
   0   3   0 1.28539 0.35676   6
   0   3   0 -0.5845 0.41671   3
   0   3   0 2.68761 0.48626   2
  -1  -3   0 1774.21 78.1259   1
   1  -3   0 1758.44 88.6423   1
  -1   3   0 1747.42 88.0535   1
  -2  -3   0 649.378 28.0233   3
  -2  -3   0 660.166 28.2875   6
   2   3   0 650.267 27.7250   4
  -2   3   0 636.700 27.8635   4
  -2   3   0 640.584 28.2813   2
   3  -3   0 27.7393 2.10442   5
  -3  -3   0 31.3061 3.07568   6
  -3  -3   0 33.5328 2.40802   3
  -3   3   0 34.4945 3.07029   2
  -3   3   0 30.0134 1.82086   4
   3   3   0 27.7133 2.18847   5
  -3   3   0 29.7645 2.45723   3
   4  -3   0 88.8354 4.80285   5
  -4  -3   0 92.5269 5.13848   3
   4   3   0 91.7256 4.88421   5
  -4   3   0 89.2732 5.88902   2
  -4   3   0 83.7431 4.28764   4
  -4   3   0 86.8109 5.16249   3
  -5  -3   0 135.862 7.57091   3
   5  -3   0 132.906 7.17495   5
   5   3   0 131.998 7.23110   5
  -5   3   0 133.456 7.62489   3
  -5   3   0 147.133 8.59064   2
   6  -3   0 10.7171 3.48040   5
  -6  -3   0 9.76652 3.94784   3
  -6   3   0 6.36770 3.49932   3
   6   3   0 11.7667 3.05273   5
   0  -4   0 2537.37 118.904   1
   0   4   0 2707.65 119.589   1
   1  -4   0 427.975 18.5454   5
  -1  -4   0 437.352 18.8306   6
  -1  -4   0 445.949 18.7023   3
   1  -4   0 433.883 18.8259   2
   1   4   0 435.040 18.8003   6
   1   4   0 426.058 18.6911   3
  -1   4   0 419.684 18.8682   2
  -2  -4   0 91.7592 4.68029   6
   2  -4   0 87.6298 4.20071   5
  -2  -4   0 97.2758 4.40471   3
  -2   4   0 90.4739 4.75094   2
  -2   4   0 86.6359 4.19678   4
   2   4   0 88.6083 4.05806   4
   3  -4   0 640.636 27.7893   5
  -3  -4   0 636.554 27.9701   3
  -3  -4   0 625.180 28.3533   6
  -3   4   0 648.994 28.4390   2
   3   4   0 649.267 27.8707   5
   4  -4   0 135.510 7.13961   5
  -4  -4   0 152.098 7.54628   3
  -4   4   0 142.371 7.48689   3
   4   4   0 144.605 7.16356   5
  -4   4   0 148.971 8.19416   2
   5  -4   0 1.75999 2.40443   5
  -5  -4   0 5.61592 3.06418   3
  -5   4   0 3.62823 3.07626   2
   5   4   0 0.65669 2.44824   5
  -5   4   0 5.36538 4.89076   3
   6  -4   0 51.8410 4.87017   5
  -6  -4   0 50.8161 5.26338   3
  -6   4   0 55.8167 5.22527   3
   6   4   0 48.0454 4.61541   5
   0  -5   0 0.27030 0.62746   2
   0  -5   0 0.84703 0.42273   6
   0   5   0 0.15186 0.54710   6
   0   5   0 0.83444 0.66565   3
   0   5   0 1.70775 0.62646   2
   1   5   0 1025.10 43.4637   6
   1   5   0 995.610 43.3630   3
   2  -5   0 2757.08 143.138   1
   2   5   0 2858.74 122.316   1
  -2   5   0 2647.86 140.610   1
   2   5   0 2693.55 121.528   1
   3  -5   0 93.2007 4.85087   5
  -3  -5   0 99.0352 5.60311   6
  -3  -5   0 102.400 5.11282   3
  -3   5   0 103.049 5.79278   2
   3   5   0 93.8632 4.42954   4
   3   5   0 103.999 4.96295   5
  -4  -5   0 331.047 15.1668   3
   4  -5   0 325.137 14.8995   5
   4   5   0 338.849 14.9862   5
  -4   5   0 330.364 15.8861   2
  -4   5   0 325.862 15.2828   3
   5  -5   0 299.631 14.0083   5
  -5   5   0 295.664 15.3453   2
  -5   5   0 311.123 15.1234   3
  -6  -5   0 38.7814 4.91314   3
   6  -5   0 48.7068 4.89386   5
   6   5   0 50.2848 4.66912   5
  -6   5   0 51.5082 5.35700   3
  -6   5   0 56.8011 6.78069   2
   0  -6   0 50.8757 2.47354   6
   0  -6   0 50.1806 2.78249   2
   0   6   0 54.7336 2.81564   2
   0   6   0 49.2484 2.66537   3
   1  -6   0 33.2608 1.55264   5
  -1  -6   0 34.4638 2.00922   3
  -1  -6   0 33.0187 2.12054   6
   1   6   0 34.2020 2.01914   6
   1   6   0 28.3646 2.17552   2
  -1   6   0 33.1678 2.29668   2
  -2  -6   0 45.0564 2.56543   3
  -2  -6   0 43.9051 3.00952   6
   2   6   0 41.5994 2.37969   5
   2   6   0 41.3018 2.26008   4
  -3  -6   0 8.37323 1.71473   3
   3  -6   0 6.21429 1.34931   5
  -3  -6   0 6.48945 2.02991   6
  -3   6   0 9.00237 2.28433   2
   3   6   0 6.99476 1.58467   5
   3   6   0 4.81394 0.81514   4
  -4  -6   0 9.37448 2.38706   3
   4  -6   0 9.63263 2.03705   5
   4   6   0 10.4294 2.05266   5
  -4   6   0 8.10780 2.51576   3
  -4   6   0 9.05258 2.90591   2
  -5  -6   0 7.96295 3.38802   3
   5  -6   0 4.97664 2.47770   5
   5   6   0 6.63931 2.67717   5
  -5   6   0 0.55884 2.87298   3
  -6  -6   0 -2.0650 3.49568   3
   6  -6   0 2.08002 3.11584   5
  -6   6   0 -0.3213 4.33005   2
  -6   6   0 -0.6301 3.44504   3
   6   6   0 0.63948 2.76089   5
   0  -7   0 0.76822 0.57640   6
   0   7   0 1.61761 0.87976   2
   1  -7   0 2592.20 131.834   1
  -1   7   0 2617.77 132.069   1
  -2   7   0 1153.85 51.9364   2
   2   7   0 1177.02 51.3809   5
   2   7   0 1259.91 51.5536   4
   3  -7   0 35.7334 2.54786   5
  -3  -7   0 41.3954 2.96971   3
   3   7   0 39.6317 2.77870   5
  -3   7   0 42.6420 3.85490   2
   3   7   0 36.6382 2.16260   4
   4  -7   0 195.830 9.32120   5
  -4  -7   0 197.056 9.70181   3
   4   7   0 198.375 9.45628   5
  -4   7   0 195.436 9.88521   3
  -4   7   0 203.825 10.7177   2
  -5  -7   0 224.338 11.5315   3
   5  -7   0 228.959 10.8104   5
  -5   7   0 209.575 11.4504   3
   5   7   0 231.594 11.0000   5
  -5   7   0 233.943 12.6360   2
   6  -7   0 10.9489 3.29974   5
  -6   7   0 13.4676 4.68063   3
  -6   7   0 17.7735 7.75384   2
   0  -8   0 40.7510 2.21809   6
   0   8   0 42.3668 2.72325   2
  -1  -8   0 150.789 6.89155   3
   1  -8   0 136.403 6.52125   6
   1  -8   0 146.199 6.22013   5
  -1  -8   0 150.251 6.84684   6
   1  -8   0 152.228 6.23557   5
   1   8   0 145.154 6.39021   5
  -1   8   0 136.106 7.00474   2
   1   8   0 140.100 6.89092   2
  -2  -8   0 23.4521 2.29115   3
  -2  -8   0 20.5064 2.43118   6
   2  -8   0 19.8696 1.40985   5
   2   8   0 19.4243 1.69740   4
   2   8   0 20.6702 1.59992   5
  -2   8   0 20.0741 2.50425   2
  -3  -8   0 63.1536 4.63361   6
  -3  -8   0 65.9017 3.91914   3
   3  -8   0 62.7610 3.63292   5
  -3   8   0 62.5029 4.58661   2
   3   8   0 61.6900 3.89375   4
   3   8   0 61.7214 3.52771   5
  -4  -8   0 33.5616 3.41083   3
   4  -8   0 27.4470 2.71225   5
   4   8   0 27.8630 2.75884   5
  -4   8   0 22.1860 3.65699   2
  -5  -8   0 2.35853 3.05202   3
   5  -8   0 1.48992 2.30033   5
   5   8   0 1.28993 2.27225   5
  -5   8   0 -1.4913 3.41957   3
  -5   8   0 -1.2383 3.44574   2
   6  -8   0 4.18698 3.13879   5
  -6  -8   0 7.56813 4.08511   3
  -6   8   0 8.14086 5.14663   2
   6   8   0 7.62201 3.36214   5
  -6   8   0 5.54660 3.78022   3
   0  -9   0 0.35613 0.74252   6
   0   9   0 -0.4424 1.19495   2
   1  -9   0 1093.09 47.4822   6
  -1  -9   0 1103.99 47.8932   3
  -1  -9   0 1097.72 47.7812   6
   1   9   0 1119.81 47.8687   2
   1   9   0 1103.72 47.3761   5
  -1   9   0 1125.08 48.0854   2
  -2  -9   0 1007.35 43.3952   6
   2  -9   0 1026.72 42.6974   5
  -2  -9   0 1037.33 43.1634   3
  -2   9   0 983.855 43.5974   2
   2   9   0 1018.48 42.8522   5
   2   9   0 903.165 43.2238   2
  -3  -9   0 40.4473 3.99800   6
  -3  -9   0 46.7953 3.64463   3
  -3   9   0 45.9873 4.04180   2
   3   9   0 41.8903 2.93821   5
   3   9   0 41.9258 2.59824   4
  -4  -9   0 218.293 10.9242   3
   4  -9   0 218.658 10.2574   5
   4   9   0 226.289 10.5559   5
  -4   9   0 223.591 11.9677   2
  -5  -9   0 143.862 8.27324   3
   5  -9   0 144.655 7.62695   5
  -5   9   0 137.310 8.47604   3
   5   9   0 153.282 7.88298   5
  -5   9   0 145.070 9.81902   2
  -6  -9   0 16.8333 4.80102   3
   6  -9   0 5.89376 3.27279   5
   6   9   0 9.90932 3.44201   5
  -6   9   0 6.39901 3.91606   3
  -6   9   0 14.1054 5.13639   2
   0 -10   0 2008.28 102.911   1
  -1 -10   0 139.237 6.69525   6
   1 -10   0 135.410 6.27120   6
   1  10   0 138.826 6.13198   5
  -1  10   0 140.315 7.06475   2
   1  10   0 139.908 6.92748   2
  -2 -10   0 143.416 7.26770   6
  -2 -10   0 149.508 7.17391   3
   2 -10   0 142.100 6.29313   5
   2  10   0 136.675 7.10158   2
   2  10   0 136.929 6.50457   5
  -3 -10   0 354.116 15.9094   3
  -3 -10   0 348.742 16.3353   6
   3 -10   0 351.149 15.2876   5
   3  10   0 345.845 15.3772   4
   3  10   0 342.017 15.6913   5
  -3  10   0 343.328 16.5665   2
   4 -10   0 116.514 5.97764   5
  -4 -10   0 121.418 6.83989   3
  -4  10   0 122.333 8.16958   2
   4  10   0 117.422 6.34280   5
   5 -10   0 10.5793 2.58071   5
  -5 -10   0 16.0513 3.79973   3
  -5  10   0 9.63257 3.68675   3
   5  10   0 9.88708 2.95331   5
  -5  10   0 16.6959 4.90266   2
   0  11   0 2.08479 1.65090   2
  -1 -11   0 126.300 6.26411   6
   1 -11   0 124.250 5.76052   6
   1  11   0 129.062 5.57364   5
   1  11   0 130.764 6.52218   2
   1  11   0 117.729 5.61275   5
  -1  11   0 126.555 6.79813   2
   2 -11   0 280.724 12.0962   5
   2 -11   0 286.976 12.1401   5
  -2 -11   0 273.749 12.9419   3
  -2 -11   0 277.964 13.1452   6
   2  11   0 280.808 12.3844   5
   2  11   0 286.300 13.0235   2
  -2  11   0 274.513 13.4343   2
  -3 -11   0 12.1728 2.82631   6
   3 -11   0 10.9776 1.39950   5
  -3 -11   0 13.4013 2.68295   3
  -3  11   0 8.12909 3.19633   2
   3  11   0 9.38035 1.69026   4
   3  11   0 8.86858 2.48609   2
   3  11   0 8.77273 1.92307   5
   4 -11   0 13.5981 2.04675   5
  -4 -11   0 19.1143 3.69275   3
   4  11   0 16.8442 2.45643   5
  -5 -11   0 56.0543 5.53265   3
   5 -11   0 59.2645 4.41049   5
   5  11   0 64.3716 4.51466   5
  -5  11   0 56.7901 5.66589   3
  -5  11   0 62.7560 7.35174   2
   0 -12   0 523.893 22.9362   6
   0  12   0 528.154 23.5243   2
  -1 -12   0 506.440 23.6715   6
   1 -12   0 532.157 22.9306   6
   1  12   0 544.346 23.5957   2
   1  12   0 505.570 22.7475   5
   1  12   0 542.957 22.7395   5
  -1  12   0 548.589 24.1972   2
   2 -12   0 55.9608 3.51859   6
  -2 -12   0 61.7330 4.25941   6
  -2 -12   0 58.2714 4.57919   3
  -2  12   0 58.4704 4.60081   2
   2  12   0 58.5766 4.18999   2
   2  12   0 57.5546 3.09684   5
  -3 -12   0 476.382 21.0267   3
   3 -12   0 479.113 20.1208   5
  -3 -12   0 449.551 21.2793   6
   3  12   0 471.582 20.4026   5
   3  12   0 447.489 20.9457   2
   3  12   0 454.804 20.4553   4
  -3  12   0 459.409 21.7511   2
  -4  12   0 176.611 10.2488   2
   4  12   0 155.284 7.84992   5
   4  12   0 143.221 8.63214   2
   5 -12   0 -2.9765 2.20262   5
  -5 -12   0 4.13158 4.23021   3
   5  12   0 0.89909 2.70973   5
  -5  12   0 -0.6928 4.12745   3
  -5  12   0 -0.5124 4.29005   2
   0 -13   0 0.66659 1.17266   6
   0  13   0 0.17279 2.08766   2
   1 -13   0 17.8054 1.62909   6
  -1 -13   0 20.0716 2.26795   6
   1  13   0 20.2509 2.70098   2
  -1  13   0 25.2518 3.31845   2
   1  13   0 20.2573 1.09606   5
   1  13   0 16.9454 1.05606   5
   2 -13   0 7.78554 1.20688   6
  -2 -13   0 7.37109 2.78652   3
   2 -13   0 11.9026 1.31709   6
   2  13   0 10.5539 2.02307   4
   2  13   0 11.2995 1.34236   5
   2  13   0 9.32863 2.56810   2
  -2  13   0 9.87226 2.81346   2
  -3 -13   0 1.76115 2.87058   3
  -3 -13   0 0.02481 2.56240   6
   3  13   0 3.06561 2.57592   2
  -3  13   0 3.00448 3.25459   2
   3  13   0 -1.0945 1.72580   4
   3  13   0 2.24896 1.49784   5
  -4 -13   0 12.9167 3.59566   3
   4 -13   0 7.39465 1.85736   5
   4  13   0 9.60972 3.08891   2
   4  13   0 9.79814 2.24825   5
  -4  13   0 7.30257 4.18969   2
  -5 -13   0 -0.4062 4.29755   3
  -5  13   0 -2.1235 4.29917   3
  -5  13   0 -0.2350 5.70979   2
   5  13   0 0.23338 2.67388   5
   0 -14   0 1136.95 49.3213   6
   0  14   0 1151.48 50.0433   2
   1 -14   0 225.091 9.72059   6
  -1 -14   0 215.167 10.3028   6
   1  14   0 213.496 10.7434   2
  -1  14   0 214.806 11.1325   2
   2 -14   0 75.6441 3.70592   6
  -2 -14   0 73.1364 5.20453   6
   2  14   0 75.3754 3.81634   5
  -2  14   0 73.0118 6.00787   2
   2  14   0 82.7903 5.35030   2
   2  14   0 74.3816 4.67313   4
  -3 -14   0 416.043 19.1709   6
   3 -14   0 410.993 17.8892   6
  -3 -14   0 378.816 18.8299   3
   3  14   0 392.003 18.2858   4
   3  14   0 417.835 18.0688   5
  -3  14   0 414.984 22.0603   2
   3  14   0 422.331 18.8092   2
  -4 -14   0 105.407 7.17099   3
   4  14   0 110.265 7.03330   2
   4  14   0 105.257 5.93414   5
  -4  14   0 115.484 8.97547   2
  -5 -14   0 11.2242 5.43817   3
  -5  14   0 -0.1937 4.81263   2
   5  14   0 0.23555 2.63416   5
  -5  14   0 1.97247 4.63439   3
   0 -15   0 -0.0047 1.28549   6
   0  15   0 -0.2080 2.55725   2
   1 -15   0 30.6785 2.04172   6
  -1 -15   0 28.9563 3.03123   6
  -1  15   0 37.9902 4.18224   2
   1  15   0 27.9032 3.51475   2
  -2 -15   0 127.909 7.19321   6
   2 -15   0 133.799 6.10250   6
  -2  15   0 115.230 8.04676   2
   2  15   0 122.337 6.83799   4
   2  15   0 129.524 7.25336   2
   2  15   0 126.438 5.85760   5
  -3 -15   0 3.86741 3.47806   3
  -3 -15   0 7.93996 3.10174   6
   3  15   0 3.33088 1.70337   5
   3  15   0 3.50100 2.95063   2
   3  15   0 2.10004 2.01456   4
  -3  15   0 5.59552 3.82542   2
  -4 -15   0 18.2249 4.43002   3
   4  15   0 9.87923 3.28113   2
   4  15   0 15.0233 2.52328   5
  -4  15   0 23.6030 5.55580   2
   0 -16   0 422.809 18.5402   6
   0  16   0 415.810 19.6106   2
  -1 -16   0 100.984 5.76530   6
   1 -16   0 101.357 4.77160   6
   1  16   0 101.725 6.58794   2
  -1  16   0 109.202 7.09486   2
  -2 -16   0 56.6267 4.73890   6
  -2  16   0 52.5616 5.91365   2
   2  16   0 54.3306 4.38055   4
   2  16   0 61.8704 5.12663   2
  -3 -16   0 98.2089 7.14431   6
   3  16   0 113.826 5.54037   5
   3  16   0 103.019 6.15409   4
  -3  16   0 109.253 8.40818   2
   3  16   0 113.806 6.94079   2
  -4 -16   0 36.9645 5.13523   3
  -4  16   0 56.7642 7.73914   2
   0 -17   0 0.38030 1.32187   6
   0  17   0 0.71078 3.15709   2
  -1 -17   0 261.339 12.2147   6
  -1  17   0 252.389 13.3935   2
   1  17   0 263.319 13.0536   2
  -2 -17   0 103.910 6.24800   6
   2  17   0 94.6029 6.02371   4
  -2  17   0 89.4348 7.42157   2
   2  17   0 96.5197 6.60237   2
  -3  17   0 2.90450 4.14712   2
   3  17   0 4.76475 2.96020   2
   3  17   0 2.73043 2.41723   4
  -4  17   0 27.5853 6.03961   2
   0  18   0 78.1733 6.50157   2
  -1 -18   0 21.7606 2.90228   6
  -1  18   0 19.8993 4.30356   2
   1  18   0 17.4420 3.73790   2
  -2 -18   0 2.86073 2.52050   6
  -2  18   0 -2.8227 3.42972   2
   2  18   0 1.24326 2.76747   4
   2  18   0 6.94140 3.20012   2
   3  18   0 51.2669 4.50576   4
   3  18   0 54.7399 5.61762   2
  -3  18   0 40.7948 5.94065   2
   0  19   0 0.98376 3.55615   2
  -1  19   0 156.185 9.67028   2
   2  19   0 181.360 10.1674   2
  -2  19   0 180.540 11.2133   2
   2  19   0 186.589 9.82362   4
   3  19   0 13.7092 3.06927   4
  -3  19   0 12.6777 5.03706   2
   0  20   0 17.0416 4.21501   2
  -1  20   0 0.36329 3.74056   2
   1  20   0 4.51672 3.57156   2
   1  20   0 -3.2088 2.73734   4
   2  20   0 2.87632 3.35177   2
   2  20   0 -0.2462 2.90743   4
  -2  20   0 -2.6265 4.02165   2
   0  21   0 2.05342 3.57716   2
   1  21   0 53.4202 5.85625   4
   1  21   0 67.0560 6.63511   2
  -1  21   0 58.9649 7.11648   2
   2  21   0 116.358 8.39008   2
  -2  21   0 100.784 8.66128   2
   2  21   0 90.0751 9.78304   4
   0  22   0 -2.4345 3.66792   4
  -6   0   1 76.7207 5.85454   3
   6   0  -1 73.8224 5.40670   5
   5   0  -1 275.408 12.7504   5
  -5   0   1 266.478 12.9972   3
   4   0  -1 325.157 14.3493   5
  -4   0   1 309.200 14.5151   3
  -3   0   1 201.796 9.38206   3
   3   0  -1 202.889 9.25385   5
  -3   0   1 205.455 9.72803   2
   2   0  -1 3643.34 172.472   1
  -1   0   1 3560.59 156.578   1
   1   0  -1 3274.37 154.970   1
   0   0   1 23.8804 1.09396   4
   0   0   1 17.4212 1.08610   5
   0   0  -1 23.8137 1.09853   4
   1   0   1 9999.99 435.543   1
  -2   0  -1 1663.93 71.5332   4
   2   0   1 1681.17 71.8614   2
  -3   0  -1 11.1788 2.02204   6
  -3   0  -1 12.3653 1.81684   3
  -3   0  -1 9.75979 0.99875   4
  -3   0  -1 13.0683 2.20241   2
  -4   0  -1 430.610 19.4963   4
  -4   0  -1 484.005 21.3777   2
  -4   0  -1 453.705 20.4376   3
  -5   0  -1 321.230 15.5091   3
   5   0   1 334.947 15.3094   5
  -6   0  -1 0.96899 3.33154   3
   6   0   1 -3.4947 2.70385   5
   6  -1  -1 9.98219 3.35531   5
  -6  -1   1 6.21697 3.38114   3
  -6   1   1 7.14426 3.33337   3
   6   1  -1 6.54396 2.98229   5
  -5  -1   1 7.20960 2.69229   3
   5  -1  -1 4.94937 2.46949   5
  -5   1   1 1.99826 2.62136   3
   5   1  -1 3.37068 2.21252   5
  -4  -1   1 10.7658 2.36787   3
   4  -1  -1 8.21059 1.79799   5
   4   1  -1 11.8850 2.06360   5
  -4   1   1 7.01374 2.56552   2
  -4   1   1 10.7362 2.22463   3
   3  -1  -1 175.388 8.21355   5
  -3  -1   1 185.314 8.41084   3
  -3   1   1 181.641 8.81767   2
   3   1  -1 182.831 8.24888   5
  -3   1   1 174.375 8.38607   3
  -2  -1   1 0.95807 0.79855   3
   2  -1  -1 0.36662 0.59530   5
  -2   1   1 0.81339 0.33319   4
   2   1  -1 0.00719 0.59575   5
  -2   1   1 1.84071 0.98295   2
  -2   1   1 2.18594 0.84996   3
  -1  -1   1 48.7079 2.10945   4
   1  -1  -1 49.3293 2.21561   5
  -1  -1   1 46.1982 2.19858   5
  -1  -1   1 50.1860 2.26092   3
   1  -1  -1 43.8356 2.34665   2
  -1   1   1 47.6579 2.15168   4
   1   1  -1 46.8397 2.24589   3
   1   1  -1 44.7700 2.10453   4
   1   1  -1 44.8424 2.38862   2
  -1   1   1 47.1105 2.23142   3
   1   1  -1 50.3246 2.22496   5
  -1   1   1 45.7787 2.18565   5
  -1   1   1 49.6585 2.43227   2
   0  -1  -1 334.930 14.6341   5
   0  -1   1 357.858 14.6378   5
   0   1  -1 306.877 14.6199   5
   0   1  -1 344.371 14.6980   2
   0   1   1 355.365 14.6524   5
   1  -1   1 966.896 54.2650   1
   1   1   1 1036.48 50.9146   1
   1   1   1 1027.70 51.5082   1
  -2  -1  -1 482.080 20.9447   4
   2  -1   1 497.712 21.0025   4
  -2  -1  -1 469.776 21.3748   6
  -2  -1  -1 484.177 21.1789   3
  -2  -1  -1 500.364 21.2653   2
  -2   1  -1 483.977 21.3253   2
   2   1   1 471.257 21.1616   2
   2   1   1 499.283 20.9844   4
  -2   1  -1 488.557 21.0428   4
  -2   1  -1 485.747 21.3361   6
  -3  -1  -1 116.558 5.81384   3
  -3  -1  -1 125.015 6.10804   2
  -3  -1  -1 113.893 6.17029   6
  -3  -1  -1 113.653 5.21445   4
   3   1   1 119.067 5.24267   4
  -3   1  -1 111.389 5.36041   4
  -3   1  -1 118.777 5.88307   3
  -4  -1  -1 12.2573 2.41577   3
   4  -1   1 9.52986 1.98167   5
  -4   1  -1 11.6276 2.76258   2
  -4   1  -1 10.9772 2.34507   3
  -5  -1  -1 16.7905 3.39266   3
   5  -1   1 8.84633 2.56755   5
   5   1   1 14.9401 2.67226   5
  -5   1  -1 20.1447 3.62558   3
  -5   1  -1 8.80363 3.16247   2
   6  -1   1 8.97450 3.46187   5
  -6  -1  -1 14.3387 4.11563   3
   6   1   1 8.10301 3.07517   5
  -6   1  -1 3.75318 3.41697   3
   6  -2  -1 56.3685 4.85509   5
  -6  -2   1 56.9575 5.38448   3
  -6   2   1 60.2006 5.33151   3
   6   2  -1 66.8123 5.00875   5
  -5  -2   1 365.928 16.6732   3
   5  -2  -1 352.382 16.2325   5
   5   2  -1 360.222 16.2786   5
  -5   2   1 352.140 16.5270   3
  -5   2   1 343.300 17.2508   2
  -4  -2   1 127.369 6.67562   3
   4  -2  -1 131.857 6.45087   5
  -4   2   1 130.635 7.42061   2
   4   2  -1 128.967 6.59276   5
  -4   2   1 128.100 6.81336   3
  -3  -2   1 372.363 16.6858   3
   3  -2  -1 371.788 16.5177   5
   3   2  -1 372.396 16.5547   5
  -3   2   1 384.026 16.2121   4
  -3   2   1 380.265 16.2373   4
  -3   2   1 373.009 16.7101   3
  -3   2   1 374.670 17.1038   2
   2  -2  -1 2012.85 106.304   1
  -2  -2   1 2046.27 100.505   1
   2   2  -1 2107.35 100.918   1
  -2   2   1 1981.89 106.179   1
   1  -2  -1 1216.62 61.4508   1
  -1  -2   1 1170.80 56.8927   1
   1   2  -1 1123.76 56.3453   1
  -1   2   1 1148.74 61.4386   1
   0  -2   1 425.860 17.5652   2
   0  -2  -1 428.055 17.5866   6
   0  -2  -1 424.906 17.4148   5
   0  -2   1 433.045 17.4084   5
   0   2   1 378.277 17.4287   5
   0   2  -1 347.840 17.3977   5
   0   2  -1 399.357 17.5653   2
   1  -2   1 1224.94 65.6815   1
   1   2   1 1215.14 59.1571   1
  -2  -2  -1 1850.21 78.1565   4
   2   2   1 1808.00 78.3729   2
  -3  -2  -1 7.70407 1.59470   3
  -3  -2  -1 3.67861 1.65089   6
  -3   2  -1 3.45175 1.65604   2
   3   2   1 4.79086 0.75198   4
  -3   2  -1 4.56367 0.90954   4
  -3   2  -1 2.59916 1.52096   3
   4  -2   1 365.339 15.8120   5
  -4  -2  -1 360.146 15.9964   3
  -4   2  -1 351.246 16.4492   2
  -4   2  -1 332.140 15.2700   4
  -4   2  -1 339.379 16.0231   3
   5  -2   1 184.986 9.53028   5
  -5  -2  -1 177.300 9.66433   3
   5   2   1 190.932 9.78231   5
  -5   2  -1 197.771 10.5489   2
  -5   2  -1 193.771 10.3161   3
  -6  -2  -1 15.5475 3.87464   3
   6  -2   1 14.4594 3.29957   5
   6   2   1 11.8077 3.19581   5
  -6   2  -1 12.6810 3.75906   3
   6  -3  -1 6.11819 2.90969   5
  -6  -3   1 10.1577 3.63739   3
  -6   3   1 4.59385 3.36770   3
   6   3  -1 12.3035 3.17816   5
  -5  -3   1 5.80192 2.76198   3
   5  -3  -1 1.99715 2.18829   5
  -5   3   1 3.79429 2.94622   3
   5   3  -1 -0.3450 2.10388   5
  -5   3   1 2.74764 3.24950   2
   4  -3  -1 282.996 12.3573   5
  -4  -3   1 269.458 12.5800   3
  -4   3   1 276.745 13.2815   2
  -4   3   1 264.909 11.7434   4
   4   3  -1 284.228 12.4849   5
  -4   3   1 254.603 11.7951   4
  -4   3   1 266.385 12.6113   3
   3  -3  -1 447.445 19.7608   5
  -3  -3   1 459.801 19.9599   3
  -3   3   1 451.091 20.3628   2
  -3   3   1 457.102 19.9912   3
  -3   3   1 439.892 19.5625   4
   3   3  -1 458.548 19.8229   5
   2  -3  -1 30.0465 1.76423   5
  -2  -3   1 31.4872 1.94040   3
   2   3  -1 31.5215 1.41986   4
   2   3  -1 28.2635 1.74919   5
   2   3  -1 30.5907 1.39402   4
  -2   3   1 29.7625 2.23867   2
  -1  -3   1 686.081 30.5490   5
   1   3  -1 731.459 30.7359   6
   1   3  -1 721.044 30.6564   3
   0  -3  -1 2920.27 133.739   1
   0   3   1 3031.52 134.448   1
   1  -3   1 25.7245 1.38126   4
  -1  -3  -1 23.3954 1.55582   6
   1  -3   1 26.1186 1.28086   6
  -1  -3  -1 22.8700 1.31303   3
   1  -3   1 21.9074 1.44799   2
  -1   3  -1 21.9948 1.54471   2
   1   3   1 21.9227 1.45205   6
   1   3   1 23.4880 1.30363   4
   1   3   1 23.2082 1.26222   3
   1   3   1 23.1001 1.26510   2
  -1   3  -1 22.9159 1.34493   4
  -2  -3  -1 278.412 12.3285   6
  -2  -3  -1 277.894 11.9885   3
  -2   3  -1 263.143 12.2357   2
   2   3   1 267.839 11.9639   2
   2   3   1 269.144 11.7993   4
  -2   3  -1 265.707 11.8870   4
  -3  -3  -1 454.363 19.6991   3
  -3  -3  -1 434.979 20.1167   6
  -3   3  -1 438.316 20.0644   2
   3   3   1 451.468 19.2365   4
  -4  -3  -1 91.5460 5.13853   3
  -4  -3  -1 86.7838 6.01212   6
   4  -3   1 82.1198 4.79843   5
  -4   3  -1 90.2981 5.88855   2
  -4   3  -1 87.3855 5.28945   3
  -5  -3  -1 5.70250 2.84321   3
   5  -3   1 2.50946 2.38179   5
  -5   3  -1 9.38788 3.37602   2
  -6  -3  -1 41.9312 4.86224   3
   6  -3   1 42.5873 4.49366   5
   6   3   1 33.1502 4.00132   5
  -6   3  -1 35.5422 4.99706   3
   6  -4  -1 7.06016 3.15954   5
  -6  -4   1 13.4848 4.11250   3
   6   4  -1 6.59297 2.94653   5
  -6   4   1 11.0063 3.77887   3
  -5  -4   1 197.501 10.4391   3
   5  -4  -1 212.828 10.1388   5
   5   4  -1 213.453 10.2225   5
  -5   4   1 209.789 11.4843   2
  -5   4   1 211.249 10.6833   3
   4  -4  -1 77.0200 4.35332   5
  -4  -4   1 78.3616 4.71710   3
  -4   4   1 74.8831 3.82696   4
  -4   4   1 83.0543 4.78188   3
   4   4  -1 79.0986 4.48919   5
  -4   4   1 83.8724 5.62311   2
  -4   4   1 76.5611 3.78830   4
   3  -4  -1 67.6998 3.72076   5
  -3  -4   1 70.5712 3.94109   3
  -3   4   1 72.0999 3.98029   3
   3   4  -1 70.2516 3.75859   5
  -3   4   1 76.4277 4.49512   2
   2   4  -1 1243.02 53.1196   4
   1   4  -1 1128.73 48.4322   3
   0  -4  -1 406.828 16.8649   2
   0  -4  -1 398.366 16.9872   6
   0  -4   1 378.612 17.0461   2
   0  -4   1 394.319 16.7121   5
   0   4  -1 389.242 16.9462   4
   0   4  -1 384.831 17.0706   2
   0   4   1 416.684 16.8149   3
   0   4  -1 338.860 16.9884   3
   0   4  -1 400.331 16.7072   6
   1  -4   1 1339.07 57.9500   2
   1   4   1 1362.07 57.9708   6
  -2  -4  -1 349.921 15.2782   3
   2  -4   1 353.892 15.2671   6
  -2  -4  -1 354.029 15.6214   6
   2   4   1 334.314 15.2565   2
  -2   4  -1 345.309 15.6339   2
   2   4   1 348.621 15.1183   4
  -3  -4  -1 38.2681 3.22757   6
  -3  -4  -1 36.5295 2.67833   3
  -3   4  -1 37.6317 3.38729   2
   3   4   1 33.9441 2.05633   4
  -4  -4  -1 198.457 10.1504   6
   4  -4   1 189.054 8.99290   5
  -4  -4  -1 187.995 9.24759   3
  -4   4  -1 186.587 9.42626   3
  -4   4  -1 195.362 9.99210   2
   4   4   1 178.318 9.01120   5
   5  -4   1 104.654 6.13762   5
  -5  -4  -1 103.054 8.77314   3
   5   4   1 111.360 6.15985   5
  -5   4  -1 103.728 6.67848   3
  -5   4  -1 110.911 7.52518   2
  -6  -4  -1 7.42642 4.09927   3
   6  -4   1 6.90860 3.37885   5
   6   4   1 3.14775 3.24405   5
  -6   4  -1 10.7905 4.35001   2
  -6   4  -1 6.47776 3.75414   3
  -6  -5   1 182.330 10.3480   3
   6  -5  -1 188.238 9.99206   5
  -6   5   1 195.403 10.3593   3
   6   5  -1 192.887 10.1117   5
  -6   5   1 198.708 11.7548   2
   5  -5  -1 4.43188 2.27549   5
  -5   5   1 8.27074 3.58695   3
  -5   5   1 11.6114 3.37540   2
   4  -5  -1 634.491 27.9719   5
  -4  -5   1 646.603 28.2831   3
  -4   5   1 627.681 28.9024   2
  -4   5   1 641.258 28.3048   3
   4   5  -1 645.919 28.0854   5
  -3  -5   1 1098.37 47.2776   3
   3  -5  -1 1075.07 47.0448   5
  -3   5   1 1104.89 47.3243   3
  -3   5   1 1089.04 47.7446   2
   3   5  -1 1098.41 47.1374   5
   2  -5  -1 38.9830 2.16024   5
  -2  -5   1 42.5632 2.42858   3
  -2  -5   1 38.7712 2.77889   6
   2   5  -1 39.7881 2.19259   5
   2   5  -1 40.7863 2.00065   4
  -2   5   1 41.7184 2.90683   2
  -1  -5   1 2812.89 127.254   1
   1  -5  -1 2855.26 137.140   1
   1   5  -1 2807.90 126.274   1
  -1   5   1 2776.88 137.294   1
   0   5  -1 1960.37 84.0062   3
  -1  -5  -1 561.067 23.7034   3
   1  -5   1 572.200 23.5537   5
   1  -5   1 569.157 23.5676   6
  -1  -5  -1 540.009 23.9199   6
  -1   5  -1 546.137 24.0237   2
   1   5   1 570.343 23.7549   4
   1   5   1 536.333 23.6820   3
   1   5   1 499.811 23.7006   2
  -2  -5  -1 317.635 14.6903   6
  -2  -5  -1 321.485 14.2084   3
   2  -5   1 328.142 14.1634   6
  -2   5  -1 321.792 14.6260   2
   2   5   1 314.121 14.2024   2
   2   5   1 329.396 14.0815   4
  -3  -5  -1 1256.54 55.8617   6
  -3  -5  -1 1349.48 55.4483   3
  -3   5  -1 1269.58 55.9006   2
   3   5   1 1259.92 55.0574   4
  -4  -5  -1 259.238 12.5477   6
   4  -5   1 257.224 11.4843   5
  -4  -5  -1 246.354 11.6524   3
  -4   5  -1 247.753 12.4706   2
  -4   5  -1 230.016 11.7999   3
   4   5   1 236.171 11.4103   5
  -5  -5  -1 48.6677 6.21760   3
   5  -5   1 36.1946 3.56754   5
  -5   5  -1 35.3648 4.64145   2
  -5   5  -1 40.4250 4.40979   3
   5   5   1 36.8038 3.59756   5
  -6  -5  -1 89.1216 6.55810   3
   6  -5   1 95.5448 6.37223   5
  -6   5  -1 96.1892 9.77450   3
   6   5   1 59.7832 7.46818   5
  -6   5  -1 79.9880 7.81206   2
  -6  -6   1 6.94280 4.16618   3
   6  -6  -1 10.6975 3.21145   5
  -6   6   1 8.62429 4.27772   2
   6   6  -1 13.1164 3.18520   5
  -6   6   1 13.5858 4.12917   3
  -5  -6   1 3.26694 2.88786   3
   5  -6  -1 1.49323 2.39802   5
  -5   6   1 6.19777 3.25762   3
  -5   6   1 3.44919 3.76533   2
   5   6  -1 1.53887 2.64554   5
   4  -6  -1 10.7810 1.98358   5
  -4  -6   1 10.6685 2.45923   3
  -4   6   1 12.2098 2.95744   2
   4   6  -1 8.22068 1.93693   5
  -4   6   1 10.3877 2.44074   3
  -3  -6   1 13.1205 1.93651   3
   3  -6  -1 11.7139 1.42075   5
   3   6  -1 10.7318 1.62083   5
  -3   6   1 8.26620 2.10018   2
   3   6  -1 7.65780 0.82221   4
   3   6  -1 9.37226 0.84530   4
   2  -6  -1 3.98496 0.81748   5
  -2  -6   1 2.51168 1.29739   6
   2   6  -1 2.82470 0.60879   4
   2   6  -1 2.54141 0.84422   5
   1  -6  -1 20.5769 1.13105   5
  -1  -6   1 21.8149 1.66540   3
  -1  -6   1 19.0542 1.49331   6
   1   6  -1 18.2653 1.26141   4
   1   6  -1 18.9758 1.41626   6
   1   6  -1 20.6714 1.18166   5
  -1   6   1 21.2202 1.67466   2
   0  -6   1 84.0784 3.69481   5
   0  -6  -1 85.3114 4.08472   2
   0  -6   1 86.6764 3.79222   6
   0  -6  -1 90.8066 4.11197   6
   0   6   1 85.7699 4.05044   2
   0   6  -1 76.9446 3.84175   6
   0   6   1 93.0471 4.08423   3
   0   6   1 78.1340 3.81748   5
   0   6  -1 86.1992 4.35503   2
   1  -6   1 60.0129 2.66412   6
  -1  -6  -1 57.3459 2.92780   3
  -1  -6  -1 57.5523 3.15521   6
   1  -6   1 61.0497 2.65186   5
   1   6   1 56.4090 2.85361   3
  -1   6  -1 61.8601 3.40945   2
   1   6   1 56.6420 2.95596   2
   1   6   1 56.8267 2.97653   4
  -2  -6  -1 135.979 6.93508   6
  -2  -6  -1 140.756 6.37376   3
   2  -6   1 136.563 6.24477   6
   2   6   1 124.684 6.45125   2
  -2   6  -1 144.130 6.92178   2
  -3  -6  -1 33.6828 2.71910   3
   3   6   1 36.7181 2.21709   4
  -3   6  -1 35.5816 3.64511   2
  -4  -6  -1 2.90232 2.40351   6
  -4  -6  -1 3.44621 2.45199   3
   4  -6   1 0.28031 1.67011   5
  -4   6  -1 1.69021 2.38844   3
   4   6   1 4.89779 2.10497   5
  -4   6  -1 6.22044 2.92622   2
  -5  -6  -1 4.03931 2.99702   3
   5  -6   1 -0.3680 2.54105   5
  -5   6  -1 5.79350 3.67705   2
   5   6   1 0.28879 2.33064   5
  -5   6  -1 2.04814 3.46600   3
   6  -6   1 0.96036 3.14945   5
  -6  -6  -1 6.61732 7.48904   3
  -6   6  -1 3.73906 6.15118   3
  -6   6  -1 4.01652 4.37968   2
   6   6   1 -0.8965 4.49543   5
   6  -7  -1 15.1561 3.48245   5
  -6   7   1 18.8439 7.71752   2
  -6   7   1 21.8608 6.81048   3
   6   7  -1 20.2404 5.26988   5
   5  -7  -1 0.68799 2.30429   5
  -5  -7   1 1.99380 2.98689   3
  -5   7   1 0.22746 3.51180   2
  -5   7   1 -1.8706 2.65386   3
   5   7  -1 2.22049 2.34737   5
   4  -7  -1 410.497 18.2243   5
  -4  -7   1 404.019 18.5713   3
  -4   7   1 407.279 18.6566   3
   4   7  -1 415.173 18.3519   5
  -4   7   1 413.416 19.4108   2
   3  -7  -1 839.472 35.9443   5
   3   7  -1 872.079 36.0848   5
   3   7  -1 810.411 35.7241   4
  -3   7   1 831.850 36.8133   2
   3   7  -1 811.114 35.7728   4
  -2  -7   1 60.8244 3.18623   3
  -2  -7   1 54.6284 3.43219   6
   2   7  -1 49.0270 2.82587   4
  -2   7   1 51.3475 3.47154   2
   2   7  -1 52.1472 2.73002   5
  -1  -7   1 995.755 41.8011   3
   1  -7  -1 1009.75 41.3959   5
  -1  -7   1 979.866 41.7132   6
   1   7  -1 978.639 41.4391   5
   1   7  -1 890.459 41.8912   2
   1   7  -1 951.179 41.6710   6
   0  -7   1 3788.68 179.317   1
   0  -7   1 3727.14 176.729   1
   0  -7  -1 3856.63 176.980   1
   0   7   1 4014.80 178.143   1
  -1  -7  -1 243.326 10.5535   3
   1  -7   1 237.135 10.1849   6
   1  -7   1 236.149 10.1892   5
  -1  -7  -1 225.085 10.6896   6
  -1   7  -1 243.135 10.9848   2
   1   7   1 229.886 10.4846   2
   1   7   1 238.160 10.5438   4
  -2  -7  -1 597.487 27.3445   6
  -2  -7  -1 638.760 27.0205   3
   2  -7   1 613.855 26.8207   6
   2   7   1 635.490 26.9107   4
  -2   7  -1 617.885 27.5445   2
  -3  -7  -1 851.132 37.1300   6
  -3  -7  -1 856.197 36.5985   3
   3  -7   1 823.447 36.3320   5
   3   7   1 824.326 36.2575   4
  -3   7  -1 849.282 37.2738   2
  -4  -7  -1 132.776 7.11940   3
   4  -7   1 135.129 6.78366   5
  -4  -7  -1 134.128 8.13920   6
  -4   7  -1 135.161 8.25975   2
   4   7   1 134.462 6.98732   5
  -5  -7  -1 15.5150 3.47500   3
   5  -7   1 14.0879 2.65853   5
  -5   7  -1 17.0998 3.85116   3
  -5   7  -1 16.9541 4.32396   2
   5   7   1 12.2283 2.96979   5
  -6  -7  -1 74.2172 9.87055   3
   6  -7   1 72.4902 5.63489   5
  -6   7  -1 70.5902 6.90727   3
   6   7   1 57.2870 5.04749   5
   6  -8  -1 7.35596 3.17810   5
  -6  -8   1 10.9871 4.49006   3
  -6   8   1 15.0944 5.30739   2
   6   8  -1 7.90235 4.90452   5
  -6   8   1 11.4591 3.89118   3
  -5  -8   1 19.1102 3.65162   3
   5  -8  -1 9.99404 2.54178   5
   5   8  -1 14.9322 2.79839   5
  -5   8   1 14.9901 1.95535   4
  -5   8   1 16.6249 3.51910   3
  -5   8   1 16.5026 4.16684   2
   4  -8  -1 5.92227 1.80590   5
  -4  -8   1 7.74267 2.51356   3
   4   8  -1 5.56809 2.00759   5
  -4   8   1 1.15103 2.25160   3
  -4   8   1 3.83481 2.65057   2
   3  -8  -1 41.3927 2.48111   5
  -3  -8   1 41.0228 3.14884   3
   3   8  -1 38.0380 2.56175   5
  -3   8   1 40.4385 3.70843   2
   3   8  -1 36.6913 2.13310   4
   3   8  -1 40.9522 2.26254   4
   2  -8  -1 100.618 4.64552   5
  -2  -8   1 107.669 5.16821   3
  -2   8   1 95.0421 5.45536   2
   2   8  -1 98.7367 4.74714   5
   1  -8  -1 39.7770 2.09680   5
  -1  -8   1 47.0061 2.95010   3
  -1   8   1 44.3844 2.81614   2
   1   8  -1 48.8657 2.20228   5
   1   8  -1 43.8571 3.11777   2
   0  -8   1 10.4936 0.92993   6
   0   8  -1 12.5828 1.80236   2
   0   8   1 12.5171 1.39257   2
   0   8   1 10.9151 0.72251   5
  -1  -8  -1 67.4392 3.52513   3
   1  -8   1 58.2347 2.81172   5
  -1  -8  -1 61.3592 3.54137   6
   1  -8   1 63.1883 2.79931   6
   1   8   1 64.0337 2.94714   5
   2  -8   1 157.994 8.02212   6
  -2  -8  -1 181.763 8.04245   3
  -2  -8  -1 176.310 8.46199   6
  -2   8  -1 185.668 8.78662   2
   2   8   1 151.043 7.97414   2
   2   8   1 180.896 7.93064   4
  -3  -8  -1 6.86196 2.41773   6
   3  -8   1 5.02847 1.35598   5
   3   8   1 6.25837 1.28570   4
  -3   8  -1 6.57570 2.69211   2
  -4  -8  -1 27.6183 3.16855   3
   4  -8   1 21.0747 2.42126   5
  -4  -8  -1 17.7939 3.46677   6
   4   8   1 23.5909 2.84958   5
  -4   8  -1 24.2404 4.05332   2
   4   8   1 17.0368 1.69966   4
   5  -8   1 9.37679 2.60965   5
  -5  -8  -1 9.19767 3.37998   3
  -5   8  -1 5.73232 4.05591   3
   5   8   1 10.3501 2.91464   5
  -5   8  -1 8.85507 4.04904   2
   6  -8   1 2.32936 3.26237   5
  -6  -8  -1 3.29263 3.98908   3
  -6   8  -1 6.70636 4.76418   2
   6   8   1 3.41616 2.78644   5
  -6   8  -1 5.67296 4.19774   3
  -6  -9   1 62.9843 6.01420   3
   6  -9  -1 53.7817 4.95369   5
  -6   9   1 41.0518 6.26750   2
   6   9  -1 55.0079 5.24129   5
  -6   9   1 64.9957 5.67188   3
  -5  -9   1 6.80208 3.38535   3
   5  -9  -1 2.11514 2.33382   5
  -5   9   1 2.04653 1.78762   4
   5   9  -1 4.45583 2.46975   5
  -5   9   1 0.80933 3.29178   3
  -5   9   1 4.92824 3.38468   2
   4  -9  -1 231.882 10.6893   5
  -4  -9   1 247.406 11.4658   3
  -4   9   1 225.240 11.2735   3
  -4   9   1 225.696 12.2112   2
   4   9  -1 232.081 10.9427   5
  -3  -9   1 701.530 30.0004   3
   3   9  -1 689.365 29.6925   5
  -3   9   1 669.469 30.5524   2
   3   9  -1 670.586 29.5008   4
  -2  -9   1 23.9405 2.58661   6
  -2  -9   1 28.6513 2.52305   3
   2  -9  -1 21.6740 1.57214   5
  -2   9   1 22.5944 2.65941   2
   2   9  -1 21.7194 1.69274   5
   1  -9  -1 787.542 32.9533   5
  -1  -9   1 721.275 33.5982   3
   1  -9  -1 771.096 33.4254   6
  -1  -9   1 783.481 33.4383   6
   1   9  -1 791.279 33.0812   5
   0   9   1 1446.08 61.6890   5
  -1  -9  -1 492.465 22.2722   6
  -1  -9  -1 493.996 22.2512   3
  -1   9  -1 524.815 22.6760   2
   1   9   1 519.705 22.1303   2
   1   9   1 499.672 21.7984   5
  -2  -9  -1 454.288 21.4690   6
   2  -9   1 465.345 20.7211   5
   2  -9   1 514.766 21.2407   6
  -2  -9  -1 480.678 21.1215   3
   2  -9   1 486.895 20.7024   5
  -2   9  -1 480.152 21.8502   2
   2   9   1 461.930 21.1102   2
   2   9   1 496.871 21.1042   4
  -3  -9  -1 625.599 27.7091   3
  -3  -9  -1 644.639 28.3681   6
   3  -9   1 621.724 27.3568   5
   3   9   1 623.561 27.4309   4
  -3   9  -1 639.071 28.6945   2
  -4  -9  -1 106.168 7.15094   6
   4  -9   1 114.615 5.85019   5
  -4  -9  -1 116.266 6.66437   3
  -4   9  -1 118.168 7.64838   2
   4   9   1 106.588 5.96964   5
  -5  -9  -1 26.2801 3.98390   3
   5  -9   1 22.8365 3.22367   5
  -5   9  -1 23.8687 4.45772   3
   5   9   1 24.8594 3.46095   5
  -5   9  -1 28.7682 5.40664   2
  -5 -10   1 61.7780 5.97290   3
   5 -10  -1 55.9631 4.45718   5
   5  10  -1 60.6261 4.78462   5
  -5  10   1 66.7354 5.72814   3
  -5  10   1 59.0387 4.08573   4
  -5  10   1 59.7523 6.31640   2
  -4 -10   1 77.4073 5.36549   3
   4 -10  -1 80.3032 4.41006   5
   4  10  -1 78.7103 4.60746   5
  -4  10   1 77.7388 6.41347   2
   3 -10  -1 56.8310 3.70684   5
  -3 -10   1 65.9443 4.20673   3
  -3  10   1 60.1289 4.69095   2
   3  10  -1 56.8819 3.46474   5
   3  10  -1 56.4209 3.24449   4
  -2 -10   1 700.820 29.9410   3
  -2 -10   1 685.413 29.9876   6
   2 -10  -1 713.238 29.3027   5
   2  10  -1 673.912 29.4256   5
  -2  10   1 665.618 30.2149   2
   2  10  -1 648.863 30.0508   2
  -1 -10   1 509.631 22.3026   6
   1 -10  -1 505.706 22.2354   6
   1  10  -1 514.128 22.6867   2
  -1  10   1 489.670 22.5949   2
   1  10  -1 526.055 21.9031   5
   0 -10   1 5.76443 0.84602   6
   0 -10  -1 7.60477 1.29985   6
   0  10  -1 4.14652 1.80485   2
   0  10   1 6.23954 1.48076   2
   1  10   1 1392.37 59.3259   2
   1  10   1 1363.56 58.9577   5
  -2 -10  -1 336.191 15.5639   6
   2 -10   1 334.761 14.6788   6
  -2 -10  -1 339.451 15.2447   3
   2 -10   1 329.486 14.6433   5
   2 -10   1 336.394 14.6181   5
   2  10   1 333.371 15.1380   2
   2  10   1 348.632 15.1267   4
  -2  10  -1 347.464 16.0462   2
  -3 -10  -1 5.51450 2.19873   3
  -3 -10  -1 5.15264 2.51185   6
   3  10   1 5.31391 1.99070   2
   3  10   1 6.29161 1.50129   4
  -3  10  -1 6.36523 2.89681   2
   3  10   1 4.63393 1.74104   5
  -4 -10  -1 111.936 6.55002   3
   4 -10   1 118.266 5.91690   5
  -4 -10  -1 108.657 7.54287   6
  -4  10  -1 115.472 8.27166   2
   4  10   1 115.974 6.24975   5
   4  10   1 110.017 5.61006   4
   5 -10   1 89.7264 5.46642   5
  -5 -10  -1 95.1630 6.81321   3
  -5  10  -1 84.2368 6.89952   3
  -5  10  -1 88.9839 8.41713   2
   5  10   1 85.5083 5.77124   5
   5 -11  -1 -0.3066 2.25783   5
  -5 -11   1 10.9988 4.28799   3
  -5  11   1 1.71216 3.54886   3
   5  11  -1 -1.1163 2.57665   5
  -5  11   1 -0.3938 2.05452   4
  -5  11   1 1.95647 3.94810   2
   4 -11  -1 128.261 6.66216   5
  -4 -11   1 149.533 7.76076   3
   4  11  -1 133.767 6.97701   5
   3 -11  -1 105.845 4.95975   5
  -3 -11   1 110.342 6.21128   3
   3  11  -1 89.7187 6.17357   2
  -3  11   1 100.741 6.45609   2
   3  11  -1 101.263 6.09512   4
  -2 -11   1 19.8938 2.78068   3
   2 -11  -1 15.2886 1.33175   5
  -2 -11   1 14.2835 2.29562   6
  -2  11   1 22.9993 3.02757   2
   2  11  -1 22.4078 2.85671   2
   2  11  -1 17.5252 1.62640   5
  -1 -11   1 275.229 12.2820   6
   1 -11  -1 267.239 12.1604   6
   1  11  -1 275.912 12.7937   2
  -1  11   1 262.773 12.6589   2
   1  11  -1 277.423 11.7816   5
   0 -11   1 366.956 15.7959   6
   0 -11  -1 357.454 16.0812   6
   0  11   1 360.377 16.5902   2
   0  11  -1 367.012 16.7174   2
  -1 -11  -1 5.38075 1.63904   6
   1  11   1 1.69544 0.67173   5
   1  11   1 3.59930 1.50136   2
  -1  11  -1 0.87729 2.02109   2
   1  11   1 2.74065 0.77631   5
   2 -11   1 3.22892 0.64085   6
  -2 -11  -1 2.87190 2.17333   3
   2 -11   1 3.58553 0.72450   5
   2 -11   1 1.55686 0.64204   6
  -2 -11  -1 2.79618 1.92614   6
   2  11   1 4.47596 1.55332   4
  -2  11  -1 0.19513 2.37222   2
  -3 -11  -1 155.974 7.77846   3
   3 -11   1 144.741 7.05013   5
  -3 -11  -1 153.186 8.46592   6
   3  11   1 159.138 7.35403   5
  -3  11  -1 161.452 9.25889   2
   3  11   1 143.868 7.66138   2
   3  11   1 147.840 7.30556   4
   4 -11   1 41.4724 3.21018   5
  -4 -11  -1 39.7340 4.36224   3
   4  11   1 39.6465 4.14239   2
  -4  11  -1 42.1915 5.64305   2
   4  11   1 44.4870 3.69669   5
  -5 -11  -1 4.45777 4.07891   3
   5 -11   1 -1.3524 2.18354   5
  -5  11  -1 0.25071 4.50462   2
   5  11   1 1.29924 2.75700   5
  -5  11  -1 -6.0819 4.31056   3
  -5 -12   1 183.408 10.6059   3
   5 -12  -1 189.759 9.14809   5
  -5  12   1 197.110 11.8679   2
  -5  12   1 183.278 9.28082   4
  -5  12   1 176.441 10.1034   3
   5  12  -1 186.578 9.49510   5
  -4 -12   1 46.9582 4.61871   3
  -4  12   1 48.2251 5.76186   2
   4  12  -1 31.0316 4.21747   2
   4  12  -1 45.9087 3.56760   5
   3 -12  -1 156.747 6.84525   5
  -3 -12   1 144.464 7.90091   3
  -3  12   1 143.075 8.64990   2
   3  12  -1 147.795 8.15803   2
   3  12  -1 153.116 7.10621   5
   3  12  -1 138.024 7.11583   4
   2 -12  -1 650.578 31.5831   5
   2 -12  -1 747.949 32.1578   6
  -2 -12   1 775.660 32.5768   6
  -2 -12   1 714.117 32.5517   3
  -2  12   1 754.414 32.9688   2
   2  12  -1 794.640 31.9018   5
  -1 -12   1 413.961 17.8048   6
   1 -12  -1 396.532 17.6587   6
   1  12  -1 415.049 18.3636   2
   1  12  -1 392.340 17.2490   5
  -1  12   1 387.739 18.1929   2
   0 -12  -1 155.617 7.28974   6
   0 -12   1 149.461 6.87514   6
   0  12  -1 149.210 8.12992   2
   0  12   1 154.792 7.61595   2
  -1 -12  -1 418.857 19.4207   6
   1  12   1 452.751 19.3985   2
   1  12   1 402.140 18.7755   5
   1  12   1 436.727 18.7298   5
  -1  12  -1 465.340 20.1829   2
  -2 -12  -1 555.090 25.8918   6
   2  12   1 596.925 25.5883   4
   2  12   1 573.807 25.5375   2
  -2  12  -1 594.608 26.6008   2
  -3 -12  -1 10.8321 3.01874   3
  -3 -12  -1 5.99836 2.78734   6
   3 -12   1 7.45651 1.28324   5
   3  12   1 6.41553 2.20110   2
   3  12   1 6.86658 1.85416   5
  -3  12  -1 9.49080 3.42707   2
   3  12   1 4.87027 1.73585   4
  -4 -12  -1 137.428 8.26359   3
   4 -12   1 149.311 7.05212   5
  -4 -12  -1 138.555 8.94989   6
   4  12   1 137.117 7.77829   2
   4  12   1 149.460 7.46960   5
  -4  12  -1 151.449 9.97473   2
  -5 -12  -1 89.1993 7.07302   3
   5 -12   1 90.4474 5.39246   5
   5  12   1 82.5278 5.63963   5
  -5  12  -1 77.0530 7.24414   3
  -5  12  -1 92.3227 9.09614   2
  -5 -13   1 0.39598 3.93609   3
  -5  13   1 1.09241 3.75583   3
  -5  13   1 -0.4823 2.44822   4
   5  13  -1 2.27542 2.73423   5
   5  13  -1 5.42903 3.82091   2
  -4 -13   1 5.65258 3.53020   3
   4 -13  -1 -1.9742 1.69298   5
   4  13  -1 -1.9642 2.05983   5
   4  13  -1 0.41953 3.15535   2
  -4  13   1 0.14828 3.69113   2
  -3 -13   1 12.7440 3.40244   3
   3  13  -1 15.3811 2.00603   5
   3  13  -1 18.6195 2.15761   4
   3  13  -1 13.6854 3.26318   2
  -3  13   1 11.8048 3.48730   2
   2 -13  -1 2.97377 1.48499   6
  -2 -13   1 -0.6470 2.59302   3
  -2 -13   1 1.03644 1.94843   6
  -2  13   1 3.21888 2.51065   2
   2  13  -1 3.43003 1.11967   5
   2  13  -1 5.17390 2.63855   2
   1 -13  -1 3.37782 1.31935   6
  -1 -13   1 1.30125 1.35844   6
   1  13  -1 1.33978 0.44238   5
  -1  13   1 2.90733 2.14338   2
   1  13  -1 -0.8865 2.33889   2
   1  13  -1 3.27953 0.48051   5
   0 -13  -1 9.92034 1.72193   6
   0 -13   1 9.78449 1.13553   6
   0  13   1 8.52086 2.17490   2
   0  13  -1 10.2446 2.80394   2
  -1 -13  -1 42.6147 3.44573   6
   1  13   1 47.0400 3.65195   2
   1  13   1 45.6220 2.23236   5
  -1  13  -1 45.2608 4.83113   2
  -2 -13  -1 22.6413 3.04071   6
  -2 -13  -1 22.2095 3.44212   3
   2  13   1 25.6041 3.03670   2
  -2  13  -1 25.8810 4.21298   2
   2  13   1 26.1028 2.70781   4
  -3 -13  -1 5.92360 3.15672   3
   3 -13   1 7.28456 1.50574   5
  -3 -13  -1 8.49102 3.17801   6
  -3  13  -1 9.73895 3.58108   2
   3  13   1 7.11778 1.94622   4
   3  13   1 8.66501 2.38093   2
   3  13   1 4.94487 1.77937   5
  -4 -13  -1 2.96393 3.36446   6
   4 -13   1 2.41180 2.67648   5
  -4 -13  -1 6.15796 3.57378   3
   4  13   1 1.97306 2.17914   5
  -4  13  -1 -1.7037 4.33379   2
   4  13   1 0.66674 2.42238   2
  -5 -13  -1 1.76938 4.25991   3
   5  13   1 1.45532 2.59470   5
  -5  13  -1 5.09742 5.35806   2
  -5  13  -1 -7.7731 4.18129   3
  -5 -14   1 116.397 8.29512   3
  -5  14   1 124.932 9.92662   2
  -5  14   1 124.232 7.30435   4
  -5  14   1 140.905 11.1419   3
   5  14  -1 134.005 7.12257   5
   5  14  -1 118.057 8.44865   2
  -4 -14   1 55.4922 5.67350   3
   4  14  -1 64.6601 6.13555   2
   4  14  -1 55.8802 4.07728   5
  -4  14   1 64.6728 6.85875   2
   3 -14  -1 53.0168 3.78248   6
  -3 -14   1 54.8325 5.09681   3
   3  14  -1 63.0665 5.51233   2
  -3  14   1 57.0167 5.33424   2
   3  14  -1 47.6512 3.71681   4
   3  14  -1 54.7063 3.55846   5
  -2 -14   1 689.967 30.4688   6
   2 -14  -1 693.033 29.9360   6
   2  14  -1 682.514 30.6959   2
   2  14  -1 703.152 29.7002   5
  -2  14   1 671.087 31.0199   2
  -1 -14   1 436.842 19.4404   6
   1 -14  -1 439.713 19.3097   6
   1  14  -1 455.934 20.2136   2
  -1  14   1 420.866 20.0711   2
   0 -14  -1 44.8149 4.39326   6
   0  14  -1 30.3632 3.85687   2
  -1 -14  -1 795.148 33.9128   6
   1  14   1 779.351 32.9764   5
   1  14   1 785.490 33.9111   2
   1  14   1 685.280 32.9807   5
  -1  14  -1 819.327 34.7970   2
  -2 -14  -1 328.514 15.8771   6
  -2  14  -1 349.492 16.7235   2
   2  14   1 333.645 15.5432   4
   2  14   1 342.549 15.5257   2
  -3 -14  -1 5.56901 3.13833   6
  -3 -14  -1 8.71498 3.58570   3
   3  14   1 3.34730 1.75224   5
   3  14   1 3.97193 2.38378   2
  -3  14  -1 2.41814 3.92255   2
   3  14   1 2.19477 1.91801   4
  -4 -14  -1 131.295 8.28513   3
  -4 -14  -1 121.890 8.72862   6
  -4  14  -1 143.755 10.3256   2
   4  14   1 131.403 9.54106   2
  -5 -14  -1 77.2486 8.76452   3
  -5  14  -1 90.2725 9.63882   2
  -5  14  -1 80.6597 7.65123   3
  -4 -15   1 22.2252 4.62425   3
   4  15  -1 20.2509 4.16840   2
  -4  15   1 28.0458 5.14990   2
   4  15  -1 28.8030 2.97498   5
   3 -15  -1 43.4776 3.26191   6
   3  15  -1 46.1316 5.35669   2
   3  15  -1 40.7091 3.52438   4
  -3  15   1 36.5552 4.84569   2
   3  15  -1 43.7762 3.09938   5
   2 -15  -1 2.26783 1.40699   6
  -2  15   1 -0.5737 2.89504   2
   2  15  -1 0.22360 1.01995   5
   2  15  -1 2.55117 3.04300   2
   1 -15  -1 126.223 6.15454   6
  -1  15   1 123.440 7.28855   2
   1  15  -1 122.602 7.52856   2
   0 -15  -1 52.7288 3.63351   6
   0  15  -1 52.2417 5.28109   2
   0  15   1 56.2643 4.50801   2
  -1 -15  -1 17.8605 2.66051   6
   1  15   1 18.6546 2.84966   2
  -1  15  -1 14.6855 3.83688   2
   1  15   1 20.8571 2.94911   4
  -2 -15  -1 11.2488 2.86688   6
   2  15   1 15.3217 2.72891   4
   2  15   1 14.6097 2.05009   5
   2  15   1 16.0424 2.64314   2
  -2  15  -1 16.1324 4.13500   2
  -3 -15  -1 46.0721 4.96841   3
  -3 -15  -1 58.6954 5.48878   6
   3  15   1 54.8355 3.58266   5
   3  15   1 60.2819 4.19522   4
   3  15   1 56.7003 4.57557   2
  -3  15  -1 60.9009 7.07276   2
  -4 -15  -1 15.1977 4.41549   3
  -4 -15  -1 8.22931 3.89884   6
  -4  15  -1 16.3578 5.40658   2
   4  15   1 9.99136 2.51123   5
  -4 -16   1 33.8113 5.42325   3
  -4  16   1 28.4816 5.36682   2
   4  16  -1 26.9381 4.49692   2
   3  16  -1 32.0094 4.37420   2
  -3  16   1 33.6116 4.90404   2
   3  16  -1 29.3080 2.62810   5
   3  16  -1 24.5774 2.96311   4
   2 -16  -1 203.339 9.10049   6
  -2  16   1 186.984 10.7942   2
   2  16  -1 199.395 10.6648   2
   1 -16  -1 154.932 7.88803   6
   1  16  -1 155.690 9.02074   2
  -1  16   1 157.780 8.77049   2
   0 -16  -1 1.64002 1.76501   6
   0  16   1 1.06428 2.59905   2
   0  16  -1 -0.1841 3.18395   2
  -1 -16  -1 299.385 14.2158   6
  -1  16  -1 295.171 15.2191   2
   1  16   1 316.148 14.3853   4
   1  16   1 304.872 14.3979   2
  -2 -16  -1 222.641 11.3217   6
  -2  16  -1 190.838 15.7718   2
   2  16   1 229.440 11.0085   4
   2  16   1 229.888 10.9670   2
  -3 -16  -1 4.43216 3.29065   6
   3  16   1 5.64462 1.78635   5
   3  16   1 5.86439 2.53403   2
   3  16   1 3.99652 2.27060   4
  -3  16  -1 4.64721 4.72871   2
  -4 -16  -1 27.1019 4.78660   3
   4  16   1 26.2777 3.15715   5
   4  17  -1 29.4667 4.75731   2
  -4  17   1 42.1179 4.56865   4
  -4  17   1 40.5071 6.14503   2
   3  17  -1 85.3937 6.93310   2
   3  17  -1 74.0152 5.16904   4
  -3  17   1 77.3287 7.32705   2
  -2  17   1 1.82041 3.24261   2
   2  17  -1 -2.0498 3.17317   2
  -1  17   1 63.2655 5.54224   2
   1  17  -1 64.5254 5.96829   2
   0 -17  -1 346.569 15.4726   6
   0  17  -1 340.292 16.8072   2
   0  17   1 331.578 16.2141   2
  -1 -17  -1 32.8131 3.76826   6
  -1  17  -1 21.9372 4.47017   2
   1  17   1 29.2833 3.66807   2
   1  17   1 26.7462 3.46080   4
  -2 -17  -1 86.9025 6.20892   6
   2  17   1 93.4078 5.97441   4
   2  17   1 93.7812 5.97555   2
  -2  17  -1 92.9405 7.87298   2
  -3 -17  -1 78.3969 6.38299   6
   3  17   1 81.8133 7.87069   2
  -3  17  -1 90.0636 7.97104   2
   3  17   1 85.7374 6.90678   4
  -4  17  -1 20.0563 6.21794   2
  -3  18   1 2.16311 3.94823   2
   3  18  -1 2.80989 3.49100   2
   3  18  -1 1.49242 2.39788   4
   2  18  -1 68.4914 8.77810   2
  -2  18   1 72.2818 6.63119   2
  -1  18   1 42.2378 5.07154   2
   1  18  -1 47.0122 5.72669   2
   0 -18  -1 6.15600 1.97505   6
   0  18   1 5.30344 2.92663   2
  -1 -18  -1 52.0912 4.51125   6
  -1  18  -1 62.8132 6.39905   2
   1  18   1 56.6459 4.70604   4
   1  18   1 54.3855 5.20058   2
  -2 -18  -1 27.5709 3.77948   6
   2  18   1 32.0400 3.85156   4
   2  18   1 26.2046 3.50698   2
  -2  18  -1 19.2505 4.86202   2
  -3 -18  -1 5.89568 3.48372   6
   3  18   1 3.25384 2.52516   4
  -3  18  -1 9.77552 5.30162   2
   3  19  -1 134.732 8.46667   2
   3  19  -1 112.786 7.11251   4
  -2  19   1 5.52111 3.83917   2
   2  19  -1 5.35939 3.65194   2
   2  19  -1 0.76660 2.74838   4
   1  19  -1 153.809 9.86217   2
  -1  19   1 161.427 9.68924   2
   0  19  -1 211.442 12.3474   2
   0  19   1 217.773 12.7425   2
   0  19   1 229.191 11.5605   4
  -1 -19  -1 49.3248 4.53278   6
   1  19   1 43.1498 4.75771   4
   1  19   1 58.1771 5.40660   2
  -1  19  -1 46.4947 5.81221   2
  -2 -19  -1 65.1911 6.03938   6
   2  19   1 67.3227 5.47652   2
  -2  19  -1 58.5422 7.53504   2
   2  19   1 70.8003 5.55207   4
  -3 -19  -1 112.812 7.80427   6
   3  19   1 109.645 6.58001   4
  -3  19  -1 108.507 9.77254   2
  -2  20   1 -0.9834 3.69396   2
   2  20  -1 0.86574 3.81953   2
   2  20  -1 -1.1036 2.95606   4
   1  20  -1 2.17883 3.97605   2
  -1  20   1 2.83728 3.46400   2
   0  20  -1 0.94317 4.10943   2
   0  20   1 1.15371 3.34074   4
   0  20   1 2.95432 3.18878   2
  -1  20  -1 5.25002 4.32784   2
   1  20   1 7.30290 3.59774   4
   1  20   1 10.2239 3.35857   2
  -2 -20  -1 3.40532 3.12029   6
   2  20   1 3.41719 3.23760   4
  -2  21   1 4.37610 4.11693   2
   2  21  -1 9.18222 4.03907   2
  -2  21   1 -1.6578 3.51715   4
  -1  21   1 91.1015 7.47885   2
   1  21  -1 100.192 7.77806   2
  -1  21   1 85.4521 6.64995   4
   0  21   1 132.057 8.48850   2
   0  21  -1 134.188 9.81964   2
   1  21   1 8.70097 3.14510   2
   0  22   1 18.4108 3.86560   2
   0  22   1 10.3392 4.09488   4
   0  22  -1 18.6625 5.13114   2
   6   0  -2 48.1021 4.65552   5
  -6   0   2 45.4507 4.82536   3
  -5   0   2 43.9997 3.98901   3
   5   0  -2 45.2079 4.08076   5
   4   0  -2 737.082 31.8902   5
  -4   0   2 723.473 32.0413   3
  -3   0   2 1094.79 46.9243   3
   3   0  -2 1077.90 46.7907   5
  -2   0   2 43.3762 2.48706   3
   2   0  -2 48.0166 2.45053   5
  -2   0   2 49.4847 2.24649   4
  -1   0   2 4412.11 204.141   1
   1   0  -2 4515.55 203.561   1
   0   0  -2 4323.08 199.029   1
   0   0   2 4356.83 199.113   1
  -1   0  -2 457.598 18.8013   6
  -1   0  -2 428.540 18.6862   4
  -1   0  -2 425.043 18.5981   2
   1   0   2 419.754 18.5356   2
   1   0   2 425.052 18.6913   4
   1   0   2 414.970 18.6515   6
   1   0   2 442.532 18.5673   5
   2   0   2 1569.62 65.7712   2
  -2   0  -2 1496.75 65.7360   4
  -3   0  -2 1652.80 72.6111   6
  -3   0  -2 1677.87 72.4157   2
   3   0   2 1702.00 72.0228   4
  -3   0  -2 1682.80 72.3259   3
  -4   0  -2 52.9455 3.98776   3
  -4   0  -2 54.9398 4.29503   2
   5   0   2 57.7856 4.79661   5
   6   0   2 113.422 7.05766   5
  -6  -1   2 22.9171 3.92873   3
   6  -1  -2 24.9429 3.50797   5
  -6   1   2 20.3738 3.78484   3
   6   1  -2 20.7341 3.60758   5
  -5  -1   2 22.7079 3.30619   3
   5  -1  -2 22.8815 2.90612   5
  -5   1   2 18.9637 3.19055   3
   5   1  -2 22.9110 2.94426   5
  -4  -1   2 6.85397 2.02213   3
   4  -1  -2 3.31576 1.66786   5
  -4   1   2 4.43804 1.91881   3
   4   1  -2 6.65913 1.73994   5
  -3  -1   2 1.93473 1.23782   3
   3  -1  -2 1.46572 1.07350   5
   3   1  -2 1.60376 1.09389   5
  -3   1   2 1.17923 0.40088   4
  -3   1   2 1.96508 1.71315   2
  -3   1   2 1.39449 0.45643   4
  -3   1   2 -1.0724 1.31144   3
  -2  -1   2 203.573 9.38882   3
  -2  -1   2 216.933 9.11964   4
   2  -1  -2 210.697 9.32670   5
  -2   1   2 212.934 9.72709   2
   2   1  -2 201.273 9.08336   4
  -2   1   2 214.405 9.18569   4
   2   1  -2 211.019 9.33221   5
  -2   1   2 213.849 9.39891   3
  -1  -1   2 103.182 4.40657   3
   1  -1  -2 92.5471 4.54479   2
   1  -1  -2 96.9303 4.37663   4
  -1  -1   2 104.137 4.41692   4
   1  -1  -2 98.9438 4.39267   5
  -1  -1   2 96.1211 4.38930   5
   1  -1  -2 98.0255 4.35701   3
  -1   1   2 95.5434 4.38101   5
   1   1  -2 98.5975 4.40612   5
   1   1  -2 92.9301 4.39452   3
   1   1  -2 89.9275 4.36973   4
  -1   1   2 99.3775 4.39774   4
  -1   1   2 103.067 4.35785   3
  -1   1   2 94.2617 4.56154   2
   0  -1   2 2.93145 0.59725   4
   0  -1   2 3.05356 0.61431   5
   0  -1  -2 2.64347 0.63285   5
   0  -1  -2 4.75234 0.57451   4
   0   1   2 3.44957 0.62989   5
   0   1  -2 2.21584 0.61561   5
   0   1   2 3.62495 0.54187   4
   0   1  -2 3.20491 0.57280   4
  -1  -1  -2 151.573 6.74447   2
   1  -1   2 148.033 6.80051   2
  -1  -1  -2 155.072 6.88884   4
   1  -1   2 155.564 6.94289   4
   1  -1   2 153.659 6.77155   5
  -1  -1  -2 159.433 7.07775   6
   1  -1   2 150.640 6.83906   6
  -1   1  -2 154.290 6.90905   2
   1   1   2 152.919 6.90301   4
  -1   1  -2 150.753 6.91950   4
  -1   1  -2 157.000 6.96570   6
   1   1   2 152.816 6.70374   2
   1   1   2 156.354 6.78201   5
   1   1   2 153.548 6.91826   6
  -2  -1  -2 834.607 35.4205   2
   2  -1   2 826.379 35.3688   4
  -2  -1  -2 831.512 35.6949   6
  -2  -1  -2 815.393 35.3024   4
  -2  -1  -2 854.208 35.4338   3
   2   1   2 813.172 35.3150   2
  -2   1  -2 803.777 35.5850   6
  -2   1  -2 796.332 35.5116   2
  -2   1  -2 834.307 35.4065   4
   2   1   2 787.281 35.3224   4
  -3  -1  -2 150.136 7.32076   2
  -3  -1  -2 145.105 7.58527   6
  -3  -1  -2 147.182 7.20553   3
   3  -1   2 145.846 6.89115   4
  -3   1  -2 153.175 7.62096   6
  -3   1  -2 147.054 7.26263   3
  -4  -1  -2 51.1692 4.13396   2
  -4  -1  -2 49.0386 3.75379   3
  -4  -1  -2 53.6306 4.81216   6
  -4  -1  -2 41.8163 2.47733   4
  -4   1  -2 47.7154 3.77833   3
   5  -1   2 4.45557 4.50499   5
  -5   1  -2 8.09613 3.59782   3
   5   1   2 6.44786 2.52607   5
  -5   1  -2 7.71997 3.15374   2
   6  -1   2 -3.3518 2.82073   5
  -6  -1  -2 0.02645 3.91933   3
   6   1   2 1.24001 3.19362   5
  -6   1  -2 2.14537 3.50738   3
   6  -2  -2 76.1026 5.71496   5
  -6  -2   2 76.1901 5.80886   3
   6   2  -2 65.9035 5.27597   5
  -6   2   2 73.5939 6.11928   3
  -5  -2   2 59.2985 4.57068   3
   5  -2  -2 54.1469 4.41577   5
  -5   2   2 57.6397 4.46313   3
   5   2  -2 61.3352 4.28437   5
   4  -2  -2 639.563 28.1316   5
  -4  -2   2 626.782 28.3208   3
   4   2  -2 645.663 28.1754   5
  -4   2   2 649.264 28.3864   3
  -4   2   2 654.430 28.9884   2
  -3  -2   2 787.708 34.8840   3
   3  -2  -2 803.385 34.7468   5
   3   2  -2 792.553 34.7649   5
  -3   2   2 801.984 34.4705   4
  -3   2   2 807.498 34.8946   3
  -3   2   2 829.769 35.3717   2
  -2  -2   2 82.2697 3.53066   4
  -2  -2   2 78.9133 3.88395   3
   2  -2  -2 78.1450 3.80404   5
  -2   2   2 78.0833 4.25752   2
  -2   2   2 76.2394 3.83072   3
  -2   2   2 84.7687 3.68995   4
   2   2  -2 80.3459 3.82406   5
   2   2  -2 75.5317 3.51934   4
   1  -2  -2 2119.66 110.570   1
   1   2  -2 2397.70 119.103   1
  -1   2   2 1937.51 105.518   1
   0  -2   2 2597.83 128.593   1
   0  -2  -2 2667.45 124.166   1
   0   2  -2 2657.42 127.853   1
   0   2   2 2671.80 124.406   1
   1  -2   2 95.9149 4.66300   2
  -1  -2  -2 107.661 4.96741   6
   1  -2   2 101.457 4.55467   5
  -1  -2  -2 99.9076 4.66242   4
  -1  -2  -2 103.508 4.59311   3
   1  -2   2 104.135 4.78518   4
   1  -2   2 101.362 4.60393   6
  -1  -2  -2 100.575 4.47418   2
   1   2   2 101.433 4.70125   4
   1   2   2 100.938 4.57885   5
   1   2   2 99.9687 4.44681   2
  -1   2  -2 102.329 4.73682   4
  -1   2  -2 106.206 4.71176   6
   1   2   2 97.3494 4.74375   6
  -1   2  -2 104.854 4.84078   2
  -2  -2  -2 821.190 34.0747   2
  -2  -2  -2 781.166 34.4148   6
  -2  -2  -2 815.848 34.1094   3
   2  -2   2 803.926 34.0805   4
  -2  -2  -2 765.435 33.9666   4
   2   2   2 772.165 34.0259   4
  -2   2  -2 782.527 34.2429   6
   2   2   2 782.567 33.9807   2
  -2   2  -2 776.081 34.2850   2
  -3  -2  -2 808.413 35.9096   6
  -3  -2  -2 831.482 35.5162   2
   3  -2   2 840.692 35.2302   4
  -3  -2  -2 720.314 35.3337   4
  -3  -2  -2 837.982 35.4730   3
  -3   2  -2 820.396 35.5635   3
  -3   2  -2 810.090 35.7393   2
   3   2   2 849.382 35.3323   4
  -3   2  -2 811.770 35.7189   6
  -4  -2  -2 78.9896 5.71320   6
  -4  -2  -2 88.5471 5.26297   3
  -4   2  -2 81.1347 5.56365   2
  -4   2  -2 81.7562 5.20920   3
   4   2   2 86.2096 4.05707   4
   5   2   2 36.5484 3.67348   5
  -5   2  -2 44.8447 4.57851   3
  -5   2  -2 47.7600 5.35501   2
  -6  -2  -2 46.2265 5.22171   3
   6  -2   2 65.5841 5.57503   5
  -6   2  -2 38.8680 5.06748   3
   6   2   2 49.7355 6.15983   5
   6  -3  -2 44.2695 4.49111   5
  -6  -3   2 56.6343 5.71448   3
  -6   3   2 49.5625 5.22825   3
   6   3  -2 54.7887 4.65726   5
   5  -3  -2 98.4951 5.82535   5
  -5  -3   2 98.5681 6.04641   3
  -5   3   2 94.0828 6.74016   2
   5   3  -2 102.359 5.72518   5
  -5   3   2 92.4121 5.87253   3
   4  -3  -2 33.4182 2.66596   5
  -4  -3   2 39.4100 3.41893   3
  -4   3   2 28.8823 1.73119   4
  -4   3   2 33.8720 2.99493   3
  -4   3   2 32.1997 1.72030   4
   4   3  -2 32.3550 2.77408   5
  -4   3   2 30.5603 3.68447   2
  -3  -3   2 282.015 12.7877   3
   3  -3  -2 279.361 12.5991   5
  -3   3   2 279.513 13.2403   2
  -3   3   2 289.440 12.7930   3
  -3   3   2 294.202 12.4153   4
   3   3  -2 275.766 12.6343   5
   2   3  -2 1130.15 47.9270   5
   2   3  -2 1102.81 47.7599   4
   1  -3  -2 348.506 13.9579   5
  -1  -3   2 321.261 13.9737   4
  -1  -3   2 325.731 14.0255   3
  -1  -3   2 312.038 13.9417   5
   1  -3  -2 309.208 14.1248   2
   1   3  -2 307.958 13.9648   4
  -1   3   2 332.509 13.9085   3
   1   3  -2 324.651 14.0707   3
   1   3  -2 320.560 13.9378   5
  -1   3   2 304.376 13.9144   5
  -1   3   2 329.121 14.0200   4
  -1   3   2 324.941 14.1618   2
   0  -3  -2 382.009 16.2568   4
   0  -3   2 365.256 16.2102   5
   0  -3   2 391.805 16.2984   4
   0  -3  -2 355.219 16.4848   6
   0  -3  -2 374.327 16.2292   5
   0  -3  -2 398.783 16.1116   2
   0   3   2 366.207 16.2831   5
   0   3  -2 373.895 16.2644   4
   0   3   2 400.113 15.9853   3
   0   3  -2 355.773 16.4589   2
   0   3   2 399.329 16.1177   2
   0   3  -2 324.356 16.3221   3
  -1  -3  -2 1403.55 61.5422   4
   1  -3   2 1464.13 61.4333   5
   1  -3   2 1389.80 61.5708   2
  -1   3  -2 1396.84 61.6114   4
   1   3   2 1529.56 61.4874   5
  -2  -3  -2 156.884 7.06365   4
  -2  -3  -2 160.448 7.21258   3
  -2  -3  -2 159.385 7.66283   6
   2  -3   2 156.199 7.21508   4
  -2   3  -2 162.264 7.37925   6
  -2   3  -2 160.337 7.55184   2
   2   3   2 140.594 7.44492   2
   2   3   2 157.112 7.14320   4
  -3  -3  -2 2.13177 1.86670   6
  -3  -3  -2 1.32717 1.42686   3
  -3   3  -2 2.06964 1.72455   2
  -4  -3  -2 202.875 10.6312   6
  -4  -3  -2 192.862 9.66041   3
  -4   3  -2 204.059 10.3140   2
  -4   3  -2 189.290 9.83959   3
   4   3   2 200.300 8.82862   4
  -5   3  -2 57.8387 5.42038   3
  -5   3  -2 66.0009 5.74558   2
   5   3   2 49.0932 4.60079   5
   6  -3   2 2.17339 3.38826   5
  -6  -3  -2 7.54478 3.70429   3
  -6  -4   2 15.6169 3.79802   3
   6  -4  -2 16.0034 3.42024   5
   6   4  -2 19.8742 3.63798   5
  -6   4   2 16.9512 3.74655   3
  -5  -4   2 16.3434 3.71597   3
   5  -4  -2 13.7097 2.75715   5
  -5   4   2 13.8968 3.24559   3
   5   4  -2 14.4433 2.87358   5
  -5   4   2 13.8580 3.76288   2
  -4  -4   2 465.947 20.2999   3
   4  -4  -2 458.155 20.0198   5
  -4   4   2 461.172 21.0064   2
  -4   4   2 447.224 19.6077   4
  -4   4   2 427.158 19.6197   4
   4   4  -2 458.849 20.1389   5
  -4   4   2 452.284 20.2763   3
   3  -4  -2 417.397 18.5867   5
  -3  -4   2 423.650 18.8016   3
  -3   4   2 433.004 18.7996   3
  -3   4   2 426.163 19.2829   2
   3   4  -2 422.789 18.6445   5
  -2  -4   2 1.22301 1.00069   3
   2  -4  -2 1.50029 0.80345   5
  -2   4   2 0.99275 0.83331   4
  -2   4   2 1.17010 0.83393   3
  -2   4   2 0.13171 1.19010   2
   2   4  -2 -0.0811 0.71198   5
   2   4  -2 0.53313 0.51049   4
  -1  -4   2 1342.88 57.9771   5
   1   4  -2 1366.95 58.1608   6
   0  -4   2 2003.52 78.0202   5
   0   4  -2 1770.64 78.2514   3
   0   4   2 1871.55 78.1167   5
   0   4  -2 1653.68 78.0271   5
  -1  -4  -2 37.4651 1.95750   3
  -1  -4  -2 36.7240 2.01730   4
   1  -4   2 39.3552 2.20449   4
  -1  -4  -2 41.5826 2.47152   6
   1  -4   2 38.6662 1.89481   5
   1  -4   2 38.1176 1.85221   6
   1   4   2 38.0357 1.77664   2
   1   4   2 37.2297 1.77223   2
   1   4   2 36.6833 1.90102   3
  -1   4  -2 40.5761 2.61017   2
  -1   4  -2 38.7556 1.93863   6
   1   4   2 39.7410 2.16146   4
   2  -4   2 272.065 11.6992   6
   2  -4   2 270.802 11.8227   4
  -2  -4  -2 262.898 11.7416   3
   2   4   2 252.336 11.8732   4
  -2   4  -2 266.148 11.8289   6
   2   4   2 252.386 11.5842   2
  -2   4  -2 271.999 12.2021   2
  -3  -4  -2 272.061 12.1960   3
  -3  -4  -2 264.669 12.8317   6
   3   4   2 258.100 11.9110   4
  -3   4  -2 271.650 12.7095   2
  -4  -4  -2 109.031 6.10834   3
  -4  -4  -2 109.255 7.12192   6
  -4   4  -2 105.220 6.74633   2
   4   4   2 104.300 5.01113   4
  -4   4  -2 104.930 6.24542   3
  -5  -4  -2 27.5823 3.74829   3
  -5   4  -2 28.8134 4.32705   3
  -5   4  -2 24.2322 4.18618   2
   5   4   2 24.9192 3.23216   5
   6  -4   2 39.5480 4.41533   5
  -6  -4  -2 39.2911 5.91742   3
   6   4   2 47.0262 5.18132   5
  -6  -5   2 39.5753 4.83189   3
   6  -5  -2 35.1962 4.14537   5
  -6   5   2 39.5330 4.85140   3
   6   5  -2 39.6522 4.33983   5
   5  -5  -2 442.775 19.4231   5
  -5   5   2 415.833 19.6664   3
   4  -5  -2 82.8960 4.85833   5
  -4  -5   2 94.7898 5.22158   3
   4   5  -2 88.4707 4.90132   5
  -4   5   2 89.1168 5.12408   3
  -4   5   2 84.7414 5.82094   2
  -4   5   2 90.9424 4.38912   4
  -3  -5   2 676.424 29.6663   3
   3  -5  -2 676.842 29.4500   5
  -3   5   2 709.619 29.4323   4
  -3   5   2 679.706 29.6706   3
   3   5  -2 658.768 29.4872   5
  -3   5   2 674.629 30.1553   2
  -2  -5   2 1947.31 96.5531   1
   2  -5  -2 1856.03 106.885   1
  -2   5   2 2012.88 110.610   1
   2   5  -2 2004.54 97.3150   1
  -1  -5   2 990.348 40.1962   3
  -1  -5   2 911.491 39.9600   5
   1   5  -2 894.986 40.0365   4
   1   5  -2 936.227 40.1435   6
   1   5  -2 960.756 39.9574   5
  -1   5   2 899.712 39.9185   5
   0  -5  -2 934.477 37.0689   2
   0  -5   2 947.312 37.0166   5
   0   5  -2 795.215 37.0546   5
   0   5  -2 845.377 37.4600   2
   0   5   2 792.446 37.1148   5
   1  -5   2 2295.87 98.0429   5
   2  -5   2 840.633 34.7214   6
  -2  -5  -2 811.076 35.2677   6
  -2  -5  -2 797.496 34.7805   3
   2   5   2 762.861 34.7107   2
   2   5   2 815.545 34.7836   4
  -3  -5  -2 30.4050 2.80111   3
  -3  -5  -2 35.7313 3.41266   6
   3   5   2 31.4024 2.37240   4
  -3   5  -2 40.4746 3.63965   2
  -4  -5  -2 321.335 14.9636   3
  -4  -5  -2 336.421 15.9175   6
   4   5   2 315.887 14.1863   4
  -4   5  -2 328.634 15.7607   2
  -4   5  -2 310.663 15.1874   3
  -5  -5  -2 188.674 9.75004   3
   5   5   2 183.223 9.37366   5
  -5   5  -2 189.955 10.1726   3
  -5   5  -2 182.705 11.4159   2
   6  -5   2 -1.7033 3.55844   5
  -6   5  -2 1.44852 3.79955   3
  -6   5  -2 -0.9722 4.02044   2
   6   5   2 -1.2834 3.20071   5
   6  -6  -2 3.95000 3.16484   5
  -6  -6   2 8.40325 4.12109   3
   6   6  -2 7.77595 3.31628   5
  -6   6   2 6.05836 3.35039   3
   5  -6  -2 59.4911 4.36473   5
  -5  -6   2 59.9956 4.85404   3
   5   6  -2 53.2141 4.56604   5
  -5   6   2 59.7084 5.65589   2
   4  -6  -2 7.64439 1.89093   5
  -4  -6   2 10.4498 2.41460   3
  -4   6   2 6.63251 2.55006   2
  -4   6   2 7.12345 1.44895   4
   4   6  -2 12.5138 2.19014   5
  -4   6   2 4.94485 2.20429   3
   3  -6  -2 13.8107 1.50890   5
  -3  -6   2 17.0216 2.32213   3
   3   6  -2 14.3773 1.67760   5
  -3   6   2 15.6246 1.63652   4
   3   6  -2 13.6792 1.07542   4
   3   6  -2 13.4784 0.96382   4
  -3   6   2 16.1736 1.98821   3
  -3   6   2 16.1205 2.83796   2
  -2  -6   2 2.14279 1.25364   3
   2  -6  -2 0.84909 0.81671   5
   2   6  -2 0.83394 0.61606   4
   2   6  -2 0.60778 0.77016   5
  -1  -6   2 1.57315 0.51734   5
  -1  -6   2 3.83476 1.20026   3
   1  -6  -2 1.33010 0.63719   5
   1   6  -2 1.79781 0.58668   5
  -1   6   2 -0.0095 0.46657   5
  -1   6   2 4.67242 1.13694   2
  -1   6   2 1.28267 0.75971   4
   1   6  -2 3.03667 0.75904   6
   0  -6   2 5.20149 0.61870   5
   0  -6  -2 5.87042 0.83731   2
   0  -6  -2 4.96895 1.23382   6
   0  -6  -2 6.11657 0.69999   5
   0   6   2 5.96221 0.62004   3
   0   6  -2 4.14608 1.53224   2
   0   6   2 6.26561 0.84891   2
   0   6  -2 6.35477 0.50178   6
   0   6  -2 5.25226 0.82232   5
   0   6   2 3.96645 0.93178   4
   0   6   2 6.74800 0.91293   5
  -1  -6  -2 252.793 10.6411   3
   1  -6   2 228.533 10.5159   5
  -1  -6  -2 232.526 11.0214   6
   1   6   2 239.950 10.5842   3
   1   6   2 242.413 10.5064   2
  -1   6  -2 257.373 11.3132   2
   1   6   2 239.172 10.7812   4
  -2  -6  -2 50.3994 3.60739   6
  -2  -6  -2 48.3556 2.81981   3
   2  -6   2 49.1789 2.53387   6
  -2   6  -2 49.8169 3.71252   2
   2   6   2 44.7872 2.72808   4
  -3  -6  -2 84.6550 5.46575   6
  -3  -6  -2 79.6472 4.42582   3
   3   6   2 78.0779 4.20139   4
  -4  -6  -2 9.31739 3.08627   6
  -4  -6  -2 15.6587 2.65853   3
  -4   6  -2 12.7280 3.41746   2
  -5  -6  -2 4.59038 3.03741   3
  -5   6  -2 4.33798 3.79350   2
  -5   6  -2 -1.3442 3.36859   3
   5   6   2 -0.7441 2.30148   5
   6  -6   2 2.33823 5.03842   5
  -6  -6  -2 0.08155 4.23362   3
  -6   6  -2 -2.1029 4.36651   3
  -6   6  -2 1.90838 4.57012   2
   6   6   2 1.69610 2.93663   5
   6   7  -2 103.645 8.44625   5
  -6   7   2 108.735 10.8195   2
  -6   7   2 92.0736 6.56773   3
  -5  -7   2 168.713 9.59604   3
   5  -7  -2 174.714 8.91802   5
  -5   7   2 182.728 10.6281   2
  -5   7   2 180.579 9.53103   3
   5   7  -2 186.961 9.04499   5
  -4  -7   2 45.3871 3.69348   3
   4  -7  -2 41.7469 3.16230   5
  -4   7   2 37.6088 3.41387   3
  -4   7   2 40.9041 2.82944   4
   4   7  -2 38.2813 3.35725   5
  -4   7   2 41.2170 4.33091   2
  -3  -7   2 373.545 16.7478   3
   3  -7  -2 376.469 16.4260   5
  -3   7   2 367.163 16.6974   3
  -3   7   2 381.879 16.5850   4
   3   7  -2 364.744 16.4783   5
  -3   7   2 375.005 17.3458   2
  -2  -7   2 1745.09 85.7340   1
   2  -7  -2 1673.84 100.721   1
   2   7  -2 1741.39 86.4506   1
  -2   7   2 1850.46 105.497   1
   1  -7  -2 540.772 23.5731   5
  -1  -7   2 567.340 23.9613   3
  -1  -7   2 536.479 23.5492   5
  -1   7   2 559.306 23.9761   2
   1   7  -2 572.690 23.5553   5
   1   7  -2 547.664 23.7474   6
   1   7  -2 503.392 24.0635   2
   0  -7  -2 301.431 13.3605   2
   0  -7  -2 318.155 13.6279   6
   0  -7   2 312.248 13.0877   5
   0   7  -2 291.741 13.8432   2
   0   7   2 305.759 13.4401   4
   0   7   2 289.043 13.2572   5
   0   7  -2 289.502 13.1599   5
   0   7   2 314.719 13.3400   2
   1   7   2 2209.36 94.4610   3
   2  -7   2 641.948 26.0196   6
  -2  -7  -2 608.253 26.0375   3
  -2  -7  -2 589.842 26.5808   6
   2   7   2 580.172 25.9104   2
  -2   7  -2 630.652 26.8692   2
   2   7   2 538.628 25.8754   2
   2   7   2 604.772 26.0671   4
  -3  -7  -2 13.8151 2.63084   6
  -3  -7  -2 20.9631 2.26655   3
  -3   7  -2 15.8046 2.89737   2
   3   7   2 15.2703 1.78507   4
  -4  -7  -2 370.540 17.1695   3
   4  -7   2 389.503 16.9956   5
  -4  -7  -2 373.478 18.2349   6
  -4   7  -2 404.635 18.4884   2
   4   7   2 346.618 16.9029   4
  -5  -7  -2 97.9707 6.25504   3
   5  -7   2 97.0663 7.91188   5
   5   7   2 86.8280 5.92996   5
  -5   7  -2 88.8841 7.68642   2
  -5   7  -2 89.6402 7.26061   3
  -6  -7  -2 3.31576 4.29055   3
  -6   7  -2 0.05222 4.11236   3
  -6   7  -2 3.68778 6.03596   2
   6   7   2 1.83776 3.12701   5
   6  -8  -2 8.47966 3.15967   5
  -6  -8   2 12.0663 4.13909   3
  -6   8   2 5.91488 4.62497   2
   6   8  -2 11.2213 4.89593   5
   5  -8  -2 34.1660 3.33166   5
  -5  -8   2 33.8128 4.17423   3
  -5   8   2 28.7795 4.43110   2
   5   8  -2 39.5904 3.65672   5
  -5   8   2 34.9981 3.98494   3
  -5   8   2 33.1294 2.66729   4
   4  -8  -2 28.7678 2.65145   5
  -4  -8   2 28.1758 3.38485   3
  -4   8   2 22.4664 2.52692   4
  -4   8   2 29.2216 3.99163   2
   4   8  -2 30.7537 2.93955   5
  -4   8   2 28.1574 3.13928   3
   3  -8  -2 33.2496 2.40460   5
  -3  -8   2 39.4211 3.16887   3
   3   8  -2 33.7399 2.07024   4
  -3   8   2 42.6679 3.66536   2
   3   8  -2 33.5182 2.56812   5
  -2  -8   2 24.6727 2.39830   3
   2  -8  -2 25.7178 1.74544   5
  -2   8   2 23.5245 2.76581   2
   2   8  -2 23.9653 1.76471   5
   1  -8  -2 75.8866 3.88411   5
  -1  -8   2 72.8142 4.47731   3
   1   8  -2 85.2277 4.13548   6
   1   8  -2 92.0423 3.90289   5
  -1   8   2 85.1954 3.79822   5
  -1   8   2 90.1822 4.53238   2
   0  -8  -2 87.2371 4.57184   2
   0  -8  -2 94.9579 4.64522   6
   0  -8   2 89.4083 3.92720   5
   0   8   2 89.5952 4.33823   2
   0   8   2 86.1460 4.06957   3
   0   8  -2 84.2982 4.00627   5
   0   8   2 84.1209 4.10237   5
   1  -8   2 24.5131 1.43973   5
  -1  -8  -2 25.0451 2.04559   3
   1   8   2 24.6711 1.67384   2
  -1   8  -2 24.3490 3.09439   2
   1   8   2 26.8878 2.14763   4
   2  -8   2 81.5321 3.69958   6
  -2  -8  -2 78.7287 4.79225   6
  -2   8  -2 84.8257 5.22994   2
   2   8   2 76.4194 3.93531   2
   2   8   2 78.8095 3.98182   2
  -3  -8  -2 74.0444 5.24016   6
  -3  -8  -2 81.6442 4.57739   3
  -3   8  -2 76.9749 5.60058   2
   3   8   2 73.2915 4.37444   4
  -4  -8  -2 2.71456 3.23370   6
  -4  -8  -2 3.31281 2.69668   3
   4  -8   2 1.18492 1.98591   5
   4   8   2 1.05481 1.48103   4
  -4   8  -2 1.77635 3.34344   2
  -5  -8  -2 4.85413 3.61133   3
  -5  -8  -2 5.97964 3.95402   6
   5  -8   2 3.59053 3.06404   5
  -5   8  -2 4.91028 4.47646   2
  -5   8  -2 -0.2759 3.76664   3
   5   8   2 3.59731 2.83873   5
   6  -9  -2 41.2264 4.45511   5
  -6  -9   2 74.6398 6.76437   3
   6   9  -2 55.1918 5.31815   5
  -6   9   2 58.4010 5.81212   3
  -6   9   2 61.6949 7.48015   2
   5  -9  -2 183.936 9.11796   5
  -5  -9   2 180.611 9.78508   3
  -5   9   2 175.640 9.52706   3
   5   9  -2 189.714 9.24417   5
  -5   9   2 183.824 10.9362   2
   4  -9  -2 24.3310 2.45839   5
  -4  -9   2 26.9254 3.52006   3
   4   9  -2 22.3433 2.56988   5
  -4   9   2 27.1391 3.31976   3
  -4   9   2 23.8116 3.80371   2
  -3  -9   2 192.303 9.02472   3
   3  -9  -2 180.426 8.29277   5
   3   9  -2 173.335 8.37812   5
  -3   9   2 177.255 9.47711   2
  -2  -9   2 1181.00 50.6178   3
   2  -9  -2 1191.48 50.1571   5
   2   9  -2 1185.74 50.2174   5
  -2   9   2 1117.65 50.8527   2
   1  -9  -2 401.750 18.6329   6
   1  -9  -2 418.597 18.1310   5
  -1   9   2 416.760 18.0780   5
   1   9  -2 433.010 18.1633   5
   1   9  -2 444.719 18.5693   6
   1   9  -2 415.097 18.9025   2
  -1   9   2 410.138 18.7020   2
   0  -9   2 166.378 7.53415   5
   0  -9  -2 178.574 8.23959   6
   0   9   2 180.475 7.69726   5
   0   9  -2 163.585 8.61441   2
   0   9   2 173.900 8.11847   4
   0   9  -2 175.577 7.58153   5
   0   9   2 176.331 8.03260   2
  -1  -9  -2 1104.37 47.6778   6
   1  -9   2 1077.61 47.0072   5
  -1  -9  -2 1025.09 47.3850   3
   1   9   2 1111.43 47.4695   4
  -1   9  -2 1148.41 48.1586   2
   1   9   2 1124.38 47.2217   2
  -2  -9  -2 873.363 38.6525   6
   2  -9   2 876.227 37.6265   6
  -2  -9  -2 868.905 38.0912   3
   2   9   2 900.957 38.1708   4
  -3  -9  -2 78.9367 4.42090   3
  -3  -9  -2 71.6287 5.25826   6
   3   9   2 68.7911 4.15848   2
   3   9   2 72.1909 4.15545   4
  -3   9  -2 86.2186 5.92443   2
  -4  -9  -2 228.931 12.0294   6
   4  -9   2 219.502 10.3460   5
  -4  -9  -2 225.995 10.8802   3
   4   9   2 206.997 10.1729   4
  -4   9  -2 232.313 12.3040   2
   4   9   2 209.989 10.4104   5
  -5  -9  -2 96.5287 6.59367   3
  -5  -9  -2 86.1849 7.85116   6
   5  -9   2 92.0538 5.60612   5
  -5   9  -2 74.5848 7.00667   3
   5   9   2 77.6926 5.45004   5
  -5   9  -2 89.8481 8.40678   2
  -5 -10   2 20.2104 4.30097   3
   5 -10  -2 10.0479 2.58519   5
   5  10  -2 14.3121 3.03819   5
  -5  10   2 18.1263 3.63361   3
  -5  10   2 13.5880 4.28754   2
  -5  10   2 10.0095 2.18799   4
  -4 -10   2 168.979 8.98050   3
   4 -10  -2 174.916 8.19620   5
   4  10  -2 173.616 8.43575   5
  -4  10   2 175.911 8.43122   4
  -4  10   2 172.879 8.84761   3
  -4  10   2 162.853 9.59625   2
   3 -10  -2 242.937 10.6513   5
  -3 -10   2 240.434 11.2806   3
   3  10  -2 226.506 10.9422   5
  -3  10   2 232.223 11.8568   2
  -2 -10   2 4.33262 2.12599   3
   2  10  -2 1.26890 1.06522   5
   2  10  -2 0.01474 2.13928   2
  -2  10   2 -0.0870 1.80416   2
   1 -10  -2 738.026 31.9744   6
   1 -10  -2 765.425 31.3864   5
   1  10  -2 718.024 31.4633   5
  -1  10   2 699.256 31.3639   5
   1  10  -2 746.759 32.3367   2
  -1  10   2 729.455 32.0965   2
   0 -10  -2 731.798 31.7771   6
   0  10   2 724.428 31.2154   5
   0  10   2 736.702 31.6472   2
   0  10   2 725.071 31.7397   4
   0  10  -2 720.012 32.2033   2
   1 -10   2 46.1969 2.23775   5
  -1 -10  -2 47.2497 3.51183   6
   1  10   2 47.6540 2.81131   2
   1  10   2 48.6145 3.06114   4
  -1  10  -2 48.1951 4.15251   2
  -2 -10  -2 344.185 16.0673   3
  -2 -10  -2 357.870 16.9002   6
  -2  10  -2 382.436 17.3351   2
   2  10   2 359.438 16.0970   4
   2  10   2 355.763 15.8341   2
  -3 -10  -2 374.777 18.3797   6
   3 -10   2 387.532 17.1716   5
  -3 -10  -2 404.369 17.6315   3
   3  10   2 391.940 17.4143   4
   3  10   2 369.444 17.2620   2
  -3  10  -2 417.266 19.1579   2
  -4 -10  -2 9.71261 3.09674   3
   4 -10   2 12.0613 2.17071   5
   4  10   2 9.63030 2.49703   5
   4  10   2 9.73274 2.13250   2
   4  10   2 8.81540 2.95838   4
   5 -10   2 29.0408 3.36876   5
  -5 -10  -2 21.0734 4.87833   6
  -5 -10  -2 17.3271 4.12264   3
   5  10   2 14.3210 3.09768   5
  -5  10  -2 23.4221 5.53588   2
  -5  10  -2 16.5789 5.08267   3
  -5 -11   2 58.6115 5.60839   3
   5 -11  -2 56.3009 4.32572   5
  -5  11   2 44.6514 5.77542   2
  -5  11   2 56.5631 5.26021   3
  -5  11   2 57.2990 4.08070   4
   5  11  -2 59.3767 4.64274   5
   4 -11  -2 50.2900 3.51444   5
  -4 -11   2 58.8448 7.37106   3
  -4  11   2 49.7103 3.93303   4
   4  11  -2 47.0985 3.64285   5
  -4  11   2 46.2600 4.03361   3
  -3 -11   2 134.846 7.40627   3
   3  11  -2 140.395 6.93774   5
  -3  11   2 137.517 8.05230   2
  -2 -11   2 239.471 11.9734   3
   2 -11  -2 237.755 11.1496   5
  -2  11   2 260.308 12.2181   2
   2  11  -2 274.176 11.3057   5
   2  11  -2 257.497 12.3302   2
   1 -11  -2 129.401 6.45690   6
   1  11  -2 124.422 5.75308   5
  -1  11   2 127.473 6.66151   2
   1  11  -2 132.014 7.16006   2
   0 -11  -2 108.849 5.78954   6
   0  11   2 98.9560 5.22413   2
   0  11  -2 102.107 6.21959   2
   0  11   2 94.0253 4.45036   5
   0  11   2 101.392 5.26278   4
  -1 -11  -2 343.203 16.0802   6
   1  11   2 352.439 15.6581   2
   1  11   2 356.788 15.9110   4
  -1  11  -2 360.749 16.8027   2
  -2 -11  -2 4.91096 2.09988   3
  -2 -11  -2 2.43301 2.17983   6
   2 -11   2 3.65565 0.85870   5
  -2  11  -2 6.68187 3.17631   2
   2  11   2 2.92052 1.72884   4
   2  11   2 4.97441 1.40105   2
  -3 -11  -2 36.3041 3.50855   3
   3 -11   2 30.9348 2.39239   5
  -3 -11  -2 30.5170 3.88368   6
   3  11   2 26.3774 2.83564   4
  -3  11  -2 35.8928 4.74584   2
   3  11   2 26.7485 2.93487   2
   4 -11   2 43.7465 3.29567   5
  -4 -11  -2 38.9870 4.17810   3
  -4 -11  -2 36.1621 4.97109   6
   4  11   2 45.6506 3.77881   5
   4  11   2 39.0489 3.28922   4
  -4  11  -2 49.4804 6.42048   2
   4  11   2 29.7493 3.33829   2
  -5 -11  -2 23.5899 4.48022   3
   5 -11   2 33.6626 3.44154   5
  -5 -11  -2 25.8786 5.03306   6
  -5  11  -2 7.99843 4.92999   3
  -5  11  -2 45.8432 7.02268   2
   5  11   2 34.9836 3.81644   5
  -5 -12   2 21.5115 4.44015   3
   5 -12  -2 11.8382 2.68027   5
   5  12  -2 12.3974 3.02484   5
  -5  12   2 15.9600 3.50019   3
  -5  12   2 14.7547 4.44076   2
  -5  12   2 13.6156 2.70213   4
  -4 -12   2 312.977 15.1086   3
   4 -12  -2 305.253 13.9840   5
  -4  12   2 312.514 14.4978   4
  -4  12   2 299.821 15.7377   2
   4  12  -2 319.709 14.2616   5
   3 -12  -2 329.279 14.3290   5
  -3 -12   2 328.946 15.2482   3
  -3  12   2 314.247 15.7544   2
   3  12  -2 310.302 15.5419   2
   3  12  -2 335.955 14.4983   5
  -2 -12   2 37.6479 3.98546   3
   2 -12  -2 28.4344 3.05710   6
   2 -12  -2 27.1365 1.79601   5
   2  12  -2 37.6873 4.21076   2
  -2  12   2 35.4799 3.78400   2
   2  12  -2 34.4772 2.18893   5
   1 -12  -2 740.334 30.9040   6
  -1  12   2 689.467 30.9392   2
   1  12  -2 668.717 30.1115   5
   1  12  -2 708.391 31.1724   2
   0 -12  -2 794.334 35.2883   6
   0  12   2 780.617 34.5669   5
   0  12   2 820.063 35.4091   4
   0  12  -2 833.266 36.0111   2
   0  12   2 819.297 35.3097   2
  -1 -12  -2 3.26180 2.00024   6
   1  12   2 5.25208 1.52049   2
   1  12   2 4.91862 1.79939   4
  -1  12  -2 2.01056 3.00298   2
   2 -12   2 254.085 11.5751   5
  -2 -12  -2 264.223 12.5229   3
  -2 -12  -2 262.197 12.9067   6
  -2  12  -2 281.668 13.9651   2
   2  12   2 275.223 12.4135   4
   2  12   2 268.605 12.0725   2
  -3 -12  -2 275.203 12.8141   3
  -3 -12  -2 262.067 13.5595   6
   3  12   2 276.175 12.3721   5
  -3  12  -2 270.934 14.6059   2
   3  12   2 262.128 12.4030   4
  -4 -12  -2 45.9517 5.92583   6
   4 -12   2 55.1221 3.69693   5
  -4 -12  -2 52.4904 5.12514   3
  -4  12  -2 43.6728 6.28758   2
   4  12   2 52.2856 4.10529   5
  -5 -12  -2 23.0132 4.69663   3
  -5  12  -2 11.2395 6.22463   3
   5  12   2 15.9785 3.17243   5
  -5 -13   2 2.71720 7.97999   3
  -5  13   2 1.17562 2.51088   4
  -5  13   2 8.06509 3.56882   3
   5  13  -2 3.15114 2.62811   5
   5  13  -2 5.99099 4.02349   2
  -4 -13   2 6.96464 4.05058   3
   4  13  -2 2.72154 4.28729   2
   4  13  -2 2.34862 2.14886   5
  -4  13   2 -0.3152 2.23443   4
  -4  13   2 2.52680 3.21519   2
   3 -13  -2 5.01687 1.30707   5
  -3 -13   2 6.67030 3.61989   3
   3  13  -2 8.26504 3.36082   2
   3  13  -2 3.82823 1.68342   5
  -3  13   2 3.91278 3.08598   2
   2 -13  -2 9.41139 2.07745   6
  -2  13   2 7.54698 2.58216   2
   2  13  -2 8.63223 1.33661   5
   2  13  -2 11.5368 3.23281   2
   1 -13  -2 20.3634 2.51268   6
  -1  13   2 22.3531 4.18105   2
   1  13  -2 19.8869 1.30580   5
   1  13  -2 21.6310 3.51832   2
   0 -13  -2 2.41145 1.64242   6
   0  13   2 3.47467 1.78077   2
   0  13   2 0.01160 1.68973   4
   0  13  -2 1.15470 3.06591   2
  -1 -13  -2 1.86590 1.99922   6
  -1  13  -2 -0.5951 2.90134   2
   1  13   2 3.51311 1.79413   2
   1  13   2 2.95505 1.84268   4
  -2 -13  -2 72.1057 5.18034   6
  -2 -13  -2 60.9866 4.78700   3
   2  13   2 67.6782 4.44219   4
  -2  13  -2 74.0855 6.19962   2
  -3 -13  -2 8.21173 3.16442   3
   3 -13   2 10.9578 1.40107   5
  -3 -13  -2 11.5952 3.46243   6
  -3  13  -2 8.43467 4.86716   2
   3  13   2 12.0910 2.06352   5
   3  13   2 9.31365 2.20307   4
   3  13   2 10.6278 1.92273   2
  -4 -13  -2 5.18069 3.79053   6
   4 -13   2 1.79663 2.62588   5
  -4 -13  -2 5.48949 3.49724   3
   4  13   2 3.33812 3.82158   5
  -4  13  -2 4.50018 5.17860   2
  -5 -13  -2 -2.0224 4.12157   3
  -5  13  -2 -6.3148 5.32825   2
   5  13   2 1.06786 3.41621   5
  -5  13  -2 -3.8902 4.86419   3
  -5 -14   2 1.12945 4.73148   3
  -5  14   2 3.94295 4.39634   2
   5  14  -2 9.11165 4.24641   2
   5  14  -2 -3.4211 2.50323   5
  -5  14   2 -1.3274 2.62608   4
  -5  14   2 1.02955 5.22193   3
  -4 -14   2 257.851 13.2059   3
  -4  14   2 249.893 13.9409   2
   4  14  -2 249.977 12.0437   5
  -4  14   2 260.769 12.6175   3
   4  14  -2 275.630 13.6196   2
  -4  14   2 264.180 12.6412   4
  -3 -14   2 239.683 12.5365   3
   3  14  -2 260.749 11.4843   5
   3  14  -2 261.431 12.8989   2
  -3  14   2 243.592 12.8800   2
   2 -14  -2 1.57084 1.80046   6
   2  14  -2 2.86532 3.14979   2
  -2  14   2 -0.6003 2.46822   2
   2  14  -2 -1.1808 1.11297   5
   1 -14  -2 621.775 27.3728   6
  -1  14   2 606.308 27.7997   2
   1  14  -2 638.925 28.1652   2
   0 -14  -2 767.998 33.9596   6
   0  14   2 779.121 34.1485   4
   0  14   2 766.841 34.0604   2
   0  14  -2 787.398 34.8710   2
  -1 -14  -2 13.5425 2.56897   6
   1  14   2 17.9331 2.30721   2
   1  14   2 12.5526 1.14437   5
   1  14   2 12.5529 2.39867   4
  -1  14  -2 7.12581 3.42025   2
  -2 -14  -2 235.311 12.1536   6
   2  14   2 249.820 10.9863   5
   2  14   2 242.325 11.3142   2
  -2  14  -2 251.257 13.5242   2
   2  14   2 243.794 11.7018   4
  -3 -14  -2 282.161 14.2160   6
  -3 -14  -2 251.590 13.4564   3
   3  14   2 277.325 12.7721   2
  -3  14  -2 291.157 15.6684   2
   3  14   2 292.762 12.8145   5
   3  14   2 283.560 13.0652   4
  -4 -14  -2 35.4456 5.12846   6
  -4 -14  -2 35.2060 4.84720   3
  -4  14  -2 46.0736 7.37175   2
   4  14   2 42.0751 3.85662   5
  -4 -15   2 2.41614 4.18340   3
  -4  15   2 1.94235 2.73665   4
   4  15  -2 3.76266 4.02463   2
  -4  15   2 1.88851 3.76086   2
   4  15  -2 1.33800 2.07717   5
  -3 -15   2 36.1830 4.90011   3
   3 -15  -2 42.4658 3.95145   6
   3  15  -2 43.3835 3.05891   5
  -3  15   2 39.5666 4.89795   2
   3  15  -2 47.9327 5.87058   2
   2 -15  -2 75.8274 4.49530   6
   2  15  -2 67.4067 3.63459   5
   2  15  -2 76.7589 6.25609   2
  -2  15   2 71.5353 5.67433   2
   1 -15  -2 27.8644 2.98334   6
  -1  15   2 26.7992 3.32053   2
   1  15  -2 27.5554 4.23125   2
   0 -15  -2 57.8929 4.17095   6
   0  15   2 59.4912 4.26791   4
   0  15   2 60.1077 4.38418   2
   0  15  -2 53.4887 5.92332   2
  -1 -15  -2 83.5829 5.43395   6
  -1  15  -2 78.3968 6.69778   2
   1  15   2 78.4704 5.32201   4
   1  15   2 76.8732 3.63738   5
   1  15   2 86.2423 5.06944   2
  -2 -15  -2 23.9998 3.65078   6
   2  15   2 28.6989 2.25902   5
  -2  15  -2 21.8422 4.73748   2
   2  15   2 28.0216 3.10096   2
   2  15   2 36.6630 3.56000   4
  -3 -15  -2 5.41550 3.44199   6
  -3 -15  -2 4.08139 3.47665   3
  -3  15  -2 5.27646 4.51393   2
   3  15   2 8.49782 2.41638   4
   3  15   2 5.43342 1.91013   5
  -4 -15  -2 10.3367 4.04090   6
  -4 -15  -2 7.28971 4.10582   3
   4  15   2 9.63575 2.52313   5
  -4  15  -2 11.9984 6.19077   2
  -4 -16   2 32.3974 5.53690   3
   4  16  -2 24.0510 4.71710   2
  -4  16   2 40.6720 5.64817   2
  -4  16   2 36.7686 4.20701   4
   3 -16  -2 122.762 6.29239   6
   3  16  -2 101.156 6.11900   4
  -3  16   2 99.6594 7.75235   2
   3  16  -2 111.695 7.82940   2
  -3  16   2 111.026 6.68585   4
   2 -16  -2 1.02572 1.79843   6
   2  16  -2 0.22421 3.43338   2
  -2  16   2 0.36798 2.94618   2
   1 -16  -2 186.210 8.75413   6
  -1  16   2 172.278 9.57028   2
  -1  16   2 167.898 9.16811   4
   1  16  -2 190.171 10.2940   2
   0 -16  -2 226.049 11.0968   6
   0  16  -2 211.757 11.7651   2
   0  16   2 224.930 10.9899   4
   0  16   2 212.549 10.8264   2
  -1 -16  -2 64.7887 5.06846   6
   1  16   2 70.9083 4.89479   4
   1  16   2 72.7793 4.82947   2
  -1  16  -2 63.4958 7.14014   2
  -2 -16  -2 114.892 7.24797   6
   2  16   2 122.056 6.87041   4
   2  16   2 120.870 6.98127   2
  -2  16  -2 106.961 8.54742   2
  -3 -16  -2 171.880 10.0556   6
   3  16   2 168.234 8.81064   4
  -3  16  -2 181.245 12.1417   2
   3  16   2 173.124 8.27083   5
  -4 -16  -2 3.65555 4.09791   3
  -4 -16  -2 4.15284 5.54985   6
  -4  16  -2 3.04866 5.93109   2
   4  17  -2 -3.2566 4.02390   2
  -4  17   2 -0.3508 4.06069   2
  -4  17   2 -3.3546 2.96029   4
  -3  17   2 30.2797 4.83083   2
  -3  17   2 40.2431 4.24049   4
   3  17  -2 28.9358 4.92013   2
   3  17  -2 35.3647 3.46874   4
   2 -17  -2 184.050 8.77728   6
  -2  17   2 176.230 9.70045   4
  -2  17   2 177.670 13.4440   2
   1 -17  -2 34.3430 3.33361   6
   1  17  -2 39.7938 5.11433   2
  -1  17   2 31.8137 4.03470   2
  -1  17   2 33.2143 3.84719   4
   0 -17  -2 23.9658 2.98371   6
   0  17   2 26.4388 3.41513   2
   0  17  -2 25.7662 4.84354   2
  -1 -17  -2 217.335 10.8506   6
   1  17   2 215.975 10.7003   2
  -1  17  -2 209.091 12.4892   2
  -2 -17  -2 76.6228 5.95782   6
   2  17   2 81.0081 4.98971   2
   2  17   2 73.6441 6.12953   4
  -2  17  -2 69.9339 7.96013   2
  -3 -17  -2 7.25901 3.63556   6
   3  17   2 9.47527 2.67026   4
  -3  17  -2 5.56217 4.87570   2
  -3  18   2 35.8838 4.20977   4
   3  18  -2 25.3185 3.30118   4
  -3  18   2 40.2486 5.44795   2
   3  18  -2 38.5179 5.12342   2
   2  18  -2 2.13907 3.87146   2
  -2  18   2 4.53384 3.24201   4
  -2  18   2 5.42883 3.41576   2
  -1  18   2 53.5019 5.42520   2
   1  18  -2 57.9599 6.59270   2
  -1  18   2 57.6495 4.85985   4
   0 -18  -2 86.5484 5.59841   6
   0  18   2 93.6228 6.11585   2
   0  18  -2 83.5507 7.73914   2
   0  18   2 85.2767 5.91902   4
  -1 -18  -2 1.90586 2.58108   6
  -1  18  -2 -0.7079 4.06576   2
   1  18   2 -1.0418 2.96379   4
   1  18   2 3.35019 2.36937   2
  -2 -18  -2 9.73855 4.74494   6
   2  18   2 9.07484 3.22348   4
  -2  18  -2 9.68487 4.88032   2
  -3 -18  -2 24.0917 4.40118   6
   3  18   2 15.6083 3.12805   4
  -3  18  -2 21.9426 8.26757   2
  -3  19   2 31.5970 6.60736   2
  -3  19   2 57.6693 5.80811   4
   3  19  -2 44.7147 5.40669   2
   3  19  -2 40.7206 4.32884   4
  -2  19   2 209.901 11.2064   4
   2  19  -2 214.580 11.8974   2
  -2  19   2 199.822 11.5957   2
   1  19  -2 68.0077 7.16151   2
  -1  19   2 72.4898 5.66380   4
  -1  19   2 73.6832 6.18950   2
   0 -19  -2 58.2886 4.57974   6
   0  19  -2 56.2736 6.57899   2
   0  19   2 58.6840 5.13540   4
   0  19   2 60.6759 5.28635   2
  -1 -19  -2 178.226 9.66823   6
  -1  19  -2 172.913 11.7917   2
   1  19   2 189.517 10.1037   4
   1  19   2 187.796 9.55796   2
  -2 -19  -2 118.752 7.47437   6
   2  19   2 108.998 7.09319   4
  -2  19  -2 93.2685 9.30875   2
  -3 -19  -2 10.5673 3.76329   6
  -3  19  -2 3.54974 5.77825   2
   3  19   2 11.0534 2.95908   4
   2  20  -2 0.27698 4.04402   2
  -2  20   2 1.84094 3.59416   2
  -1  20   2 2.08480 3.23188   2
  -1  20   2 1.17009 3.08943   4
   1  20  -2 4.13201 4.37485   2
   0  20  -2 -3.1708 4.35985   2
   0  20   2 -4.2326 3.22396   4
   0  20   2 0.17422 2.78804   2
  -1 -20  -2 2.17560 2.82272   6
  -1  20  -2 -4.1058 4.12795   2
   1  20   2 -0.9537 2.97014   4
  -2 -20  -2 2.56154 3.18587   6
   2  20   2 -2.3196 2.97402   4
  -2  20  -2 2.53793 4.72357   2
  -1  21   2 29.9121 4.65154   4
  -1  21   2 32.4207 4.39960   2
   1  21  -2 41.9182 5.88306   2
   0  21  -2 27.1622 7.22458   2
   0  21   2 26.9199 5.05010   4
   0  21   2 28.0769 3.83178   2
   1  21   2 108.603 7.94101   4
  -1  21  -2 130.470 9.67103   2
   6   0  -3 163.601 8.84246   5
  -6   0   3 168.701 9.22803   3
  -5   0   3 357.340 16.7580   3
   5   0  -3 366.020 16.5521   5
   4   0  -3 3.96983 1.68855   5
  -4   0   3 4.29704 1.93193   3
  -3   0   3 1118.88 46.1117   3
   3   0  -3 1041.01 45.9784   5
  -3   0   3 1041.71 45.6498   4
   2   0  -3 1856.64 79.4752   4
   1   0  -3 883.821 38.6313   2
   1   0  -3 881.810 38.4493   4
   1   0  -3 917.748 38.3667   3
   0   0   3 1921.27 78.5142   5
   0   0  -3 1742.79 78.3025   3
   1   0   3 2612.04 133.215   1
  -1   0  -3 2667.54 135.869   1
   2   0   3 689.995 30.8072   4
  -2   0  -3 722.964 31.1391   6
   2   0   3 713.823 30.6377   2
  -2   0  -3 712.330 30.7959   2
  -3   0  -3 54.3197 3.56096   3
   3   0   3 52.7046 3.45069   4
  -3   0  -3 53.3858 4.12264   6
  -3   0  -3 57.3598 3.66228   2
   4   0   3 930.027 39.1381   4
  -4   0  -3 887.114 39.5884   2
  -4   0  -3 894.871 40.0795   6
  -4   0  -3 883.657 39.5021   3
  -5   0  -3 73.5308 5.49118   3
   6   0   3 2.23860 3.28020   5
  -6  -1   3 17.4831 3.79473   3
   6  -1  -3 17.7259 3.60997   5
   6   1  -3 15.4725 3.28677   5
  -6   1   3 10.3776 3.45591   3
  -5  -1   3 58.0364 4.41296   3
   5  -1  -3 51.4027 4.32467   5
   5   1  -3 53.6666 4.36929   5
  -5   1   3 47.3304 4.52571   3
  -4  -1   3 37.9812 3.08549   3
   4  -1  -3 37.2131 2.85609   5
  -4   1   3 32.7113 2.95716   3
   4   1  -3 31.9444 2.80022   5
   3  -1  -3 2.13977 1.15592   5
  -3  -1   3 2.13251 0.42986   4
  -3  -1   3 2.25096 1.31046   3
   3   1  -3 3.23432 1.32766   5
  -3   1   3 2.87615 0.76034   4
  -3   1   3 2.32431 1.28033   3
  -2  -1   3 13.1764 1.30336   3
   2  -1  -3 14.3681 1.26952   5
  -2  -1   3 11.2427 1.13619   4
   2  -1  -3 10.8801 0.94921   4
  -2   1   3 12.5834 1.15498   3
  -2   1   3 12.4355 1.12629   4
   2   1  -3 13.8214 1.25477   5
   2   1  -3 8.87693 0.91755   4
  -1  -1   3 84.4232 3.84561   3
  -1  -1   3 86.8486 4.01321   4
   1  -1  -3 81.2104 3.90797   4
   1  -1  -3 81.4086 3.77044   3
   1  -1  -3 87.3126 3.92393   5
   1  -1  -3 79.1111 4.04074   2
  -1   1   3 83.3804 3.94305   4
  -1   1   3 90.0868 3.78290   3
   1   1  -3 80.7865 3.89467   5
   1   1  -3 83.3350 3.88084   3
   1   1  -3 78.7307 3.93222   4
   0  -1  -3 377.265 16.1869   4
   0  -1   3 396.874 16.2570   4
   0  -1  -3 350.256 16.2076   5
   0  -1   3 397.982 16.2601   5
   0  -1  -3 340.069 16.3915   6
   0  -1  -3 324.668 15.9435   3
   0   1  -3 373.163 16.2215   4
   0   1  -3 335.890 16.1876   5
   0   1   3 423.509 16.3259   5
   0   1   3 398.576 16.2242   4
   0   1  -3 361.005 16.1341   3
  -1  -1  -3 13.8041 0.98691   2
   1  -1   3 13.0628 1.49507   4
  -1  -1  -3 17.6106 1.90180   6
   1  -1   3 11.5731 1.18874   6
  -1   1  -3 15.9515 1.60063   6
   1   1   3 12.7987 0.95144   2
  -1   1  -3 17.3010 1.49688   2
   1   1   3 13.1254 1.34773   4
  -2  -1  -3 54.9853 3.17804   3
  -2  -1  -3 57.1939 3.75399   6
  -2  -1  -3 58.0760 3.05840   2
   2  -1   3 52.8634 3.13832   4
  -2   1  -3 55.0780 3.55284   6
  -2   1  -3 55.0180 3.27471   2
   2   1   3 60.7785 2.88559   2
   2   1   3 55.2448 3.18651   4
   3  -1   3 297.145 13.0673   4
  -3  -1  -3 284.468 13.7282   6
  -3  -1  -3 294.085 13.1847   2
  -3  -1  -3 276.791 13.1312   3
  -3   1  -3 277.616 13.2098   3
   3   1   3 297.098 13.0371   4
  -3   1  -3 288.909 13.5911   6
  -4  -1  -3 8.96983 2.52532   3
  -4  -1  -3 13.7791 3.24098   6
  -4  -1  -3 12.9299 2.46650   2
  -4   1  -3 11.7756 2.94917   3
   4   1   3 6.76387 1.73558   4
  -4   1  -3 12.7702 3.08401   6
  -5  -1  -3 18.1387 3.66799   3
  -5   1  -3 14.3092 3.37743   2
  -5   1  -3 10.1846 3.31430   3
   6  -1   3 8.22503 3.74103   5
   6   1   3 3.86372 3.43977   5
  -6   1  -3 10.3216 6.20272   3
  -6  -2   3 104.381 6.99324   3
   6  -2  -3 111.103 6.61685   5
   6   2  -3 104.370 6.61623   5
  -6   2   3 112.720 7.33297   3
  -5  -2   3 244.342 12.2010   3
   5  -2  -3 240.729 11.7900   5
   5   2  -3 256.215 11.9819   5
  -5   2   3 257.595 12.2154   3
   4  -2  -3 -0.3030 1.75541   5
  -4  -2   3 0.79626 2.11966   3
   4   2  -3 1.90822 1.60322   5
  -4   2   3 0.42451 1.83647   3
  -3  -2   3 631.176 27.0658   3
   3  -2  -3 595.872 26.9170   5
  -3   2   3 621.679 27.0227   3
   3   2  -3 603.799 26.9373   5
  -3   2   3 635.142 27.5865   2
  -3   2   3 629.686 26.7310   4
   2   2  -3 1932.42 82.6273   4
  -1  -2   3 148.955 6.52040   3
   1  -2  -3 146.050 6.52492   5
  -1  -2   3 143.409 6.59425   4
   1  -2  -3 135.884 6.53302   4
   1  -2  -3 131.994 6.63494   2
   1   2  -3 145.875 6.52032   5
   1   2  -3 145.150 6.58859   4
  -1   2   3 149.323 6.59205   4
   1   2  -3 148.718 6.57549   3
  -1   2   3 153.951 6.36749   3
   0  -2  -3 807.826 32.8718   3
   0  -2  -3 725.846 33.2283   5
   0  -2   3 781.569 33.2524   5
   0   2   3 856.712 33.3582   5
   0   2  -3 708.105 33.2228   5
   0   2  -3 762.683 33.3543   2
   0   2  -3 748.312 33.2376   3
   1  -2   3 2072.64 88.0577   2
   1  -2   3 2043.33 88.0332   6
  -2  -2  -3 456.788 20.9698   6
   2  -2   3 436.996 19.1002   4
  -2  -2  -3 432.794 18.9777   3
  -2  -2  -3 437.498 18.8599   2
   2   2   3 438.198 18.7490   2
  -2   2  -3 419.044 19.1979   6
   2   2   3 421.456 19.0204   4
  -2   2  -3 424.869 19.1935   2
  -3  -2  -3 229.996 10.7745   3
  -3  -2  -3 227.314 11.4302   6
  -3  -2  -3 236.649 10.6943   2
  -3   2  -3 236.230 11.1429   6
  -3   2  -3 230.120 11.0178   2
   3   2   3 226.095 10.5851   4
  -4  -2  -3 188.877 9.28267   3
  -4  -2  -3 190.022 10.3713   6
  -4   2  -3 173.998 9.39071   3
   4   2   3 190.425 8.74571   4
  -4   2  -3 186.752 9.69998   2
  -5  -2  -3 86.5989 5.93571   3
  -5   2  -3 89.6062 6.48666   2
  -5   2  -3 88.0133 6.17128   3
   6  -2   3 1.98192 3.98117   5
   6   2   3 1.80973 3.36632   5
  -6   2  -3 2.71398 4.09243   3
  -6  -3   3 7.89546 3.56494   3
   6  -3  -3 6.32363 2.92168   5
   6   3  -3 6.24082 2.95196   5
  -6   3   3 4.20054 3.24121   3
  -5  -3   3 40.8866 4.02714   3
   5  -3  -3 37.1317 3.57813   5
   5   3  -3 38.1627 4.92594   5
  -5   3   3 41.7905 4.12274   3
  -4  -3   3 404.911 18.1826   3
   4  -3  -3 399.367 17.9400   5
  -4   3   3 405.614 18.8825   2
   4   3  -3 400.992 17.9501   5
  -4   3   3 396.357 17.4177   4
  -4   3   3 407.053 18.1454   3
   3  -3  -3 182.368 8.29300   5
  -3  -3   3 177.129 8.43586   3
   3   3  -3 176.231 8.33460   5
  -3   3   3 185.975 8.43281   3
  -3   3   3 175.771 9.00983   2
  -3   3   3 183.519 8.18435   4
   2  -3  -3 123.077 5.62038   5
  -2  -3   3 117.281 5.66928   3
  -2  -3   3 116.050 5.47096   4
  -2   3   3 131.478 5.81013   4
  -2   3   3 120.555 5.56353   3
   2   3  -3 120.485 5.61923   5
  -2   3   3 114.226 6.02883   2
   1  -3  -3 1353.29 77.3201   1
   1   3  -3 1413.70 77.9460   1
  -1   3   3 1449.70 80.6346   1
   0  -3  -3 537.875 24.9217   6
   0  -3  -3 555.753 24.6209   5
   0  -3  -3 580.139 24.3910   2
   0  -3   3 577.249 24.6784   4
   0  -3   3 570.034 24.6087   5
   0   3  -3 573.356 24.7091   3
   0   3  -3 576.200 24.8511   2
   0   3   3 611.020 24.9089   5
   0   3   3 579.036 24.6237   4
   0   3  -3 515.763 24.5870   5
  -1  -3  -3 25.0470 1.41417   3
   1  -3   3 23.1775 1.83129   4
   1  -3   3 21.2866 1.56915   6
  -1  -3  -3 25.4439 2.25430   6
  -1   3  -3 25.8101 1.73603   6
   1   3   3 21.0774 1.77714   4
  -1   3  -3 26.0833 2.22500   2
  -2  -3  -3 390.819 16.5458   3
  -2  -3  -3 372.267 17.1106   6
   2  -3   3 371.706 16.6715   4
  -2   3  -3 376.489 16.7299   6
  -2   3  -3 364.362 16.8886   2
   2   3   3 386.736 16.2738   2
   2   3   3 368.134 16.6037   4
  -3  -3  -3 233.911 12.0363   6
   3  -3   3 245.706 10.7574   4
  -3  -3  -3 235.747 10.7471   3
   3   3   3 228.529 10.6253   4
  -3   3  -3 224.889 11.1653   2
  -3   3  -3 223.822 11.0351   6
  -4  -3  -3 26.9054 3.11793   3
  -4  -3  -3 21.5290 3.69831   6
  -4   3  -3 26.6511 3.52349   3
  -4   3  -3 28.8715 3.62000   2
   4   3   3 28.6990 2.64615   4
  -5  -3  -3 51.8912 4.60054   3
  -5   3  -3 44.9042 5.19381   2
  -5   3  -3 46.5826 4.97159   3
   6  -3   3 17.6065 4.13199   5
  -6  -3  -3 15.4177 4.68933   3
   6   3   3 15.1339 3.59467   5
  -6   3  -3 18.4420 4.78990   3
  -6  -4   3 25.7211 4.21989   3
   6  -4  -3 32.4839 3.75743   5
  -6   4   3 27.6292 4.04646   3
   6   4  -3 30.4958 3.82302   5
   5  -4  -3 76.1917 4.88210   5
  -5   4   3 79.8383 5.46003   3
  -4  -4   3 124.496 6.55225   3
   4  -4  -3 123.891 6.23585   5
   4   4  -3 117.502 6.28059   5
  -4   4   3 127.306 6.48100   3
  -4   4   3 129.614 7.53971   2
   3  -4  -3 492.661 21.0696   5
  -3  -4   3 495.016 21.2391   3
   3   4  -3 436.972 20.6019   4
  -3   4   3 496.609 20.9642   4
  -3   4   3 498.803 21.7888   2
  -3   4   3 487.029 21.1697   3
   3   4  -3 464.835 21.0517   5
  -2  -4   3 985.923 41.5392   4
   2   4  -3 964.105 41.6124   5
   2   4  -3 956.868 41.5953   4
  -2   4   3 961.313 42.0220   2
  -1  -4   3 131.071 6.21222   3
   1  -4  -3 132.213 6.23828   2
   1  -4  -3 128.865 6.08394   5
  -1   4   3 137.246 6.27412   2
  -1   4   3 137.476 6.18993   4
  -1   4   3 139.968 5.89966   3
   1   4  -3 131.029 6.06044   5
   0  -4   3 473.828 20.8151   5
   0  -4  -3 479.007 20.6276   2
   0  -4  -3 461.006 21.2103   6
   0  -4   3 487.349 20.9358   4
   0   4  -3 475.978 21.1688   2
   0   4   3 500.448 20.6411   2
   0   4  -3 472.200 20.8535   5
   0   4   3 483.506 20.8914   4
  -1  -4  -3 1303.45 55.5874   6
  -1   4  -3 1262.78 55.5301   2
  -2  -4  -3 62.4890 4.22299   6
  -2  -4  -3 56.3299 3.18773   3
  -2   4  -3 56.7601 3.40159   6
   2   4   3 60.5711 2.81352   2
   2   4   3 60.3169 3.33897   4
  -2   4  -3 62.7056 3.92382   2
   3  -4   3 16.8410 2.12392   4
  -3  -4  -3 17.3824 3.12441   6
  -3  -4  -3 15.9760 2.09108   3
   3   4   3 13.4247 1.83450   4
  -3   4  -3 19.7709 2.74252   2
  -4  -4  -3 131.985 8.27458   6
  -4  -4  -3 139.760 7.33226   3
   4   4   3 132.379 6.70225   4
  -4   4  -3 144.354 8.07502   2
  -4   4  -3 126.906 7.52903   3
  -5  -4  -3 68.2858 7.07582   6
   5  -4   3 53.5982 4.59985   5
  -5  -4  -3 55.0070 4.78187   3
  -5   4  -3 47.3405 5.14421   3
  -5   4  -3 51.3956 6.02215   2
  -6  -4  -3 -2.1607 4.08389   3
   6  -4   3 -1.8653 3.17925   5
  -6   4  -3 5.52542 4.25227   2
  -6   4  -3 1.39705 3.81921   3
   6   4   3 -0.8365 2.94752   5
  -6  -5   3 23.5006 4.46180   3
   6  -5  -3 21.6218 3.37041   5
  -6   5   3 23.0826 4.25380   3
   6   5  -3 19.3679 3.70001   5
   5  -5  -3 47.6739 4.04142   5
  -5  -5   3 42.8560 4.32337   3
   5   5  -3 45.9517 3.85591   5
  -5   5   3 43.3119 4.35595   3
  -5   5   3 40.8296 5.02173   2
   4  -5  -3 566.035 24.6434   5
  -4  -5   3 555.889 24.8724   3
   4   5  -3 589.475 24.7500   5
  -4   5   3 552.858 24.8100   3
  -4   5   3 546.534 25.5392   2
  -4   5   3 550.751 24.3393   4
   3  -5  -3 851.799 35.7804   5
  -3  -5   3 856.850 36.0288   3
  -3   5   3 827.816 35.7399   4
   3   5  -3 754.851 35.4263   4
   3   5  -3 819.529 35.7868   5
  -3   5   3 847.903 35.8921   3
  -3   5   3 832.025 36.5262   2
   2  -5  -3 263.906 11.1472   5
  -2  -5   3 252.048 11.3320   3
   2   5  -3 249.936 11.1651   5
  -2   5   3 254.511 11.2450   4
   2   5  -3 237.082 11.1307   4
  -2   5   3 249.964 11.1327   3
  -1  -5   3 1881.76 109.875   1
   1  -5  -3 2127.67 108.335   1
  -1   5   3 2150.11 110.849   1
   1   5  -3 2000.42 105.744   1
   0  -5   3 2065.33 88.9920   5
   0   5  -3 2094.96 89.0528   5
  -1  -5  -3 11.6442 1.01388   3
  -1  -5  -3 10.8536 1.79898   6
   1  -5   3 10.8003 1.48180   4
   1   5   3 10.3952 1.32938   4
  -1   5  -3 8.54824 1.84099   2
  -1   5  -3 10.4965 1.00227   6
   2  -5   3 1276.58 56.4731   6
   2  -5   3 1345.89 56.8227   4
  -2  -5  -3 1301.04 56.5535   3
  -2  -5  -3 1287.62 57.2342   6
  -2   5  -3 1333.07 56.6412   6
  -2   5  -3 1317.89 57.2402   2
   2   5   3 1345.32 56.2589   2
   2   5   3 1323.29 56.6845   4
  -3  -5  -3 492.975 22.9486   6
  -3  -5  -3 491.855 22.0930   3
  -3   5  -3 515.555 22.9165   2
   3   5   3 502.806 22.0512   4
  -4  -5  -3 2.47410 3.30396   6
  -4  -5  -3 3.07791 2.49278   3
   4   5   3 3.28323 1.73342   4
  -4   5  -3 0.08948 2.70088   3
  -4   5  -3 3.87910 2.99370   2
  -5  -5  -3 27.2828 4.15584   3
  -5  -5  -3 36.6095 5.56557   6
   5  -5   3 30.1178 3.62273   5
  -5   5  -3 25.6302 4.47755   3
   6  -5   3 71.5186 5.83461   5
  -6  -5  -3 72.6582 6.18813   3
  -6   5  -3 61.0202 7.91441   2
  -6   5  -3 72.9269 7.24227   3
   6   5   3 77.6012 6.04148   5
   6  -6  -3 10.5230 3.33843   5
  -6   6   3 9.51819 3.62235   3
   6   6  -3 10.0716 3.86767   5
  -5  -6   3 30.2739 4.00876   3
   5  -6  -3 25.4245 3.19645   5
  -5   6   3 22.8948 4.09405   2
  -5   6   3 28.5841 3.94122   3
   5   6  -3 25.3923 3.35719   5
   4  -6  -3 74.0174 4.30231   5
  -4  -6   3 82.1736 4.88697   3
  -4   6   3 76.0816 4.76513   3
  -4   6   3 79.4163 5.55979   2
  -4   6   3 69.8611 4.80505   4
   4   6  -3 75.0264 4.41024   5
  -3  -6   3 12.0887 2.01091   3
   3  -6  -3 12.7818 1.73062   5
   3   6  -3 12.4353 1.61306   5
  -3   6   3 10.7511 1.82408   3
  -3   6   3 7.92604 2.32596   2
   3   6  -3 7.57265 1.39956   4
  -3   6   3 11.2980 1.74071   4
   2  -6  -3 13.9540 1.40490   5
  -2  -6   3 12.5374 1.81042   3
  -2   6   3 11.7817 1.93605   2
  -2   6   3 11.9992 1.56472   4
  -2   6   3 11.5334 1.36339   3
  -1  -6   3 29.1300 1.99841   4
  -1  -6   3 22.8361 2.13977   3
   1  -6  -3 23.9752 1.77031   5
   1   6  -3 29.5221 1.88487   6
   1   6  -3 30.1983 1.71434   5
  -1   6   3 25.7112 1.93090   4
  -1   6   3 26.6409 2.10156   2
   0  -6   3 0.67753 0.68897   5
   0  -6  -3 3.32594 0.70929   2
   0  -6  -3 0.75576 0.78445   5
   0  -6   3 1.97878 1.02963   4
   0  -6  -3 0.44809 1.35692   6
   0   6   3 1.16704 0.34378   3
   0   6   3 0.95892 0.89078   4
   0   6   3 1.06782 0.61488   2
   0   6  -3 -0.0550 0.91791   5
   0   6  -3 2.59856 1.69273   2
  -1  -6  -3 4.58489 0.88766   3
  -1   6  -3 2.64741 2.06118   2
   1   6   3 3.48584 1.01224   3
   1   6   3 1.77282 1.12252   4
  -2  -6  -3 131.986 6.20592   3
   2  -6   3 142.037 6.63705   4
   2  -6   3 127.562 5.99695   6
  -2  -6  -3 133.058 7.09313   6
  -2   6  -3 140.648 7.36706   2
   2   6   3 129.631 5.79451   2
   2   6   3 136.030 6.64337   4
   2   6   3 124.428 5.78253   2
  -3  -6  -3 11.7075 1.97690   3
  -3  -6  -3 17.8046 3.30970   6
  -3   6  -3 13.3253 3.17472   2
   3   6   3 15.9061 1.44108   2
  -4  -6  -3 22.8304 4.17510   6
  -4  -6  -3 20.6567 3.17369   3
  -4   6  -3 20.3007 3.93781   2
  -5  -6  -3 2.41294 3.75769   6
   5  -6   3 1.51851 2.83357   5
  -5  -6  -3 1.55984 3.38462   3
  -5   6  -3 -0.5697 3.54645   3
  -5   6  -3 3.24980 3.81330   2
  -6  -7   3 18.8684 4.36982   3
   6  -7  -3 17.0946 3.32919   5
  -6   7   3 16.8343 3.67803   3
  -5  -7   3 96.6708 6.22216   3
   5  -7  -3 85.2198 5.55518   5
   5   7  -3 95.5315 5.91148   5
  -5   7   3 96.8222 7.49853   2
  -4  -7   3 668.858 29.7230   3
   4  -7  -3 660.490 29.3682   5
   4   7  -3 666.176 29.4497   5
  -4   7   3 685.005 29.3130   4
  -4   7   3 673.519 29.6557   3
  -4   7   3 678.219 30.4604   2
   3  -7  -3 277.507 12.1684   5
  -3  -7   3 287.861 12.5725   3
   3   7  -3 264.777 12.1753   5
   3   7  -3 257.529 11.9909   4
  -3   7   3 271.919 12.3068   4
  -3   7   3 279.113 12.3566   3
  -3   7   3 260.617 12.9569   2
   2  -7  -3 102.647 4.74318   5
  -2  -7   3 97.2208 5.13261   3
  -2   7   3 92.2494 5.38073   2
  -2   7   3 99.6202 5.00249   4
  -1  -7   3 1705.58 78.1242   3
   1   7  -3 1929.37 77.9990   6
   0  -7  -3 1167.26 48.0775   5
   0  -7   3 1085.67 48.0274   5
   0  -7  -3 1100.90 48.6057   6
   0   7   3 1131.94 48.1029   2
   0   7  -3 1141.46 48.1262   5
   0   7   3 1094.52 47.8840   3
   1  -7   3 1.83621 1.27532   4
  -1  -7  -3 1.15452 1.71721   6
  -1  -7  -3 1.21741 0.96124   3
  -1   7  -3 -0.1366 2.09501   2
   1   7   3 2.39762 0.61747   3
   2  -7   3 603.889 28.2918   6
  -2  -7  -3 685.047 29.3975   6
  -2  -7  -3 648.392 28.4975   3
   2   7   3 646.282 28.1385   2
  -2   7  -3 685.441 29.5915   2
   2   7   3 642.447 28.1598   2
   2   7   3 696.815 28.7350   4
  -3  -7  -3 605.887 26.7281   6
  -3  -7  -3 590.463 25.6411   3
   3   7   3 573.017 25.6219   4
  -3   7  -3 598.173 26.7727   2
   3   7   3 555.099 25.2316   2
  -4  -7  -3 31.4378 4.71848   6
  -4  -7  -3 28.6274 3.47793   3
  -4   7  -3 29.0180 4.45303   2
   5  -7   3 111.695 6.56685   5
  -5  -7  -3 106.271 8.91359   6
  -5  -7  -3 103.479 6.86911   3
  -5   7  -3 91.3959 7.38249   3
   5   7   3 92.2279 6.31730   5
  -5   7  -3 103.170 8.76397   2
   6  -8  -3 15.6001 3.42450   5
  -6  -8   3 9.97444 4.13733   3
  -6   8   3 14.7439 4.66342   2
   6   8  -3 16.2381 3.35233   5
   5  -8  -3 20.8203 3.03169   5
  -5  -8   3 22.7090 3.84327   3
  -5   8   3 18.8745 4.25753   2
   5   8  -3 16.7841 3.11733   5
  -5   8   3 19.3038 3.26294   3
   4  -8  -3 41.0647 3.22946   5
  -4  -8   3 37.3401 3.89302   3
  -4   8   3 40.6355 4.57728   2
   4   8  -3 38.4339 3.12328   5
  -4   8   3 36.4568 3.02417   4
  -4   8   3 39.5759 3.33532   3
  -3  -8   3 36.9519 3.19056   3
   3  -8  -3 31.0674 2.57382   5
  -3   8   3 30.6111 2.68584   4
  -3   8   3 29.1060 2.65985   3
  -3   8   3 31.4212 3.45215   2
   2  -8  -3 102.016 4.87430   5
  -2  -8   3 100.464 5.37117   3
  -2   8   3 97.0040 5.59732   2
  -2   8   3 100.743 5.11172   4
   1  -8  -3 -0.6277 0.96852   5
  -1   8   3 0.76110 1.16709   4
  -1   8   3 -0.5420 1.08140   2
   1   8  -3 1.75307 0.82823   6
   1   8  -3 -0.4733 0.75983   5
   1   8  -3  0.0000 1.55873   2
   0  -8  -3 59.5940 2.91478   5
   0  -8  -3 55.1140 3.11908   2
   0  -8   3 55.6965 2.82046   5
   0   8   3 59.6478 3.09137   2
   0   8   3 56.7090 2.70027   3
   0   8  -3 59.1340 3.03382   5
   0   8   3 55.5309 3.31131   4
   0   8  -3 59.7711 4.17046   2
  -1  -8  -3 99.8786 5.04319   3
  -1  -8  -3 111.682 5.75259   6
  -1   8  -3 95.2873 6.14612   2
   1   8   3 110.923 4.70034   2
   1   8   3 98.8235 4.75070   3
   1   8   3 102.422 5.21920   4
  -2  -8  -3 48.6401 2.88378   3
  -2   8  -3 46.0745 4.72477   2
   2   8   3 43.0293 2.19528   2
   2   8   3 45.0960 2.20771   2
   2   8   3 43.9026 3.03031   4
  -3  -8  -3 45.8600 3.42327   3
  -3  -8  -3 47.2302 5.00873   6
   3   8   3 38.5191 2.49799   2
  -3   8  -3 54.1627 5.38984   2
   3   8   3 46.3710 3.25947   4
  -4  -8  -3 11.2046 3.98114   6
  -4  -8  -3 14.9806 3.08293   3
  -4   8  -3 17.1168 4.48845   2
   4   8   3 9.79744 2.12499   4
  -5  -8  -3 2.16373 3.48680   3
  -5  -8  -3 6.84910 4.49098   6
   5  -8   3 3.41462 2.92570   5
  -5   8  -3 0.63764 4.57946   3
   5   8   3 5.61463 2.90535   5
  -5   8  -3 5.10732 4.58439   2
  -6  -9   3 38.6525 5.54463   3
   6  -9  -3 29.3377 3.99946   5
  -6   9   3 33.8749 4.41264   3
   6   9  -3 30.6044 3.90772   5
  -6   9   3 36.3418 5.86215   2
  -5  -9   3 64.3669 5.63526   3
   5  -9  -3 70.8097 4.75758   5
   5   9  -3 71.0572 5.20879   5
  -5   9   3 60.4926 6.27243   2
  -5   9   3 75.0170 5.33745   3
  -5   9   3 73.3956 4.99050   4
  -4  -9   3 330.603 15.5775   3
   4  -9  -3 328.937 15.0586   5
  -4   9   3 315.792 15.3512   3
   4   9  -3 342.208 15.2076   5
  -4   9   3 352.704 15.1994   4
  -4   9   3 331.483 16.3855   2
   3  -9  -3 279.495 12.4982   5
  -3  -9   3 282.542 13.1304   3
  -3   9   3 275.847 12.7196   3
  -3   9   3 273.430 13.5595   2
   3   9  -3 278.742 12.5896   5
  -3   9   3 280.077 12.8030   4
   2  -9  -3 22.6192 1.97765   5
  -2  -9   3 24.0942 2.78182   3
  -2   9   3 24.4340 2.29937   4
   2   9  -3 28.5130 1.96212   5
  -2   9   3 23.1182 2.96521   2
   1  -9  -3 979.828 44.6179   6
  -1   9   3 1033.60 44.4601   4
  -1   9   3 1075.85 44.5427   2
   1   9  -3 1057.14 44.8450   2
   1   9  -3 987.347 44.1790   6
   1   9  -3 1023.45 44.0555   5
   0  -9  -3 1038.57 43.7860   6
   0  -9   3 978.998 43.0546   5
   0   9  -3 1010.76 44.0368   2
   0   9   3 1023.47 43.5564   4
   0   9   3 964.740 43.0374   3
   0   9  -3 1012.21 43.1264   5
  -1  -9  -3 4.95468 1.97209   6
  -1  -9  -3 3.08913 1.48129   3
   1  -9   3 6.11071 0.93026   5
  -1   9  -3 3.17772 2.52304   2
   1   9   3 4.53387 0.85541   2
   1   9   3 3.01197 1.40213   4
  -2  -9  -3 474.693 21.5003   6
   2   9   3 470.771 20.7792   4
   2   9   3 473.956 20.1935   2
  -2   9  -3 475.118 21.9693   2
   2   9   3 450.484 20.2144   2
  -3  -9  -3 581.455 25.9428   6
  -3  -9  -3 583.189 25.8052   3
  -3   9  -3 575.174 26.3047   2
   3   9   3 514.775 24.2092   2
   3   9   3 561.487 24.7624   4
   4  -9   3 1.96395 2.12872   5
  -4  -9  -3 0.46789 2.73777   3
  -4  -9  -3 3.42887 3.61405   6
  -4   9  -3 5.04812 4.31241   2
   4   9   3 2.28629 1.97176   4
  -5  -9  -3 29.5129 5.49419   6
   5  -9   3 46.4943 4.38838   5
  -5  -9  -3 52.2075 5.27081   3
   5   9   3 46.7824 4.28926   5
  -5   9  -3 34.1291 5.62596   3
  -5   9  -3 38.6404 6.22353   2
   5 -10  -3 86.9177 5.42057   5
  -5 -10   3 85.6859 6.47680   3
  -5  10   3 89.1254 5.17905   4
  -5  10   3 88.2301 6.02339   3
  -5  10   3 93.0908 7.64486   2
   5  10  -3 92.6613 5.83260   5
  -4 -10   3 2.78058 2.92115   3
   4 -10  -3 -0.7083 1.91402   5
  -4  10   3 -0.1708 2.04040   3
   4  10  -3 0.93486 2.05834   5
  -4  10   3 0.41463 1.94889   4
  -4  10   3 1.51495 2.73567   2
  -3 -10   3 286.063 13.6025   3
   3 -10  -3 288.808 12.9915   5
  -3  10   3 301.790 13.4188   4
  -3  10   3 287.099 14.1278   2
   3  10  -3 286.062 13.0485   5
  -2 -10   3 400.319 18.5126   3
   2 -10  -3 398.375 17.8532   5
   2  10  -3 391.156 18.6899   2
  -2  10   3 418.569 18.6848   2
   2  10  -3 430.828 17.8857   5
   1 -10  -3 105.509 4.73507   5
   1 -10  -3 100.029 5.60383   6
  -1  10   3 94.7258 4.70851   5
  -1  10   3 108.307 5.81572   2
   1  10  -3 103.697 4.94163   6
   1  10  -3 92.6986 4.76419   5
   1  10  -3 109.300 6.00776   2
  -1  10   3 101.519 5.32671   4
   0 -10  -3 388.443 17.0357   6
   0 -10   3 367.247 16.1733   5
   0  10   3 384.809 16.5737   2
   0  10  -3 377.599 17.4160   2
   0  10   3 388.144 16.8293   4
   0  10  -3 372.507 16.2257   5
   0  10   3 339.212 16.5640   3
  -1 -10  -3 561.767 25.1830   6
   1 -10   3 536.585 24.2650   5
  -1  10  -3 552.758 27.2345   2
   1  10   3 573.195 24.3777   2
   1  10   3 589.208 24.8779   4
  -2 -10  -3 129.781 7.45145   6
  -2 -10  -3 136.536 6.60618   3
   2  10   3 138.319 6.01862   2
   2  10   3 131.810 6.73942   4
   2  10   3 123.513 6.24770   2
  -2  10  -3 140.455 8.36086   2
  -3 -10  -3 12.2837 3.46533   6
  -3 -10  -3 15.0280 2.60308   3
   3  10   3 13.0457 1.49683   2
   3  10   3 16.7462 2.34692   4
  -3  10  -3 15.7352 4.48927   2
  -4 -10  -3 260.206 14.0008   6
  -4 -10  -3 250.624 12.4034   3
   4 -10   3 257.950 12.0667   5
  -4  10  -3 256.003 14.7807   2
   4  10   3 260.096 12.0908   4
  -5 -10  -3 12.0347 3.86299   3
  -5 -10  -3 13.1668 4.93003   6
   5 -10   3 14.2300 3.08088   5
  -5  10  -3 4.90165 4.82098   3
  -5  10  -3 14.6021 5.51424   2
   5  10   3 13.7028 3.20687   5
   5 -11  -3 0.31274 2.76862   5
  -5 -11   3 3.89715 3.83121   3
   5  11  -3 -2.2667 2.45610   5
  -5  11   3 1.55117 3.01468   3
  -5  11   3 0.60327 2.04179   4
  -5  11   3 2.18155 3.55471   2
   4 -11  -3 118.256 6.09727   5
  -4 -11   3 114.869 7.09692   3
  -4  11   3 121.989 8.40086   2
  -4  11   3 116.698 6.47726   4
   4  11  -3 114.277 6.17919   5
  -4  11   3 109.839 6.51670   3
  -3 -11   3 173.904 9.44734   3
   3 -11  -3 192.898 8.66515   5
  -3  11   3 192.251 9.20201   4
  -3  11   3 184.471 9.95127   2
   3  11  -3 183.890 8.68767   5
   2 -11  -3 32.0764 2.29734   5
  -2 -11   3 36.3565 3.72768   3
  -2  11   3 39.4042 3.05561   4
  -2  11   3 37.4797 3.70606   2
   2  11  -3 30.8551 3.70035   2
   2  11  -3 42.2175 2.51049   5
   1 -11  -3 317.298 14.3294   6
   1 -11  -3 320.626 13.5060   5
   1  11  -3 315.685 13.8355   6
  -1  11   3 314.952 14.1961   4
   1  11  -3 295.198 13.5922   5
  -1  11   3 287.366 13.4664   5
  -1  11   3 318.717 14.3037   2
   1  11  -3 316.937 14.6766   2
   0 -11   3 184.827 8.97343   5
   0 -11  -3 213.327 9.88230   6
   0  11  -3 204.099 10.4157   2
   0  11   3 210.511 9.41207   2
   0  11   3 197.835 9.58018   4
  -1 -11  -3 0.58538 2.20547   6
  -1  11  -3 -1.3837 3.06042   2
   1  11   3 1.29250 1.76748   4
  -2 -11  -3 151.654 8.46555   6
  -2 -11  -3 148.058 7.76320   3
  -2  11  -3 161.946 9.84270   2
   2  11   3 159.451 7.81192   4
   2  11   3 159.550 7.06991   2
  -3 -11  -3 13.8558 2.71330   3
  -3 -11  -3 13.4338 3.73063   6
   3  11   3 12.5911 2.29153   4
  -3  11  -3 9.40575 4.09087   2
   3  11   3 13.9346 1.74472   2
   4 -11   3 24.3710 2.74833   5
  -4 -11  -3 23.2993 3.60982   3
  -4 -11  -3 29.4529 5.00457   6
  -4  11  -3 23.2220 5.32444   2
   4  11   3 24.7494 2.85321   4
  -5 -11  -3 5.15797 3.98630   3
  -5 -11  -3 2.96399 5.02348   6
   5 -11   3 8.41674 2.85321   5
  -5  11  -3 -1.0939 7.85900   2
  -5  11  -3 -10.242 5.21001   3
   5  11   3 6.12714 2.96704   5
   5 -12  -3 89.3690 6.85247   5
  -5 -12   3 90.2697 6.93516   3
   5  12  -3 96.6560 5.91941   5
  -5  12   3 95.0190 8.05788   2
  -5  12   3 93.1950 5.62653   4
  -5  12   3 86.1466 6.15496   3
  -4 -12   3 7.23406 3.54257   3
   4 -12  -3 0.98008 1.98617   5
  -4  12   3 0.78861 3.36924   2
   4  12  -3 2.18420 2.06802   5
  -4  12   3 0.48717 2.48240   3
  -4  12   3 0.76645 2.27815   4
   3 -12  -3 283.246 13.0306   5
  -3 -12   3 283.773 13.9699   3
   3  12  -3 296.582 13.1718   5
  -3  12   3 300.134 13.7234   4
   3  12  -3 283.275 14.4467   2
  -3  12   3 296.976 14.4417   2
   2 -12  -3 776.934 35.6331   6
   2 -12  -3 757.740 34.8806   5
  -2  12   3 815.088 35.9275   2
   2  12  -3 861.796 36.0918   2
   2  12  -3 844.996 35.0199   5
  -2  12   3 809.953 35.5822   4
   1 -12  -3 30.9739 3.16977   6
   1  12  -3 28.5150 2.55930   6
  -1  12   3 30.6776 3.21759   2
  -1  12   3 28.8168 3.11184   4
   1  12  -3 35.9658 4.47196   2
   0 -12  -3 331.225 15.0953   6
   0  12   3 344.051 14.7870   2
   0  12   3 291.872 14.2354   5
   0  12   3 332.504 15.0058   4
   0  12  -3 334.090 15.8845   2
   1 -12   3 783.597 33.9667   5
  -1 -12  -3 774.561 35.0872   6
   1  12   3 804.701 34.8253   4
   1  12   3 817.969 34.3762   2
  -1  12  -3 786.451 35.9282   2
  -2 -12  -3 102.619 5.76574   3
  -2 -12  -3 95.5957 6.63307   6
   2  12   3 107.571 5.64530   2
   2  12   3 101.795 5.59608   4
  -2  12  -3 101.076 8.15900   2
  -3 -12  -3 82.3844 5.86170   3
   3 -12   3 100.246 4.89278   5
  -3 -12  -3 94.4694 7.12301   6
  -3  12  -3 90.2692 8.00554   2
   3  12   3 96.2400 5.57547   4
   4 -12   3 63.1177 4.12083   5
  -4 -12  -3 51.8513 6.68755   6
  -4 -12  -3 50.6974 5.38225   3
  -4  12  -3 71.6734 8.30160   2
   4  12   3 57.3231 5.54672   4
   4  12   3 55.5419 4.31301   5
  -5 -12  -3 29.4486 4.74564   3
  -5 -12  -3 42.0836 6.40317   6
  -5  12  -3 35.1945 7.51699   2
  -5  12  -3 36.5951 6.73964   3
  -5 -13   3 3.50789 5.33419   3
  -5  13   3 1.91265 4.28918   2
  -5  13   3 -0.8794 3.06692   3
  -5  13   3 0.92009 2.48509   4
   5  13  -3 1.79620 2.68565   5
   5  13  -3 0.41915 4.35725   2
   4 -13  -3 0.38945 1.94616   5
  -4 -13   3 4.61469 4.13361   3
  -4  13   3 -0.1983 3.29294   2
   4  13  -3 -0.3942 2.05277   5
  -4  13   3 0.83437 2.49232   3
   4  13  -3 2.08892 3.87739   2
  -4  13   3 1.55137 2.46659   4
  -3 -13   3 1.95245 3.65618   3
  -3  13   3 5.26608 2.91617   2
   3  13  -3 6.35767 3.63898   2
   3  13  -3 7.91812 1.83277   5
  -3  13   3 8.91843 2.68351   4
   2 -13  -3 14.8483 1.41696   5
  -2  13   3 11.3246 2.45074   4
   2  13  -3 16.3621 3.62641   2
  -2  13   3 13.9377 2.93978   2
   2  13  -3 14.3332 1.63681   5
   1 -13  -3 -1.5714 1.84338   6
   1  13  -3 -2.1681 1.05523   6
  -1  13   3 -0.6890 1.91309   2
  -1  13   3 -2.2102 2.03189   4
   1  13  -3 1.26065 3.04976   2
   1  13  -3 1.64578 0.91801   5
   0 -13  -3 32.3994 3.62078   6
   0  13   3 27.0041 1.72815   5
   0  13   3 32.8587 3.36084   4
   0  13  -3 41.3265 4.74728   2
   0  13   3 33.3172 2.99604   2
  -1 -13  -3 14.3488 2.88535   6
   1  13   3 17.1210 1.88146   2
   1  13   3 17.2198 2.71304   4
  -1  13  -3 13.6751 4.01256   2
  -2 -13  -3 0.19167 2.81609   6
   2 -13   3 1.20050 0.73669   5
   2  13   3 -0.1827 2.05530   4
  -2  13  -3 -5.1661 3.48821   2
  -3 -13  -3 29.9875 3.76928   3
  -3 -13  -3 42.6604 7.07194   6
  -3  13  -3 21.1837 5.23406   2
   3  13   3 30.5963 3.23131   4
  -4 -13  -3 -0.6852 3.32642   3
  -4 -13  -3 -3.3725 3.90417   6
  -4  13  -3 -3.7625 5.56955   2
   4  13   3 5.44836 2.47515   5
  -5 -14   3 72.0016 6.88066   3
   5  14  -3 77.3943 5.24314   5
  -5  14   3 70.8369 5.58015   3
  -5  14   3 74.8151 7.63696   2
  -5  14   3 78.9277 7.83047   4
  -4 -14   3 26.2883 4.76994   3
  -4  14   3 22.3231 3.35232   4
   4  14  -3 22.9714 2.96181   5
   4  14  -3 27.6494 4.88517   2
  -4  14   3 27.4153 4.61627   2
  -4  14   3 26.8736 3.54066   3
  -3 -14   3 239.160 13.4740   3
   3 -14  -3 277.958 13.2810   6
   3 -14  -3 257.074 12.6283   5
  -3  14   3 285.066 13.3411   4
   3  14  -3 286.368 14.0918   2
   3  14  -3 286.585 12.4995   5
  -3  14   3 291.106 14.0901   2
   2 -14  -3 532.217 24.0441   6
   2  14  -3 562.899 24.7546   2
  -2  14   3 517.040 24.4798   2
   1  14  -3 99.5910 4.66415   5
  -1  14   3 106.307 6.19108   2
  -1  14   3 105.117 5.94672   4
   1  14  -3 104.336 7.23349   2
   0 -14  -3 241.383 11.8700   6
   0  14   3 252.768 11.9949   4
   0  14  -3 248.771 13.1766   2
   0  14   3 251.114 11.7032   2
  -1 -14  -3 671.468 30.1424   6
   1  14   3 702.802 29.9912   4
  -1  14  -3 645.867 31.0408   2
  -2 -14  -3 108.258 7.08593   6
   2  14   3 105.982 5.17064   2
   2  14   3 103.874 6.09335   4
  -2  14  -3 90.0114 8.72909   2
  -3 -14  -3 17.4214 3.52046   3
  -3 -14  -3 16.6445 3.99967   6
  -3  14  -3 14.3852 5.19204   2
   3  14   3 18.0304 2.83346   4
   3  14   3 15.8497 2.39418   5
  -4 -14  -3 130.219 8.22387   3
  -4 -14  -3 138.725 9.73798   6
  -4  14  -3 151.614 12.0557   2
   4  14   3 135.833 7.43583   5
  -4 -15   3 19.2034 5.05168   3
  -4  15   3 19.9195 4.27634   2
  -4  15   3 20.9485 3.30250   3
  -4  15   3 20.7070 3.49250   4
   4  15  -3 19.5890 4.89046   2
   3 -15  -3 41.0691 4.42895   6
  -3  15   3 41.1229 4.83418   2
   3  15  -3 39.1938 5.05848   2
  -3  15   3 42.1719 4.09039   4
   3  15  -3 42.0930 3.14670   5
   2 -15  -3 33.2175 3.82090   6
   2  15  -3 34.3134 4.55663   2
  -2  15   3 36.2143 3.97189   4
  -2  15   3 36.0225 4.20001   2
   2  15  -3 35.7048 2.77421   5
   1 -15  -3 89.4200 5.45809   6
  -1  15   3 85.9705 5.73032   2
  -1  15   3 82.0463 5.41982   4
   1  15  -3 88.4872 6.52433   2
   0 -15  -3 62.7426 4.76625   6
   0  15  -3 58.4583 6.68884   2
   0  15   3 61.2813 4.59018   4
   0  15   3 64.9650 4.44119   2
  -1 -15  -3 8.17483 2.84651   6
  -1  15  -3 -3.9647 4.03247   2
   1  15   3 10.8399 2.88522   4
   1  15   3 6.66315 1.81151   2
  -2 -15  -3 72.7044 6.02751   6
   2  15   3 75.0980 5.21673   4
   2  15   3 80.2007 4.11951   5
  -2  15  -3 68.7740 8.05310   2
  -3 -15  -3 15.4633 4.12154   6
   3  15   3 17.2392 2.92913   4
   3  15   3 17.4702 2.39687   5
  -3  15  -3 12.0098 5.98697   2
  -4 -15  -3 -1.5514 3.71754   3
  -4 -15  -3 0.35602 5.79823   6
  -4  15  -3 2.76391 9.32783   2
   4  15   3 4.19674 2.34229   5
  -4 -16   3 14.9882 7.13206   3
  -4  16   3 14.6116 3.43073   4
  -4  16   3 13.1686 4.21933   2
   4  16  -3 10.5168 4.67797   2
  -4  16   3 12.3142 3.23079   3
   3 -16  -3 37.1638 4.37489   6
  -3  16   3 44.1855 5.02006   2
  -3  16   3 38.8686 4.33159   4
   3  16  -3 34.1747 5.09249   2
   2 -16  -3 191.982 9.35239   6
  -2  16   3 183.643 9.62933   4
  -2  16   3 177.695 10.0788   2
   1 -16  -3 51.9122 4.39808   6
   1  16  -3 54.9469 6.28855   2
  -1  16   3 50.5753 4.59643   4
  -1  16   3 57.3209 4.81134   2
   0 -16  -3 73.7026 5.22050   6
   0  16  -3 67.8403 7.18609   2
   0  16   3 74.6007 5.16866   4
   0  16   3 76.8575 4.92655   2
  -1 -16  -3 162.666 9.25228   6
   1  16   3 173.133 9.14606   4
   1  16   3 173.547 8.37064   2
  -2 -16  -3 111.748 7.72388   6
  -2  16  -3 117.066 9.85820   2
   2  16   3 120.813 6.01314   5
   2  16   3 135.917 9.01043   4
  -3 -16  -3 10.7775 4.06669   6
   3  16   3 12.0277 2.15687   5
  -3  16  -3 10.3789 5.58840   2
   3  16   3 11.2168 2.80007   4
  -4 -16  -3 65.2550 7.44687   6
  -4 -16  -3 85.0989 6.71896   3
  -4  16  -3 64.0277 9.39159   2
  -4  17   3 77.8448 7.36542   2
   3 -17  -3 5.07740 3.54134   6
   3  17  -3 8.56794 4.47643   2
  -3  17   3 4.95627 3.44769   2
  -3  17   3 5.50290 3.02682   4
   2 -17  -3 9.31533 2.53463   6
   2  17  -3 12.1470 4.41742   2
  -2  17   3 16.0318 3.23877   4
   1 -17  -3 179.954 9.24402   6
   1  17  -3 190.682 10.9774   2
  -1  17   3 182.932 9.81584   4
  -1  17   3 178.931 9.76432   2
   0 -17  -3 84.6271 5.63314   6
   0  17  -3 70.0317 7.02953   2
   0  17   3 77.7866 5.28060   2
   0  17   3 82.0211 5.89588   4
  -1 -17  -3 2.72597 2.87438   6
  -1  17  -3 -6.6927 4.60373   2
   1  17   3 1.65583 2.68397   4
  -2 -17  -3 59.5515 5.81911   6
  -2  17  -3 42.5094 6.72821   2
   2  17   3 75.3172 5.20674   4
  -3 -17  -3 82.2102 7.08236   6
   3  17   3 70.8707 5.26411   4
  -3  17  -3 63.5298 9.33568   2
  -3  18   3 32.2861 4.39396   4
   3  18  -3 30.5082 5.36266   2
  -3  18   3 22.8737 4.41787   2
   2 -18  -3 76.1038 5.16486   6
  -2  18   3 74.2856 6.36604   2
   2  18  -3 71.5964 7.25528   2
  -2  18   3 83.0952 6.20533   4
   1 -18  -3 25.9881 3.11208   6
   1  18  -3 18.3216 4.57581   2
  -1  18   3 26.1734 3.71819   2
  -1  18   3 21.6513 3.70013   4
   0 -18  -3 14.7717 2.97092   6
   0  18   3 15.2625 2.82591   2
   0  18   3 14.6724 3.53285   4
   0  18  -3 8.58269 4.81908   2
  -1 -18  -3 86.3694 6.29757   6
  -1  18  -3 68.2805 8.40138   2
   1  18   3 91.4689 6.36195   4
  -2 -18  -3 6.88004 3.37956   6
  -2  18  -3 -0.0086 5.00128   2
   2  18   3 7.48643 3.09027   4
  -3 -18  -3 3.63322 3.78884   6
  -3  18  -3 -9.1504 5.49558   2
   3  18   3 -0.8719 2.56166   4
  -3  19   3 59.3967 5.97006   4
  -2  19   3 17.1507 4.09217   4
  -2  19   3 18.1184 3.76764   2
   2  19  -3 11.9019 4.62433   2
   1 -19  -3 219.867 10.4373   6
   1  19  -3 206.240 12.2974   2
  -1  19   3 193.061 11.3240   2
  -1  19   3 201.066 10.9024   4
   0 -19  -3 155.663 8.75236   6
   0  19   3 159.802 9.11222   4
   0  19  -3 164.907 11.0276   2
   0  19   3 165.376 8.78722   2
  -1 -19  -3 2.93627 3.25847   6
  -1  19  -3 -4.5691 4.87453   2
   1  19   3 1.34543 2.92940   4
  -2 -19  -3 93.7137 7.23389   6
   2  19   3 92.5283 6.52239   4
  -2  20   3 2.00808 3.36315   2
  -2  20   3 0.22295 3.53585   4
  -1  20   3 3.83506 3.05166   2
  -1  20   3 -0.4079 3.35761   4
   1  20  -3 -2.7094 4.63186   2
   0 -20  -3 7.22346 3.00257   6
   0  20  -3 -1.0130 4.90094   2
   0  20   3 6.84395 3.47686   4
  -1 -20  -3 4.27409 3.08598   6
   1  20   3 -3.9164 2.92629   4
  -2 -20  -3 5.37358 3.48333   6
  -2  20  -3 -0.7417 5.39953   2
   2  20   3 -2.5398 4.28870   4
   1  21  -3 113.016 9.05625   2
  -1  21   3 103.585 7.26417   2
  -1  21   3 96.9111 7.17822   4
   0  21   3 73.1912 6.14367   4
   0  21  -3 69.6253 8.43232   2
   1  21   3 -0.7468 3.45382   4
  -1  21  -3 -5.8472 4.70877   2
   6   0  -4 22.4192 3.53434   5
  -6   0   4 25.3246 4.29979   3
  -5   0   4 154.219 8.15842   3
   4   0  -4 1146.12 49.5786   5
  -4   0   4 1145.07 49.6784   3
  -3   0   4 243.327 10.8798   4
   3   0  -4 244.147 11.1154   5
  -3   0   4 249.512 11.1350   3
  -2   0   4 764.851 33.4556   3
  -2   0   4 788.643 33.5425   4
   2   0  -4 773.878 33.5252   5
   1   0  -4 1647.89 70.5127   3
   0   0  -4 1528.91 66.4948   5
   0   0  -4 1619.58 66.2997   3
   0   0  -4 1493.62 66.6815   6
  -1   0  -4 91.6475 5.45552   6
  -1   0  -4 107.775 4.91952   2
  -1   0  -4 104.991 5.15513   5
   1   0   4 101.517 5.07479   4
  -2   0  -4 1113.75 47.2364   6
  -2   0  -4 1073.98 46.6661   2
   2   0   4 1058.34 46.5270   2
  -3   0  -4 597.650 27.0937   6
   3   0   4 580.661 26.1187   4
  -3   0  -4 593.446 26.1276   2
  -3   0  -4 596.065 26.1638   3
  -4   0  -4 42.0022 4.01453   2
  -4   0  -4 40.8743 3.84879   3
  -4   0  -4 47.1856 5.28548   6
   4   0   4 48.7972 3.86388   4
  -5   0  -4 256.642 13.0314   3
  -6  -1   4 22.2050 4.12495   3
   6  -1  -4 13.8010 3.51675   5
  -6   1   4 14.7649 3.99903   3
   6   1  -4 14.3737 3.60074   5
  -5  -1   4 35.8664 3.83281   3
  -5   1   4 37.4419 3.83867   3
   4  -1  -4 23.4224 2.64809   5
  -4  -1   4 24.4278 2.91613   3
   4   1  -4 29.2797 2.76104   5
  -4   1   4 20.2404 2.56227   3
  -3  -1   4 41.7417 2.85702   3
   3  -1  -4 39.1174 2.64823   5
  -3  -1   4 37.7096 2.25383   4
  -3   1   4 39.4710 2.38182   4
   3   1  -4 42.1754 2.80278   5
  -3   1   4 38.5514 2.58745   3
   2  -1  -4 55.2233 3.09353   5
  -2  -1   4 55.8877 2.99971   3
  -2   1   4 53.9530 2.88188   3
   2   1  -4 58.5072 3.02919   5
  -2   1   4 53.7396 2.98267   4
   1  -1  -4 11.9781 0.98309   3
  -1  -1   4 14.1285 1.26730   3
   1  -1  -4 14.1771 1.36565   5
  -1  -1   4 14.8215 1.47344   4
   1   1  -4 14.2589 1.33691   5
  -1   1   4 14.8391 1.05441   3
   1   1  -4 12.6216 1.21560   3
  -1   1   4 15.7837 1.54623   4
   0  -1  -4 9.65123 1.59259   6
   0  -1  -4 9.94878 0.94984   3
   0  -1  -4 11.0082 1.47615   5
   0  -1   4 10.3394 1.34951   4
   0   1  -4 8.72192 1.44372   5
   0   1   4 8.98977 1.30337   4
   0   1  -4 12.7062 1.27318   3
   0   1  -4 10.9491 1.36700   2
  -1  -1  -4 275.127 13.6915   6
   1  -1   4 297.343 13.2839   4
  -1  -1  -4 307.735 13.3391   5
  -1  -1  -4 310.569 12.9363   2
  -1   1  -4 285.205 13.3148   5
  -1   1  -4 279.949 13.4880   6
  -1   1  -4 306.653 13.2879   2
   1   1   4 302.847 13.2870   4
   2  -1   4 13.6299 1.91663   4
  -2  -1  -4 16.1901 1.80974   3
  -2  -1  -4 15.6636 1.58912   2
  -2  -1  -4 19.4813 2.68754   6
   2   1   4 12.4510 1.28837   2
  -2   1  -4 17.8149 1.99327   2
  -2   1  -4 21.1457 3.51833   6
  -3  -1  -4 14.0320 3.05661   6
  -3  -1  -4 11.8594 1.84052   2
   3  -1   4 4.60940 1.97173   4
  -3  -1  -4 8.47750 1.96656   3
  -3   1  -4 10.2489 2.58456   6
   3   1   4 10.0544 2.09036   4
   4  -1   4 53.7041 4.09415   4
  -4  -1  -4 56.1799 4.47831   3
  -4  -1  -4 55.5549 5.73319   6
  -4   1  -4 58.2556 5.40761   6
  -4   1  -4 53.4029 4.98824   2
   4   1   4 54.9397 4.01884   4
  -4   1  -4 51.1323 4.32989   3
  -5  -1  -4 5.72846 3.11042   3
  -5   1  -4 12.2537 3.45294   3
  -5   1  -4 10.0979 3.23203   2
   6  -2  -4 5.86405 2.97520   5
  -6  -2   4 0.68206 3.22823   3
  -6   2   4 1.88098 3.17504   3
   6   2  -4 3.90139 3.25359   5
   5  -2  -4 149.382 9.78530   5
  -5  -2   4 173.875 9.92693   3
   5   2  -4 158.641 8.31810   5
  -5   2   4 165.580 8.44756   3
  -4  -2   4 482.020 21.2483   3
   4  -2  -4 486.905 21.1080   5
  -4   2   4 445.235 20.5702   4
   4   2  -4 496.885 21.1792   5
  -4   2   4 474.002 21.2211   3
  -3  -2   4 227.475 10.3766   3
   3  -2  -4 234.734 10.3222   5
  -3  -2   4 221.339 9.97584   4
  -3   2   4 215.187 10.1258   4
  -3   2   4 228.888 10.3194   3
   3   2  -4 232.221 10.3131   5
  -2  -2   4 263.174 11.6059   4
   2  -2  -4 259.277 11.3787   5
  -2  -2   4 262.716 11.3929   3
  -2   2   4 256.177 11.2469   3
  -2   2   4 243.143 11.3502   4
   2   2  -4 245.145 11.3476   5
   1  -2  -4 2534.98 128.298   1
  -1  -2   4 2417.45 132.796   1
  -1   2   4 2428.45 130.385   1
   1   2  -4 2515.12 129.458   1
   0  -2  -4 827.445 35.5547   5
   0  -2  -4 816.905 35.0979   3
   0  -2  -4 787.115 35.2900   2
   0  -2   4 808.107 35.5683   4
   0  -2  -4 802.155 35.8845   6
   0   2  -4 805.344 35.5319   5
   0   2   4 818.752 35.5380   4
   0   2  -4 898.461 35.5442   3
   0   2  -4 827.496 35.8605   2
   1  -2   4 118.454 5.73489   4
  -1  -2  -4 124.440 5.73602   5
  -1  -2  -4 120.566 5.13946   2
  -1  -2  -4 123.745 5.32676   3
  -1  -2  -4 110.022 6.35798   6
  -1   2  -4 113.972 5.93780   2
   1   2   4 114.135 5.66663   4
  -1   2  -4 112.053 5.80583   5
  -1   2  -4 108.721 5.85729   6
  -2  -2  -4 979.438 41.5851   2
   2  -2   4 952.844 42.0010   4
  -2  -2  -4 997.677 41.8030   3
  -2  -2  -4 999.298 42.5997   6
  -2   2  -4 969.801 42.1564   6
  -2   2  -4 963.103 42.0620   2
   2   2   4 913.928 41.4548   2
  -3  -2  -4 377.012 16.2998   2
   3  -2   4 379.769 16.5922   4
  -3  -2  -4 360.690 16.4847   3
  -3  -2  -4 375.454 17.4656   6
  -3   2  -4 342.683 16.9192   6
   3   2   4 362.382 16.4628   4
  -3   2  -4 360.457 16.7616   2
   4  -2   4 21.5756 2.82433   4
  -4  -2  -4 22.7078 3.24280   3
  -4  -2  -4 22.2397 4.19667   6
  -4   2  -4 19.9589 3.16998   2
  -4   2  -4 14.5995 3.34951   6
  -4   2  -4 20.8119 3.30793   3
   4   2   4 18.3357 2.61305   4
  -5  -2  -4 17.4244 3.50432   3
  -5  -2  -4 13.6670 4.55970   6
  -5   2  -4 18.8893 3.63590   2
  -5   2  -4 24.8564 4.27199   3
   6  -3  -4 55.2319 5.19095   5
  -6  -3   4 53.5725 5.26058   3
  -6   3   4 53.5988 5.51943   3
   6   3  -4 62.0033 5.40409   5
   5  -3  -4 80.6272 6.99389   5
  -5  -3   4 85.3819 5.99131   3
   5   3  -4 75.9817 5.01084   5
  -5   3   4 71.2940 5.05332   3
   4  -3  -4 7.21703 1.86732   5
  -4  -3   4 7.01604 2.26463   3
  -4   3   4 3.15983 1.85235   3
   4   3  -4 5.56380 2.04640   5
  -3  -3   4 760.228 33.1565   3
  -3  -3   4 745.370 32.7588   4
   3  -3  -4 782.071 33.0806   5
   3   3  -4 791.049 33.3407   5
  -3   3   4 755.843 32.9670   4
  -3   3   4 739.775 33.0519   3
  -2  -3   4 385.646 16.9089   4
   2  -3  -4 387.608 16.9309   5
  -2   3   4 386.324 16.7731   3
   2   3  -4 375.672 16.8932   5
  -2   3   4 390.567 16.9553   4
  -1  -3   4 1.15333 0.96510   4
   1  -3  -4 0.50554 1.02126   5
  -1  -3   4 1.67905 0.98934   3
  -1   3   4 3.10881 0.49927   3
  -1   3   4 0.21198 0.98209   4
   1   3  -4 3.23364 0.91893   5
   0  -3   4 714.530 31.0875   4
   0  -3  -4 707.967 30.7344   2
   0  -3  -4 701.237 31.4060   6
   0  -3  -4 729.829 31.0331   5
   0   3  -4 676.792 30.9840   5
   0   3   4 728.563 31.0450   4
   0   3  -4 745.869 31.2380   2
  -1  -3  -4 519.904 21.5703   3
  -1   3  -4 482.448 22.2405   2
   1   3   4 510.149 21.9694   4
  -1   3  -4 478.934 21.9433   5
  -1   3  -4 506.738 21.9675   6
  -2  -3  -4 36.2237 2.45665   3
   2  -3   4 36.4778 3.01375   4
  -2  -3  -4 40.4511 3.93793   6
  -2   3  -4 35.5691 2.90583   6
   2   3   4 33.5809 2.58438   4
  -2   3  -4 36.2369 3.18964   2
  -3  -3  -4 55.0959 3.65938   3
   3  -3   4 54.9416 3.86655   4
  -3  -3  -4 52.8370 4.78296   6
   3   3   4 51.2635 3.69024   4
   3   3   4 51.4970 2.86653   2
  -3   3  -4 54.3181 4.24226   6
  -3   3  -4 53.8129 4.27953   2
  -4  -3  -4 150.499 9.41411   6
  -4  -3  -4 148.704 7.82379   3
   4  -3   4 154.349 7.66598   4
  -4   3  -4 138.240 8.31422   2
   4   3   4 142.238 7.52883   4
  -4   3  -4 140.946 8.22705   3
  -5  -3  -4 10.1564 4.43622   6
  -5  -3  -4 13.6624 3.37807   3
  -5   3  -4 11.9059 3.95558   3
  -5   3  -4 21.8418 3.86880   2
  -6  -4   4 9.87595 4.02218   3
   6  -4  -4 12.7481 3.50606   5
   6   4  -4 14.6397 3.69266   5
  -6   4   4 14.2287 3.56819   3
  -5  -4   4 29.2543 3.79003   3
   5  -4  -4 37.5184 5.15152   5
   5   4  -4 32.9420 3.46380   5
  -5   4   4 35.3200 3.69640   3
  -4  -4   4 218.268 10.5745   3
   4  -4  -4 231.467 10.4727   5
  -4   4   4 213.915 10.0011   4
   4   4  -4 226.668 10.4938   5
  -4   4   4 222.831 10.4627   3
  -3  -4   4 320.348 13.7322   3
   3  -4  -4 316.343 13.5701   5
  -3   4   4 310.140 13.4702   4
   3   4  -4 262.793 13.2431   4
  -3   4   4 304.559 13.4937   3
  -2  -4   4 151.609 7.09641   3
   2  -4  -4 152.440 6.99925   5
  -2  -4   4 144.748 6.96385   4
  -2   4   4 154.591 7.05635   4
  -2   4   4 147.071 7.62083   2
  -2   4   4 148.657 6.79817   3
   2   4  -4 154.758 6.97486   5
  -1  -4   4 998.591 45.9916   3
   1  -4  -4 1038.21 45.9701   5
  -1  -4   4 1144.32 46.1217   4
  -1   4   4 1165.46 45.6220   3
   1   4  -4 990.005 45.8855   5
   0  -4   4 382.619 16.6377   4
   0  -4  -4 369.698 16.4838   5
   0  -4  -4 348.977 16.9085   6
   0  -4  -4 368.698 16.1734   2
   0   4  -4 388.285 16.5009   5
   0   4   4 367.251 16.5319   4
   0   4  -4 391.896 16.8442   2
  -1  -4  -4 17.5197 1.21974   3
   1  -4   4 19.9246 2.06270   4
  -1  -4  -4 18.6507 2.58558   6
  -1   4  -4 20.0926 1.84758   6
  -1   4  -4 19.6569 2.06106   5
  -1   4  -4 17.0995 2.56632   2
  -2  -4  -4 471.164 20.6606   3
   2  -4   4 468.806 21.0190   4
  -2  -4  -4 488.723 21.7364   6
   2   4   4 468.981 20.9198   4
  -2   4  -4 461.556 20.9170   6
  -2   4  -4 480.594 21.6328   2
  -3  -4  -4 154.893 7.61749   3
   3  -4   4 153.215 7.74456   4
  -3  -4  -4 158.102 9.09853   6
  -3   4  -4 152.298 7.99088   6
  -3   4  -4 154.889 8.47418   2
   3   4   4 158.088 7.65873   4
  -4  -4  -4 4.76516 2.57254   3
  -4  -4  -4 5.22935 3.94207   6
  -4   4  -4 1.28272 2.88347   3
  -4   4  -4 3.25929 2.80565   2
   4   4   4 0.37362 2.11223   4
  -5  -4  -4 32.9687 4.07542   3
  -5  -4  -4 27.5442 5.31430   6
  -5   4  -4 42.4951 6.15633   2
  -5   4  -4 29.9148 4.71152   3
   6  -5  -4 130.381 7.88439   5
  -6   5   4 129.629 8.20585   3
   6   5  -4 166.196 10.7546   5
  -5  -5   4 136.397 7.63786   3
   5   5  -4 127.560 7.17207   5
  -5   5   4 120.298 6.99818   3
   4  -5  -4 8.16712 1.98154   5
  -4  -5   4 9.40561 2.44837   3
  -4   5   4 7.54636 1.48087   4
   4   5  -4 9.96435 2.09038   5
  -4   5   4 4.60963 2.83349   2
  -4   5   4 10.1573 2.30414   3
  -3  -5   4 422.175 18.3281   3
   3  -5  -4 429.236 18.1428   5
  -3   5   4 411.274 18.1214   3
   3   5  -4 422.239 18.1734   5
  -3   5   4 425.983 18.8649   2
   3   5  -4 356.588 17.8567   4
   2   5  -4 2259.79 96.7703   5
  -1  -5   4 14.5979 1.68240   4
  -1  -5   4 13.2643 1.73379   3
   1  -5  -4 9.59236 1.33567   5
   1   5  -4 11.4566 1.27726   5
  -1   5   4 12.1815 1.66113   4
  -1   5   4 12.1263 1.41341   2
  -1   5   4 11.5736 0.74881   3
   0  -5  -4 1212.74 54.3514   2
   0  -5  -4 1244.49 54.6378   5
   0   5  -4 1337.38 54.6773   5
   0   5  -4 1288.09 55.0464   2
   1  -5   4 1756.82 73.0095   4
  -1  -5  -4 1734.72 73.5373   6
  -1   5  -4 1783.24 72.6606   6
  -1   5  -4 1501.47 73.5241   2
  -2  -5  -4 137.600 6.41746   3
   2  -5   4 138.623 6.89803   4
  -2  -5  -4 143.312 7.74383   6
   2   5   4 139.037 6.77161   4
  -2   5  -4 125.649 7.47216   2
  -2   5  -4 136.842 6.63884   6
  -3  -5  -4 392.546 18.6727   6
  -3  -5  -4 394.345 17.3137   3
   3   5   4 388.057 17.3888   4
   3   5   4 373.036 16.6520   2
  -4  -5  -4 172.907 10.8421   6
  -4  -5  -4 176.481 8.89325   3
  -4   5  -4 177.038 10.0508   2
   4   5   4 168.305 8.60771   4
  -5  -5  -4 22.5889 4.01502   3
  -5  -5  -4 24.9028 5.58423   6
  -5   5  -4 20.8438 4.34156   2
  -5   5  -4 22.8560 4.93503   3
   6  -6  -4 0.73166 3.02757   5
  -6  -6   4 6.89939 4.71215   3
  -6   6   4 2.47389 3.05722   3
   6   6  -4 -0.7145 4.90846   5
  -5  -6   4 8.09283 3.18095   3
   5   6  -4 10.8200 2.66598   5
  -5   6   4 7.22700 3.25082   3
   4  -6  -4 46.1489 3.55210   5
  -4  -6   4 47.1944 3.90464   3
   4   6  -4 45.6550 3.57600   5
  -4   6   4 43.6274 3.53325   3
  -4   6   4 42.5601 4.87729   2
  -4   6   4 41.9766 3.00906   4
  -3  -6   4 20.4280 2.56245   3
   3  -6  -4 17.4378 2.07189   5
  -3   6   4 16.6837 2.69907   2
   3   6  -4 20.4665 2.01963   5
  -3   6   4 17.8743 1.95030   3
  -3   6   4 15.6122 1.94306   4
  -2  -6   4 5.01360 1.69717   3
   2  -6  -4 0.10703 1.23609   5
  -2  -6   4 -0.3075 1.12334   4
  -2   6   4 0.09744 1.09272   4
  -2   6   4 -0.6662 0.84078   3
  -2   6   4 -2.1213 1.42555   2
   2   6  -4 0.83772 1.16580   5
   1  -6  -4 1.33999 1.09141   5
  -1  -6   4 3.51215 1.33701   4
  -1   6   4 0.27516 1.00189   2
  -1   6   4 3.24369 0.46097   3
   1   6  -4 1.12008 0.88962   5
  -1   6   4 1.23052 1.12281   4
   0  -6   4 64.3735 3.74732   4
   0  -6  -4 68.2680 3.54455   5
   0  -6  -4 66.1479 4.39018   6
   0  -6  -4 65.9620 3.16396   2
   0   6  -4 65.3591 4.75880   2
   0   6  -4 65.9604 3.52930   5
   0   6   4 63.2597 3.61363   4
  -1  -6  -4 -1.4950 2.03633   6
  -1  -6  -4 0.52600 0.74088   3
   1  -6   4 1.56765 1.47012   4
  -1   6  -4 0.94962 0.71962   6
   1   6   4 0.43437 1.36121   4
  -1   6  -4 -3.3256 2.27300   2
  -2  -6  -4 3.60432 2.62280   6
   2  -6   4 -0.4030 1.63818   4
  -2  -6  -4 1.57712 1.18893   3
   2   6   4 0.43938 1.34306   4
  -2   6  -4 2.69195 1.18786   6
  -2   6  -4 -0.3317 2.41192   2
  -3  -6  -4 28.4651 2.80286   3
   3  -6   4 31.5249 3.37362   4
  -3  -6  -4 38.8064 4.82338   6
  -3   6  -4 27.5433 3.93106   2
   3   6   4 28.6650 3.07005   4
  -4  -6  -4 7.02365 2.70329   3
  -4  -6  -4 1.79742 4.08767   6
   4   6   4 -0.6470 2.16242   4
  -4   6  -4 4.67720 3.39133   2
  -5  -6  -4 3.83285 3.53102   3
  -5  -6  -4 3.23236 4.70373   6
  -5   6  -4 4.24351 4.02874   2
  -5   6  -4 3.15176 4.00467   3
   6  -7  -4 103.945 6.72223   5
  -6  -7   4 103.956 7.78336   3
  -6   7   4 92.9901 7.36632   3
   6   7  -4 108.882 6.62965   5
  -5  -7   4 177.169 9.21892   3
   5  -7  -4 174.290 10.2951   5
   5   7  -4 161.561 8.79379   5
  -5   7   4 167.983 10.0035   2
  -4  -7   4 20.0377 3.35178   3
   4  -7  -4 14.6110 2.46128   5
  -4   7   4 12.2625 1.98715   4
  -4   7   4 9.23567 3.40134   2
  -4   7   4 12.2861 2.46827   3
   4   7  -4 13.4475 2.40733   5
   3  -7  -4 1253.68 52.9209   5
  -3  -7   4 1242.12 53.1852   3
  -3   7   4 1183.38 52.9940   4
   3   7  -4 1222.86 52.9189   5
  -3   7   4 1210.61 52.9148   3
  -3   7   4 1250.91 53.7051   2
  -2  -7   4 641.797 28.1208   3
   2  -7  -4 658.945 27.8972   5
   2   7  -4 647.764 27.8321   5
  -2   7   4 629.388 27.7002   3
  -2   7   4 631.352 28.0311   4
  -2   7   4 637.276 28.3276   2
  -1  -7   4 29.6110 2.27240   4
   1  -7  -4 22.0636 2.11612   5
  -1   7   4 26.8839 2.18788   4
   1   7  -4 25.6535 1.95462   5
  -1   7   4 29.0175 1.43671   3
  -1   7   4 27.8556 2.23137   2
   1   7  -4 30.4717 3.14662   2
   0  -7  -4 1028.93 42.9594   5
   0  -7   4 957.296 43.1996   4
   0  -7  -4 981.254 43.5950   6
   0  -7  -4 932.026 42.7751   2
   0   7   4 968.298 43.1565   4
   0   7  -4 1032.59 42.7697   6
   0   7   4 980.335 42.7670   2
   0   7  -4 1015.23 43.6350   2
   0   7  -4 1074.10 43.0020   5
  -1  -7  -4 1052.61 45.1686   6
   1  -7   4 1062.13 44.6554   4
  -1  -7  -4 1051.51 44.0615   3
  -1   7  -4 884.800 45.0944   2
   1   7   4 1081.22 44.5533   4
  -2  -7  -4 112.126 6.84114   6
  -2  -7  -4 98.6829 4.97378   3
  -2   7  -4 94.2520 6.83159   2
   2   7   4 102.081 5.42478   4
  -3  -7  -4 76.7220 4.59214   3
  -3  -7  -4 83.7279 6.69800   6
  -3   7  -4 73.1199 6.38332   2
   3   7   4 75.3984 4.58178   4
  -4  -7  -4 311.380 14.2972   3
  -4   7  -4 284.136 15.8694   2
   4   7   4 314.000 14.1690   4
   5  -7   4 29.5381 4.05813   5
  -5  -7  -4 33.3796 6.31098   6
  -5  -7  -4 38.5797 4.51794   3
  -5   7  -4 46.3330 6.05694   2
  -5   7  -4 35.0620 5.78714   3
  -6  -8   4 2.80334 3.94716   3
   6  -8  -4 3.81628 4.63252   5
   6   8  -4 0.88588 3.20099   5
  -5  -8   4 37.5779 4.80853   3
   5  -8  -4 27.8152 4.54264   5
   5   8  -4 45.3531 4.26390   5
  -5   8   4 35.7429 5.21776   2
  -5   8   4 33.5114 3.91489   3
  -4  -8   4 30.5577 3.76482   3
   4  -8  -4 35.8804 3.24944   5
  -4   8   4 28.4466 3.88250   2
  -4   8   4 37.5385 3.30810   4
   4   8  -4 37.1130 3.35753   5
  -4   8   4 33.8610 3.31260   3
  -3  -8   4 2.69934 2.32844   3
   3  -8  -4 1.64021 1.59378   5
   3   8  -4 4.58954 1.62460   5
  -3   8   4 2.49208 1.50872   3
  -3   8   4 0.70882 2.28254   2
  -3   8   4 3.44665 1.69887   4
  -2  -8   4 35.9300 3.22279   3
   2  -8  -4 35.5291 2.84948   5
  -2   8   4 41.5564 3.34911   2
  -2   8   4 39.7141 2.34513   3
   2   8  -4 43.1856 2.61663   5
  -2   8   4 37.3971 2.96569   4
   1  -8  -4 133.449 6.29216   5
   1  -8  -4 130.187 7.06881   6
   1   8  -4 122.895 6.21492   5
  -1   8   4 139.084 6.57296   4
   1   8  -4 138.092 7.21254   2
  -1   8   4 136.863 6.52493   2
  -1   8   4 133.446 5.91332   3
   0  -8   4 23.2072 2.42587   4
   0  -8  -4 27.9445 3.30069   6
   0  -8  -4 27.5041 2.09585   5
   0   8   4 26.7163 2.33047   4
   0   8  -4 32.4370 3.46274   2
   0   8  -4 26.4579 2.18331   5
   0   8   4 25.1366 1.74836   2
  -1  -8  -4 29.3262 2.07301   3
   1  -8   4 27.4840 2.70214   4
  -1  -8  -4 33.3162 3.65400   6
   1   8   4 32.9892 2.57028   4
  -1   8  -4 25.0576 4.03308   2
  -2  -8  -4 58.1153 3.47658   3
  -2  -8  -4 71.3561 5.20852   6
  -2   8  -4 51.0410 5.81886   2
   2   8   4 64.9844 3.85319   4
  -3  -8  -4 23.1651 2.72452   3
  -3  -8  -4 23.9628 4.44149   6
  -3   8  -4 23.0046 4.53556   2
  -4  -8  -4 14.0823 3.06076   3
  -4  -8  -4 8.78286 4.60032   6
   4   8   4 10.3229 2.95400   4
  -4   8  -4 11.6752 4.59149   2
   5  -8   4 5.36851 3.17633   5
  -5  -8  -4 2.11196 4.92516   6
  -5  -8  -4 -1.7685 3.49651   3
  -5   8  -4 -3.1951 4.22942   3
  -5   8  -4 -5.9087 4.38965   2
   5  -9  -4 136.254 7.57654   5
  -5  -9   4 145.431 8.46743   3
  -5   9   4 136.401 7.85387   3
  -5   9   4 156.135 9.68847   2
   5   9  -4 148.424 7.88935   5
  -4  -9   4 7.72998 3.03312   3
   4  -9  -4 11.7742 2.33007   5
  -4   9   4 10.0269 2.38804   3
  -4   9   4 9.67716 3.50298   2
  -4   9   4 9.98436 2.10005   4
   4   9  -4 10.6196 2.44444   5
   3  -9  -4 353.755 15.5584   5
  -3  -9   4 348.940 16.0661   3
  -3   9   4 343.943 15.5757   3
  -3   9   4 351.899 15.8332   4
   3   9  -4 345.588 15.5628   5
  -3   9   4 344.613 16.4837   2
  -2  -9   4 721.950 33.8343   3
  -2   9   4 798.718 33.3563   3
  -2   9   4 765.749 34.0116   2
   2   9  -4 799.051 33.4350   5
   1  -9  -4 40.5610 3.72669   6
   1  -9  -4 43.8436 2.70579   5
   1   9  -4 50.7352 4.22864   2
  -1   9   4 44.3286 3.06648   2
   1   9  -4 39.4919 2.55787   5
  -1   9   4 45.1383 3.07175   4
   0  -9  -4 476.252 20.2739   5
   0  -9  -4 447.572 20.3252   2
   0  -9  -4 463.213 21.1087   6
   0   9   4 450.665 20.6354   4
   0   9  -4 503.194 20.3347   5
   0   9   4 443.103 19.9424   3
   0   9   4 459.028 20.2497   2
   0   9  -4 480.242 21.3057   2
  -1   9  -4 813.165 43.3308   2
   1   9   4 1011.65 40.1560   4
  -2  -9  -4 97.1773 4.95203   3
  -2  -9  -4 108.214 6.91455   6
  -2   9  -4 75.6081 7.32618   2
   2   9   4 99.5014 5.69678   4
  -3  -9  -4 93.0590 7.37839   6
  -3  -9  -4 87.2432 5.66872   3
  -3   9  -4 90.7777 7.83608   2
   3   9   4 91.7149 5.37658   4
  -4  -9  -4 179.610 11.3835   6
  -4  -9  -4 162.932 8.82896   3
   4   9   4 177.343 8.81434   4
  -4   9  -4 163.576 13.9310   2
  -5  -9  -4 18.1080 6.32339   6
  -5  -9  -4 16.4421 4.06223   3
   5  -9   4 37.0037 4.07699   5
  -5   9  -4 24.4744 6.11281   2
   5 -10  -4 43.8331 3.89329   5
  -5 -10   4 39.1694 4.85123   3
  -5  10   4 43.4219 4.33652   3
  -5  10   4 46.8295 5.65167   2
   5  10  -4 41.3420 3.98568   5
   4 -10  -4 315.103 14.2767   5
  -4 -10   4 320.069 14.9696   3
  -4  10   4 312.897 14.4630   3
  -4  10   4 305.777 14.4583   4
   4  10  -4 313.297 14.3664   5
  -3 -10   4 32.4458 3.96869   3
   3 -10  -4 30.0783 2.86511   5
  -3  10   4 31.4602 2.69876   3
  -3  10   4 29.5173 3.74646   2
  -3  10   4 32.5346 3.25968   4
   3  10  -4 33.9103 2.81440   5
  -2 -10   4 195.564 10.5867   3
  -2  10   4 226.004 10.7776   2
   2  10  -4 216.735 10.9978   2
  -2  10   4 225.558 10.4372   4
  -2  10   4 225.132 9.91768   3
   2  10  -4 226.969 9.99573   5
   1 -10  -4 421.403 19.1771   6
   1 -10  -4 437.360 18.3775   5
   1  10  -4 438.253 19.3332   2
   1  10  -4 412.304 18.4633   6
  -1  10   4 425.110 18.8560   4
  -1  10   4 408.023 18.1802   3
   1  10  -4 401.968 18.3741   5
   0 -10  -4 286.593 13.3917   6
   0  10  -4 294.271 12.4124   5
   0  10   4 266.729 12.1058   3
   0  10   4 275.531 12.8651   4
   0  10  -4 276.048 13.6101   2
  -1 -10  -4 46.7198 4.46021   6
   1  10   4 48.3073 3.59312   4
  -1  10  -4 52.5630 5.45983   2
   1  10   4 45.1273 2.45223   3
  -2 -10  -4 276.574 13.5306   6
  -2  10  -4 237.058 14.2187   2
   2  10   4 275.082 12.4294   4
  -3 -10  -4 131.111 8.62958   6
  -3 -10  -4 122.247 6.50715   3
   3  10   4 121.491 6.55134   4
  -3  10  -4 110.393 9.15164   2
  -4 -10  -4 10.7277 4.49169   6
  -4 -10  -4 11.1156 3.24515   3
   4  10   4 13.3119 2.63120   4
  -4  10  -4 12.3599 5.44915   2
  -5 -10  -4 85.4073 9.31846   6
   5 -10   4 96.8997 6.19841   5
  -5 -10  -4 80.8013 6.48727   3
  -5  10  -4 76.8221 7.92524   3
  -5  10  -4 80.5552 10.2313   2
  -5 -11   4 13.6416 4.30639   3
   5 -11  -4 17.4124 2.87703   5
  -5  11   4 14.2721 3.20876   3
   5  11  -4 14.2390 3.03627   5
  -5  11   4 17.6830 4.63532   2
   4 -11  -4 9.63276 2.29958   5
  -4 -11   4 14.8251 3.67957   3
   4  11  -4 14.7580 2.59376   5
  -4  11   4 11.5544 2.61337   3
  -4  11   4 12.2795 3.81844   2
  -4  11   4 11.4398 2.54462   4
   3 -11  -4 117.315 5.89708   5
  -3 -11   4 113.004 6.88147   3
   3  11  -4 112.035 5.85217   5
  -3  11   4 111.690 7.13848   2
  -3  11   4 120.591 6.45338   4
  -3  11   4 112.846 6.26456   3
  -2  11   4 294.055 13.9495   2
   2  11  -4 289.869 14.3134   2
   2  11  -4 303.108 13.1667   5
  -2  11   4 289.098 13.6458   4
   1 -11  -4 16.9073 1.62120   5
  -1  11   4 14.8712 2.30994   4
  -1  11   4 16.6058 2.23084   2
   1  11  -4 17.9635 3.37655   2
   1  11  -4 15.8148 1.64860   5
   1  11  -4 19.0812 1.76266   6
   0 -11  -4 198.292 9.84620   6
   0  11   4 177.627 8.32916   3
   0  11  -4 187.749 8.49356   5
   0  11   4 186.280 8.67653   2
   0  11  -4 193.696 10.1079   2
   0  11   4 190.547 9.14685   4
  -1 -11  -4 157.618 8.52783   6
   1  11   4 148.594 6.69519   2
   1  11   4 166.417 7.83542   4
  -1  11  -4 132.229 9.42877   2
  -2 -11  -4 32.1156 3.18391   3
  -2 -11  -4 30.0254 4.21642   6
   2  11   4 34.6820 3.36556   4
  -2  11  -4 22.5512 5.36347   2
  -3 -11  -4 34.6536 5.14337   6
  -3 -11  -4 30.8523 3.38372   3
   3  11   4 35.5741 3.42391   4
  -3  11  -4 23.0838 5.64636   2
  -4 -11  -4 13.3295 5.09196   6
  -4 -11  -4 11.7254 3.46038   3
   4 -11   4 17.9484 2.73197   5
  -4  11  -4 17.6382 5.93677   2
   4  11   4 17.2315 2.92843   4
  -5 -11  -4 -1.2505 3.83383   3
  -5 -11  -4 3.28832 5.14116   6
   5 -11   4 9.45495 3.21943   5
   5  11   4 3.42674 2.94959   5
  -5  11  -4 -7.1373 4.84299   3
  -5  11  -4 1.76242 5.82829   2
   5 -12  -4 69.3827 5.03325   5
  -5  12   4 86.6654 10.8747   2
  -5  12   4 68.6970 5.27144   3
   5  12  -4 72.4092 5.22664   5
  -4 -12   4 168.197 9.70012   3
   4 -12  -4 181.663 8.64972   5
  -4  12   4 172.570 9.05397   4
  -4  12   4 182.687 10.4052   2
   4  12  -4 169.089 8.69075   5
  -4  12   4 181.624 8.85897   3
   3 -12  -4 104.689 5.57616   5
  -3 -12   4 90.3311 7.06255   3
  -3  12   4 110.003 7.05925   2
   3  12  -4 110.320 7.69007   2
  -3  12   4 115.245 6.17841   4
   3  12  -4 110.490 5.71871   5
  -3  12   4 109.913 5.74842   3
   2 -12  -4 114.185 5.57247   5
   2 -12  -4 115.917 6.97799   6
  -2  12   4 116.436 6.50266   4
   2  12  -4 109.001 5.63828   5
  -2  12   4 116.174 6.68580   2
   2  12  -4 118.658 7.42617   2
   1 -12  -4 1066.85 43.5701   5
   1 -12  -4 990.994 44.4258   6
   1  12  -4 923.464 43.9753   6
  -1  12   4 1051.34 44.3125   4
  -1  12   4 1012.89 44.1937   2
   1  12  -4 1062.04 44.7606   2
   1  12  -4 992.996 43.6301   5
   0 -12  -4 249.449 11.9958   6
   0  12   4 239.814 11.0609   2
   0  12  -4 252.362 12.7548   2
   0  12   4 230.460 11.4693   4
  -1 -12  -4 54.6269 5.06872   6
   1  12   4 59.1048 2.90714   2
  -1  12  -4 51.9820 6.69366   2
   1  12   4 58.6051 4.24239   4
  -2 -12  -4 423.930 19.2923   6
   2  12   4 407.386 18.1885   4
  -2  12  -4 361.085 20.1827   2
  -3 -12  -4 142.045 7.24665   3
  -3 -12  -4 134.961 9.19866   6
   3  12   4 128.190 7.21528   4
  -3  12  -4 109.501 11.2411   2
   4 -12   4 19.7920 2.74795   5
  -4 -12  -4 15.4463 3.63625   3
  -4 -12  -4 13.5324 5.14491   6
  -4  12  -4 10.4047 6.34234   2
   4  12   4 15.3591 4.35674   4
  -5 -13   4 7.25171 5.00268   3
   5  13  -4 8.61078 3.04312   5
  -5  13   4 11.8132 3.19793   3
  -5  13   4 8.45927 4.20982   2
  -4 -13   4 0.96302 3.76928   3
   4 -13  -4 3.66635 2.07037   5
  -4  13   4 -1.0394 3.13129   2
   4  13  -4 -3.5330 4.05964   2
   4  13  -4 1.68555 2.45584   5
  -4  13   4 1.11332 2.31865   3
   3 -13  -4 4.31240 1.58045   5
  -3 -13   4 1.79205 3.42867   3
   3  13  -4 3.61858 3.75098   2
  -3  13   4 2.60040 2.73330   2
   3  13  -4 5.24338 1.85677   5
  -3  13   4 -1.4429 1.81821   3
  -3  13   4 2.13988 2.59312   4
   2 -13  -4 21.4508 3.22892   6
   2 -13  -4 21.0728 1.99255   5
   2  13  -4 21.7300 3.73566   2
  -2  13   4 21.8692 3.13768   4
  -2  13   4 24.4225 3.27657   2
   2  13  -4 19.4886 2.06218   5
   1 -13  -4 17.2350 2.88805   6
   1  13  -4 21.4181 4.11816   2
   1  13  -4 17.7687 1.69429   5
  -1  13   4 14.5155 2.65178   4
  -1  13   4 21.5222 2.68470   2
   0 -13  -4 10.1091 2.80869   6
   0 -13   4 7.69137 1.01842   5
   0  13  -4 8.72364 3.89206   2
   0  13   4 7.78643 1.65419   2
   0  13   4 6.10818 2.24606   4
  -1 -13  -4 22.3887 3.51071   6
   1  13   4 26.8042 3.08837   4
   1  13   4 23.4470 1.77686   2
  -1  13  -4 20.5813 5.13640   2
  -2 -13  -4 23.0487 4.17699   6
   2  13   4 13.4829 2.53363   4
  -2  13  -4 8.72995 5.43581   2
  -3 -13  -4 4.32705 2.93690   3
   3 -13   4 2.66117 1.57916   5
  -3 -13  -4 3.24174 4.06169   6
   3  13   4 1.53364 2.32602   4
  -3  13  -4 -10.625 4.92337   2
  -4 -13  -4 6.01988 3.88088   3
  -4 -13  -4 2.81309 4.96556   6
  -4  13  -4 -5.6866 6.04282   2
  -4 -14   4 195.243 11.2635   3
  -4  14   4 209.724 11.8220   2
   4  14  -4 213.736 10.3596   5
  -4  14   4 197.469 10.5781   4
   4  14  -4 218.087 12.1750   2
   3 -14  -4 120.891 7.75150   6
   3 -14  -4 131.939 6.23182   5
  -3  14   4 127.447 9.22458   4
  -3  14   4 124.953 6.64937   3
   3  14  -4 132.120 8.86701   2
  -3  14   4 130.318 10.3334   2
   3  14  -4 131.321 6.51652   5
   2 -14  -4 106.265 6.90201   6
   2 -14  -4 123.886 5.23352   5
   2  14  -4 108.906 5.55585   5
   2  14  -4 125.969 7.90655   2
  -2  14   4 101.461 6.87628   2
  -2  14   4 104.560 6.47023   4
   1 -14  -4 598.458 26.7525   6
   1  14  -4 614.727 27.2778   2
  -1  14   4 578.417 26.6368   4
   1  14  -4 597.300 25.6969   5
  -1  14   4 586.569 26.9875   2
   0 -14  -4 284.313 13.8540   6
   0  14   4 272.090 13.0334   2
   0  14  -4 301.763 14.9799   2
   0  14   4 285.941 13.6480   4
  -1 -14  -4 15.3373 3.48969   6
   1  14   4 18.0585 3.02944   4
  -1  14  -4 5.51504 4.70799   2
  -2 -14  -4 309.045 15.9205   6
   2  14   4 326.432 15.0411   4
  -3 -14  -4 130.964 9.15288   6
  -3 -14  -4 126.700 7.10340   3
  -3  14  -4 98.4335 10.0669   2
   3  14   4 125.006 6.98969   4
  -4 -14  -4 6.05494 5.32689   6
  -4 -14  -4 -0.1389 3.57986   3
   4  14   4 4.28913 2.59008   5
  -4 -15   4 7.46830 4.78470   3
  -4  15   4 6.06547 2.60038   3
   4  15  -4 2.96135 2.36207   5
  -4  15   4 4.72437 2.98547   4
   4  15  -4 5.12261 4.70789   2
  -4  15   4 6.47141 3.70734   2
   3 -15  -4 9.65918 3.15839   6
  -3  15   4 10.9705 2.32964   3
  -3  15   4 7.99542 3.19622   4
   3  15  -4 6.44992 2.05594   5
   3  15  -4 8.33807 4.49026   2
  -3  15   4 8.64911 3.38043   2
   2 -15  -4 118.482 6.92575   6
   2  15  -4 108.175 5.49528   5
  -2  15   4 114.265 7.16237   2
   1 -15  -4 9.31758 2.82292   6
  -1  15   4 6.95484 2.35416   2
   1  15  -4 7.78281 3.91951   2
  -1  15   4 8.71048 2.70008   4
   0 -15  -4 65.0159 5.13566   6
   0  15  -4 62.8804 7.08731   2
   0  15   4 61.8503 5.11242   4
   0  15   4 67.2479 4.27666   2
  -1 -15  -4 60.9498 5.71962   6
   1  15   4 71.4873 4.91348   4
  -2 -15  -4 1.11991 3.97023   6
   2  15   4 4.45236 2.99714   4
  -2  15  -4 -7.1083 4.96414   2
  -3 -15  -4 42.8518 5.60701   6
   3  15   4 27.4962 3.59367   4
  -3  15  -4 26.3798 7.13771   2
  -4 -15  -4 6.82741 4.58564   6
  -4  15  -4 2.40163 6.84020   2
   4  15   4 9.66725 2.67974   5
   4 -16  -4 129.332 8.23596   6
  -4  16   4 131.683 7.79918   4
   3 -16  -4 11.8545 3.27023   6
  -3  16   4 12.2011 3.36144   4
   3  16  -4 10.9273 4.64601   2
  -3  16   4 9.46894 2.35550   3
  -3  16   4 9.87882 3.56489   2
   2 -16  -4 26.7083 3.41303   6
  -2  16   4 25.3345 3.71418   2
  -2  16   4 31.5178 4.08598   4
   2  16  -4 26.1481 4.80932   2
   1 -16  -4 174.958 9.05019   6
  -1  16   4 159.470 8.73379   2
   1  16  -4 163.578 10.3108   2
  -1  16   4 164.985 8.88970   4
   0 -16  -4 134.276 8.12563   6
   0  16   4 135.496 7.84199   4
   0  16  -4 150.364 9.47052   2
   0  16   4 143.745 7.31568   2
  -1 -16  -4 0.10832 3.07645   6
   1  16   4 3.41120 2.60921   4
  -1  16  -4 0.27539 4.97696   2
  -2 -16  -4 71.5728 6.86527   6
  -2  16  -4 54.9308 7.33137   2
   2  16   4 75.0038 5.44321   4
  -3 -16  -4 80.7857 7.63351   6
   3  16   4 75.0603 5.40153   4
  -3  16  -4 53.2188 8.47555   2
   3  16   4 74.4973 5.01134   5
   3 -17  -4 165.780 9.83470   6
   3  17  -4 192.929 11.2155   2
  -3  17   4 171.970 10.2032   2
   2 -17  -4 27.1490 3.49789   6
  -2  17   4 19.0406 3.61012   4
   2  17  -4 22.0853 5.03362   2
   1 -17  -4 1.63535 2.56701   6
   1  17  -4 -3.9296 4.21235   2
  -1  17   4 4.33225 3.19576   4
  -1  17   4 -0.2288 2.37060   2
   0 -17  -4 103.410 6.85960   6
   0  17   4 104.940 6.68010   4
   0  17  -4 104.948 8.91851   2
   0  17   4 103.480 5.94799   2
   1  17   4 103.133 6.82267   4
  -1  17  -4 101.116 9.65038   2
  -2 -17  -4 6.55884 3.80747   6
  -2  17  -4 -4.6413 4.57903   2
   2  17   4 3.59511 3.07398   4
  -3 -17  -4 6.22556 5.74728   6
   3  17   4 10.7244 3.03774   4
  -3  17  -4 5.80170 6.59369   2
  -3  18   4 45.6739 5.78463   2
   2 -18  -4 0.70180 2.65524   6
  -2  18   4 2.91700 3.43283   4
   2  18  -4 -1.3866 4.46973   2
  -2  18   4 3.14878 2.92546   2
   1 -18  -4 77.1208 5.48758   6
  -1  18   4 67.4782 5.37673   2
   1  18  -4 69.2955 7.74232   2
  -1  18   4 69.7037 5.58853   4
   0 -18  -4 49.8250 5.12566   6
   0  18  -4 45.3159 6.77107   2
   0  18   4 50.1973 5.13049   4
  -1 -18  -4 4.52404 3.39537   6
  -1  18  -4 -2.2218 5.02340   2
   1  18   4 0.63331 3.28642   4
  -2 -18  -4 42.7763 5.18826   6
  -2  18  -4 15.7972 6.93036   2
   2  18   4 36.2871 4.40234   4
  -2  19   4 156.101 9.43352   2
   2  19  -4 166.607 10.8099   2
   1 -19  -4 0.58190 3.28591   6
   1  19  -4 0.16548 4.56249   2
  -1  19   4 0.80510 3.04418   4
   0 -19  -4 101.776 7.06803   6
   0  19   4 105.276 6.97431   4
   0  19  -4 96.8083 9.27359   2
  -1 -19  -4 168.810 9.75530   6
   1  19   4 166.092 9.30662   4
  -1  19  -4 158.189 12.0380   2
  -2 -19  -4 11.5029 4.05570   6
  -2  19  -4 8.30127 5.81034   2
   2  19   4 8.68046 5.67509   4
   2  20  -4 5.33844 5.02624   2
  -2  20   4 1.59897 3.30623   4
  -2  20   4 7.22232 3.25753   2
  -1  20   4 -0.1749 3.55808   4
   1  20  -4 1.07055 7.33337   2
   0 -20  -4 6.48269 3.14553   6
   0  20   4 -0.0863 4.85174   4
   0  20  -4 -2.7104 8.48842   2
  -1 -20  -4 3.02755 3.42666   6
   1  20   4 0.54825 3.51405   4
  -1  20  -4 -1.2396 4.77682   2
   6   0  -5 167.665 9.63739   5
  -6   0   5 164.762 9.41060   3
  -5   0   5 191.771 10.1935   3
   5   0  -5 189.477 9.47377   5
   4   0  -5 48.1266 3.35456   5
  -4   0   5 44.1534 3.54992   3
  -4   0   5 39.3415 2.25418   4
   3   0  -5 1707.91 72.1561   5
  -3   0   5 1704.32 72.0982   3
  -3   0   5 1621.39 72.0057   4
   2   0  -5 816.159 35.7443   5
  -2   0   5 811.956 35.7961   4
  -2   0   5 847.834 35.6094   3
   1   0  -5 81.7548 4.26962   5
   1   0  -5 82.9958 3.98436   3
  -1   0   5 87.3224 4.48394   4
   0   0   5 991.554 42.4776   4
   0   0  -5 968.883 42.2729   2
   0   0  -5 956.855 42.6225   6
   0   0  -5 975.763 42.0888   3
   0   0  -5 1001.36 42.4114   5
  -1   0  -5 1212.46 49.6411   2
   1   0   5 1236.89 49.8691   4
  -1   0  -5 1000.38 49.8040   5
   2   0   5 70.3794 4.10468   4
  -2   0  -5 63.4299 5.18924   6
  -3   0  -5 264.843 12.4281   3
  -3   0  -5 269.227 13.4611   6
  -3   0  -5 265.534 12.3107   2
  -4   0  -5 258.442 12.5057   3
  -4   0  -5 249.987 13.5627   6
   4   0   5 258.804 12.3978   4
  -4   0  -5 254.760 12.2354   2
  -5   0  -5 53.1660 5.40749   3
  -6  -1   5 0.57015 3.20812   3
   6  -1  -5 2.14204 2.96551   5
  -6   1   5 -2.0182 3.44792   3
   6   1  -5 -4.2432 4.34607   5
   5  -1  -5 14.0827 2.98987   5
   5   1  -5 10.6772 2.61652   5
  -5   1   5 10.4869 3.06857   3
  -4  -1   5 52.4066 3.56734   3
   4  -1  -5 49.2106 3.51842   5
  -4   1   5 44.0217 2.64233   4
   4   1  -5 48.7613 3.49389   5
  -4   1   5 44.5616 3.37302   3
  -3  -1   5 9.23632 1.51518   4
  -3  -1   5 12.3944 1.93119   3
   3  -1  -5 10.8657 1.81467   5
  -3   1   5 13.2160 1.84223   3
  -3   1   5 8.15246 1.60997   4
   3   1  -5 14.0038 1.88095   5
  -2  -1   5 42.6498 2.61360   3
   2  -1  -5 39.3777 2.64833   5
  -2  -1   5 43.5023 2.74788   4
   2   1  -5 41.6548 2.66443   5
  -2   1   5 36.9389 2.68879   4
  -2   1   5 43.3136 2.40444   3
   1  -1  -5 134.464 6.74044   5
  -1  -1   5 148.779 6.92785   4
   1   1  -5 131.109 6.71336   5
  -1   1   5 161.132 6.95029   4
   0  -1  -5 3.80726 1.41633   5
   0  -1  -5 3.85938 0.81402   3
   0  -1   5 2.39751 1.33723   4
   0  -1  -5 7.07850 1.87679   6
   0   1  -5 6.82766 1.43813   2
   0   1  -5 4.02364 1.07833   3
   0   1   5 4.93108 1.48842   4
   0   1  -5 4.54137 1.43745   5
   0   1  -5 6.28840 1.61127   6
  -1  -1  -5 2.57678 0.95280   2
  -1  -1  -5 1.28533 1.65733   5
   1  -1   5 1.76326 1.46152   4
  -1  -1  -5 0.09314 2.24084   6
  -1   1  -5 -2.7149 1.74392   5
  -1   1  -5 -1.3493 1.80842   6
   1   1   5 2.81627 1.42885   4
  -1   1  -5 0.90823 2.35798   2
   2  -1   5 109.494 5.86229   4
  -2  -1  -5 104.186 6.79124   6
  -2  -1  -5 113.547 5.49340   3
  -2  -1  -5 107.841 5.21285   2
  -2   1  -5 103.023 6.34690   6
   2   1   5 112.938 5.72533   4
  -2   1  -5 108.300 5.59678   2
   3  -1   5 14.7475 2.81287   4
  -3  -1  -5 15.1979 1.90521   2
  -3  -1  -5 15.1453 3.48693   6
   3   1   5 11.8961 2.71189   4
  -3   1  -5 11.9904 2.64005   3
  -3   1  -5 16.0977 3.20376   6
  -4  -1  -5 2.25654 3.70195   6
  -4  -1  -5 -1.7434 2.58608   3
   4  -1   5 0.53298 2.61098   4
   4   1   5 1.37007 2.53796   4
  -4   1  -5 1.90079 2.63704   2
  -4   1  -5 2.26850 3.31783   6
  -4   1  -5 1.13420 2.51816   3
  -5  -1  -5 0.25033 3.35453   3
  -5  -1  -5 1.82480 4.30109   6
  -5   1  -5 4.25551 3.46185   3
  -6  -2   5 120.124 7.80316   3
   6  -2  -5 134.036 7.93145   5
  -6   2   5 144.080 7.88177   3
  -5  -2   5 65.2163 4.69393   3
   5  -2  -5 64.2922 4.51308   5
  -5   2   5 54.9615 4.82965   3
   5   2  -5 62.7677 4.83163   5
  -4  -2   5 89.9601 5.18383   3
   4  -2  -5 87.8696 5.07089   5
   4   2  -5 81.9062 4.84202   5
  -4   2   5 80.9446 4.33727   4
  -4   2   5 85.8975 4.94906   3
  -3  -2   5 607.832 26.7548   4
  -3  -2   5 631.253 26.9374   3
   3  -2  -5 625.736 26.9371   5
  -3   2   5 619.959 26.8246   3
   3   2  -5 603.283 26.9083   5
  -3   2   5 606.414 26.8438   4
  -2  -2   5 974.821 42.2756   4
   2  -2  -5 1001.62 42.2567   5
  -2   2   5 939.945 42.2630   4
  -2   2   5 990.180 42.0166   3
   2   2  -5 981.374 42.2372   5
  -1  -2   5 10.5880 1.67787   4
   1  -2  -5 9.29949 1.55863   5
   1  -2  -5 7.83012 0.81087   3
   1   2  -5 7.10078 1.41965   5
   0  -2  -5 1511.31 63.6833   5
   0  -2  -5 1401.64 63.1432   3
   0  -2   5 1443.34 63.7144   4
   0   2  -5 1490.83 63.8008   6
   0   2  -5 1527.75 63.8948   5
   0   2  -5 1499.64 63.7331   2
  -1  -2  -5 937.260 36.8056   2
   1  -2   5 917.121 37.4517   4
  -1  -2  -5 768.230 37.9298   6
  -1  -2  -5 861.930 37.4342   5
   1   2   5 940.250 37.4546   4
  -1   2  -5 737.606 37.3715   5
  -1   2  -5 838.730 37.6054   6
  -1   2  -5 860.706 37.5322   2
  -2  -2  -5 1.82799 1.38445   3
  -2  -2  -5 0.92661 2.44998   6
   2  -2   5 -0.2854 1.87268   4
  -2  -2  -5 2.25717 0.76398   2
  -2   2  -5 3.98781 1.71522   2
   2   2   5 4.16024 1.82770   4
  -2   2  -5 -0.2090 1.96130   6
  -3  -2  -5 225.118 11.9437   6
  -3  -2  -5 212.308 10.3747   3
   3  -2   5 225.267 10.6817   4
   3   2   5 218.148 10.8740   4
  -3   2  -5 215.907 10.6642   2
  -4  -2  -5 137.729 9.93433   6
  -4  -2  -5 152.375 8.08002   3
   4  -2   5 166.709 8.43038   4
   4   2   5 159.536 8.24370   4
  -4   2  -5 155.753 8.63713   3
  -4   2  -5 151.649 9.09257   6
  -4   2  -5 153.461 8.48923   2
  -5  -2  -5 -0.2302 3.27660   3
  -5  -2  -5 1.41405 4.49913   6
  -5   2  -5 2.32917 2.98515   2
  -5   2  -5 3.45675 3.31404   3
  -6  -3   5 -2.5673 3.60506   3
   6  -3  -5 1.85126 3.58696   5
   6   3  -5 3.56070 5.74706   5
  -6   3   5 -2.5440 3.45755   3
   5  -3  -5 117.165 6.44668   5
  -5  -3   5 110.091 6.65582   3
  -5   3   5 117.190 6.67099   3
   5   3  -5 111.560 6.65262   5
  -4  -3   5 268.625 12.1059   3
   4  -3  -5 264.115 12.0462   5
  -4   3   5 248.551 11.5941   4
   4   3  -5 244.411 11.9215   5
  -4   3   5 265.010 11.9953   3
  -3  -3   5 16.7663 1.71458   4
   3  -3  -5 14.3866 2.01675   5
  -3  -3   5 19.6744 3.47974   3
  -3   3   5 18.0080 2.09947   4
  -3   3   5 18.4388 1.90086   3
   3   3  -5 22.2038 2.30351   5
   2  -3  -5 637.853 27.1073   5
  -2  -3   5 636.692 27.0818   3
  -2  -3   5 589.670 27.0981   4
  -2   3   5 625.046 26.8059   3
   2   3  -5 616.439 27.0585   5
   1  -3  -5 411.804 19.0075   5
  -1   3   5 456.330 19.1409   4
   1   3  -5 428.595 18.9949   5
   0  -3  -5 146.020 6.96438   5
   0  -3   5 141.857 6.97281   4
   0  -3  -5 136.126 6.47030   2
   0  -3  -5 145.017 7.49599   6
   0   3  -5 143.915 7.09906   2
   0   3  -5 155.340 7.03714   6
   0   3  -5 146.566 7.09513   5
   0   3   5 131.428 6.84708   4
  -1  -3  -5 139.102 6.86095   5
  -1  -3  -5 118.190 7.70369   6
  -1  -3  -5 145.047 6.16954   3
   1  -3   5 150.423 7.00309   4
   1   3   5 150.143 6.82557   4
  -1   3  -5 118.726 7.19334   2
  -1   3  -5 134.136 6.95685   6
   2  -3   5 297.573 13.8729   4
  -2  -3  -5 279.683 16.7579   6
  -2  -3  -5 313.148 13.3823   3
   2   3   5 300.220 13.7112   4
   3  -3   5 72.4287 4.90543   4
  -3  -3  -5 70.7428 6.53190   6
  -3  -3  -5 69.1637 4.34428   3
  -3   3  -5 69.6596 5.06363   2
   3   3   5 71.6534 6.77924   4
  -3   3  -5 72.5454 5.03994   6
  -4  -3  -5 2.46241 4.03498   6
   4  -3   5 4.88152 2.80152   4
  -4  -3  -5 5.74314 2.63132   3
  -4   3  -5 3.16378 2.74737   2
   4   3   5 -1.3705 2.45705   4
  -4   3  -5 -2.2039 2.75373   3
  -4   3  -5 1.57044 2.88874   6
  -5  -3  -5 50.0089 5.01175   3
  -5  -3  -5 45.5171 6.77227   6
  -5   3  -5 42.1040 5.43669   2
  -5   3  -5 56.3763 5.70209   3
   6  -4  -5 32.8936 5.70993   5
   6   4  -5 26.3503 4.42357   5
  -6   4   5 21.5118 3.81350   3
   5  -4  -5 92.3081 5.63831   5
  -5  -4   5 97.3021 6.03494   3
  -5   4   5 96.9991 5.69806   3
   5   4  -5 86.9332 5.64242   5
  -4  -4   5 16.1913 2.70571   3
   4  -4  -5 10.4184 2.20377   5
  -4   4   5 11.6620 2.53610   4
  -4   4   5 15.3968 2.39648   3
   4   4  -5 12.6286 2.26787   5
  -3  -4   5 341.753 14.9467   3
   3  -4  -5 339.135 14.8222   5
  -3  -4   5 321.659 14.5349   4
   3   4  -5 330.195 14.7536   5
  -3   4   5 325.235 14.7330   4
  -3   4   5 316.736 14.6022   3
  -2  -4   5 375.109 16.1720   3
   2  -4  -5 357.982 16.1024   5
  -2  -4   5 359.910 16.1494   4
  -2   4   5 367.146 16.2017   4
   2   4  -5 354.145 16.0575   5
   1  -4  -5 21.9242 2.16159   5
  -1  -4   5 30.0878 2.62200   4
  -1   4   5 26.8348 2.15470   4
   1   4  -5 18.8407 1.89259   5
   0  -4  -5 628.104 28.4839   6
   0  -4   5 618.731 28.1166   4
   0  -4  -5 611.307 27.5967   2
   0  -4  -5 655.017 27.9981   5
   0   4  -5 671.643 28.3158   2
   0   4   5 620.752 28.0320   4
   0   4  -5 662.472 28.0147   6
   0   4  -5 660.387 28.2599   5
  -1  -4  -5 343.327 17.2374   6
   1  -4   5 399.085 16.6361   4
  -1  -4  -5 390.471 15.8601   3
  -1   4  -5 313.976 16.4698   5
   1   4   5 406.455 16.5502   4
  -1   4  -5 393.586 16.4840   6
  -1   4  -5 303.874 18.1612   2
   2  -4   5 40.5526 4.75430   4
  -2  -4  -5 32.8935 2.36143   3
  -2  -4  -5 29.2552 4.12872   6
   2   4   5 34.4864 2.86675   4
  -2   4  -5 35.0794 3.76627   2
  -2   4  -5 32.2970 3.11126   6
  -3  -4  -5 106.565 5.59997   3
   3  -4   5 105.552 6.18229   4
  -3  -4  -5 100.408 7.50440   6
   3   4   5 104.312 5.87484   4
  -3   4  -5 101.218 6.17473   6
  -3   4  -5 106.633 6.68120   2
   4  -4   5 116.406 6.74230   4
  -4  -4  -5 105.499 6.37370   3
  -4   4  -5 100.187 7.16380   3
  -4   4  -5 112.094 7.32919   2
   4   4   5 113.026 6.52113   4
  -5  -4  -5 6.94356 5.27926   6
  -5  -4  -5 1.10553 3.29247   3
  -5   4  -5 -0.4650 3.46777   2
  -5   4  -5 4.16169 3.95947   3
  -6  -5   5 -2.1611 4.04857   3
   6  -5  -5 0.95428 4.42609   5
   6   5  -5 -2.8112 3.11268   5
  -6   5   5 0.32439 3.31582   3
  -5  -5   5 150.549 8.35356   3
   5  -5  -5 158.599 8.15355   5
  -5   5   5 148.792 8.16477   3
   5   5  -5 153.917 8.03500   5
  -4  -5   5 369.906 16.7623   3
   4  -5  -5 365.306 16.5232   5
  -4   5   5 363.024 16.3227   4
  -4   5   5 373.040 16.5432   3
   4   5  -5 360.227 16.5378   5
   3  -5  -5 55.1410 3.53893   5
  -3  -5   5 60.2736 3.90191   3
  -3  -5   5 52.9722 3.22263   4
   3   5  -5 54.8543 3.48096   5
  -3   5   5 54.7284 3.32187   3
  -3   5   5 66.1509 3.59237   4
   2  -5  -5 137.575 7.05449   5
  -2  -5   5 146.874 7.32639   3
  -2  -5   5 150.064 7.23527   4
  -2   5   5 161.448 6.81100   3
  -2   5   5 143.658 7.14228   4
   2   5  -5 150.700 7.03532   5
   1  -5  -5 2134.81 93.3819   5
   1   5  -5 2219.46 93.3285   5
   0  -5  -5 371.981 17.2946   2
   0  -5   5 382.106 17.8862   4
   0  -5  -5 409.129 17.7500   5
   0  -5  -5 402.684 18.4051   6
   0   5  -5 441.484 17.9938   5
   0   5  -5 409.744 18.1676   2
   0   5   5 389.208 17.8231   4
   1  -5   5 326.344 14.0596   4
  -1  -5  -5 304.306 14.9062   6
  -1  -5  -5 316.617 13.2008   3
   1   5   5 351.367 14.0342   4
  -1   5  -5 264.729 13.8545   5
  -1   5  -5 265.740 14.4971   2
  -2  -5  -5 764.530 33.7272   3
   2  -5   5 805.580 34.3906   4
  -2  -5  -5 787.136 35.3326   6
  -2   5  -5 803.750 34.0983   6
  -2   5  -5 723.887 34.8302   2
   2   5   5 798.404 34.2278   4
  -3  -5  -5 211.380 10.0572   3
  -3  -5  -5 212.343 12.2557   6
   3  -5   5 234.972 10.7114   4
  -3   5  -5 207.851 11.3000   2
   3   5   5 210.565 10.3213   4
  -3   5  -5 205.101 10.4168   6
  -4  -5  -5 44.9701 4.12916   3
  -4  -5  -5 46.6444 6.47308   6
   4   5   5 48.7699 4.31192   4
  -4   5  -5 47.7528 5.25877   2
  -5  -5  -5 36.0535 7.00705   6
  -5  -5  -5 38.8032 4.61072   3
  -5   5  -5 32.8811 5.12228   3
  -5   5  -5 42.0836 5.34672   2
  -6  -6   5 21.6376 4.82682   3
  -6   6   5 18.9767 4.21812   3
   6   6  -5 16.6316 3.48337   5
   5  -6  -5 1.01776 2.55756   5
  -5  -6   5 5.77575 3.63582   3
   5   6  -5 4.34982 2.78790   5
   4  -6  -5 1.00101 2.11026   5
  -4  -6   5 1.91296 2.59176   3
  -4   6   5 1.46482 1.96813   3
   4   6  -5 0.99431 1.92431   5
  -4   6   5 1.60870 1.63824   4
  -3  -6   5 43.8287 3.79228   3
   3  -6  -5 40.0251 2.94731   5
  -3   6   5 37.0619 3.06576   4
  -3   6   5 38.5238 2.57672   3
  -3   6   5 32.1683 3.85925   2
   3   6  -5 38.5743 2.85201   5
  -2  -6   5 27.8943 2.48186   4
  -2  -6   5 30.9950 2.81452   3
   2  -6  -5 23.8317 2.30360   5
  -2   6   5 28.8648 1.75167   3
   2   6  -5 25.4798 2.21611   5
  -2   6   5 30.1435 2.80982   2
  -2   6   5 28.2099 2.59697   4
   1  -6  -5 17.3977 1.93644   5
  -1  -6   5 22.5098 2.32612   4
   1   6  -5 22.6877 2.77246   2
  -1   6   5 22.1757 2.15148   4
   1   6  -5 20.8676 1.98130   5
   0  -6  -5 3.50567 1.45476   5
   0  -6  -5 5.43385 0.77509   2
   0  -6   5 3.73314 1.69782   4
   0  -6  -5 3.43238 2.01733   6
   0   6  -5 8.19333 1.66834   5
   0   6  -5 5.59594 2.30641   2
   0   6   5 1.39222 1.41175   4
   0   6  -5 4.80860 1.29833   6
  -1  -6  -5 34.9694 4.20225   6
   1  -6   5 39.6729 3.41185   4
  -1  -6  -5 36.9050 1.87289   3
  -1   6  -5 25.6433 3.78634   2
   1   6   5 38.5423 3.06861   4
  -1   6  -5 36.8324 2.47183   6
   2  -6   5 2.34125 2.06455   4
  -2  -6  -5 1.18838 1.17744   3
  -2  -6  -5 0.32895 2.96942   6
  -2   6  -5 1.79661 1.34771   6
  -2   6  -5 -0.0206 3.00700   2
  -3  -6  -5 -0.2081 1.74835   3
   3  -6   5 3.37183 2.64098   4
  -3  -6  -5 0.53736 4.06829   6
   3   6   5 0.39306 2.06155   4
  -3   6  -5 0.64947 3.18645   2
  -4  -6  -5 1.73972 4.64256   6
  -4  -6  -5 3.06672 2.71508   3
   4   6   5 1.30068 2.50877   4
  -4   6  -5 0.52760 3.34095   2
  -5  -6  -5 4.53472 5.48982   6
  -5  -6  -5 3.62806 3.57518   3
  -5   6  -5 8.37312 4.10443   2
  -5   6  -5 1.51989 4.03622   3
  -6  -7   5 -0.1242 4.30827   3
   6  -7  -5 -0.8364 3.49304   5
   6   7  -5 2.02582 3.37387   5
  -5  -7   5 190.680 10.4873   3
   5  -7  -5 206.460 9.85976   5
   5   7  -5 187.192 9.71955   5
   4  -7  -5 523.343 22.8486   5
  -4  -7   5 520.352 23.2570   3
  -4   7   5 485.817 22.8892   4
  -4   7   5 514.964 22.7992   3
   4   7  -5 526.271 22.8890   5
   3  -7  -5 57.3999 3.60738   5
  -3  -7   5 57.5656 4.21665   3
  -3   7   5 54.8517 4.66455   2
   3   7  -5 58.4859 3.73821   5
  -3   7   5 58.0573 3.73646   4
  -3   7   5 54.4802 3.32481   3
  -2  -7   5 938.333 40.9185   4
   2  -7  -5 913.288 40.8181   5
  -2  -7   5 923.594 41.0499   3
   2   7  -5 935.039 40.7547   5
  -2   7   5 951.268 40.4754   3
  -2   7   5 960.955 41.0017   4
  -2   7   5 975.047 41.2064   2
  -1  -7   5 825.318 35.3103   4
   1  -7  -5 820.756 35.0920   5
   1   7  -5 753.122 34.9805   5
  -1   7   5 802.713 35.2616   4
  -1   7   5 824.665 35.1102   2
   1   7  -5 824.301 35.6190   2
   0  -7  -5 279.844 13.7509   6
   0  -7  -5 293.567 13.0319   5
   0  -7  -5 261.079 12.5795   2
   0  -7   5 290.369 13.3211   4
   0   7  -5 292.313 12.7942   6
   0   7  -5 308.089 13.1878   5
   0   7   5 279.122 13.1845   4
   0   7  -5 313.139 13.8788   2
   1  -7   5 165.247 7.91485   4
  -1  -7  -5 156.050 8.74370   6
  -1   7  -5 162.814 7.05342   6
   1   7   5 159.289 8.02912   4
  -1   7  -5 130.232 8.83902   2
  -2  -7  -5 605.588 26.6023   6
  -2  -7  -5 545.350 24.5581   3
   2  -7   5 588.836 25.4020   4
   2   7   5 590.718 25.1887   4
  -2   7  -5 481.767 26.1013   2
  -2   7  -5 583.369 24.7203   6
   3  -7   5 154.147 8.01567   4
  -3  -7  -5 147.137 9.97561   6
  -3  -7  -5 141.299 7.18367   3
   3   7   5 139.903 7.54881   4
  -3   7  -5 139.436 9.24288   2
  -4  -7  -5 1.03102 4.34000   6
  -4  -7  -5 0.43274 2.56675   3
  -4   7  -5 0.36415 3.92016   2
   4   7   5 1.52175 2.47748   4
  -5  -7  -5 83.7538 6.42745   3
  -5   7  -5 69.8769 7.90098   2
  -5  -8   5 0.44647 3.41313   3
   5  -8  -5 0.12061 2.54175   5
  -5   8   5 -0.4534 2.54758   3
   5   8  -5 1.09582 2.49233   5
  -4  -8   5 37.9155 4.14251   3
   4  -8  -5 31.8982 3.17700   5
   4   8  -5 35.8239 3.55392   5
  -4   8   5 33.6293 3.23755   4
  -4   8   5 37.3303 4.63359   2
  -4   8   5 33.3412 3.15626   3
  -3  -8   5 48.9790 4.15377   3
   3  -8  -5 48.0984 3.59773   5
  -3   8   5 50.9858 3.10701   3
   3   8  -5 51.2610 3.53712   5
  -3   8   5 48.0803 3.64164   4
  -3   8   5 50.4955 4.54700   2
  -2  -8   5 36.7341 3.50144   3
   2  -8  -5 32.1282 2.80496   5
   2   8  -5 34.8589 2.71797   5
  -2   8   5 38.0367 3.24671   2
  -2   8   5 40.1442 2.97035   4
   1  -8  -5 47.1886 3.08300   5
  -1  -8   5 48.7342 3.38174   4
   1   8  -5 41.7713 2.87878   5
   1   8  -5 53.9399 4.34153   2
  -1   8   5 46.7882 3.02927   2
  -1   8   5 50.5861 3.65847   4
   0  -8  -5 95.3971 4.77715   2
   0  -8  -5 98.3062 5.19847   5
   0   8  -5 111.929 5.53803   5
   0   8  -5 103.669 4.79943   6
   0   8   5 97.5516 5.44138   4
   0   8  -5 114.487 6.63953   2
  -1  -8  -5 45.4626 4.98180   6
   1  -8   5 47.3066 3.70484   4
  -1   8  -5 34.2510 5.05214   2
   1   8   5 48.3909 3.63564   4
  -2  -8  -5 11.1868 1.62098   3
  -2  -8  -5 2.76043 3.34082   6
   2  -8   5 10.0582 2.50606   4
  -2   8  -5 -0.7229 3.76679   2
   2   8   5 7.84366 2.11965   4
  -3  -8  -5 26.1110 5.31678   6
  -3  -8  -5 21.4179 2.55891   3
   3   8   5 15.3355 2.68011   4
  -3   8  -5 12.8255 4.49522   2
  -4  -8  -5 5.18873 4.85895   6
  -4  -8  -5 8.71597 2.84839   3
  -4   8  -5 4.47251 7.20693   2
   4   8   5 4.45057 2.57946   4
  -5  -8  -5 -8.7930 3.37043   3
  -5  -8  -5 -1.9975 5.84681   6
  -5   8  -5 -1.3191 4.57394   2
  -5   8  -5 -7.7893 4.54434   3
  -5  -9   5 71.1661 6.16414   3
   5  -9  -5 74.6097 5.25850   5
  -5   9   5 82.9857 5.53999   3
   5   9  -5 84.4019 5.31919   5
  -4  -9   5 298.724 14.5536   3
   4  -9  -5 307.789 14.0169   5
   4   9  -5 318.509 14.1060   5
  -4   9   5 292.477 13.9574   3
  -4   9   5 303.389 14.0271   4
  -3  -9   5 72.1898 5.04947   3
   3  -9  -5 67.5213 4.33361   5
   3   9  -5 70.1216 4.10865   5
  -3   9   5 64.0854 5.17909   2
  -3   9   5 72.7008 3.92032   3
  -3   9   5 71.9364 4.53255   4
  -2  -9   5 167.017 9.28874   3
   2  -9  -5 177.334 8.81424   5
   2   9  -5 178.556 9.87228   2
  -2   9   5 197.105 9.40194   2
  -2   9   5 199.833 9.15551   4
   2   9  -5 206.421 8.83996   5
   1  -9  -5 980.050 43.2986   6
  -1  -9   5 1021.57 43.2673   4
   1  -9  -5 1013.99 42.5450   5
   1   9  -5 1018.33 43.2591   2
  -1   9   5 958.972 42.6441   2
  -1   9   5 958.215 42.8527   4
   1   9  -5 941.060 42.4850   5
   0  -9  -5 208.057 9.98989   2
   0  -9  -5 225.115 9.95608   5
   0  -9  -5 216.355 11.0506   6
   0  -9   5 211.463 10.4311   4
   0   9   5 214.713 10.2998   4
   0   9  -5 228.055 11.2646   2
  -1  -9  -5 53.2863 5.40459   6
   1  -9   5 58.5060 4.39396   4
  -1   9  -5 40.8161 5.42025   2
   1   9   5 63.0817 4.12570   4
  -2  -9  -5 487.385 23.2463   6
  -2  -9  -5 479.042 21.2414   3
   2   9   5 492.513 21.8441   4
  -3  -9  -5 118.117 5.99066   3
  -3  -9  -5 119.963 9.06087   6
  -3   9  -5 80.1616 8.96000   2
   3   9   5 116.852 6.53002   4
  -4  -9  -5 1.56276 2.95828   3
  -4  -9  -5 2.89987 4.66548   6
   4   9   5 0.73003 2.45630   4
  -4   9  -5 2.23875 4.87829   2
   5  -9   5 23.8463 3.93672   5
  -5  -9  -5 22.9805 6.96122   6
  -5  -9  -5 20.8903 4.24045   3
  -5   9  -5 18.2540 5.17618   3
  -5   9  -5 24.9366 9.80302   2
  -5 -10   5 30.8054 4.70022   3
   5 -10  -5 34.0386 3.59551   5
  -5  10   5 35.3059 5.02507   2
  -5  10   5 37.7042 3.89340   3
   5  10  -5 35.0146 3.77983   5
   4 -10  -5 12.8665 2.63378   5
  -4 -10   5 21.5745 4.26098   3
  -4  10   5 16.7449 2.60457   3
  -4  10   5 18.5274 2.75851   4
   4  10  -5 19.5738 2.71701   5
  -4  10   5 16.9698 3.78937   2
   3 -10  -5 486.857 22.0892   5
  -3 -10   5 486.618 22.6591   3
  -3  10   5 512.630 23.0157   2
  -3  10   5 491.554 21.8984   3
   3  10  -5 506.723 22.0992   5
  -3  10   5 511.167 22.4427   4
   2 -10  -5 118.477 6.26654   5
  -2  10   5 123.957 5.76042   3
   2  10  -5 126.252 7.41821   2
  -2  10   5 125.210 6.61262   4
   2  10  -5 132.767 6.22986   5
   1 -10  -5 52.8345 4.55802   6
   1 -10  -5 49.1220 3.04789   5
  -1  10   5 48.3038 3.76060   4
   1  10  -5 43.8910 3.05591   5
   1  10  -5 54.5685 4.97517   2
   0 -10  -5 300.844 13.2791   2
   0 -10  -5 279.111 13.8546   6
   0  10  -5 289.620 13.9700   2
   0  10   5 263.005 13.1834   4
  -1 -10  -5 291.370 14.1488   6
   1  10   5 282.771 13.0824   4
  -1  10  -5 261.343 14.5584   2
  -2 -10  -5 9.13664 1.88101   3
  -2 -10  -5 3.38925 3.96636   6
   2  10   5 7.72451 2.41400   4
  -2  10  -5 -3.8291 4.33620   2
  -3 -10  -5 85.1824 8.11333   6
  -3 -10  -5 70.6052 6.16355   3
  -3  10  -5 69.8615 7.99284   2
   3  10   5 76.3605 5.24466   4
  -4 -10  -5 48.8897 4.65415   3
  -4 -10  -5 51.5700 7.34444   6
  -4  10  -5 45.3799 7.15930   2
   4  10   5 57.9212 4.61718   4
   5 -11  -5 27.0605 3.36269   5
  -5  11   5 24.6985 6.55519   2
  -5  11   5 21.7939 3.37060   3
   5  11  -5 28.1840 3.63084   5
   4 -11  -5 60.3649 4.57318   5
  -4 -11   5 57.8947 5.63426   3
  -4  11   5 65.8219 4.22918   3
  -4  11   5 66.1260 6.17619   2
  -4  11   5 65.5522 4.73917   4
  -3 -11   5 19.7674 3.81039   3
   3 -11  -5 24.0536 2.62699   5
  -3  11   5 27.0929 3.82546   2
   3  11  -5 29.7901 2.75341   5
  -3  11   5 23.6133 2.49836   3
  -3  11   5 21.2012 2.94490   4
   3  11  -5 26.2639 4.35627   2
   2 -11  -5 30.1233 3.71818   6
   2 -11  -5 26.4069 2.44291   5
  -2  11   5 32.2139 3.25557   4
  -2  11   5 26.7226 1.88811   3
  -2  11   5 25.6724 3.08670   2
   2  11  -5 23.6738 3.65228   2
   2  11  -5 27.7145 2.56090   5
   1 -11  -5 249.991 12.1628   6
   1 -11  -5 256.898 10.9901   5
   1  11  -5 238.684 11.2776   6
   1  11  -5 232.270 10.9748   5
  -1  11   5 242.165 11.6400   4
   1  11  -5 254.994 12.2170   2
  -1  11   5 228.585 11.2674   2
   0 -11  -5 138.678 8.31319   6
   0  11   5 147.286 7.60457   4
   0  11  -5 154.550 8.95801   2
   0  11   5 142.112 6.71373   2
  -1 -11  -5 45.1010 5.35459   6
   1  11   5 54.4453 4.21507   4
  -1  11  -5 54.1069 6.19708   2
  -2 -11  -5 66.2720 6.91797   6
   2  11   5 76.2200 5.07237   4
  -3 -11  -5 38.6601 3.96556   3
  -3 -11  -5 42.9773 6.02736   6
   3  11   5 42.7674 4.20946   4
  -3  11  -5 30.1731 9.71263   2
  -4 -11  -5 -3.6876 3.00058   3
  -4 -11  -5 4.38522 5.57200   6
  -4  11  -5 2.43749 5.82123   2
   4  11   5 6.34783 2.74194   4
  -5 -12   5 19.7517 4.64229   3
   5 -12  -5 22.2005 3.19916   5
  -5  12   5 18.6217 4.86760   2
   5  12  -5 16.2641 3.25684   5
  -5  12   5 22.7842 3.41607   3
   4 -12  -5 53.3008 4.24922   5
  -4 -12   5 53.9304 5.61568   3
  -4  12   5 52.7814 5.77738   2
  -4  12   5 50.5559 4.51144   4
  -4  12   5 55.5381 3.98217   3
   4  12  -5 47.2972 4.12342   5
   3 -12  -5 198.934 10.3242   5
  -3  12   5 231.894 11.0358   4
  -3  12   5 237.787 11.6631   2
  -3  12   5 218.830 10.2224   3
   3  12  -5 224.741 10.4219   5
   2 -12  -5 387.815 16.6373   5
   2 -12  -5 366.538 17.6795   6
  -2  12   5 375.555 17.2345   4
  -2  12   5 380.660 17.4348   2
   2  12  -5 377.198 17.9836   2
  -2  12   5 364.821 16.3584   3
   2  12  -5 368.077 16.9269   5
   1 -12  -5 6.24836 1.44661   5
   1 -12  -5 6.02876 2.74468   6
  -1  12   5 3.00949 1.73268   2
   1  12  -5 5.74737 3.39376   2
  -1  12   5 2.06029 2.11864   4
  -1  12   5 4.21763 0.55205   3
   1  12  -5 5.73349 1.54866   5
   0 -12  -5 654.953 29.7577   6
   0  12  -5 651.268 28.5398   5
   0  12   5 644.267 29.2351   4
   0  12  -5 681.975 30.1572   2
  -1 -12  -5 346.062 17.2451   6
   1  12   5 359.038 16.4538   4
  -1  12  -5 355.176 17.9123   2
  -2 -12  -5 -2.4041 3.87974   6
   2  12   5 4.37401 2.54775   4
  -2  12  -5 -13.846 4.71939   2
  -3 -12  -5 100.035 5.85743   3
  -3 -12  -5 112.730 9.09362   6
  -3  12  -5 73.9989 9.65775   2
   3  12   5 106.500 6.25325   4
  -4 -12  -5 53.2038 9.36724   6
  -4  12  -5 55.6400 8.17918   2
   4 -13  -5 13.4752 2.43054   5
  -4 -13   5 11.0803 4.18946   3
   4  13  -5 5.40496 2.50682   5
  -4  13   5 7.20271 2.37408   3
   4  13  -5 8.15761 4.91523   2
  -4  13   5 8.15907 3.78615   2
  -4  13   5 6.93041 2.75064   4
   3 -13  -5 19.0183 2.25684   5
   3  13  -5 11.8311 2.35831   5
  -3  13   5 13.6919 3.41246   2
   3  13  -5 11.1976 3.92605   2
  -3  13   5 14.2701 3.08795   4
   2 -13  -5 10.7365 3.14659   6
   2 -13  -5 10.4476 1.78633   5
  -2  13   5 8.37261 2.79282   4
  -2  13   5 9.20925 1.36866   3
   2  13  -5 7.55158 2.66503   5
   2  13  -5 9.19529 3.82159   2
  -2  13   5 8.98989 2.60270   2
   1 -13  -5 16.1438 3.32813   6
  -1  13   5 17.6819 1.29486   3
  -1  13   5 20.5200 2.93047   4
  -1  13   5 20.5474 2.51157   2
   1  13  -5 26.9412 4.49875   2
   1  13  -5 22.3487 2.01552   5
   0 -13  -5 14.2287 3.50463   6
   0  13  -5 11.3060 4.14626   2
   0  13   5 12.8602 1.58078   2
   0  13   5 9.88494 2.54625   4
  -1 -13  -5 15.9303 3.95765   6
   1  13   5 22.7258 3.32203   4
  -1  13  -5 14.5717 4.70426   2
  -2  13  -5 -10.054 4.98282   2
   2  13   5 5.56932 2.85128   4
  -3 -13  -5 9.33121 5.02661   6
  -3 -13  -5 14.7170 3.09537   3
  -3  13  -5 -5.4592 5.80039   2
  -4 -13  -5 4.40311 5.44210   6
  -4 -14   5 11.0105 4.70012   3
   4  14  -5 11.7856 5.04205   2
  -4  14   5 10.7988 3.08222   4
  -4  14   5 8.34216 3.67120   2
   4  14  -5 15.9848 2.73334   5
   3 -14  -5 305.733 14.9350   6
   3  14  -5 300.115 13.7259   5
  -3  14   5 297.282 17.7478   2
  -3  14   5 307.939 14.5201   4
  -3  14   5 284.555 13.5409   3
   3  14  -5 306.793 15.6052   2
   2 -14  -5 250.997 11.1364   5
   2 -14  -5 255.352 12.6067   6
   2  14  -5 255.632 13.1586   2
   2  14  -5 238.992 11.6079   5
  -2  14   5 243.353 12.3236   2
   1 -14  -5 0.52082 2.75457   6
  -1  14   5 0.68216 2.40811   4
  -1  14   5 -0.9025 1.84214   2
   1  14  -5 -0.9179 3.84990   2
   0 -14  -5 370.252 17.5583   6
   0  14   5 355.657 16.2020   2
   0  14  -5 372.102 18.1310   2
   0  14   5 365.573 17.1078   4
  -1 -14  -5 292.973 14.9497   6
   1  14   5 296.397 14.1157   4
  -2 -14  -5 16.3237 4.19342   6
  -2  14  -5 10.6948 6.05703   2
  -3 -14  -5 78.4902 8.27162   6
   3  14   5 70.6788 5.31607   4
  -3  14  -5 63.2071 9.11765   2
   4 -15  -5 11.2067 3.79737   6
  -4  15   5 11.7225 3.26136   4
   4  15  -5 6.48211 2.57418   5
  -4  15   5 7.16274 3.79580   2
   3 -15  -5 2.18614 3.52897   6
   3  15  -5 3.52229 2.01925   5
  -3  15   5 2.51976 3.03332   4
   3  15  -5 5.97517 4.71873   2
  -3  15   5 -2.3699 3.01680   2
   2 -15  -5 4.41586 3.00930   6
  -2  15   5 1.49915 2.66972   4
   2  15  -5 8.08619 4.38656   2
  -2  15   5 3.48713 2.58248   2
   1 -15  -5 146.232 8.35037   6
  -1  15   5 134.341 7.44160   2
   1  15  -5 148.937 9.00330   2
  -1  15   5 137.163 7.85303   4
   0 -15  -5 1.47716 3.03148   6
   0  15  -5 -3.4726 4.50555   2
   0  15   5 1.28224 2.53638   4
  -1 -15  -5 42.0754 6.95860   6
   1  15   5 40.0118 4.28474   4
  -1  15  -5 32.3580 6.34477   2
  -2 -15  -5 39.9410 5.57245   6
   2  15   5 40.1195 4.20169   4
  -2  15  -5 35.8391 7.27756   2
  -3 -15  -5 10.3629 5.09936   6
  -3  15  -5 -3.6587 5.92301   2
   3  15   5 7.43714 3.02268   4
   4 -16  -5 0.61385 3.71257   6
  -4  16   5 2.66876 3.65040   2
   4  16  -5 4.13770 5.13165   2
   3 -16  -5 145.119 9.19443   6
  -3  16   5 143.449 9.22020   2
   3  16  -5 173.079 10.5254   2
   2 -16  -5 119.614 7.51735   6
   2  16  -5 119.406 8.49016   2
  -2  16   5 120.005 7.22289   4
  -2  16   5 115.287 7.31068   2
   1 -16  -5 8.99722 3.26739   6
  -1  16   5 9.96702 2.35117   2
  -1  16   5 9.17703 2.99001   4
   1  16  -5 10.9283 4.25803   2
   0 -16  -5 58.5080 5.62772   6
   0  16  -5 67.4199 7.78031   2
   0  16   5 62.8987 5.02312   4
  -1 -16  -5 148.022 9.39328   6
  -1  16  -5 136.018 11.0784   2
   1  16   5 159.939 8.67910   4
  -2 -16  -5 6.29160 4.27389   6
  -2  16  -5 0.39275 5.92874   2
   2  16   5 5.41624 3.24720   4
  -3 -16  -5 18.8335 7.14832   6
  -3  16  -5 9.93930 6.95740   2
   3  16   5 15.9271 3.41506   4
   3 -17  -5 -3.0410 3.14557   6
   3  17  -5 0.83479 7.32216   2
  -3  17   5 3.52389 3.32311   2
  -3  17   5 2.83484 3.34680   4
   2 -17  -5 201.130 10.5814   6
  -2  17   5 193.974 10.5963   4
   2  17  -5 186.450 11.7661   2
  -1  17   5 48.5595 4.22654   2
  -1  17   5 48.6123 4.87647   4
   1  17  -5 58.3917 7.21511   2
   0 -17  -5 10.5974 3.48268   6
   0  17   5 10.3308 3.49066   4
   0  17  -5 3.99971 4.94167   2
  -1 -17  -5 30.7802 4.79537   6
  -1  17  -5 16.3481 5.56212   2
   1  17   5 34.0766 4.32923   4
  -2 -17  -5 72.3853 7.31276   6
   2  17   5 65.6406 5.69602   4
  -2  17  -5 51.9702 7.98875   2
   3 -18  -5 14.9196 3.66049   6
  -3  18   5 19.7915 4.11607   4
   3  18  -5 13.5478 5.69023   2
  -3  18   5 10.3489 3.98099   2
   2 -18  -5 50.5744 5.57609   6
  -2  18   5 52.0924 5.53192   4
   2  18  -5 37.7864 6.24144   2
  -2  18   5 51.0037 5.04936   2
   1 -18  -5 23.3618 3.85778   6
   1  18  -5 27.5171 5.70094   2
  -1  18   5 27.4544 4.23812   4
   0 -18  -5 45.5217 5.30650   6
   0  18   5 48.7400 5.06188   4
   0  18  -5 28.8553 5.62851   2
  -1 -18  -5 38.5592 5.12636   6
  -1  18  -5 44.1247 7.27361   2
   1  18   5 50.3451 5.13507   4
  -2 -18  -5 12.6861 6.18372   6
  -2  18  -5 5.17172 6.15945   2
   2 -19  -5 48.8132 5.29420   6
   2  19  -5 27.0919 5.73825   2
  -2  19   5 27.8510 4.33338   4
  -2  19   5 39.1626 4.90394   2
   1 -19  -5 212.427 11.3540   6
   0 -19  -5 30.2249 4.48025   6
   0  19   5 37.4183 6.31713   4
  -1 -19  -5 21.2111 4.41482   6
  -1  19  -5 15.6736 6.21207   2
   1  19   5 26.9462 4.08909   4
   1 -20  -5 12.1752 3.56448   6
   1  20  -5 1.51147 5.23695   2
  -1  20   5 0.55483 3.93077   4
   0 -20  -5 6.57024 3.56534   6
   0  20   5 0.08270 3.62718   4
   0  20  -5 2.73023 5.40430   2
   6   0  -6 3.21583 3.36376   5
  -6   0   6 4.95781 6.07258   3
  -5   0   6 274.033 13.3237   3
   5   0  -6 286.084 13.3874   5
  -4   0   6 483.331 21.8832   4
  -4   0   6 502.435 22.2822   3
   4   0  -6 520.478 22.4098   5
   3   0  -6 21.2065 2.39086   5
  -3   0   6 19.3544 2.43159   4
  -3   0   6 19.6377 2.24755   3
  -2   0   6 1116.69 49.9495   4
   2   0  -6 1165.76 50.1297   5
  -2   0   6 1179.69 49.6596   3
  -1   0   6 1213.01 49.9586   4
   1   0  -6 1090.73 49.7402   5
   0   0  -6 80.2440 4.36965   3
   0   0  -6 98.1612 4.81268   2
   0   0  -6 95.4377 4.91780   5
   0   0   6 86.5059 4.96022   4
   0   0  -6 96.0218 5.40014   6
   1   0   6 317.449 13.4620   4
  -1   0  -6 302.356 14.1524   2
  -1   0  -6 263.088 13.6953   5
  -1   0  -6 275.088 14.0472   6
   2   0   6 577.989 24.5886   4
  -2   0  -6 523.387 27.2418   6
  -2   0  -6 545.962 24.8603   2
   3   0   6 185.784 9.30338   4
  -3   0  -6 179.300 9.02414   3
  -3   0  -6 185.002 8.70399   2
  -3   0  -6 168.545 10.3642   6
  -4   0  -6 25.9695 4.90321   6
  -4   0  -6 25.7510 3.42834   3
  -4   0  -6 27.0663 3.19772   2
   4   0   6 26.6095 3.69160   4
  -5   0  -6 31.7306 5.59629   6
   6  -1  -6 26.5844 3.76620   5
  -6   1   6 13.0874 4.72223   3
   6   1  -6 17.6708 3.45733   5
  -5  -1   6 3.14104 2.95783   3
   5  -1  -6 4.47811 2.57615   5
  -5   1   6 6.62533 3.06005   3
   5   1  -6 4.88285 2.52712   5
  -4  -1   6 -0.3580 1.45395   4
   4  -1  -6 5.05234 2.15831   5
  -4  -1   6 2.21226 2.05698   3
  -4   1   6 1.24000 1.36438   4
  -4   1   6 2.47093 2.08098   3
   4   1  -6 1.90024 2.07525   5
   3  -1  -6 58.9710 3.91725   5
  -3  -1   6 59.2632 3.68572   3
  -3   1   6 54.5873 3.39636   3
   3   1  -6 59.5037 3.87502   5
  -3   1   6 52.4874 3.60111   4
   2  -1  -6 107.598 6.77971   5
  -2  -1   6 104.455 5.66636   4
  -2   1   6 119.389 5.30267   3
   2   1  -6 103.590 5.72520   5
  -2   1   6 111.616 5.75878   4
   1  -1  -6 33.8675 2.02025   3
  -1  -1   6 41.1809 2.87763   4
   1  -1  -6 37.9964 2.65068   5
   1   1  -6 35.0549 2.61105   5
  -1   1   6 40.5917 2.89375   4
   0  -1  -6 127.123 6.56719   5
   0  -1   6 121.587 6.61660   4
   0  -1  -6 131.812 6.89532   6
   0  -1  -6 130.365 6.48208   2
   0   1  -6 139.845 6.94267   6
   0   1   6 124.712 6.55128   4
   0   1  -6 134.666 6.51477   2
   0   1  -6 127.325 6.54327   5
   1  -1   6 2.66632 1.79412   4
  -1  -1  -6 -3.4476 2.62774   6
  -1  -1  -6 0.99926 1.11281   2
  -1   1  -6 -0.8600 2.38521   6
  -1   1  -6 1.68956 1.80293   2
  -1   1  -6 -4.4865 2.19379   5
   1   1   6 0.16844 1.72047   4
  -2  -1  -6 3.85535 3.43891   6
   2  -1   6 10.2561 2.51199   4
  -2  -1  -6 9.03983 1.25753   2
  -2  -1  -6 10.1924 1.81685   3
   2   1   6 7.69356 2.43906   4
  -2   1  -6 4.42931 2.92074   6
  -2   1  -6 9.09331 1.83405   2
  -3  -1  -6 13.9077 3.98592   6
   3  -1   6 15.6756 2.78771   4
  -3  -1  -6 19.2483 2.66743   3
  -3   1  -6 17.1514 2.68365   3
   3   1   6 19.9394 3.12122   4
  -3   1  -6 13.1984 3.61630   6
   4  -1   6 7.12325 2.93651   4
  -4  -1  -6 7.73111 2.88670   3
  -4   1  -6 5.76152 3.72447   6
  -4   1  -6 5.84441 2.79718   3
   4   1   6 5.75411 3.05942   4
  -4   1  -6 8.61786 2.45389   2
  -5  -1  -6 1.96657 4.79092   6
  -5  -1  -6 -4.2552 3.32850   3
  -5   1  -6 2.01479 3.23660   3
   6  -2  -6 14.9994 3.67233   5
  -6  -2   6 9.53604 4.23659   3
  -6   2   6 8.56748 3.76599   3
   6   2  -6 6.58029 3.11447   5
   5  -2  -6 200.541 10.1018   5
  -5  -2   6 201.155 10.2394   3
   5   2  -6 197.448 9.97083   5
  -4  -2   6 274.039 12.4453   3
   4  -2  -6 263.065 12.4938   5
  -4   2   6 269.105 12.3103   3
   4   2  -6 258.371 12.3926   5
   3  -2  -6 3.91045 1.91866   5
  -3   2   6 1.83240 1.43728   3
  -3   2   6 0.70093 1.59988   4
   3   2  -6 0.44349 1.68222   5
  -2  -2   6 497.008 22.5205   4
  -2  -2   6 501.612 22.3274   3
   2  -2  -6 514.687 23.4122   5
   2   2  -6 522.725 22.4893   5
  -2   2   6 499.796 22.5179   4
  -2   2   6 522.965 22.1158   3
  -1  -2   6 1336.39 53.7374   4
   1  -2  -6 1179.29 53.5264   5
   1  -2  -6 1216.53 53.0720   3
   1   2  -6 1165.13 53.4883   5
  -1   2   6 1305.98 53.7259   4
   0  -2  -6 56.5516 3.77549   5
   0  -2  -6 50.3700 2.64319   3
   0  -2  -6 67.1555 4.40338   6
   0  -2  -6 49.9079 3.03343   2
   0  -2  -6 60.2371 3.20027   2
   0  -2   6 60.3017 3.70757   4
   0   2  -6 64.2429 3.75807   2
   0   2   6 53.2160 3.58790   4
   0   2  -6 61.8559 3.75421   5
  -1  -2  -6 342.269 14.5415   2
  -1  -2  -6 305.577 16.1029   6
  -1  -2  -6 355.066 14.6661   3
  -1   2  -6 342.257 15.4590   2
  -1   2  -6 274.975 15.3362   5
  -1   2  -6 354.023 15.7095   6
   1   2   6 359.423 15.3890   4
  -2  -2  -6 457.300 25.2167   6
   2  -2   6 554.476 24.3735   4
  -2  -2  -6 586.805 24.1233   3
  -2   2  -6 532.702 24.2501   2
   2   2   6 568.513 24.2806   4
  -2   2  -6 559.325 24.7766   6
   3  -2   6 35.7637 3.81313   4
  -3  -2  -6 36.8261 3.22215   3
  -3  -2  -6 21.0893 4.65388   6
   3   2   6 35.2208 3.58296   4
  -3   2  -6 38.2291 4.33552   6
  -3   2  -6 33.8927 3.64159   2
   4  -2   6 15.4191 3.26534   4
  -4  -2  -6 19.7815 3.22462   3
  -4  -2  -6 9.74131 4.79733   6
  -4   2  -6 16.9420 3.07012   2
  -4   2  -6 16.0323 3.41745   3
  -4   2  -6 18.7467 4.11261   6
   4   2   6 19.0355 3.49051   4
  -5  -2  -6 41.1536 4.70550   3
  -5  -2  -6 30.9693 6.32715   6
  -5   2  -6 44.1727 5.15667   3
  -6  -3   6 42.4640 5.21477   3
   6  -3  -6 45.9329 4.74799   5
   6   3  -6 53.9790 4.85442   5
  -5  -3   6 22.1433 3.80435   3
   5  -3  -6 29.2726 3.65481   5
   5   3  -6 23.2969 3.28747   5
  -4  -3   6 132.212 7.04636   3
   4  -3  -6 136.603 7.13276   5
  -4   3   6 134.756 6.80635   3
  -4   3   6 130.867 6.62359   4
   4   3  -6 134.797 6.95533   5
  -3  -3   6 422.880 18.3302   3
   3  -3  -6 432.070 18.4141   5
  -3   3   6 403.137 18.0236   3
   3   3  -6 407.970 18.3056   5
  -3   3   6 385.402 18.2835   4
  -2  -3   6 98.4300 5.30367   3
  -2  -3   6 97.6317 5.37382   4
   2  -3  -6 96.2528 6.44911   5
   2   3  -6 102.782 5.24285   5
  -2   3   6 101.047 5.39063   4
  -2   3   6 106.145 4.78144   3
  -1  -3   6 133.795 6.50633   4
   1  -3  -6 120.268 6.34695   5
  -1   3   6 137.271 6.55515   4
   1   3  -6 119.192 6.21256   5
   0  -3   6 392.385 18.1908   4
   0  -3  -6 413.544 18.6784   6
   0  -3  -6 420.946 18.1551   5
   0  -3  -6 351.039 17.7351   2
   0   3  -6 433.024 18.2602   6
   0   3   6 397.254 18.1763   4
   0   3  -6 432.735 18.1205   5
   1  -3   6 213.873 9.87334   4
  -1  -3  -6 210.604 8.93359   3
  -1  -3  -6 202.424 10.9519   6
  -1  -3  -6 209.098 10.2656   5
  -1   3  -6 172.765 9.74019   5
   2  -3   6 7.46663 2.36122   4
  -2  -3  -6 5.94413 1.47344   3
  -2  -3  -6 -0.9705 3.46446   6
  -2   3  -6 6.09026 2.46569   6
   2   3   6 5.74269 2.34242   4
  -2   3  -6 5.85427 2.44287   2
   3  -3   6 106.202 6.51033   4
  -3  -3  -6 102.741 8.51902   6
  -3   3  -6 101.473 6.75511   6
  -3   3  -6 105.718 6.52113   2
   3   3   6 110.066 6.25296   4
  -4  -3  -6 29.5933 6.06517   6
   4  -3   6 38.8665 4.29651   4
  -4  -3  -6 36.2960 3.89853   3
  -4   3  -6 38.4762 4.61623   2
   4   3   6 36.3524 4.01979   4
  -4   3  -6 41.0185 6.98650   3
  -4   3  -6 32.8987 4.35815   6
  -5  -3  -6 -2.3739 5.49641   6
  -5  -3  -6 2.49583 3.45402   3
  -5   3  -6 2.01894 3.86013   3
  -6  -4   6 4.82485 4.25996   3
   6  -4  -6 2.67956 3.30665   5
  -6   4   6 0.70489 3.58101   3
   6   4  -6 0.15076 2.93617   5
  -5  -4   6 41.7649 4.55943   3
   5  -4  -6 45.7366 4.47620   5
   5   4  -6 38.3480 3.83672   5
   4  -4  -6 198.952 9.74925   5
  -4  -4   6 211.303 10.0014   3
  -4   4   6 195.614 9.40552   4
  -4   4   6 195.957 9.43265   3
   4   4  -6 195.554 9.62323   5
  -3  -4   6 5.55406 2.18768   3
   3  -4  -6 4.63187 2.07829   5
  -3   4   6 6.12878 1.50977   3
   3   4  -6 1.79664 1.94651   5
  -3   4   6 6.67418 1.81996   4
   2  -4  -6 208.484 9.77962   5
  -2  -4   6 198.521 9.57940   4
  -2  -4   6 201.343 9.57608   3
  -2   4   6 207.049 8.96616   3
   2   4  -6 203.055 9.43380   5
  -2   4   6 194.871 9.56530   4
  -1  -4   6 254.715 11.3342   4
   1  -4  -6 229.466 11.0762   5
   1   4  -6 233.289 11.0238   5
  -1   4   6 250.161 11.2507   4
   0  -4  -6 343.224 15.1476   5
   0  -4  -6 307.120 14.6267   2
   0  -4  -6 339.949 15.8132   6
   0  -4   6 311.445 15.2563   4
   0   4  -6 350.025 15.2097   6
   0   4  -6 346.786 15.4218   2
   0   4   6 322.265 15.2469   4
   0   4  -6 363.631 15.1231   5
   1  -4   6 162.589 8.12697   4
  -1  -4  -6 158.705 7.03973   3
  -1  -4  -6 168.941 9.44577   6
  -1   4  -6 140.861 8.02840   5
   1   4   6 171.684 8.15636   4
  -1   4  -6 170.384 8.17422   6
  -1   4  -6 149.516 8.71763   2
  -2  -4  -6 254.038 10.8925   3
  -2  -4  -6 196.627 12.7727   6
   2  -4   6 241.981 11.7322   4
  -2   4  -6 254.120 11.7122   6
   2   4   6 253.713 11.6356   4
  -2   4  -6 240.181 12.1254   2
  -3  -4  -6 59.4886 7.21672   6
   3  -4   6 62.2293 5.12104   4
  -3  -4  -6 61.6426 4.08817   3
  -3   4  -6 64.3133 5.09548   6
   3   4   6 67.9549 4.70524   4
  -3   4  -6 57.7345 5.24543   2
  -4  -4  -6 8.77450 2.77882   3
  -4  -4  -6 4.85989 4.93378   6
   4  -4   6 7.75089 3.37633   4
   4   4   6 12.4593 3.10584   4
  -4   4  -6 3.92868 3.57789   3
  -4   4  -6 10.8616 3.29762   2
  -4   4  -6 6.36514 3.01482   6
  -5  -4  -6 31.5130 4.41717   3
  -5  -4  -6 30.2763 9.91291   6
  -5   4  -6 28.7193 5.15443   3
   6  -5  -6 81.7070 6.04334   5
  -6  -5   6 72.0939 6.76731   3
   6   5  -6 72.5162 6.50980   5
  -5  -5   6 21.8208 4.00383   3
   5  -5  -6 15.9289 3.25188   5
   5   5  -6 23.5511 3.45050   5
  -4  -5   6 75.6181 5.23409   3
   4  -5  -6 66.7985 4.42386   5
  -4   5   6 62.5856 4.15213   4
   4   5  -6 66.5113 4.39422   5
  -4   5   6 65.9646 4.26304   3
   3  -5  -6 629.899 27.6713   5
  -3  -5   6 619.087 27.5219   4
  -3  -5   6 667.177 27.8671   3
   3   5  -6 614.215 27.6095   5
  -3   5   6 633.842 27.3237   3
  -3   5   6 611.917 27.6701   4
   2  -5  -6 316.686 14.7793   5
  -2  -5   6 333.150 14.8495   4
  -2  -5   6 300.670 14.7544   3
  -2   5   6 332.954 14.8791   4
  -2   5   6 345.938 14.1825   3
   2   5  -6 324.986 14.7101   5
   1  -5  -6 14.6311 2.15454   5
  -1  -5   6 13.9167 2.32922   4
   1   5  -6 13.4088 2.56037   2
  -1   5   6 13.0375 2.14421   4
   1   5  -6 10.7661 1.87196   5
   0  -5  -6 1265.33 55.0153   5
   0  -5  -6 1144.02 54.4740   2
   0   5  -6 1294.63 55.3396   2
   0   5   6 1247.44 56.3775   4
   0   5  -6 1372.57 55.0095   5
   0   5  -6 1314.98 54.9770   6
  -1  -5  -6 628.573 28.8409   6
   1  -5   6 646.943 27.8738   4
  -1   5  -6 583.015 28.3005   2
  -1   5  -6 596.996 27.7142   5
  -1   5  -6 657.461 27.6272   6
   1   5   6 648.773 27.7982   4
  -2  -5  -6 18.9671 1.75886   3
  -2  -5  -6 3.30948 3.78979   6
   2  -5   6 18.3963 2.91444   4
   2   5   6 20.4853 2.85897   4
  -2   5  -6 15.6762 3.65546   2
  -3  -5  -6 178.919 12.5276   6
   3  -5   6 212.939 10.5479   4
  -3  -5  -6 209.850 9.66119   3
  -3   5  -6 196.839 11.0172   2
  -3   5  -6 202.933 10.2294   6
   3   5   6 212.171 10.1885   4
  -4  -5  -6 131.297 7.20215   3
   4  -5   6 124.315 7.66252   4
  -4  -5  -6 117.652 10.7347   6
  -4   5  -6 122.458 7.78268   3
  -4   5  -6 126.384 8.27176   2
   4   5   6 131.736 7.49087   4
  -5  -5  -6 -8.0703 5.66800   6
  -5  -5  -6 -6.1845 3.27568   3
  -5   5  -6 -0.8177 3.76641   2
   5  -6  -6 14.6174 2.92380   5
  -5  -6   6 23.9930 4.24323   3
   5   6  -6 25.5994 3.31877   5
   4  -6  -6 7.91098 2.58589   5
  -4  -6   6 5.38768 3.24442   3
  -4   6   6 6.09319 2.12338   3
   4   6  -6 7.58786 2.29122   5
  -4   6   6 6.56250 1.94199   4
  -3  -6   6 14.2579 2.10932   4
  -3  -6   6 17.4821 3.16742   3
   3  -6  -6 14.1598 2.32459   5
  -3   6   6 18.2181 2.47622   4
  -3   6   6 15.7205 1.78496   3
   3   6  -6 15.8429 2.45569   5
  -2  -6   6 20.9896 2.77395   3
  -2  -6   6 18.1923 2.45811   4
   2  -6  -6 22.6309 2.52315   5
  -2   6   6 18.9046 1.35940   3
  -2   6   6 18.9131 2.43731   4
   2   6  -6 23.2845 2.41441   5
  -1  -6   6 138.114 6.68124   4
   1  -6  -6 126.254 6.41361   5
   1  -6  -6 129.104 7.06768   6
   1   6  -6 107.945 6.21540   5
  -1   6   6 135.889 6.57521   4
   0  -6  -6 57.4424 2.88273   2
   0  -6  -6 60.4962 3.75626   5
   0  -6  -6 58.6333 4.97571   6
   0  -6   6 53.2319 4.05387   4
   0   6  -6 67.0623 4.52746   2
   0   6  -6 61.7820 3.67471   6
   0   6   6 54.7204 4.01088   4
   0   6  -6 70.0660 3.89548   5
  -1  -6  -6 7.09307 3.24524   6
   1  -6   6 11.3315 2.44421   4
  -1   6  -6 2.04381 2.13226   5
  -1   6  -6 7.65090 1.73025   6
  -1   6  -6 5.04788 3.29362   2
   1   6   6 11.5565 2.48602   4
  -2  -6  -6 -1.8333 3.77179   6
   2  -6   6 7.38237 2.83165   4
  -2  -6  -6 6.77454 1.34780   3
  -2   6  -6 4.58142 1.66199   6
   2   6   6 2.94207 2.34822   4
  -2   6  -6 -0.3935 3.53603   2
  -3  -6  -6 2.21130 1.90832   3
  -3  -6  -6 -4.4745 4.16666   6
   3  -6   6 4.25096 3.06554   4
  -3   6  -6 2.52698 2.04259   6
  -3   6  -6 -0.7344 3.39730   2
   3   6   6 -0.0583 2.43034   4
  -4  -6  -6 2.80582 2.58275   3
  -4  -6  -6 -1.0773 5.04550   6
  -4   6  -6 1.29700 3.54022   2
   4   6   6 0.04410 2.81797   4
  -5  -6  -6 -2.0377 3.62122   3
  -5  -6  -6 -2.2956 5.94219   6
  -5   6  -6 2.66209 4.05876   3
  -5   6  -6 -2.5276 4.11626   2
  -5  -7   6 63.9357 5.90132   3
   5  -7  -6 47.9337 4.65522   5
  -5   7   6 51.9807 4.26631   3
   5   7  -6 53.0224 4.85015   5
   4  -7  -6 175.851 8.86058   5
  -4  -7   6 171.858 11.6363   3
  -4   7   6 179.167 8.43775   3
   4   7  -6 177.801 8.88432   5
  -4   7   6 170.805 8.64214   4
  -3  -7   6 736.733 32.2920   3
   3  -7  -6 730.159 32.0143   5
  -3   7   6 728.823 32.1055   4
   3   7  -6 723.949 31.9215   5
  -2  -7   6 309.013 13.9543   4
   2  -7  -6 277.496 13.7618   5
  -2   7   6 310.475 13.0953   3
   2   7  -6 301.507 13.7380   5
  -2   7   6 313.939 14.0444   4
   1  -7  -6 244.960 11.6246   6
  -1  -7   6 220.879 11.4695   4
   1  -7  -6 246.394 10.8929   5
   1   7  -6 219.699 10.7344   5
  -1   7   6 237.396 11.0805   4
   1   7  -6 235.970 11.5250   2
   0  -7  -6 715.072 31.9943   5
   0  -7   6 690.426 32.2987   4
   0  -7  -6 745.802 32.8862   6
   0   7  -6 734.869 31.8627   6
   0   7  -6 791.070 32.0093   5
   0   7   6 707.213 32.2230   4
   0   7  -6 745.823 33.0650   2
   1  -7   6 357.859 16.1548   4
  -1  -7  -6 332.688 16.9243   6
  -1   7  -6 338.107 15.2759   6
   1   7   6 353.994 15.8987   4
  -1   7  -6 345.841 16.9376   2
  -2  -7  -6 -9.1786 4.08638   6
  -2  -7  -6 0.42462 1.30474   3
   2  -7   6 -1.6492 2.61119   4
  -2   7  -6 -7.3973 3.42971   2
   2   7   6 -1.5716 2.02797   4
  -2   7  -6 0.52098 1.36245   6
  -3  -7  -6 174.941 8.31805   3
   3  -7   6 178.693 9.46301   4
  -3  -7  -6 186.726 16.2866   6
   3   7   6 173.168 9.00217   4
  -3   7  -6 158.503 10.4202   2
  -4  -7  -6 67.7075 5.16678   3
  -4  -7  -6 72.1927 8.89326   6
   4   7   6 76.0388 5.48712   4
   5  -8  -6 37.7397 3.85964   5
  -5  -8   6 33.3600 4.87805   3
  -5   8   6 32.7203 3.61695   3
   5   8  -6 28.1965 3.67166   5
   4  -8  -6 7.02490 2.64269   5
  -4  -8   6 10.0422 3.34456   3
  -4   8   6 7.13851 2.34312   4
  -4   8   6 5.39113 2.07976   3
  -3  -8   6 15.6263 3.49350   3
   3  -8  -6 8.49112 2.17366   5
  -3   8   6 12.1602 2.48158   4
   3   8  -6 11.3015 2.13464   5
   2  -8  -6 56.7743 3.97696   5
   2   8  -6 63.8369 4.00303   5
  -2   8   6 65.6454 2.92681   3
  -2   8   6 64.3516 4.39133   4
   1  -8  -6 122.400 7.16843   6
  -1  -8   6 116.975 6.55449   4
   1  -8  -6 122.509 6.08169   5
   1   8  -6 122.660 6.86988   2
  -1   8   6 119.842 6.32432   4
   1   8  -6 107.711 5.89758   5
   0  -8  -6 36.8891 4.62620   6
   0  -8   6 32.6458 3.49693   4
   0  -8  -6 44.3593 3.24847   5
   0   8  -6 46.8380 4.82363   2
   0   8  -6 41.3008 3.09590   5
   0   8   6 35.7206 3.30057   4
   0   8  -6 39.1727 2.59685   6
   1  -8   6 35.4026 3.64567   4
  -1  -8  -6 26.5752 4.28161   6
  -1   8  -6 35.2582 2.06611   6
   1   8   6 35.0729 3.35974   4
  -1   8  -6 43.1120 5.16835   2
  -2  -8  -6 24.9910 5.04519   6
   2  -8   6 27.6897 3.56324   4
  -2   8  -6 20.0694 5.04538   2
   2   8   6 27.3178 3.30755   4
  -3  -8  -6 -4.5951 5.00076   6
  -3  -8  -6 0.48489 1.95064   3
   3   8   6 1.41359 2.65148   4
  -3   8  -6 -0.5071 4.17405   2
  -4  -8  -6 1.75658 2.74475   3
  -4  -8  -6 -1.7103 5.87197   6
  -4   8  -6 -2.3038 4.23161   2
   4   8   6 1.87688 2.78622   4
   5  -9  -6 37.6299 3.78614   5
  -5  -9   6 28.0125 4.99506   3
  -5   9   6 27.0031 3.40279   3
   5   9  -6 23.4694 3.52915   5
  -4  -9   6 20.7356 3.99063   3
   4  -9  -6 31.2150 3.39649   5
   4   9  -6 28.0329 3.29516   5
  -4   9   6 27.2836 3.16708   4
  -4   9   6 24.8382 2.68260   3
  -3  -9   6 354.324 17.7187   3
   3  -9  -6 369.101 17.1733   5
   3   9  -6 387.584 17.1563   5
  -3   9   6 390.656 17.4434   4
  -3   9   6 393.679 17.9045   2
   2  -9  -6 352.162 16.6034   5
   2   9  -6 357.978 17.4098   2
  -2   9   6 384.647 16.9891   4
   2   9  -6 359.485 16.5633   5
  -2   9   6 390.122 17.3452   2
  -2   9   6 372.454 15.8511   3
   1  -9  -6 45.5662 3.19886   5
   1  -9  -6 43.4646 4.68574   6
  -1  -9   6 41.3558 3.67853   4
   1   9  -6 39.5026 2.99932   5
   1   9  -6 40.4115 4.68875   2
  -1   9   6 40.5067 3.40365   4
   0  -9   6 580.259 26.6315   4
   0  -9  -6 601.214 27.1050   6
   0   9  -6 663.527 26.1381   5
   0   9  -6 566.506 25.6157   6
   0   9  -6 543.914 25.6254   6
   0   9   6 562.440 26.4298   4
   0   9  -6 651.821 27.0913   2
  -1  -9  -6 239.517 13.2947   6
   1  -9   6 266.248 12.4680   4
   1   9   6 262.938 12.2681   4
  -1   9  -6 253.449 13.6590   2
  -2  -9  -6 -0.3909 4.55560   6
   2  -9   6 2.62332 2.75641   4
  -2   9  -6 -6.0259 4.34247   2
   2   9   6 6.22773 2.61574   4
  -3  -9  -6 106.923 10.0113   6
  -3  -9  -6 110.997 5.62269   3
   3   9   6 108.497 6.47949   4
  -3   9  -6 74.0096 9.06017   2
  -4  -9  -6 64.4243 5.17464   3
  -4  -9  -6 67.1180 8.84807   6
   4   9   6 66.2179 6.98240   4
  -4   9  -6 69.7600 8.07567   2
   5 -10  -6 80.7371 5.65933   5
   5  10  -6 79.6895 5.71533   5
  -5  10   6 71.5774 5.44612   3
   4 -10  -6 106.649 6.36205   5
  -4 -10   6 109.906 7.21634   3
  -4  10   6 112.083 6.42012   4
   4  10  -6 105.654 6.20856   5
  -4  10   6 104.358 5.74542   3
   3 -10  -6 -0.0444 2.03756   5
  -3 -10   6 2.42407 3.63322   3
  -3  10   6 -0.2094 2.50192   2
   3  10  -6 4.09578 2.20629   5
  -3  10   6 1.92586 2.31415   4
   2 -10  -6 365.751 16.2770   5
  -2  10   6 368.103 16.6474   4
   2  10  -6 368.179 17.3793   2
   2  10  -6 347.109 16.2180   5
  -2  10   6 358.668 16.6489   2
   1 -10  -6 266.221 11.8999   5
   1 -10  -6 257.906 13.0215   6
   1  10  -6 261.727 13.0103   2
   1  10  -6 255.939 11.7922   5
  -1  10   6 253.798 12.2852   4
   0 -10   6 7.62039 2.55665   4
   0 -10  -6 6.97998 2.92423   5
   0 -10  -6 7.00125 3.37145   6
   0  10   6 8.01987 2.58328   4
   0  10  -6 4.65167 1.97572   5
   0  10  -6 5.13170 3.69586   2
  -1 -10  -6 108.889 7.93485   6
   1 -10   6 107.536 6.74494   4
   1  10   6 110.652 6.45784   4
  -1  10  -6 100.497 7.83744   2
  -2 -10  -6 122.046 9.82255   6
   2  10   6 142.282 7.44837   4
  -3 -10  -6 34.3579 3.34488   3
  -3 -10  -6 23.3183 5.76932   6
  -3  10  -6 26.4973 6.79972   2
   3  10   6 33.4179 3.76511   4
  -4 -10  -6 6.83371 6.15022   6
   4  10   6 15.0918 3.19828   4
  -4  10  -6 5.33449 5.49776   2
   5 -11  -6 18.8536 3.21432   5
  -5 -11   6 18.4065 5.25196   3
   4 -11  -6 14.8815 2.76658   5
  -4 -11   6 13.9907 4.10371   3
  -4  11   6 16.6022 2.94193   4
  -4  11   6 14.5380 3.67223   2
  -4  11   6 14.6903 2.63020   3
   4  11  -6 13.2007 2.68367   5
   3 -11  -6 98.6481 5.73435   5
   3  11  -6 102.108 7.94383   2
  -3  11   6 102.608 6.84611   2
   3  11  -6 109.707 5.88407   5
  -3  11   6 108.337 6.34862   4
   2 -11  -6 39.4932 4.93901   6
   2 -11  -6 42.3375 3.32301   5
  -2  11   6 34.0507 3.58937   4
   2  11  -6 30.3843 3.02934   5
   2  11  -6 40.4531 4.88636   2
  -2  11   6 38.7029 3.72259   2
   1 -11  -6 7.94456 1.89763   5
   1 -11  -6 10.2054 3.26062   6
  -1  11   6 4.79093 2.29359   4
   1  11  -6 9.68172 3.69072   2
   1  11  -6 10.6377 1.88679   5
   0 -11  -6 109.779 7.64613   6
   0  11  -6 115.491 5.90722   5
   0  11  -6 124.759 8.05588   2
   0  11   6 108.535 6.59181   4
  -1 -11  -6 202.769 11.5808   6
  -1  11  -6 203.924 12.0825   2
   1  11   6 197.631 10.1123   4
  -2 -11  -6 -3.3458 7.18538   6
   2  11   6 0.46669 2.79249   4
  -2  11  -6 -7.9331 4.46013   2
  -3 -11  -6 17.6977 6.09067   6
  -3  11  -6 9.01650 5.65316   2
  -4 -11  -6 19.1825 6.94466   6
  -4  11  -6 8.51851 6.05851   2
  -4 -12   6 94.0133 7.32727   3
   4 -12  -6 113.317 6.11234   5
   4  12  -6 91.8797 8.12096   2
  -4  12   6 110.120 7.68867   2
  -4  12   6 107.424 6.61023   4
   4  12  -6 106.392 6.15695   5
   3 -12  -6 6.03665 2.18023   5
   3  12  -6 -0.0624 4.07154   2
  -3  12   6 2.29662 2.96385   4
   3  12  -6 2.06331 2.20208   5
  -3  12   6 4.23526 2.87177   2
   2 -12  -6 203.960 10.6909   6
   2 -12  -6 209.178 9.21260   5
  -2  12   6 188.101 9.76779   4
   2  12  -6 198.087 10.9352   2
  -2  12   6 181.684 9.71470   2
   2  12  -6 180.376 9.15772   5
   1 -12  -6 494.167 22.6507   6
   1 -12  -6 502.896 21.8410   5
   1  12  -6 510.097 21.5175   5
   1  12  -6 506.403 22.7556   2
  -1  12   6 456.068 22.1107   4
  -1  12   6 465.702 21.6478   2
   0 -12  -6 35.0925 4.75635   6
   0  12  -6 34.2025 3.00793   5
   0  12  -6 40.0282 5.33610   2
   0  12   6 37.6080 3.87845   4
  -1 -12  -6 178.484 10.5088   6
  -1  12  -6 185.932 11.2344   2
   1  12   6 180.842 9.43001   4
  -2 -12  -6 277.178 15.3533   6
  -2  12  -6 238.422 15.6660   2
   2  12   6 312.395 15.4693   4
  -3 -12  -6 3.51267 5.56812   6
  -3  12  -6 -6.5145 5.24519   2
   3  12   6 10.1780 3.18890   4
  -4 -12  -6 9.80041 6.25448   6
  -4 -13   6 10.8147 4.20399   3
  -4  13   6 9.16436 3.02689   4
   4  13  -6 10.1314 2.73529   5
  -4  13   6 9.76177 3.75013   2
   4  13  -6 11.7676 5.48772   2
   3 -13  -6 3.73743 3.60671   6
   3 -13  -6 3.83146 2.16204   5
   3  13  -6 4.33396 2.23635   5
   3  13  -6 4.18710 3.92055   2
  -3  13   6 2.48615 4.61585   2
  -3  13   6 2.22350 2.88917   4
   2 -13  -6 37.2658 3.22661   5
   2 -13  -6 46.9115 4.98329   6
  -2  13   6 37.7425 3.98141   2
   2  13  -6 48.3007 5.54757   2
   2  13  -6 37.1414 3.13144   5
   1 -13  -6 9.29156 2.10380   5
   1 -13  -6 12.4607 3.51936   6
   1  13  -6 9.98866 1.95472   5
   1  13  -6 10.0819 3.84758   2
  -1  13   6 10.2666 2.71553   4
  -1  13   6 7.08461 1.83697   2
   0 -13  -6 1.85792 3.41392   6
   0  13   6 4.75496 2.76884   4
   0  13  -6 5.11569 4.24597   2
  -2 -13  -6 14.3922 5.25057   6
  -2  13  -6 4.96556 5.31468   2
   2  13   6 13.1864 3.33051   4
  -3 -13  -6 -5.5542 5.03604   6
   3  13   6 1.70436 2.90776   4
  -3  13  -6 -14.112 5.41201   2
   4  14  -6 170.471 14.1151   2
  -4  14   6 152.857 8.73917   4
   3 -14  -6 3.85092 3.72427   6
   3 -14  -6 2.01172 2.19434   5
  -3  14   6 3.34912 2.72978   4
   3  14  -6 4.06666 2.26105   5
   3  14  -6 5.26515 4.80664   2
  -3  14   6 1.32595 2.84126   2
   2 -14  -6 243.707 10.9240   5
   2  14  -6 227.791 12.2590   2
   2  14  -6 199.981 10.0147   5
  -2  14   6 207.560 10.9129   4
  -2  14   6 206.896 10.8005   2
   1 -14  -6 278.486 13.7722   6
   1  14  -6 269.585 12.1342   5
   1  14  -6 285.453 14.0028   2
  -1  14   6 246.730 12.4358   2
  -1  14   6 272.629 13.2889   4
   0 -14  -6 89.7093 7.20513   6
   0  14  -6 98.4807 8.28158   2
   0  14   6 94.8014 6.09817   4
  -1 -14  -6 104.635 8.38077   6
  -1  14  -6 112.717 9.67031   2
   1  14   6 122.709 7.28878   4
  -2 -14  -6 173.516 11.5482   6
  -2  14  -6 162.400 12.5218   2
   2  14   6 185.317 9.72343   4
  -3  14  -6 26.5216 7.46035   2
   3  14   6 44.7679 4.65002   4
   4 -15  -6 9.95560 4.34699   6
  -4  15   6 8.43645 3.43093   4
   4  15  -6 11.6494 5.21591   2
   3 -15  -6 23.4047 4.50655   6
  -3  15   6 23.8023 3.90551   2
  -3  15   6 36.3666 4.40343   4
   3  15  -6 25.6218 5.33761   2
   3  15  -6 41.5935 3.47655   5
   2 -15  -6 1.92215 3.46229   6
   2  15  -6 -1.3700 4.33698   2
  -2  15   6 1.42481 3.07395   4
   2  15  -6 3.80436 1.99243   5
  -2  15   6 0.56969 2.38025   2
   1 -15  -6 6.71438 3.84657   6
  -1  15   6 4.32594 2.74019   4
   1  15  -6 7.90800 4.50581   2
   0 -15  -6 74.3400 6.56253   6
   0  15  -6 75.1861 8.03453   2
   0  15   6 65.7011 5.68858   4
  -1 -15  -6 22.1831 4.83017   6
  -1  15  -6 16.6617 5.66779   2
   1  15   6 22.2218 3.63526   4
  -2 -15  -6 11.6353 4.88305   6
   2  15   6 9.86637 3.39380   4
  -2  15  -6 4.11499 6.04317   2
  -3 -15  -6 10.2264 5.55562   6
  -3  15  -6 6.09363 6.44224   2
   3  15   6 9.45816 3.40051   4
   3 -16  -6 5.08646 3.83371   6
  -3  16   6 12.7607 3.61554   4
  -3  16   6 7.73620 3.29421   2
   2 -16  -6 98.7630 7.31059   6
   2  16  -6 101.809 8.73068   2
  -2  16   6 92.4529 6.69519   4
  -2  16   6 88.8838 6.16674   2
   1 -16  -6 248.740 13.0987   6
  -1  16   6 223.286 12.2393   4
   1  16  -6 263.303 13.8881   2
   0 -16  -6 0.21267 3.45255   6
   0  16  -6 -2.0795 5.00308   2
   0  16   6 1.32825 3.23341   4
  -1 -16  -6 12.8984 4.62569   6
   1  16   6 10.6731 3.63374   4
  -1  16  -6 8.03656 5.80232   2
  -2 -16  -6 62.8170 7.93959   6
   2  16   6 73.8558 6.01858   4
  -2  16  -6 57.1275 8.48100   2
   3 -17  -6 96.0723 7.32009   6
  -3  17   6 83.1046 6.71881   2
   3  17  -6 100.580 8.97802   2
  -3  17   6 82.0565 6.69420   4
   2 -17  -6 20.5163 4.10177   6
  -2  17   6 26.5150 4.17335   4
  -2  17   6 21.5655 4.26862   2
   2  17  -6 30.0360 6.17163   2
   1 -17  -6 86.9247 6.94040   6
   1  17  -6 89.5577 8.39245   2
  -1  17   6 82.7730 6.17824   4
   0 -17  -6 82.9163 7.33908   6
   0  17  -6 83.9344 8.69397   2
   0  17   6 85.6629 6.63049   4
  -1 -17  -6 10.0860 4.58904   6
  -1  17  -6 8.94992 5.25166   2
   1  17   6 13.7161 3.89115   4
  -2 -17  -6 -0.0035 5.08394   6
  -2  17  -6 -1.5410 5.70118   2
   2 -18  -6 5.67525 3.68596   6
  -2  18   6 9.36675 3.78054   4
   2  18  -6 5.56330 5.11085   2
   1 -18  -6 26.6657 4.24702   6
   1  18  -6 18.1856 7.48294   2
   0 -18  -6 66.8583 6.38537   6
   0  18  -6 45.3862 7.40406   2
  -1 -18  -6 12.3116 4.51013   6
  -1  18  -6 0.72452 5.57768   2
   1  18   6 8.11335 3.88374   4
   1 -19  -6 9.50530 3.77897   6
  -1  19   6 7.42394 3.78330   4
   1  19  -6 12.0108 5.62717   2
   0 -19  -6 132.925 9.13134   6
   0  19   6 120.592 7.97820   4
   0  19  -6 123.073 10.4239   2
  -5   0   7 54.9772 4.75604   3
   5   0  -7 53.0967 4.56055   5
  -4   0   7 251.835 11.7776   4
  -4   0   7 262.239 12.0500   3
   3   0  -7 721.018 32.4065   5
  -3   0   7 759.514 32.1956   3
  -3   0   7 735.250 32.3807   4
  -2   0   7 214.783 9.81236   4
   2   0  -7 200.308 9.71750   5
  -2   0   7 194.345 9.44328   3
  -1   0   7 258.801 11.6749   4
   1   0  -7 233.962 11.3584   5
   0   0  -7 1107.35 47.8156   5
   0   0   7 1046.09 47.9571   4
   0   0  -7 1139.87 47.6887   2
   0   0  -7 1112.52 48.1706   6
  -1   0  -7 274.945 12.7416   2
  -1   0  -7 269.132 13.2759   5
   1   0   7 294.325 13.2009   4
  -2   0  -7 42.9925 5.27807   6
   2   0   7 50.3495 4.31416   4
  -3   0  -7 148.914 7.06174   2
  -3   0  -7 131.262 9.36074   6
   3   0   7 146.239 8.16023   4
  -3   0  -7 141.508 7.56561   3
  -4   0  -7 102.764 8.59706   6
  -5  -1   7 20.6660 3.30773   3
   5  -1  -7 19.7762 3.18801   5
  -5   1   7 18.1558 3.27427   3
   5   1  -7 24.5299 3.58844   5
   4  -1  -7 23.1439 4.88261   5
  -4  -1   7 22.6300 3.49273   4
  -4  -1   7 22.4117 3.06786   3
  -4   1   7 24.9327 2.90148   3
  -4   1   7 23.0264 2.47007   4
  -3  -1   7 4.79627 2.49887   3
  -3  -1   7 2.18304 1.95647   4
   3  -1  -7 1.80625 2.23631   5
  -3   1   7 2.64351 2.03755   4
   3   1  -7 6.56317 2.30184   5
  -3   1   7 0.28005 1.81557   3
  -2  -1   7 40.3093 3.08648   3
   2  -1  -7 40.4429 3.24184   5
  -2  -1   7 46.7155 3.56254   4
  -2   1   7 41.8543 3.57933   4
   2   1  -7 44.6518 3.31323   5
  -2   1   7 42.0074 2.72274   3
   1  -1  -7 147.062 7.37595   5
   1  -1  -7 137.802 6.67979   3
  -1  -1   7 157.816 7.58610   4
  -1   1   7 163.815 7.59374   4
   1   1  -7 138.903 7.32122   5
   0  -1  -7 18.0818 1.61224   3
   0  -1  -7 26.5167 2.49051   2
   0  -1   7 24.0995 2.79666   4
   0  -1  -7 23.6185 2.65885   5
   0  -1  -7 32.0618 5.02057   6
   0   1   7 17.5487 2.60281   4
   0   1  -7 27.2381 3.45532   6
   0   1  -7 26.3704 2.67465   5
   0   1  -7 25.6107 2.85433   2
  -1  -1  -7 32.8322 4.31366   6
   1  -1   7 36.4518 3.77499   4
  -1  -1  -7 38.3735 4.00708   5
  -1  -1  -7 36.1950 2.57611   2
  -1   1  -7 33.9149 3.76131   5
  -1   1  -7 32.8951 3.35139   2
   1   1   7 41.0093 3.72017   4
  -1   1  -7 35.9588 4.08080   6
   2  -1   7 4.55331 2.72274   4
  -2  -1  -7 -4.8382 3.63470   6
  -2  -1  -7 2.05601 1.75729   3
  -2  -1  -7 3.96896 0.97269   2
  -2   1  -7 2.69235 1.66828   2
  -2   1  -7 -1.4963 3.24230   6
   2   1   7 5.50772 2.38881   4
   3  -1   7 5.94926 3.12739   4
  -3  -1  -7 -0.0360 4.12243   6
  -3  -1  -7 5.62454 2.26220   3
  -3   1  -7 6.20288 2.66390   3
   3   1   7 6.28667 2.98824   4
  -3   1  -7 2.50263 3.56881   6
  -4  -1  -7 -3.1502 4.46639   6
   4  -1   7 -3.7068 3.68018   4
  -4  -1  -7 1.10022 2.91702   3
  -4   1  -7 1.67157 3.03475   3
  -4   1  -7 -3.2458 3.75607   6
  -5  -2   7 0.33062 3.16495   3
   5  -2  -7 0.62353 2.61443   5
  -5   2   7 -1.2123 2.55552   3
   5   2  -7 1.54507 2.65071   5
  -4  -2   7 151.391 7.63050   3
  -4   2   7 142.425 7.35518   4
  -4   2   7 149.986 7.40862   3
  -3  -2   7 554.115 24.8571   4
   3  -2  -7 555.965 24.9264   5
  -3  -2   7 579.224 24.8341   3
  -3   2   7 566.145 24.5468   3
  -3   2   7 554.780 24.9512   4
   3   2  -7 561.239 24.9059   5
   2  -2  -7 125.409 6.31991   5
  -2  -2   7 126.551 6.48715   4
  -2  -2   7 110.084 6.06949   3
   2   2  -7 117.941 6.26572   5
  -2   2   7 135.326 6.47710   4
  -2   2   7 116.041 5.71911   3
   1  -2  -7 216.336 10.0970   5
  -1  -2   7 234.572 10.4634   4
   1  -2  -7 207.290 9.38977   3
  -1   2   7 222.187 10.4143   4
   1   2  -7 198.688 9.99475   5
   0  -2  -7 877.739 36.5217   2
   0  -2  -7 737.494 36.0679   3
   0  -2  -7 872.175 37.3536   6
   0  -2  -7 838.096 36.8140   5
   0  -2   7 802.873 36.9544   4
   0   2  -7 896.367 36.8866   2
   0   2   7 784.257 36.9420   4
   0   2  -7 882.087 37.0554   6
   0   2  -7 902.056 36.8372   5
  -1  -2  -7 157.872 8.74982   6
  -1  -2  -7 142.250 6.83674   3
   1  -2   7 152.637 7.77112   4
  -1  -2  -7 145.832 7.91612   5
  -1  -2  -7 149.970 6.63660   2
  -1  -2  -7 150.640 6.80629   3
  -1  -2  -7 148.028 6.62114   2
   1   2   7 149.301 7.73327   4
  -1   2  -7 130.999 7.82868   5
  -1   2  -7 151.977 8.37358   6
   2  -2   7 15.8072 2.89678   4
  -2  -2  -7 6.17112 4.31894   6
  -2   2  -7 10.8452 3.34245   6
  -2   2  -7 17.2371 2.74241   2
   2   2   7 21.8053 2.94951   4
  -3  -2  -7 200.777 9.49679   3
  -3  -2  -7 169.713 11.9442   6
   3  -2   7 201.989 10.2724   4
  -3   2  -7 202.197 9.88299   3
  -3   2  -7 188.816 9.68730   2
   3   2   7 197.497 10.0591   4
  -3   2  -7 193.963 10.8970   6
  -4  -2  -7 38.0872 3.96184   3
   4  -2   7 27.5859 4.15619   4
  -4  -2  -7 18.2160 5.50110   6
  -4   2  -7 36.2024 4.43411   3
  -4   2  -7 28.3925 5.85230   6
   5  -3  -7 86.7097 6.04705   5
  -5  -3   7 89.2333 6.34546   3
   5   3  -7 91.5788 5.79395   5
  -5   3   7 89.5262 5.54678   3
  -4  -3   7 106.779 6.01834   3
   4   3  -7 101.029 6.43999   5
  -4   3   7 107.060 5.74204   4
  -4   3   7 100.926 5.55870   3
  -3  -3   7 56.9042 4.23886   3
   3  -3  -7 58.0100 4.08064   5
  -3  -3   7 56.5236 3.99526   4
  -3   3   7 55.8583 3.44314   3
   3   3  -7 63.0025 4.05468   5
  -3   3   7 55.6489 3.98477   4
  -2  -3   7 314.691 14.1740   4
   2  -3  -7 296.730 13.9507   5
   2   3  -7 303.667 13.9328   5
   1  -3  -7 201.789 9.40078   5
  -1  -3   7 200.608 9.64600   4
   1   3  -7 183.519 9.27637   5
  -1   3   7 197.369 9.51807   4
   0  -3  -7 3.21062 1.28411   2
   0  -3  -7 4.33691 2.12203   5
   0  -3  -7 4.52087 2.35940   6
   0  -3   7 0.21190 2.03325   4
   0  -3  -7 2.56758 0.96281   2
   0   3  -7 4.04274 2.11783   2
   0   3  -7 4.09021 1.93701   6
   0   3   7 -1.5547 1.86701   4
   0   3  -7 2.74987 1.85374   5
   1  -3   7 241.285 11.4097   4
  -1  -3  -7 231.313 11.3626   5
  -1  -3  -7 226.803 12.3684   6
  -1  -3  -7 223.874 10.1621   3
   1   3   7 238.799 11.2583   4
  -1   3  -7 228.410 11.5021   2
  -1   3  -7 246.849 11.5809   6
  -1   3  -7 223.385 11.2952   5
   2  -3   7 118.735 6.71159   4
  -2  -3  -7 121.160 5.68447   3
  -2  -3  -7 84.2821 8.53184   6
  -2   3  -7 119.319 7.70520   6
   2   3   7 117.965 6.54391   4
  -2   3  -7 117.405 6.84634   2
  -3  -3  -7 -5.2658 4.82202   6
  -3  -3  -7 7.42728 2.20800   3
   3  -3   7 6.78265 2.89463   4
   3   3   7 5.80514 2.83165   4
  -3   3  -7 3.79989 2.90175   6
  -3   3  -7 8.00585 4.60196   2
   4  -3   7 5.19694 3.59697   4
  -4  -3  -7 9.59497 5.43516   6
  -4  -3  -7 24.1262 3.34265   3
  -4   3  -7 25.3648 3.77118   3
  -4   3  -7 22.3040 5.57812   2
  -4   3  -7 12.1563 3.90827   6
  -5  -4   7 4.57481 3.22554   3
   5  -4  -7 4.96985 3.04579   5
  -5   4   7 1.92039 2.45215   3
   5   4  -7 0.39757 2.90403   5
  -4  -4   7 39.3551 4.18484   3
  -4   4   7 38.2075 3.45299   4
   4   4  -7 45.5132 4.12801   5
  -4   4   7 42.4365 3.37838   3
  -3  -4   7 208.517 10.1554   3
   3  -4  -7 204.898 10.0207   5
  -3  -4   7 205.233 9.92751   4
   3   4  -7 208.525 10.0876   5
  -3   4   7 214.770 9.47639   3
  -3   4   7 202.518 10.0252   4
   2  -4  -7 63.9696 4.18573   5
   2   4  -7 71.7630 4.19814   5
  -2   4   7 65.0576 4.43512   4
   1  -4  -7 34.2366 3.12138   5
   1  -4  -7 32.4731 3.52595   6
  -1  -4   7 32.8772 3.37694   4
   1   4  -7 34.1541 3.00432   5
  -1   4   7 28.1330 2.98601   4
   0  -4  -7 145.356 8.34743   6
   0  -4  -7 151.340 6.83513   2
   0  -4  -7 150.782 7.49978   5
   0  -4   7 134.992 7.66688   4
   0   4   7 138.902 7.60429   4
   0   4  -7 149.302 7.83818   2
   0   4  -7 150.914 7.57077   6
   0   4  -7 170.203 7.60681   5
   1  -4   7 355.909 17.0189   4
  -1  -4  -7 375.810 18.2206   6
  -1   4  -7 383.017 17.0556   6
  -1   4  -7 353.276 17.0615   5
  -1   4  -7 363.379 17.3900   2
   1   4   7 382.088 17.0531   4
  -2  -4  -7 -2.6901 4.44635   6
  -2  -4  -7 13.0949 1.62531   3
   2  -4   7 11.2838 2.87033   4
  -2   4  -7 11.3528 3.22639   2
  -2   4  -7 10.2112 2.74255   6
   2   4   7 15.0087 3.07299   4
  -3  -4  -7 76.5671 11.0219   6
   3  -4   7 89.1911 6.12446   4
  -3   4  -7 94.2874 6.41820   2
  -3   4  -7 88.1034 6.26272   6
   3   4   7 95.0183 6.04996   4
   4  -4   7 26.0266 4.30579   4
  -4  -4  -7 11.8606 6.07833   6
  -4  -4  -7 22.7172 3.35855   3
  -4   4  -7 24.1224 3.81353   6
   4   4   7 31.7470 5.39668   4
  -4   4  -7 36.9226 4.71080   3
  -4   4  -7 35.8122 4.26325   2
   5  -5  -7 155.750 8.78204   5
  -5  -5   7 170.170 9.01978   3
   5   5  -7 168.221 8.91394   5
  -5   5   7 160.710 8.32591   3
  -4  -5   7 92.3214 6.22932   3
   4   5  -7 92.7579 5.53968   5
  -4   5   7 87.7729 4.99812   3
  -4   5   7 94.6537 5.40016   4
  -3  -5   7 1.36333 1.97781   4
  -3  -5   7 1.70947 2.44720   3
   3  -5  -7 1.28509 2.35307   5
  -3   5   7 0.46642 1.89115   4
   3   5  -7 1.62918 2.29666   5
   2  -5  -7 550.484 25.3682   5
  -2  -5   7 591.777 25.5338   4
  -2   5   7 586.707 25.5468   4
   2   5  -7 564.131 25.3295   5
   1  -5  -7 540.793 23.1447   5
   1  -5  -7 538.127 23.8428   6
  -1  -5   7 534.380 23.4202   4
  -1   5   7 506.583 23.3157   4
   1   5  -7 507.916 23.4910   2
   1   5  -7 505.357 23.0322   5
   0  -5  -7 11.0522 1.39101   2
   0  -5  -7 12.0942 3.12612   6
   0  -5   7 9.49562 2.51500   4
   0  -5  -7 11.5689 2.30200   5
   0  -5  -7 15.7804 1.26292   2
   0   5  -7 15.0243 2.93939   2
   0   5  -7 15.6720 2.26904   5
   0   5   7 10.7455 2.31777   4
   0   5  -7 13.4389 2.19670   6
   1  -5   7 214.048 10.9204   4
  -1  -5  -7 221.106 11.9370   6
  -1   5  -7 219.925 10.6258   6
  -1   5  -7 211.548 10.8306   5
  -1   5  -7 219.285 11.4954   2
   1   5   7 227.306 10.8990   4
  -2  -5  -7 418.501 23.2297   6
   2  -5   7 496.454 21.7239   4
  -2  -5  -7 461.186 20.5210   3
   2   5   7 496.891 21.6181   4
  -2   5  -7 473.136 22.1148   2
  -2   5  -7 482.594 21.3615   6
   3  -5   7 8.77245 3.17521   4
  -3  -5  -7 5.61552 2.03019   3
  -3  -5  -7 -5.4771 5.39175   6
   3   5   7 6.28443 2.94415   4
  -3   5  -7 10.1140 3.52467   2
  -3   5  -7 7.32334 2.69345   6
  -4  -5  -7 25.7202 3.44627   3
   4  -5   7 16.2719 3.69287   4
  -4  -5  -7 16.7293 6.53335   6
  -4   5  -7 28.0476 4.68886   3
   4   5   7 28.8424 4.00667   4
  -4   5  -7 28.3320 4.22879   2
  -5  -6   7 22.8256 4.42850   3
   5  -6  -7 14.6027 3.28060   5
  -5   6   7 15.5099 2.91177   3
   5   6  -7 14.2004 3.12063   5
   4  -6  -7 7.29997 2.92416   5
  -4   6   7 6.30164 2.16328   4
   4   6  -7 6.07207 2.70760   5
  -4   6   7 3.11299 1.86900   3
  -3  -6   7 32.5206 3.86396   3
  -3  -6   7 30.2683 2.97050   4
   3  -6  -7 24.3782 3.19133   5
  -3   6   7 25.5834 2.93193   4
  -3   6   7 26.1974 2.12889   3
   3   6  -7 25.8347 2.94322   5
  -2  -6   7 24.1297 3.03566   4
   2  -6  -7 20.9233 2.77941   5
  -2   6   7 26.7706 2.83663   4
   2   6  -7 24.5136 2.66543   5
   1  -6  -7 7.64826 2.19815   5
  -1  -6   7 4.71861 2.26360   4
   1  -6  -7 6.25583 2.55950   6
  -1   6   7 5.09371 2.06185   4
   1   6  -7 8.33055 2.77540   2
   1   6  -7 2.54876 1.80680   5
   0  -6   7 109.461 6.82902   4
   0  -6  -7 117.279 7.30036   6
   0  -6  -7 114.764 6.46511   5
   0   6   7 112.966 6.51812   4
   0   6  -7 125.151 7.11988   2
   0   6  -7 125.261 6.42207   6
   0   6  -7 134.097 6.38819   5
  -1  -6  -7 32.5625 5.06021   6
   1  -6   7 27.9779 3.45204   4
  -1   6  -7 29.8735 3.15148   6
  -1   6  -7 33.0287 4.46176   2
   1   6   7 29.3075 3.33721   4
   2  -6   7 6.80974 3.23529   4
  -2  -6  -7 -9.5381 4.43059   6
  -2   6  -7 -0.3646 3.46489   2
   2   6   7 6.25648 2.86726   4
  -2   6  -7 5.85871 1.99847   6
  -3  -6  -7 -0.3832 1.89069   3
  -3  -6  -7 -9.5952 5.43650   6
   3  -6   7 -0.7096 5.52627   4
   3   6   7 2.85110 2.76758   4
  -3   6  -7 -0.3318 3.46263   2
  -4  -6  -7 -11.814 5.68701   6
  -4  -6  -7 -0.5558 2.88026   3
   4   6   7 -0.2682 3.01697   4
   5  -7  -7 161.838 9.08736   5
  -5  -7   7 170.920 9.84143   3
   5   7  -7 176.278 9.17143   5
  -4  -7   7 239.000 12.0556   3
   4  -7  -7 246.988 11.8566   5
  -4   7   7 247.490 11.5948   4
  -4   7   7 234.458 11.1168   3
   4   7  -7 247.953 11.6606   5
  -3  -7   7 49.1234 3.93168   4
  -3  -7   7 46.5184 4.81760   3
   3  -7  -7 48.7215 3.85218   5
  -3   7   7 51.2211 2.88150   3
  -3   7   7 53.8959 4.08649   4
   3   7  -7 51.0844 3.86635   5
  -2  -7   7 544.393 23.7991   4
   2  -7  -7 495.466 23.4956   5
   2   7  -7 511.815 23.4886   5
  -2   7   7 569.959 23.8721   4
  -1  -7   7 541.939 24.2708   4
   1  -7  -7 562.361 24.7830   6
   1  -7  -7 567.388 23.9489   5
  -1   7   7 517.289 24.1492   4
   1   7  -7 521.860 23.8097   5
   1   7  -7 530.170 24.4379   2
   0  -7  -7 0.44677 2.16491   5
   0  -7  -7 0.53215 2.74587   6
   0  -7   7 6.88719 2.60174   4
   0   7  -7 4.07471 2.97511   2
   0   7  -7 0.86712 1.56981   6
   0   7   7 0.11591 2.26514   4
   0   7  -7 3.94157 1.97116   5
   1  -7   7 395.616 18.4211   4
  -1  -7  -7 388.684 19.5203   6
  -1   7  -7 368.149 17.5347   6
  -1   7  -7 428.867 19.1751   2
   1   7   7 399.489 18.2119   4
   2  -7   7 185.828 9.54062   4
  -2  -7  -7 144.621 11.5592   6
  -2   7  -7 160.194 10.5830   2
   2   7   7 192.319 9.19789   4
  -2   7  -7 172.558 8.30861   6
   3  -7   7 18.7976 4.07367   4
  -3  -7  -7 13.9946 6.81956   6
  -3  -7  -7 15.1802 2.20169   3
  -3   7  -7 20.0266 4.56527   2
   3   7   7 15.7575 3.26203   4
  -4  -7  -7 7.04394 6.37013   6
   4   7   7 30.4203 3.95452   4
  -4   7  -7 22.6959 4.61458   2
   5  -8  -7 3.89150 3.08331   5
  -5  -8   7 -1.2643 5.90794   3
   5   8  -7 -0.6793 4.20188   5
   4  -8  -7 33.4462 3.76317   5
  -4  -8   7 32.7791 4.40079   3
   4   8  -7 25.9864 3.25290   5
  -4   8   7 33.0907 3.37630   4
  -4   8   7 28.1542 2.74437   3
   3  -8  -7 37.6721 3.50280   5
  -3  -8   7 34.8466 4.18374   3
  -3   8   7 41.6267 3.85605   4
  -3   8   7 40.1923 2.80409   3
   3   8  -7 43.5797 3.57799   5
  -2  -8   7 -0.4726 2.39424   4
   2  -8  -7 -3.0624 2.03651   5
   2   8  -7 -4.0676 3.06163   2
   2   8  -7 -2.5392 1.88270   5
  -2   8   7 0.79201 2.34691   4
   1  -8  -7 79.1565 5.88413   6
  -1  -8   7 63.2766 5.10034   4
   1  -8  -7 70.8000 4.41293   5
  -1   8   7 58.7519 4.54316   4
   1   8  -7 74.7883 5.24789   2
   1   8  -7 64.6926 4.12546   5
   0  -8   7 110.220 6.71239   4
   0  -8  -7 104.127 6.05853   5
   0  -8  -7 110.622 7.52569   6
   0   8  -7 113.914 7.22853   2
   0   8   7 104.939 6.39329   4
   0   8  -7 105.633 5.49133   6
   0   8  -7 112.960 5.89442   5
   1  -8   7 9.06150 2.88217   4
  -1  -8  -7 4.73198 4.07194   6
  -1   8  -7 12.3691 2.12873   6
  -1   8  -7 8.03377 4.04397   2
   1   8   7 11.1437 2.72198   4
  -2  -8  -7 -2.0144 7.22988   6
   2  -8   7 7.52795 3.39056   4
  -2   8  -7 7.86163 4.48622   2
   2   8   7 7.76898 2.77265   4
   3  -8   7 9.52615 3.49652   4
  -3  -8  -7 0.47392 6.23207   6
  -3   8  -7 7.08565 4.46889   2
  -4  -8  -7 -14.979 9.35577   6
   4   8   7 -1.5523 2.89082   4
  -4   8  -7 -1.3393 4.08833   2
   5  -9  -7 113.126 6.93314   5
   5   9  -7 112.671 8.66056   5
  -4  -9   7 112.723 7.67789   3
   4  -9  -7 118.663 7.03026   5
   4   9  -7 129.925 6.86988   5
  -4   9   7 130.612 6.92738   4
   3  -9  -7 1.48254 2.39349   5
   3   9  -7 1.64853 2.12086   5
  -3   9   7 4.65426 2.53273   4
   2  -9  -7 266.445 13.7728   6
   2  -9  -7 274.944 12.8597   5
  -2  -9   7 279.676 13.2280   4
   2   9  -7 274.654 13.7444   2
   2   9  -7 267.751 12.7759   5
  -2   9   7 294.902 13.3363   4
  -1  -9   7 537.631 25.6205   4
   1  -9  -7 593.572 25.2262   5
   1  -9  -7 574.011 26.2140   6
   1   9  -7 576.183 25.8999   2
   1   9  -7 591.646 25.1473   5
  -1   9   7 549.572 25.5676   4
   0  -9   7 0.36755 2.58112   4
   0  -9  -7 5.35174 3.20116   6
   0  -9  -7 5.04134 2.37034   5
   0   9  -7 3.04386 3.37703   2
   0   9  -7 2.52359 1.30046   6
   0   9  -7 1.12313 2.04239   5
   0   9   7 2.89507 2.62815   4
   1  -9   7 148.489 8.56358   4
  -1  -9  -7 156.954 10.1867   6
  -1   9  -7 160.577 9.95158   2
   1   9   7 161.176 8.42834   4
   2  -9   7 171.802 9.82779   4
  -2  -9  -7 153.484 11.5481   6
  -2   9  -7 156.360 10.7211   2
   2   9   7 161.095 8.90542   4
  -3  -9  -7 2.71404 5.72837   6
   3   9   7 23.3668 3.57961   4
  -3   9  -7 14.6065 5.07695   2
  -4  -9  -7 0.48409 6.56397   6
   4   9   7 6.57149 3.24557   4
  -4   9  -7 6.01185 4.93507   2
   5 -10  -7 17.0850 3.27751   5
  -5 -10   7 9.94747 4.41063   3
   5  10  -7 8.51859 3.20464   5
  -4 -10   7 81.4693 6.53429   3
   4 -10  -7 81.8018 5.73001   5
   4  10  -7 90.4774 5.79014   5
  -4  10   7 110.963 8.28472   4
   3 -10  -7 143.435 8.12721   5
   3  10  -7 161.399 10.0292   2
  -3  10   7 172.476 8.70558   4
   3  10  -7 166.159 8.30077   5
   2 -10  -7 39.9092 3.50242   5
   2 -10  -7 37.1138 4.48856   6
  -2  10   7 37.7777 3.83302   4
   2  10  -7 34.3300 3.22665   5
   2  10  -7 33.9288 4.73253   2
   1 -10  -7 110.748 5.87140   5
  -1 -10   7 99.6590 6.72125   4
   1 -10  -7 108.393 7.42331   6
  -1  10   7 109.945 6.60440   4
   1  10  -7 108.483 5.72532   5
   1  10  -7 110.094 7.04465   2
   0 -10   7 262.054 13.9584   4
   0 -10  -7 293.166 14.7996   6
   0 -10  -7 285.961 13.2864   5
   0  10  -7 304.217 13.1992   5
   0  10   7 276.089 13.7178   4
   0  10  -7 298.351 14.5959   2
   1 -10   7 46.1132 4.78983   4
  -1 -10  -7 44.8298 5.95955   6
   1  10   7 56.4758 4.90903   4
  -1  10  -7 55.8925 6.36098   2
  -2 -10  -7 19.1101 5.48620   6
  -2  10  -7 18.9040 5.60472   2
  -3 -10  -7 23.4327 7.11668   6
   3  10   7 34.3547 4.22838   4
  -3  10  -7 20.9173 5.76954   2
  -4 -10  -7 9.55336 7.53124   6
  -4  10  -7 26.2584 6.03832   2
   4 -11  -7 39.7003 3.83326   5
  -4 -11   7 37.6695 5.36666   3
  -4  11   7 32.7286 3.87067   4
   4  11  -7 39.6010 3.94298   5
   4  11  -7 27.4705 5.21875   2
   3 -11  -7 0.02231 2.21038   5
   3  11  -7 0.05606 2.38109   5
   3  11  -7 -0.9943 4.30105   2
  -3  11   7 1.98984 2.77156   4
   2 -11  -7 78.5327 7.06694   6
   2 -11  -7 88.2101 4.82704   5
   2  11  -7 78.8942 6.96724   2
  -2  11   7 71.2920 5.50075   4
   2  11  -7 68.5680 4.59869   5
   1 -11  -7 45.9532 5.56119   6
   1 -11  -7 46.4920 3.53947   5
   1  11  -7 43.7992 5.15463   2
   1  11  -7 41.7857 3.34503   6
   1  11  -7 49.5518 3.55779   5
  -1  11   7 41.2500 4.43301   4
   0 -11  -7 71.3921 6.66439   6
   0  11   7 67.9243 5.06718   4
   0  11  -7 68.8105 4.49977   5
   0  11  -7 71.8490 6.79256   2
  -1 -11  -7 20.7167 7.45035   6
  -1  11  -7 25.7935 5.56547   2
  -2 -11  -7 96.0930 8.98552   6
  -2  11  -7 103.604 9.41373   2
   2  11   7 106.039 6.86430   4
  -3 -11  -7 -3.0054 5.19912   6
  -3  11  -7 2.64225 5.35893   2
   3  11   7 6.55127 3.08936   4
   4 -12  -7 85.1767 5.13686   5
   4  12  -7 71.5004 9.58988   2
  -4  12   7 69.8565 5.50264   4
   4  12  -7 74.7259 5.29132   5
   3 -12  -7 232.209 12.7254   6
   3 -12  -7 224.440 11.1221   5
  -3  12   7 237.305 11.6621   4
   3  12  -7 234.296 13.0059   2
   2 -12  -7 33.4793 3.27575   5
   2 -12  -7 33.5218 4.77003   6
  -2  12   7 32.7753 3.97959   4
   2  12  -7 27.6700 2.88718   5
   2  12  -7 35.5544 4.72551   2
   1 -12  -7 109.840 5.92868   5
   1 -12  -7 108.928 8.44466   6
  -1  12   7 94.6063 7.04701   4
   1  12  -7 115.318 7.85026   2
   1  12  -7 109.391 5.75647   5
   0  12  -7 321.217 13.9789   5
   0  12   7 289.249 14.6600   4
  -1 -12  -7 74.5014 7.92673   6
  -1  12  -7 84.7488 8.39950   2
   1  12   7 92.0328 5.98435   4
  -2 -12  -7 1.19717 5.08237   6
  -2  12  -7 0.71211 5.33000   2
   2  12   7 9.38173 3.15429   4
  -3 -12  -7 118.468 14.6240   6
  -3  12  -7 102.933 10.2770   2
   3  12   7 113.032 7.37273   4
   4  13  -7 4.84322 4.75272   2
  -4  13   7 10.7248 3.24812   4
   4  13  -7 8.36418 2.90730   5
   3 -13  -7 27.5461 4.70364   6
   3 -13  -7 38.4212 3.40934   5
   3  13  -7 25.2296 5.35476   2
  -3  13   7 26.3111 3.85121   4
   3  13  -7 27.7069 3.17865   5
   2 -13  -7 -0.4471 2.01306   5
   2 -13  -7 -3.9541 3.35561   6
   2  13  -7 1.96511 2.01142   5
  -2  13   7 0.63111 2.71052   4
   2  13  -7 -0.6805 4.10584   2
   1 -13  -7 39.0071 3.25651   5
   1 -13  -7 40.0074 4.99568   6
  -1  13   7 46.6284 4.57751   4
   1  13  -7 37.9067 4.97970   2
   1  13  -7 38.4992 3.36456   5
   0 -13  -7 1.79819 3.88687   6
   0  13  -7 4.41852 4.44433   2
   0  13   7 6.14236 2.93806   4
  -1 -13  -7 3.09394 4.47036   6
  -1  13  -7 -0.1332 4.97789   2
   1  13   7 0.66615 2.84670   4
  -2 -13  -7 -1.2840 4.54223   6
  -2  13  -7 -2.2336 5.34130   2
   2  13   7 1.34820 3.01743   4
  -3 -13  -7 6.20794 6.25660   6
  -3  13  -7 9.06246 9.34640   2
   3  13   7 8.39322 3.26126   4
   3 -14  -7 205.744 11.7842   6
   3  14  -7 188.202 9.63962   5
   3  14  -7 213.595 12.3294   2
  -3  14   7 196.186 10.7045   4
   2 -14  -7 65.9820 4.29446   5
   2 -14  -7 63.5796 6.62497   6
  -2  14   7 68.7390 5.63614   4
   2  14  -7 57.7683 7.35554   2
   2  14  -7 63.1176 4.18844   5
   1 -14  -7 64.6033 6.45721   6
  -1  14   7 55.1472 4.92446   4
   1  14  -7 53.1436 3.69789   5
   1  14  -7 55.2912 6.25102   2
   0 -14  -7 202.226 11.7420   6
   0  14   7 192.716 10.6323   4
   0  14  -7 199.371 12.0951   2
  -1 -14  -7 138.855 10.4794   6
  -1  14  -7 160.328 11.2212   2
   1  14   7 167.734 9.26742   4
  -2 -14  -7 6.15097 5.30770   6
  -2  14  -7 7.05915 5.66088   2
   2  14   7 7.80776 3.48862   4
   3 -15  -7 1.13141 3.95974   6
   3  15  -7 2.44627 4.76907   2
  -3  15   7 2.84793 3.03755   4
   2 -15  -7 38.2176 5.16164   6
  -2  15   7 46.8337 4.73756   4
   2  15  -7 42.6907 6.05115   2
   1 -15  -7 9.14388 4.05969   6
  -1  15   7 13.0379 3.65393   4
   1  15  -7 10.7879 4.44878   2
   0 -15  -7 3.02438 4.09790   6
   0  15   7 6.67345 3.22124   4
   0  15  -7 6.82450 5.07489   2
  -1 -15  -7 12.2496 5.12084   6
   1  15   7 14.0144 3.59759   4
  -1  15  -7 10.1175 5.49427   2
  -2 -15  -7 28.8591 8.86261   6
   2  15   7 27.9649 4.45766   4
   3  16  -7 100.925 9.29912   2
  -3  16   7 101.192 7.16794   4
   2 -16  -7 46.1181 5.60750   6
  -2  16   7 53.9961 5.45538   4
   1 -16  -7 19.6685 4.40303   6
   1  16  -7 18.7650 4.92688   2
  -1  16   7 19.0840 3.94323   4
   0 -16  -7 199.996 11.8301   6
   0  16  -7 200.791 12.0525   2
   0  16   7 198.368 10.9932   4
  -1 -16  -7 5.22341 4.70102   6
   1  16   7 6.61612 3.86612   4
  -1  16  -7 0.95410 6.11076   2
  -2 -16  -7 0.04192 5.03475   6
   2  16   7 2.09178 3.38898   4
  -2  16  -7 3.80575 5.83679   2
   2 -17  -7 82.5505 7.27178   6
  -2  17   7 90.1841 6.84194   4
   1 -17  -7 55.4808 6.39579   6
   1  17  -7 57.9151 7.66045   2
  -1  17   7 31.4415 5.11144   4
   0 -17  -7 8.32228 4.33821   6
   0  17  -7 8.36037 6.00411   2
   0  17   7 9.85623 4.26863   4
  -1 -17  -7 88.4015 9.94931   6
   1  17   7 74.7726 6.78390   4
  -1  17  -7 81.9363 9.38574   2
   1  18  -7 -0.6524 5.33158   2
  -1  18   7 0.31283 3.71933   4
   0 -18  -7 11.6219 4.66417   6
   0  18  -7 5.49794 5.60598   2
   0  18   7 5.28817 3.86966   4
  -5   0   8 80.1710 5.72852   3
   5   0  -8 87.2832 5.79155   5
   4   0  -8 234.792 11.5827   5
  -4   0   8 237.622 11.2391   3
  -4   0   8 229.808 11.0980   4
   3   0  -8 68.5494 4.86380   5
  -3   0   8 82.1173 5.05837   4
   2   0  -8 522.506 24.0827   5
  -2   0   8 558.418 24.2560   4
  -1   0   8 449.778 20.3921   4
   1   0  -8 449.782 20.1304   5
   0   0  -8 2.34281 2.44877   6
   0   0   8 4.45371 2.36142   4
   0   0  -8 1.72914 2.06304   5
  -1   0  -8 544.304 25.0107   5
  -1   0  -8 540.433 24.3927   2
   1   0   8 530.022 24.9376   4
  -1   0  -8 604.814 25.6923   6
   2   0   8 218.893 11.0010   4
  -2   0  -8 208.678 12.3426   6
  -2   0  -8 224.615 10.3107   3
  -3   0  -8 -5.4736 4.07702   6
  -3   0  -8 1.02631 2.36271   3
   3   0   8 2.16896 3.21687   4
  -4   0  -8 9.80456 4.65862   6
   4   0   8 19.7246 3.98285   4
  -4   0  -8 14.6360 3.33465   3
  -5  -1   8 18.3952 3.62504   3
   5  -1  -8 16.7095 3.56101   5
  -5   1   8 15.2364 3.27548   3
   5   1  -8 20.3273 3.72218   5
  -4  -1   8 4.61250 2.69087   3
   4  -1  -8 5.10446 2.68817   5
  -4   1   8 5.56838 2.45522   3
  -4   1   8 5.87661 2.27767   4
   4   1  -8 5.39505 2.70335   5
  -3  -1   8 60.2621 4.04479   3
  -3  -1   8 58.6260 4.32986   4
   3  -1  -8 49.0560 4.21125   5
   3   1  -8 51.5834 4.23863   5
  -3   1   8 56.0130 4.20451   4
  -3   1   8 59.7276 3.77224   3
   2  -1  -8 8.16406 2.33339   5
  -2  -1   8 13.8944 2.74973   4
  -2   1   8 8.94112 2.34978   4
   2   1  -8 7.07051 2.21873   5
   1  -1  -8 24.5121 3.29584   6
   1  -1  -8 23.6355 2.82967   5
   1  -1  -8 19.7329 1.59382   3
  -1  -1   8 20.8429 3.06845   4
  -1   1   8 21.1203 3.10670   4
   1   1  -8 22.9713 2.79678   5
   0  -1   8 94.0716 5.65810   4
   0  -1  -8 80.3978 4.43949   3
   0  -1  -8 100.738 5.42712   5
   0  -1  -8 97.8919 5.11463   2
   0  -1  -8 98.7712 6.20196   6
   0   1   8 85.3568 5.59156   4
   0   1  -8 94.7362 5.52875   5
   0   1  -8 99.3839 5.45388   2
   0   1  -8 94.0073 5.87319   6
  -1  -1  -8 0.31954 3.45524   6
  -1  -1  -8 -4.6342 2.65468   5
  -1  -1  -8 2.20794 1.61939   2
   1  -1   8 0.13021 2.36890   4
  -1   1  -8 2.59517 3.02667   6
  -1   1  -8 3.00044 3.53606   2
   1   1   8 -0.2782 2.37496   4
  -1   1  -8 0.45475 2.80730   5
  -2  -1  -8 -3.0834 3.98648   6
  -2  -1  -8 6.01020 1.94049   3
   2  -1   8 2.83270 2.78720   4
  -2   1  -8 1.39537 3.48646   6
   2   1   8 3.43389 2.70542   4
  -2   1  -8 5.82017 1.77655   2
   3  -1   8 3.59490 3.09034   4
  -3  -1  -8 3.58878 2.38739   3
  -3  -1  -8 -1.6390 5.92094   6
  -3   1  -8 4.26159 2.74764   3
   3   1   8 5.62902 3.20547   4
  -3   1  -8 -2.9992 3.66132   6
  -4  -1  -8 -3.8649 4.43705   6
   4  -1   8 -0.2175 3.51092   4
  -4  -1  -8 3.40015 2.83213   3
  -4   1  -8 -4.3035 3.78259   6
  -4   1  -8 4.73898 3.05654   3
   4   1   8 3.00192 3.66609   4
   5  -2  -8 223.286 10.9574   5
  -5  -2   8 224.326 11.0363   3
   5   2  -8 221.039 11.1484   5
  -5   2   8 198.199 10.6507   3
   4  -2  -8 52.2327 4.50480   5
  -4  -2   8 37.0407 3.86745   4
  -4  -2   8 43.7977 4.26492   3
  -4   2   8 43.2366 3.59213   3
  -4   2   8 45.3919 3.81072   4
   4   2  -8 46.9987 4.21089   5
   3  -2  -8 42.4955 4.20596   5
  -3  -2   8 44.1410 3.78061   3
  -3  -2   8 42.0901 3.71425   4
  -3   2   8 42.7285 3.11859   3
  -3   2   8 39.8301 3.92710   4
   3   2  -8 43.2523 4.10327   5
  -2  -2   8 592.423 25.0034   4
   2  -2  -8 523.933 24.7339   5
   2   2  -8 534.243 24.7318   5
  -2   2   8 578.143 25.0255   4
  -1  -2   8 272.988 12.8514   4
   1  -2  -8 275.194 13.2006   6
   1  -2  -8 284.238 12.5996   5
   1   2  -8 249.910 14.4016   2
   1   2  -8 264.399 12.5690   5
  -1   2   8 270.252 12.8629   4
   0  -2  -8 34.7211 3.41722   5
   0  -2  -8 37.6463 2.90485   2
   0  -2  -8 39.4351 4.45019   6
   0  -2   8 32.6098 3.61649   4
   0   2  -8 38.1613 3.63712   5
   0   2  -8 37.2033 3.81584   6
   0   2  -8 40.2364 3.67905   2
   0   2   8 37.3639 3.70076   4
  -1  -2  -8 212.561 10.1984   3
   1  -2   8 234.416 11.5781   4
  -1  -2  -8 242.935 12.5118   6
  -1  -2  -8 229.329 11.4980   5
   1   2   8 227.395 11.3679   4
  -1   2  -8 239.597 11.8117   6
  -1   2  -8 229.241 11.2583   2
  -1   2  -8 242.628 11.5100   5
   2  -2   8 143.496 8.24477   4
  -2  -2  -8 150.354 7.06003   3
  -2  -2  -8 123.261 9.83319   6
  -2   2  -8 140.224 7.49474   2
   2   2   8 142.435 8.09234   4
  -2   2  -8 143.352 8.78311   6
  -3  -2  -8 -6.2591 4.56895   6
  -3  -2  -8 4.71172 2.32619   3
   3  -2   8 3.98130 3.45933   4
  -3   2  -8 4.93214 3.59534   6
  -3   2  -8 9.47656 2.89550   3
   3   2   8 4.85721 3.19264   4
  -4  -2  -8 27.8772 6.25542   6
   4  -2   8 29.2783 4.41536   4
  -4  -2  -8 42.7381 4.26966   3
  -4   2  -8 31.9172 4.88759   6
  -4   2  -8 35.6139 4.30709   3
   4   2   8 32.1160 4.43891   4
   5  -3  -8 10.8335 3.41579   5
  -5  -3   8 7.43386 3.65309   3
  -5   3   8 4.96666 2.87929   3
   5   3  -8 9.86840 4.55441   5
  -4  -3   8 94.1197 5.50565   4
  -4  -3   8 96.5269 5.88624   3
   4  -3  -8 95.1697 6.31175   5
   4   3  -8 97.0116 5.98670   5
  -4   3   8 96.3268 5.50846   3
  -4   3   8 102.547 5.72956   4
   3  -3  -8 174.500 9.17655   5
  -3  -3   8 171.912 8.97386   3
  -3  -3   8 181.582 9.04498   4
   3   3  -8 181.221 9.14712   5
  -3   3   8 175.961 9.04934   4
  -3   3   8 185.469 8.37082   3
   2  -3  -8 -2.1489 2.17142   5
  -2  -3   8 -0.0176 2.34305   4
  -2   3   8 -2.0972 2.31393   4
   2   3  -8 -1.4814 1.95187   5
   1  -3  -8 150.602 7.27319   5
  -1  -3   8 130.937 7.65033   4
   1  -3  -8 150.095 8.11860   6
   1   3  -8 138.644 7.26613   5
  -1   3   8 137.318 7.52921   4
   1   3  -8 139.493 7.60388   2
   0  -3  -8 217.019 10.6967   5
   0  -3  -8 232.129 11.5813   6
   0  -3   8 218.934 10.9824   4
   0   3  -8 234.132 10.7491   5
   0   3  -8 227.850 10.9072   2
   0   3   8 209.050 10.9631   4
  -1  -3  -8 49.1735 6.06433   6
   1  -3   8 57.8857 4.94498   4
  -1   3  -8 51.0953 4.67108   2
  -1   3  -8 50.5163 4.96412   6
   1   3   8 52.5457 4.85909   4
  -1   3  -8 65.0993 5.13889   5
  -2  -3  -8 66.3059 8.15866   6
  -2  -3  -8 89.0745 4.62821   3
   2  -3   8 103.404 6.53844   4
  -2   3  -8 88.5257 5.84977   2
   2   3   8 97.0535 6.00226   4
  -2   3  -8 94.8983 6.59924   6
  -3  -3  -8 18.5556 6.07739   6
  -3  -3  -8 33.3755 3.28280   3
   3  -3   8 32.2691 4.37232   4
  -3   3  -8 23.8189 3.89920   6
   3   3   8 34.5510 4.06640   4
  -3   3  -8 35.1788 5.27271   2
   4  -3   8 3.77930 3.79883   4
  -4  -3  -8 0.46558 5.44629   6
   4   3   8 9.73972 3.70371   4
  -4   3  -8 10.9447 3.81482   6
  -4   3  -8 9.98986 3.79956   3
  -5  -4   8 62.0674 5.59416   3
   5  -4  -8 67.1822 5.45880   5
  -5   4   8 46.5730 4.68348   3
   4  -4  -8 38.3345 4.06211   5
  -4  -4   8 30.3956 3.25729   4
  -4   4   8 33.0255 3.03811   3
  -4   4   8 31.1561 3.36101   4
   4   4  -8 33.1467 3.62037   5
  -3  -4   8 8.68961 2.59261   4
  -3  -4   8 14.0722 3.11302   3
   3  -4  -8 19.3559 3.13020   5
   3   4  -8 13.5361 2.71122   5
  -3   4   8 13.2990 2.75221   4
   2  -4  -8 92.5977 5.63100   5
  -2  -4   8 105.834 6.13611   4
   2   4  -8 98.7081 5.60650   5
  -2   4   8 101.732 6.06689   4
   1  -4  -8 182.950 8.59621   5
  -1  -4   8 173.745 9.07845   4
   1  -4  -8 176.058 9.48046   6
   1   4  -8 173.555 9.02673   2
  -1   4   8 161.319 8.81715   4
   1   4  -8 172.846 8.55573   5
   0  -4   8 5.21860 2.84352   4
   0  -4  -8 1.22266 1.18041   2
   0  -4  -8 3.32417 2.19058   5
   0  -4  -8 4.61468 2.79266   6
   0   4   8 3.91431 2.44292   4
   0   4  -8 2.96443 2.11196   5
   0   4  -8 1.71802 2.58459   2
   0   4  -8 4.41919 2.22879   6
   1  -4   8 53.5327 4.63228   4
  -1  -4  -8 60.4478 6.50402   6
  -1   4  -8 49.5748 4.63896   5
  -1   4  -8 55.9657 4.74356   6
   1   4   8 57.9208 4.61597   4
  -2  -4  -8 155.145 7.70115   3
  -2  -4  -8 128.163 10.1657   6
   2  -4   8 161.961 8.82982   4
  -2   4  -8 152.171 8.72115   2
   2   4   8 165.958 8.71749   4
  -2   4  -8 156.069 8.68727   6
   3  -4   8 11.0573 3.46656   4
  -3  -4  -8 -3.9797 5.45931   6
  -3   4  -8 6.57599 2.92750   2
   3   4   8 9.26508 3.40132   4
  -3   4  -8 3.72556 2.82824   6
   4  -4   8 11.0381 3.85122   4
  -4  -4  -8 3.72761 9.90193   6
  -4   4  -8 25.7573 4.26035   3
   4   4   8 17.0125 3.91836   4
  -5  -5   8 3.37931 3.79086   3
   5  -5  -8 1.05574 3.60759   5
   5   5  -8 -3.5952 4.33275   5
   4  -5  -8 208.668 10.8807   5
  -4  -5   8 213.776 10.8478   3
  -4   5   8 225.146 10.6843   4
   4   5  -8 236.517 10.9651   5
  -4   5   8 201.277 10.0819   3
  -3  -5   8 203.952 9.82208   4
  -3  -5   8 183.234 9.85133   3
   3  -5  -8 187.917 9.85162   5
  -3   5   8 210.554 9.69240   3
   3   5  -8 187.524 9.66380   5
  -3   5   8 199.631 9.86926   4
  -2  -5   8 59.5281 4.46819   4
   2  -5  -8 44.1125 3.79152   5
  -2   5   8 45.5379 4.25335   4
   2   5  -8 51.4284 4.03650   5
   1  -5  -8 276.121 14.0806   6
   1  -5  -8 298.886 13.3573   5
  -1  -5   8 289.662 13.6326   4
  -1   5   8 281.241 13.6631   4
   1   5  -8 279.794 13.1383   5
   1   5  -8 287.624 13.7296   2
   0  -5  -8 408.456 18.5270   5
   0  -5   8 391.350 18.8254   4
   0  -5  -8 393.391 19.2603   6
   0   5  -8 411.301 18.5187   6
   0   5  -8 436.816 18.5019   5
   0   5   8 384.563 18.8422   4
   0   5  -8 430.804 18.9524   2
  -1  -5  -8 32.9975 4.84414   6
   1  -5   8 38.6637 4.19436   4
  -1   5  -8 40.7672 5.09374   2
  -1   5  -8 36.0937 4.00379   6
   1   5   8 47.6818 4.48567   4
  -2  -5  -8 -5.1712 6.12532   6
  -2   5  -8 0.52781 2.83507   6
  -2   5  -8 0.67787 3.25909   2
   2   5   8 6.23893 2.94730   4
   3  -5   8 201.654 11.1431   4
  -3   5  -8 207.824 11.1246   2
   3   5   8 217.999 10.8911   4
  -3   5  -8 199.796 10.6246   6
   4  -5   8 22.6337 4.16078   4
  -4  -5  -8 3.76140 7.01420   6
  -4   5  -8 26.6656 4.57567   3
   4   5   8 17.9414 3.96869   4
  -5  -6   8 2.04837 5.02120   3
   5   6  -8 -1.4597 2.81689   5
  -4  -6   8 28.7001 4.34734   3
   4  -6  -8 24.2622 3.37095   5
   4   6  -8 25.2664 3.40461   5
  -4   6   8 25.0764 3.19102   4
  -3  -6   8 0.77863 2.41992   4
   3  -6  -8 0.59681 2.32230   5
  -3   6   8 4.06860 2.40078   4
   2  -6  -8 39.3328 3.85555   5
  -2  -6   8 44.6484 4.31232   4
  -2   6   8 43.8274 3.83513   4
   2   6  -8 40.0105 3.46795   5
   1  -6  -8 20.9871 2.74564   5
  -1  -6   8 21.8353 3.44229   4
   1  -6  -8 19.5917 3.41826   6
   1   6  -8 22.0042 2.60331   5
  -1   6   8 13.5490 2.79536   4
   1   6  -8 22.4492 3.52199   2
   0  -6  -8 -2.2012 2.44435   5
   0  -6  -8 3.00131 3.25521   6
   0  -6   8 0.12594 2.79620   4
   0   6  -8 3.55611 2.39836   5
   0   6  -8 0.28456 2.90176   2
   0   6  -8 1.68061 1.94913   6
   0   6   8 2.65693 2.43301   4
  -1  -6  -8 43.1874 5.85938   6
   1  -6   8 39.4369 4.19780   4
  -1   6  -8 37.1384 4.70777   2
   1   6   8 35.0261 3.93424   4
  -1   6  -8 36.8024 3.76287   6
   2  -6   8 2.65020 3.44299   4
  -2  -6  -8 -4.0581 4.85950   6
  -2   6  -8 3.29142 2.10481   6
  -2   6  -8 -0.0368 3.56003   2
   3  -6   8 1.51069 3.60055   4
  -3  -6  -8 -15.857 5.67661   6
   3   6   8 3.34283 3.14228   4
  -3   6  -8 3.32589 3.52283   2
  -4  -6  -8 -6.2563 6.01239   6
   4   6   8 0.43116 3.29527   4
  -4   6  -8 6.26838 4.28559   3
  -5  -7   8 0.88886 3.68896   3
   5  -7  -8 3.38930 4.32847   5
   5   7  -8 2.62992 3.18305   5
   4  -7  -8 134.632 7.78492   5
  -4  -7   8 131.455 7.98411   3
  -4   7   8 144.862 7.53214   4
   4   7  -8 137.912 7.83651   5
  -3  -7   8 406.844 18.3562   4
   3  -7  -8 372.944 18.3400   5
  -3   7   8 414.712 18.5656   4
   3   7  -8 411.213 19.4252   5
  -2  -7   8 7.39295 2.90203   4
   2  -7  -8 4.71978 2.45448   5
  -2   7   8 7.76308 2.71790   4
   2   7  -8 2.29231 2.27242   5
   2   7  -8 7.50636 3.42604   2
   1  -7  -8 235.155 11.0076   5
   1  -7  -8 226.725 12.0302   6
  -1  -7   8 224.369 11.5268   4
   1   7  -8 239.161 10.8695   5
  -1   7   8 213.436 11.2266   4
   1   7  -8 233.453 11.6856   2
   0  -7  -8 479.417 22.5117   6
   0  -7  -8 475.980 21.5548   5
   0  -7   8 450.313 21.9055   4
   0   7  -8 525.661 21.5126   5
   0   7   8 458.629 21.8454   4
   0   7  -8 505.889 22.1681   2
   0   7  -8 460.566 21.2939   6
   1  -7   8 94.4920 6.34643   4
  -1  -7  -8 86.8360 8.09383   6
   1   7   8 93.8428 6.16205   4
  -1   7  -8 102.809 7.25831   2
  -2  -7  -8 124.470 10.8396   6
   2  -7   8 133.374 8.21206   4
   2   7   8 146.807 7.89711   4
  -2   7  -8 120.137 8.92649   2
   3  -7   8 55.8618 5.38928   4
  -3  -7  -8 34.1161 7.89008   6
  -3   7  -8 44.3218 5.66581   2
   3   7   8 55.6085 5.22349   4
   4  -8  -8 2.34962 2.77055   5
  -4  -8   8 -1.6027 3.76281   3
   4   8  -8 -1.9802 2.79558   5
   3  -8  -8 15.0922 4.52824   5
   3   8  -8 14.5977 3.02128   5
  -3   8   8 16.3825 3.07170   4
   2  -8  -8 92.9024 8.20393   6
   2  -8  -8 87.3001 5.38371   5
  -2  -8   8 80.7434 5.72130   4
  -2   8   8 91.7616 5.79232   4
   2   8  -8 73.4747 5.10827   5
   2   8  -8 84.6391 6.75727   2
   1  -8  -8 2.93156 3.20649   6
   1  -8  -8 4.48645 2.40797   5
  -1  -8   8 1.79355 3.07822   4
   1   8  -8 4.07515 2.19775   5
   1   8  -8 8.23031 3.36874   2
   1   8  -8 3.95394 1.89469   6
  -1   8   8 1.34528 2.40523   4
   0  -8  -8 46.5101 4.13196   5
   0  -8   8 43.8187 4.54623   4
   0  -8  -8 50.0309 5.44523   6
   0   8   8 34.4359 3.96922   4
   0   8  -8 44.6866 5.31810   2
   0   8  -8 53.4674 3.98076   5
  -1  -8  -8 28.0270 6.97046   6
  -1   8  -8 48.5552 5.52368   2
   2  -8   8 3.42331 3.39330   4
  -2  -8  -8 -5.4591 5.22780   6
   2   8   8 2.09037 2.93029   4
  -2   8  -8 -6.0753 3.96441   2
   3  -8   8 0.99001 3.67759   4
  -3  -8  -8 0.56537 6.52433   6
   3   8   8 2.26756 3.18838   4
  -3   8  -8 -1.6490 3.90449   2
   4  -9  -8 76.0415 5.38996   5
  -4   9   8 79.3100 5.48457   4
   4   9  -8 71.3437 5.54067   5
  -3   9   8 244.584 11.9503   4
   3   9  -8 222.480 12.6557   2
   3   9  -8 216.682 11.1140   5
  -2  -9   8 53.8044 4.98641   4
   2  -9  -8 49.7467 5.97496   6
   2  -9  -8 60.5911 4.33891   5
  -2   9   8 54.5777 4.44970   4
   2   9  -8 46.7732 3.77507   5
   2   9  -8 53.2610 7.58371   2
  -1  -9   8 98.1081 6.36058   4
   1  -9  -8 104.803 5.83495   5
   1  -9  -8 93.5190 7.78299   6
   1   9  -8 94.0287 5.41324   6
   1   9  -8 104.766 7.11973   2
  -1   9   8 93.2967 6.34975   4
   1   9  -8 106.148 5.63284   5
   0  -9  -8 414.537 21.2977   6
   0  -9   8 349.466 17.2424   4
   0  -9  -8 388.604 16.9136   5
   0   9   8 325.933 18.4485   4
   0   9  -8 381.541 16.6517   5
   0   9  -8 373.102 17.8222   2
   0   9  -8 337.264 16.9125   6
   1  -9   8 36.1875 4.33753   4
  -1  -9  -8 29.0786 5.19909   6
   1   9   8 38.1154 4.51635   4
  -1   9  -8 44.8213 5.52350   2
  -2  -9  -8 5.60558 5.94117   6
   2  -9   8 7.88788 3.58249   4
   2   9   8 6.75267 3.43281   4
  -3  -9  -8 47.9435 8.52442   6
   3   9   8 71.8003 5.77989   4
  -3   9  -8 63.2741 7.51752   2
   4 -10  -8 52.0401 4.50328   5
   4  10  -8 50.5159 4.79321   5
  -4  10   8 51.4908 4.79600   4
   3 -10  -8 45.1602 4.37527   5
   3  10  -8 35.9191 5.19005   2
   3  10  -8 43.3122 4.13957   5
  -3  10   8 41.2512 4.25452   4
   2 -10  -8 161.112 7.90023   5
   2 -10  -8 151.823 9.54485   6
   2  10  -8 133.472 7.66594   5
   2  10  -8 168.266 9.60439   2
  -2  10   8 142.625 8.44091   4
   1 -10  -8 93.1693 7.22451   6
  -1 -10   8 74.9516 6.42205   4
   1 -10  -8 94.9898 5.49719   5
   1  10  -8 97.8983 5.29159   5
  -1  10   8 88.0261 5.94664   4
   0 -10   8 -0.0110 3.50688   4
   0 -10  -8 3.57293 4.06779   6
   0  10  -8 2.24943 2.34786   5
   0  10  -8 -1.8367 3.78518   2
   0  10   8 3.32704 2.75906   4
   1 -10   8 170.954 9.70874   4
  -1 -10  -8 169.230 10.9862   6
   1  10   8 186.242 9.61558   4
  -2 -10  -8 40.4988 7.04804   6
   2 -10   8 42.4392 5.17159   4
  -2  10  -8 52.4183 6.61911   2
   2  10   8 45.8661 4.94742   4
  -3 -10  -8 -4.9222 9.77752   6
   3  10   8 4.02453 3.29037   4
  -3  10  -8 3.55737 4.81171   2
  -4  11   8 23.9030 3.55153   4
   4  11  -8 21.3328 5.10571   2
   4  11  -8 31.0054 3.65711   5
   3 -11  -8 41.7838 5.43922   6
   3 -11  -8 45.0787 4.10851   5
   3  11  -8 44.4066 4.05226   5
   3  11  -8 45.4973 5.88472   2
  -3  11   8 47.2981 4.77737   4
   2 -11  -8 17.8315 4.42948   6
   2 -11  -8 18.9284 2.87100   5
  -2  11   8 11.2016 3.08901   4
   2  11  -8 13.4680 2.58539   5
   2  11  -8 16.4191 4.71137   2
   1 -11  -8 17.4738 4.07025   6
   1 -11  -8 23.7752 3.07502   5
   1  11  -8 24.6030 4.59775   2
  -1  11   8 25.0012 3.86861   4
   1  11  -8 24.6196 2.85051   5
   0 -11  -8 39.9619 5.48547   6
   0 -11   8 39.7178 4.88709   4
   0  11  -8 38.5164 3.50419   5
   0  11   8 35.0541 4.22915   4
   0  11  -8 47.1875 5.70127   2
   1 -11   8 49.4789 5.38748   4
  -1 -11  -8 55.1566 6.94493   6
   1  11   8 61.9063 5.26271   4
  -1  11  -8 58.4032 7.21765   2
  -2 -11  -8 -0.5154 5.03140   6
   2  11   8 0.60309 3.50757   4
  -2  11  -8 -5.7071 4.64894   2
  -3 -11  -8 16.3142 6.79025   6
  -3  11  -8 25.5346 5.93822   2
   3  11   8 17.9439 3.80497   4
   4 -12  -8 17.8742 3.01969   5
  -4  12   8 6.58484 2.99805   4
   4  12  -8 0.25922 5.31667   2
   3 -12  -8 38.7624 3.74537   5
   3 -12  -8 29.9282 5.02420   6
   3  12  -8 40.8095 3.94231   5
   3  12  -8 33.4071 5.89067   2
  -3  12   8 30.8676 4.23096   4
   2 -12  -8 266.147 13.8585   6
   2 -12  -8 275.850 12.1275   5
   2  12  -8 245.656 12.0500   5
   2  12  -8 244.647 13.7226   2
  -2  12   8 246.266 12.7784   4
   1 -12  -8 94.1199 7.74410   6
   1 -12  -8 101.796 5.74723   5
   1  12  -8 105.112 7.96414   2
   1  12  -8 92.7655 5.53345   5
  -1  12   8 92.9729 6.77147   4
   0 -12  -8 23.2218 5.03400   6
   0  12   8 24.1638 3.83198   4
   0  12  -8 21.3170 2.91816   5
   0  12  -8 19.7667 4.70337   2
  -1 -12  -8 79.7555 8.54288   6
  -1  12  -8 89.9811 8.37245   2
   1  12   8 85.5776 6.25651   4
  -2 -12  -8 54.0618 7.54952   6
   2  12   8 81.3393 6.51889   4
  -2  12  -8 89.7750 9.11389   2
   3 -13  -8 9.99654 4.47671   6
   3 -13  -8 10.5104 2.84044   5
   3  13  -8 15.0231 2.69220   5
   3  13  -8 10.9128 5.30879   2
  -3  13   8 8.14959 3.56382   4
   2 -13  -8 39.3659 3.42051   5
   2 -13  -8 29.1913 4.78671   6
  -2  13   8 26.5126 3.91559   4
   2  13  -8 28.7181 5.23882   2
   1 -13  -8 1.72751 2.27957   5
   1 -13  -8 4.77097 4.08561   6
   1  13  -8 1.77906 2.19985   5
  -1  13   8 4.62813 3.08941   4
   1  13  -8 3.74195 4.50638   2
   0 -13  -8 13.1964 4.89440   6
   0  13   8 12.4322 3.46550   4
   0  13  -8 13.8873 5.12984   2
  -1 -13  -8 1.47567 5.04945   6
   1  13   8 -0.4557 3.11131   4
  -1  13  -8 5.62838 5.05608   2
  -2 -13  -8 0.95471 5.76241   6
  -2  13  -8 5.26948 5.21303   2
   2  13   8 9.29831 3.98444   4
   3  14  -8 22.0667 2.68359   5
   3  14  -8 10.3083 5.26350   2
   2 -14  -8 161.079 7.73728   5
   2 -14  -8 153.398 9.83267   6
   2  14  -8 139.183 7.82224   5
  -2  14   8 140.801 8.86903   4
   2  14  -8 134.595 9.53154   2
   1 -14  -8 137.497 9.37646   6
  -1  14   8 137.375 8.05824   4
   1  14  -8 138.572 9.58471   2
   1  14  -8 117.031 6.80124   5
   0 -14  -8 -4.5278 4.16337   6
   0  14   8 -0.9691 3.50687   4
   0  14  -8 -1.1644 4.13723   2
  -1 -14  -8 81.8910 8.68214   6
  -1  14  -8 80.8739 8.74161   2
   1  14   8 88.3588 6.49754   4
  -2 -14  -8 88.0930 9.92757   6
  -2  14  -8 94.4477 9.23198   2
   2  14   8 99.5010 7.28136   4
   2 -15  -8 -1.0489 4.32769   6
   2  15  -8 -0.3941 4.84452   2
  -2  15   8 2.67690 5.97275   4
   1 -15  -8 32.0641 5.31947   6
   1  15  -8 20.7407 5.73037   2
  -1  15   8 37.0114 5.20221   4
   0 -15  -8 8.86356 4.60235   6
   0  15  -8 15.7729 5.48865   2
   0  15   8 12.7871 5.82957   4
  -1 -15  -8 -0.0400 5.23867   6
   1  15   8 0.08028 3.68940   4
  -1  15  -8 3.70096 7.16970   2
  -2  16   8 111.897 7.91511   4
   1 -16  -8 49.4024 8.73804   6
  -1  16   8 68.5686 6.28543   4
   1  16  -8 61.9263 7.59031   2
   0 -16  -8 -0.5073 4.79540   6
   0  16   8 -0.2046 3.75557   4
   0  16  -8 2.49055 4.67308   2
  -5   0   9 17.8019 3.49348   3
   5   0  -9 20.7513 3.83724   5
  -4   0   9 55.0983 4.48372   4
  -4   0   9 49.8451 4.44005   3
   4   0  -9 56.7635 5.14531   5
   3   0  -9 372.552 17.1455   5
  -3   0   9 366.669 17.1696   4
   2   0  -9 1.08374 2.31963   5
  -2   0   9 10.7001 2.99226   4
  -1   0   9 265.296 13.0878   4
   1   0  -9 276.914 12.6857   5
   1   0  -9 254.885 12.6477   2
   1   0  -9 275.883 13.1956   6
   0   0  -9 432.494 19.8291   2
   0   0  -9 481.225 20.2624   5
   0   0  -9 450.115 20.6044   6
   0   0   9 412.257 20.4620   4
  -1   0  -9 68.4575 4.18624   2
  -1   0  -9 65.8364 6.17771   6
   1   0   9 72.5718 7.13916   4
   2   0   9 160.997 8.87102   4
  -2   0  -9 153.125 10.1910   6
  -3   0  -9 85.0468 5.48140   3
  -3   0  -9 82.4687 8.06530   6
   3   0   9 86.4847 6.68162   4
  -5  -1   9 -1.3975 3.08722   3
   5  -1  -9 2.48864 3.26894   5
   5   1  -9 -0.7977 3.29982   5
  -4  -1   9 8.15093 2.59503   4
   4  -1  -9 5.30140 2.88490   5
  -4  -1   9 6.26920 2.91613   3
  -4   1   9 5.25096 2.59358   4
  -4   1   9 4.51449 2.57896   3
   4   1  -9 6.79435 2.92335   5
   3  -1  -9 -0.5627 2.47010   5
  -3  -1   9 3.95761 2.65906   4
  -3   1   9 3.45499 2.67628   4
   3   1  -9 2.59171 2.57001   5
  -2  -1   9 62.6160 4.88809   4
   2  -1  -9 56.4150 4.57783   5
  -2   1   9 59.2570 4.84612   4
   2   1  -9 50.8497 4.22049   5
   1  -1  -9 13.0079 3.20035   6
   1  -1  -9 10.2090 2.39848   2
  -1  -1   9 12.5182 3.25264   4
   1  -1  -9 12.4993 2.57902   5
   1   1  -9 14.0489 2.56627   5
   1   1  -9 12.2438 2.65883   2
  -1   1   9 9.58091 3.09442   4
   1   1  -9 11.4968 2.95813   6
   0  -1  -9 3.78688 2.97878   6
   0  -1  -9 4.69912 2.45468   5
   0  -1   9 6.17632 3.14224   4
   0   1  -9 0.53418 2.32229   5
   0   1   9 0.77311 2.60939   4
   0   1  -9 8.19384 2.88229   6
   0   1  -9 0.71403 2.22476   2
  -1  -1  -9 21.6294 4.27196   6
  -1  -1  -9 23.6713 2.29380   3
   1  -1   9 18.9608 3.80339   4
  -1   1  -9 26.3211 3.42547   2
  -1   1  -9 24.8787 4.05604   6
   1   1   9 23.4236 5.67209   4
   2  -1   9 12.0188 3.71492   4
  -2  -1  -9 9.91003 1.92893   3
   2   1   9 9.50697 3.49906   4
  -2   1  -9 3.30816 3.86543   6
  -2   1  -9 9.50626 2.35386   3
   3  -1   9 -0.3630 3.67301   4
  -3  -1  -9 1.01484 4.46627   6
  -3   1  -9 -0.4885 3.83222   6
   3   1   9 1.30539 3.60283   4
  -3   1  -9 3.77575 2.53768   3
   5  -2  -9 4.44743 3.04272   5
  -5  -2   9 -0.4308 3.22843   3
   5   2  -9 3.13076 3.34044   5
  -4  -2   9 260.392 13.8394   3
  -4  -2   9 293.080 13.4668   4
   4  -2  -9 290.321 13.9218   5
  -4   2   9 298.655 13.5316   4
   4   2  -9 280.838 13.7079   5
  -3  -2   9 148.862 7.41477   4
   3  -2  -9 121.574 7.41239   5
   3   2  -9 121.118 7.15055   5
  -3   2   9 126.840 7.30381   4
  -2  -2   9 -0.4663 2.64754   4
   2  -2  -9 -1.1646 2.24775   5
   2   2  -9 -4.1379 2.40514   5
  -2   2   9 0.42234 2.39170   4
   1  -2  -9 318.114 14.4629   5
   1  -2  -9 314.543 15.1626   6
  -1  -2   9 303.311 14.7918   4
   1   2  -9 316.709 14.6146   2
   1   2  -9 304.168 14.7828   6
   1   2  -9 330.019 14.4592   5
  -1   2   9 295.193 14.9021   4
   0  -2  -9 237.580 10.9709   2
   0  -2   9 231.232 12.0339   4
   0  -2  -9 239.101 12.3259   6
   0  -2  -9 256.231 11.7517   5
   0   2   9 228.918 11.8813   4
   0   2  -9 252.900 11.5351   5
   0   2  -9 235.106 11.9149   6
  -1  -2  -9 3.20952 3.82506   6
   1   2   9 6.03942 4.85364   4
  -1   2  -9 -0.6635 3.07190   6
  -1   2  -9 2.40264 2.40141   2
   2  -2   9 27.7656 4.04380   4
  -2  -2  -9 25.8547 5.51190   6
   2   2   9 27.0247 3.94611   4
  -2   2  -9 23.9629 4.35716   6
  -3  -2  -9 71.6331 8.40107   6
   3  -2   9 69.0997 6.45109   4
   3   2   9 71.8854 6.35964   4
  -3   2  -9 81.4546 5.45482   3
  -3   2  -9 85.2917 7.11648   6
   5  -3  -9 44.8446 4.73661   5
  -5  -3   9 37.4996 4.68552   3
   5   3  -9 38.1333 4.56776   5
  -4  -3   9 3.63635 3.05822   3
   4  -3  -9 0.65944 3.12549   5
  -4   3   9 7.01732 2.68133   4
   4   3  -9 2.79547 2.78211   5
  -3  -3   9 54.9869 4.56610   4
   3  -3  -9 52.3263 4.50047   5
   3   3  -9 58.0531 4.50238   5
  -3   3   9 57.3191 4.85684   4
   2  -3  -9 166.736 8.53650   5
  -2  -3   9 171.386 8.94631   4
   2   3  -9 165.462 8.65741   5
  -2   3   9 161.801 8.94700   4
  -1  -3   9 46.4190 4.35066   4
   1  -3  -9 55.0533 4.30040   5
   1  -3  -9 51.3309 5.21371   6
  -1   3   9 40.5772 4.30316   4
   1   3  -9 44.6181 4.23505   6
   1   3  -9 46.4674 4.70868   2
   1   3  -9 50.1215 3.78327   5
   0  -3   9 35.7634 4.27929   4
   0  -3  -9 37.3036 3.70784   5
   0  -3  -9 32.6947 4.27202   6
   0   3   9 32.8738 4.25319   4
   0   3  -9 37.6652 4.21702   2
   0   3  -9 41.0681 4.02954   5
   0   3  -9 38.5865 3.98825   6
  -1  -3  -9 125.082 8.84881   6
   1  -3   9 140.007 8.52904   4
  -1   3  -9 123.133 7.82942   6
   1   3   9 140.259 8.48389   4
   2  -3   9 45.5505 5.00296   4
  -2  -3  -9 30.2020 5.99408   6
  -2   3  -9 46.6779 5.24181   6
   2   3   9 53.4171 5.27129   4
  -3  -3  -9 9.37904 5.55406   6
   3  -3   9 12.9070 3.88822   4
  -3   3  -9 23.9253 3.45697   3
  -3   3  -9 16.8873 4.11563   6
   3   3   9 14.5018 3.82441   4
  -4  -4   9 53.1871 4.89572   3
   4  -4  -9 45.6041 4.66309   5
   4   4  -9 47.6941 4.59024   5
  -4   4   9 54.9958 4.43436   4
   3  -4  -9 81.6002 5.47580   5
  -3  -4   9 82.1597 5.69654   4
  -3   4   9 87.9916 5.89728   4
   3   4  -9 83.7114 5.47192   5
   2  -4  -9 0.55469 2.33230   5
  -2  -4   9 2.06583 2.82884   4
   2   4  -9 0.50441 2.51933   5
  -2   4   9 -0.5966 2.86529   4
   1  -4  -9 32.8329 4.31410   6
  -1  -4   9 29.5845 4.03254   4
   1  -4  -9 32.2157 3.55591   5
   1   4  -9 30.8835 3.41112   6
   1   4  -9 33.5351 3.34551   5
  -1   4   9 26.0673 3.57772   4
   1   4  -9 24.7125 3.59316   2
   0  -4  -9 170.482 8.60668   5
   0  -4  -9 175.231 9.76023   6
   0  -4   9 149.828 8.86577   4
   0   4   9 155.891 8.91226   4
   0   4  -9 165.224 8.83630   2
   0   4  -9 165.107 8.67897   6
   0   4  -9 173.131 8.59531   5
  -1  -4  -9 17.5192 5.83446   6
   1  -4   9 24.4235 3.87311   4
  -1   4  -9 24.1185 3.52801   6
   1   4   9 21.6064 3.85595   4
  -1   4  -9 21.4887 3.62789   2
  -2  -4  -9 4.02473 5.13896   6
   2  -4   9 16.8250 4.01706   4
   2   4   9 18.0809 3.79622   4
  -2   4  -9 18.8368 3.34323   2
  -2   4  -9 13.1241 3.25894   6
   3  -4   9 26.5974 4.54804   4
  -3  -4  -9 12.4377 6.22944   6
   3   4   9 22.1090 3.76722   4
   4  -5  -9 28.5952 3.97011   5
  -4  -5   9 25.1861 3.98245   3
  -4   5   9 22.6216 3.91817   4
   4   5  -9 26.8505 3.88251   5
  -3  -5   9 140.905 7.89863   4
   3  -5  -9 133.333 7.81849   5
   3   5  -9 138.808 7.80591   5
  -3   5   9 143.973 7.90820   4
  -2  -5   9 251.971 12.1248   4
  -2   5   9 245.452 12.0654   4
   2   5  -9 233.442 12.4296   2
   1  -5  -9 102.706 7.22570   6
   1  -5  -9 98.7358 6.13883   5
  -1  -5   9 100.653 6.70851   4
   1   5  -9 107.155 5.78045   5
  -1   5   9 101.665 6.44423   4
   1   5  -9 103.652 6.60958   2
   1   5  -9 96.6131 6.09964   6
   0  -5  -9 42.7022 4.07069   5
   0  -5   9 38.7139 4.46475   4
   0  -5  -9 47.1026 5.63580   6
   0   5  -9 43.7384 3.78584   5
   0   5  -9 34.4131 3.93517   6
   0   5  -9 48.2419 4.92084   2
   0   5   9 33.8418 6.22069   4
   1  -5   9 147.142 9.05614   4
  -1  -5  -9 174.840 10.5039   6
  -1   5  -9 153.805 9.06181   2
  -1   5  -9 161.016 8.57731   6
   1   5   9 156.390 8.86948   4
  -2  -5  -9 37.2070 6.77614   6
   2  -5   9 34.4378 4.51446   4
  -2   5  -9 42.3044 4.63524   2
  -2   5  -9 44.9003 4.47792   6
   2   5   9 37.9562 4.61798   4
  -3  -5  -9 0.74653 6.02182   6
   3  -5   9 14.3776 3.74956   4
   3   5   9 13.8984 3.52846   4
   4  -6  -9 2.07573 2.89420   5
   4   6  -9 2.72810 2.83559   5
  -4   6   9 0.18107 2.59548   4
  -3  -6   9 23.6866 3.52910   4
   3  -6  -9 17.8077 3.41037   5
   3   6  -9 16.5335 3.23715   5
  -2  -6   9 23.2065 3.70090   4
   2  -6  -9 19.0141 3.85537   6
   2   6  -9 11.1737 4.40958   5
   2   6  -9 19.6305 4.20363   2
  -2   6   9 23.0161 5.04220   4
   1  -6  -9 38.8321 3.72090   5
  -1  -6   9 32.5935 3.99473   4
   1   6  -9 33.2308 3.77805   6
  -1   6   9 33.8816 6.95574   4
   1   6  -9 40.6822 4.73717   2
   1   6  -9 40.4836 3.64527   5
   0  -6  -9 8.79563 3.10774   5
   0  -6  -9 10.4881 5.19740   6
   0   6  -9 5.50487 3.27432   2
   0   6  -9 6.08510 2.46625   5
   0   6  -9 6.65999 2.42819   6
   0   6   9 8.35060 3.36701   4
  -1  -6  -9 -0.1457 4.15874   6
   1  -6   9 5.39975 3.54456   4
  -1   6  -9 3.12075 3.89714   6
   1   6   9 3.56803 3.05919   4
  -1   6  -9 1.99930 3.43965   2
   2  -6   9 5.12301 3.45194   4
  -2  -6  -9 -0.6972 5.17640   6
   2   6   9 0.79238 3.50988   4
  -2   6  -9 2.44274 3.45177   2
   3  -6   9 1.73576 3.92165   4
  -3  -6  -9 -1.0249 8.53364   6
   3   6   9 5.62562 3.43515   4
   4  -7  -9 23.6142 3.59966   5
  -4   7   9 20.2615 3.39119   4
   4   7  -9 31.2610 3.96927   5
   3  -7  -9 54.0914 4.70533   5
  -3  -7   9 46.0692 4.54906   4
  -3   7   9 54.3356 4.87323   4
   3   7  -9 49.2207 4.62055   5
   2  -7  -9 375.339 17.3793   5
   2  -7  -9 388.388 18.5795   6
  -2  -7   9 389.753 17.8354   4
  -2   7   9 368.062 17.8295   4
   2   7  -9 385.710 18.2435   2
   2   7  -9 359.889 17.3093   5
  -1  -7   9 128.625 9.84225   4
   1  -7  -9 131.029 6.91930   5
   1  -7  -9 124.009 7.85774   6
   1   7  -9 115.355 6.70273   6
   1   7  -9 123.355 6.71899   5
   1   7  -9 123.509 7.65490   2
  -1   7   9 105.906 7.38840   4
   0  -7  -9 39.2024 5.02966   6
   0  -7   9 40.7801 4.57223   4
   0   7   9 36.8938 4.51367   4
   0   7  -9 39.4689 3.72017   6
   0   7  -9 40.8284 4.66960   2
   0   7  -9 45.0219 4.12790   5
   1  -7   9 233.896 12.4840   4
  -1  -7  -9 241.325 13.7770   6
   1   7   9 230.252 12.1922   4
  -1   7  -9 248.446 12.7850   2
   2  -7   9 94.5416 7.32601   4
  -2  -7  -9 99.4779 9.95170   6
   2   7   9 105.658 7.26943   4
  -2   7  -9 89.9252 7.66129   2
  -3  -7  -9 22.3087 7.45502   6
   3  -7   9 11.8472 6.36273   4
  -3   7  -9 17.5312 6.92180   2
   3   7   9 18.9840 3.93844   4
   4  -8  -9 32.4151 3.80541   5
  -4   8   9 43.4508 4.54157   4
   3  -8  -9 1.61454 2.50417   5
  -3  -8   9 1.57017 2.96950   4
  -3   8   9 4.23568 2.94423   4
   3   8  -9 3.13294 2.81156   5
   3   8  -9 1.73276 4.32587   2
   2  -8  -9 9.41127 2.85980   5
  -2  -8   9 2.74397 4.58208   4
   2  -8  -9 8.21159 3.58147   6
  -2   8   9 4.82740 3.20989   4
   2   8  -9 4.27755 2.62195   5
   2   8  -9 6.21058 3.74952   2
  -1  -8   9 74.2852 6.21764   4
   1  -8  -9 83.6398 7.02118   6
   1   8  -9 77.4776 4.99512   6
  -1   8   9 76.9315 5.75333   4
   1   8  -9 85.4351 5.18917   5
   0  -8  -9 6.58927 3.46977   5
   0  -8  -9 5.38767 3.66552   6
   0  -8   9 7.81767 3.32052   4
   0   8  -9 3.84835 3.73033   2
   0   8  -9 8.99771 2.80624   5
   0   8   9 4.46108 3.14944   4
   0   8  -9 7.88283 2.70214   6
   1  -8   9 11.6529 3.92660   4
  -1  -8  -9 5.38541 4.71425   6
   1   8   9 15.0829 3.96331   4
  -1   8  -9 11.3307 4.20971   2
   2  -8   9 5.78239 3.62342   4
  -2  -8  -9 2.98780 5.83586   6
  -2   8  -9 10.2720 4.37928   2
   2   8   9 6.95289 3.70652   4
  -3  -8  -9 1.93579 6.27892   6
   3  -8   9 4.97266 3.96370   4
   3   8   9 1.06087 4.79541   4
  -3   8  -9 10.8626 4.25030   2
   4  -9  -9 36.5381 3.92920   5
  -4   9   9 36.7829 4.17669   4
   4   9  -9 39.3003 5.43465   5
   3  -9  -9 10.8253 3.01985   5
  -3   9   9 18.6130 3.60800   4
   3   9  -9 19.8211 5.13983   2
   3   9  -9 16.5138 3.22272   5
   2  -9  -9 241.472 13.0245   6
  -2  -9   9 218.935 12.0295   4
   2  -9  -9 244.429 11.5534   5
  -2   9   9 234.302 11.9559   4
   2   9  -9 236.330 11.4476   5
   2   9  -9 242.327 12.7703   2
   1  -9  -9 104.395 7.75770   6
  -1  -9   9 84.6753 6.42960   4
   1  -9  -9 104.413 6.17264   5
   1   9  -9 98.1091 7.34056   5
  -1   9   9 84.6522 6.60687   4
   1   9  -9 99.5317 7.28575   2
   0  -9   9 0.23910 3.29573   4
   0  -9  -9 6.15921 4.15626   6
   0   9   9 0.78234 3.37176   4
   0   9  -9 5.05995 2.91656   5
   0   9  -9 4.35510 4.14679   2
  -1  -9  -9 115.698 8.88084   6
   1  -9   9 101.133 7.33254   4
   1   9   9 109.948 7.32441   4
  -1   9  -9 120.525 8.25865   2
  -2  -9  -9 49.1430 7.53304   6
   2  -9   9 54.3681 5.77553   4
  -2   9  -9 65.3502 6.67077   2
   2   9   9 58.3430 5.99777   4
   3 -10  -9 89.5769 8.12729   6
   3 -10  -9 95.9024 6.22085   5
   3  10  -9 98.7919 8.41075   2
   3  10  -9 91.0655 5.89516   5
  -3  10   9 90.7290 6.44563   4
   2 -10  -9 2.88031 2.67457   5
   2 -10  -9 1.83803 4.03201   6
   2  10  -9 1.03666 3.58178   2
   2  10  -9 4.12875 2.46793   5
  -2  10   9 1.72775 3.24574   4
   1 -10  -9 95.5344 7.68930   6
   1 -10  -9 85.6093 5.54006   5
  -1 -10   9 76.9336 6.21193   4
  -1  10   9 79.8680 6.01866   4
   1  10  -9 82.5720 7.09972   2
   1  10  -9 81.8107 5.63334   5
   0 -10  -9 102.551 8.48451   6
   0 -10   9 87.3885 6.81432   4
   0  10  -9 106.170 7.73820   2
   0  10   9 92.5545 6.62177   4
  -1 -10  -9 4.73461 4.40767   6
   1 -10   9 11.1136 3.84853   4
  -1  10  -9 11.7052 4.60875   2
   1  10   9 11.7893 4.07516   4
  -2 -10  -9 66.3137 11.4897   6
  -2  10  -9 70.8734 7.68986   2
   2  10   9 62.4539 5.88203   4
   3 -11  -9 35.8317 7.62202   6
   3 -11  -9 28.3514 3.69914   5
   3  11  -9 23.3648 3.26648   5
  -3  11   9 28.1529 4.13811   4
   2 -11  -9 31.1628 5.04698   6
   2 -11  -9 33.7489 3.56227   5
   2  11  -9 36.4371 3.54921   5
  -2  11   9 23.1959 4.06511   4
   2  11  -9 28.0574 5.04021   2
   1 -11  -9 37.1405 5.09704   6
  -1 -11   9 31.8034 4.57935   4
   1 -11  -9 44.9157 4.25077   5
  -1  11   9 41.3483 4.80408   4
   1  11  -9 45.0115 4.02156   5
   1  11  -9 46.5105 5.40234   2
   0 -11  -9 -1.3036 4.35152   6
   0 -11   9 1.18155 3.54124   4
   0  11   9 -1.5500 3.02567   4
   0  11  -9 0.89618 2.85553   5
   0  11  -9 1.05600 4.30919   2
  -1 -11  -9 14.9800 5.11907   6
   1 -11   9 24.5448 4.62889   4
   1  11   9 19.9468 4.34638   4
  -1  11  -9 26.4410 5.31795   2
  -2 -11  -9 15.4205 6.55484   6
  -2  11  -9 20.0344 5.07070   2
   3 -12  -9 35.7134 3.98312   5
   3 -12  -9 37.2910 5.74215   6
   3  12  -9 52.8449 4.08558   5
   3  12  -9 41.6662 6.13229   2
   2 -12  -9 0.62528 2.65239   5
   2 -12  -9 3.21147 3.95312   6
   2  12  -9 5.95379 4.58231   2
   2  12  -9 4.31944 2.55626   5
  -2  12   9 3.71224 3.09032   4
   1 -12  -9 150.960 9.99695   6
   1 -12  -9 146.076 7.91765   5
   1  12  -9 147.817 9.64287   2
  -1  12   9 136.566 8.69171   4
   1  12  -9 136.832 7.52701   5
   0 -12  -9 98.8947 8.59193   6
   0  12  -9 92.6739 8.24015   2
   0  12   9 97.4153 7.19827   4
  -1 -12  -9 3.52382 5.88241   6
   1  12   9 2.06391 4.22609   4
  -1  12  -9 -1.6233 4.54523   2
  -2 -12  -9 11.9812 7.03035   6
   2  12   9 17.6419 4.47812   4
   2 -13  -9 0.61210 2.66545   5
   2 -13  -9 8.88479 4.98191   6
   2  13  -9 4.16066 6.24277   2
   2  13  -9 2.75314 2.50069   5
   1 -13  -9 21.6735 5.01976   6
   1  13  -9 14.2873 5.00469   2
   1  13  -9 15.1016 2.79181   5
  -1  13   9 11.5827 3.87310   4
   0 -13  -9 8.02802 5.37109   6
   0  13   9 7.14294 5.57796   4
   0  13  -9 10.4590 4.83902   2
  -1 -13  -9 -3.3295 5.07118   6
  -1  13  -9 4.53284 5.88436   2
   1  13   9 2.03512 3.96144   4
   2 -14  -9 -0.7262 4.05599   6
   2 -14  -9 -5.2269 4.29783   5
   2  14  -9 -2.7150 4.80313   2
  -2  14   9 1.57471 3.67967   4
   1 -14  -9 44.0986 6.51523   6
  -1  14   9 54.5900 5.35535   4
   1  14  -9 46.4420 6.04618   2
   0 -14  -9 117.166 9.59457   6
   0  14  -9 117.954 12.3389   2
   0  14   9 119.514 7.79300   4
   4   0 -10 4.41516 4.56385   5
   3   0 -10 13.3886 3.11779   5
  -3   0  10 18.5384 3.93083   4
   2   0 -10 312.868 13.6572   5
  -2   0  10 251.368 13.7793   4
   1   0 -10 103.697 7.50845   6
   1   0 -10 113.496 6.34391   5
  -1   0  10 100.644 7.08593   4
   1   0 -10 114.736 6.51329   2
   0   0 -10 63.8939 5.64357   6
   0   0  10 55.1552 5.24271   4
   0   0 -10 68.2222 4.89117   5
   0   0 -10 62.9976 4.49894   2
  -1   0 -10 208.408 14.4651   6
   1   0  10 196.143 10.6850   4
   2   0  10 65.0278 5.85989   4
  -2   0 -10 68.2317 6.71180   6
  -3   0 -10 20.6805 4.83720   6
   3   0  10 14.1863 4.29223   4
   4  -1 -10 14.4192 5.34910   5
  -4   1  10 12.8714 3.95630   4
   4   1 -10 10.1598 5.13526   5
   3  -1 -10 3.01024 3.07963   5
  -3  -1  10 3.12025 4.57967   4
   3   1 -10 0.83465 2.92708   5
  -3   1  10 1.04944 2.95256   4
  -2  -1  10 15.6960 3.51784   4
   2  -1 -10 18.9564 3.09000   5
  -2   1  10 12.6200 3.41059   4
   2   1 -10 20.6280 3.15610   5
   1  -1 -10 36.1832 6.10047   6
   1  -1 -10 31.9956 3.77982   5
  -1  -1  10 30.7775 3.99738   4
   1  -1 -10 27.9223 3.30516   2
   1   1 -10 27.6960 3.39654   5
   1   1 -10 35.0502 4.25239   2
  -1   1  10 39.1361 4.47598   4
   1   1 -10 37.2930 4.18672   6
   0  -1 -10 6.73715 2.42921   2
   0  -1 -10 12.0589 3.32021   5
   0  -1  10 4.83319 3.16868   4
   0   1 -10 8.84554 2.90429   5
   0   1 -10 7.46154 3.21288   6
   0   1  10 8.71681 3.55359   4
   0   1 -10 5.35787 3.96789   2
   1  -1  10 0.34183 3.54542   4
  -1  -1 -10 -1.2242 3.56223   6
   1   1  10 3.44195 3.68840   4
  -1   1 -10 3.50772 3.37708   6
  -2  -1 -10 -3.2507 4.04396   6
   2  -1  10 1.17148 3.78269   4
   2   1  10 -1.3408 3.61011   4
  -2   1 -10 1.98683 3.74845   6
   3  -1  10 12.5949 4.12746   4
  -3  -1 -10 9.50810 6.32637   6
   3   1  10 18.9565 4.52784   4
  -3   1 -10 14.5576 4.17738   6
   4  -2 -10 12.9140 4.89259   5
   4   2 -10 9.95585 3.16048   5
  -4   2  10 10.9688 3.15600   4
   3  -2 -10 183.630 9.53960   5
   3   2 -10 173.726 9.65194   5
  -3   2  10 190.127 9.72908   4
  -2  -2  10 175.681 10.0454   4
   2  -2 -10 184.471 10.5994   6
   2  -2 -10 211.860 9.88348   5
   2   2 -10 186.921 9.55893   5
  -2   2  10 184.661 10.0987   4
   1  -2 -10 19.9034 3.99735   2
  -1  -2  10 22.2152 3.69154   4
   1  -2 -10 27.7503 4.17423   6
   1  -2 -10 20.7613 3.20706   5
   1   2 -10 22.6432 3.39640   2
   1   2 -10 25.2035 3.20486   5
   1   2 -10 27.3221 3.74360   6
  -1   2  10 21.3179 3.63480   4
   0  -2  10 61.5676 5.96111   4
   0  -2 -10 71.0918 6.29889   6
   0  -2 -10 71.6729 5.20314   5
   0   2 -10 71.9120 5.25375   2
   0   2 -10 78.8009 5.14942   5
   0   2 -10 75.4576 5.84187   6
   0   2  10 65.5168 5.55342   4
   1  -2  10 119.407 7.47018   4
  -1  -2 -10 117.649 8.61909   6
  -1   2 -10 111.707 7.58120   6
   1   2  10 112.416 7.36441   4
   2  -2  10 20.9100 4.40514   4
  -2  -2 -10 10.6117 4.86163   6
   2   2  10 14.0177 4.21852   4
  -2   2 -10 14.1159 3.93971   6
   3  -2  10 -5.8452 3.22232   4
   3   2  10 -2.2042 3.83574   4
  -3   2 -10 5.32054 5.75514   6
   4  -3 -10 32.8582 4.70797   5
   4   3 -10 36.7772 4.05021   5
  -4   3  10 31.9280 3.76688   4
   3  -3 -10 41.0849 4.30420   5
  -3  -3  10 53.3784 5.14923   4
  -3   3  10 47.8221 4.80017   4
   3   3 -10 47.5041 4.56149   5
   2  -3 -10 17.7524 3.19244   5
  -2  -3  10 18.5725 3.74951   4
   2  -3 -10 19.4651 4.06942   6
   2   3 -10 17.4751 3.07460   5
  -2   3  10 16.6062 3.36829   4
   2   3 -10 22.1621 4.23292   2
   1  -3 -10 103.767 5.68469   2
   1  -3 -10 99.5013 6.02185   5
   1  -3 -10 108.041 7.21193   6
  -1  -3  10 92.9038 6.52287   4
   1   3 -10 103.392 5.95430   5
   1   3 -10 95.8788 6.43294   2
   1   3 -10 95.3480 6.51231   6
  -1   3  10 94.4697 6.81355   4
   0  -3 -10 90.1395 6.09311   5
   0  -3 -10 90.1904 7.02643   6
   0  -3  10 82.6995 6.53863   4
   0   3 -10 93.2911 5.61989   5
   0   3 -10 86.0008 5.96666   2
   0   3  10 71.8395 5.99270   4
   0   3 -10 82.4232 6.04000   6
   1  -3  10 4.86643 3.73591   4
  -1  -3 -10 3.31109 4.08972   6
  -1   3 -10 7.57195 2.84150   2
  -1   3 -10 2.70293 3.00877   6
   1   3  10 5.37053 3.46694   4
  -2  -3 -10 38.2429 5.98833   6
   2  -3  10 35.1775 4.60473   4
  -2   3 -10 31.8591 5.90066   6
   2   3  10 42.9705 5.11886   4
   3  -3  10 7.24349 4.15519   4
   3   3  10 19.4566 4.39174   4
   4  -4 -10 7.59685 2.96017   5
  -4   4  10 10.2246 3.14400   4
   4   4 -10 7.50142 3.04724   5
  -3  -4  10 17.2396 3.54287   4
   3  -4 -10 20.9327 3.64568   5
  -3   4  10 23.6444 3.66148   4
   3   4 -10 21.2651 3.57845   5
  -2  -4  10 112.011 7.30010   4
   2  -4 -10 117.566 8.16080   6
   2  -4 -10 123.369 6.77266   5
   2   4 -10 113.974 7.57239   2
  -2   4  10 110.912 7.40870   4
   2   4 -10 112.364 6.60182   5
   1  -4 -10 13.4972 2.93308   5
   1  -4 -10 9.15742 3.26014   6
   1  -4 -10 13.3546 2.33457   2
  -1  -4  10 16.0667 3.57433   4
   1   4 -10 10.2047 2.70112   5
   1   4 -10 11.9907 3.27278   2
  -1   4  10 13.7681 3.43970   4
   1   4 -10 14.9571 3.11263   6
   0  -4 -10 3.07647 3.58072   6
   0  -4  10 -1.7028 3.16349   4
   0  -4 -10 -0.2787 3.12483   5
   0   4 -10 2.28796 2.97442   2
   0   4 -10 1.99114 2.71013   6
   0   4 -10 3.79876 2.97549   5
   0   4  10 1.41978 3.41509   4
  -1  -4 -10 60.7851 7.47015   6
   1  -4  10 68.8106 5.86621   4
  -1   4 -10 74.0404 5.65865   2
   1   4  10 63.0070 5.74103   4
  -1   4 -10 67.2161 5.49628   6
   2  -4  10 19.9481 4.51710   4
  -2  -4 -10 11.4196 5.03959   6
   2   4  10 19.7208 4.31184   4
  -2   4 -10 25.6195 4.69056   6
  -4   5  10 187.197 9.99093   4
   4   5 -10 193.783 10.1700   5
  -3  -5  10 78.9275 5.78226   4
   3  -5 -10 87.8125 5.95195   5
  -3   5  10 75.8194 6.03892   4
   3   5 -10 81.6912 5.52130   5
   2  -5 -10 35.2552 3.71667   5
  -2  -5  10 32.8299 4.23767   4
   2  -5 -10 32.7915 4.90374   6
   2   5 -10 27.1243 4.43042   2
  -2   5  10 27.6792 3.95918   4
   2   5 -10 35.0552 3.83735   5
   1  -5 -10 166.459 9.86476   6
   1  -5 -10 166.742 8.58501   5
  -1  -5  10 161.246 9.15321   4
   1   5 -10 175.821 8.67821   5
  -1   5  10 167.089 9.24174   4
   1   5 -10 155.739 8.69372   6
   1   5 -10 164.319 9.24193   2
   0  -5  10 78.1091 5.94880   4
   0  -5 -10 70.1913 6.93227   6
   0  -5 -10 64.7996 5.69976   5
   0   5 -10 69.7178 5.04679   5
   0   5 -10 77.1876 5.54823   6
   0   5 -10 75.6541 6.02818   2
   0   5  10 67.0843 6.19296   4
   1  -5  10 1.08541 3.36636   4
  -1  -5 -10 1.30707 4.36574   6
  -1   5 -10 2.97927 2.70206   6
  -1   5 -10 3.45069 3.15518   2
   1   5  10 5.67287 3.47693   4
  -2  -5 -10 25.0527 5.76537   6
   2  -5  10 18.6145 4.16836   4
   2   5  10 38.1311 4.96102   4
   4  -6 -10 4.62049 3.13928   5
  -4   6  10 5.77736 3.12478   4
   4   6 -10 7.53852 2.95875   5
  -3  -6  10 -3.6723 3.07780   4
   3  -6 -10 0.96755 2.78172   5
   3   6 -10 2.01171 4.17383   2
   3   6 -10 1.33605 2.96896   5
  -3   6  10 -0.0998 3.11731   4
   2  -6 -10 8.89791 3.19922   5
   2  -6 -10 7.37815 4.12008   6
  -2  -6  10 2.75335 3.17781   4
   2   6 -10 3.22881 3.75455   2
   2   6 -10 9.08920 2.70268   5
  -2   6  10 4.95346 3.11776   4
   1  -6 -10 31.3834 3.63236   5
   1  -6 -10 29.1957 4.59946   6
  -1  -6  10 32.4001 4.27215   4
   1   6 -10 32.9624 3.45898   5
  -1   6  10 30.6038 4.26517   4
   1   6 -10 35.3468 6.72622   2
   1   6 -10 34.2279 4.00919   6
   0  -6  10 4.65582 3.36020   4
   0  -6 -10 7.47356 4.24425   6
   0  -6 -10 7.46296 3.42782   5
   0   6  10 8.42225 3.78221   4
   0   6 -10 7.58288 3.16994   5
   0   6 -10 5.57120 2.60534   6
   0   6 -10 5.40974 3.35650   2
  -1  -6 -10 -2.1563 4.41468   6
   1  -6  10 1.89327 3.71622   4
  -1   6 -10 -1.6224 3.17626   2
   1   6  10 -1.6169 3.35846   4
  -2  -6 -10 2.11171 5.62082   6
   2   6  10 0.15778 3.78308   4
   3  -7 -10 92.6255 6.27758   5
   3  -7 -10 98.5497 8.65426   6
  -3  -7  10 80.6901 6.15564   4
  -3   7  10 95.5409 6.52337   4
   3   7 -10 88.4873 6.04215   5
   3   7 -10 83.8524 7.89260   2
   2  -7 -10 5.96361 3.00676   5
  -2  -7  10 -0.6656 3.49662   4
   2  -7 -10 2.92142 3.90430   6
   2   7 -10 -0.6146 2.74218   5
   2   7 -10 1.26010 4.02941   2
  -2   7  10 2.27251 3.09780   4
   1  -7 -10 207.416 9.75079   5
   1  -7 -10 190.620 10.9403   6
  -1  -7  10 183.880 10.1317   4
   1   7 -10 181.243 9.25736   5
   1   7 -10 191.900 10.2556   2
  -1   7  10 167.021 10.0040   4
   1   7 -10 176.610 9.33196   6
   0  -7 -10 195.827 11.3568   6
   0  -7 -10 188.352 10.0307   5
   0  -7  10 169.359 10.2122   4
   0   7  10 181.979 10.2995   4
   0   7 -10 199.336 11.7774   2
   0   7 -10 190.210 9.66896   5
  -1  -7 -10 -2.3406 4.44298   6
   1  -7  10 0.11288 3.56372   4
   1   7  10 0.61522 3.38922   4
  -1   7 -10 0.84964 3.69141   2
  -2  -7 -10 68.7244 10.9564   6
   2  -7  10 45.2542 5.27192   4
   2   7  10 37.5793 7.40242   4
  -3  -8  10 37.9319 4.45394   4
   3  -8 -10 33.9636 4.06497   5
   3  -8 -10 51.1332 8.45475   6
   3   8 -10 33.4661 3.75936   5
   3   8 -10 45.5890 7.60221   2
  -3   8  10 36.5601 4.51273   4
   2  -8 -10 7.50991 3.20791   5
   2  -8 -10 6.08910 4.01535   6
  -2  -8  10 4.25887 3.66699   4
   2   8 -10 8.07239 2.95222   5
  -2   8  10 5.14885 3.49563   4
   2   8 -10 7.27814 4.12475   2
   1  -8 -10 4.51072 2.72438   5
  -1  -8  10 -0.8986 3.28984   4
   1  -8 -10 7.22894 3.96604   6
   1   8 -10 0.69696 2.38320   5
  -1   8  10 3.36682 3.60702   4
   1   8 -10 1.89957 3.70367   2
   0  -8 -10 34.5726 5.33217   6
   0  -8  10 36.7167 5.00338   4
   0   8 -10 34.0797 3.92233   5
   0   8 -10 30.2164 4.72262   2
   0   8  10 28.4459 4.32867   4
  -1  -8 -10 5.23675 5.01265   6
   1  -8  10 8.62482 3.78670   4
  -1   8 -10 11.3852 4.02500   2
   1   8  10 3.90965 3.91058   4
   2  -8  10 -3.8971 3.92724   4
  -2  -8 -10 -7.3111 5.41990   6
   2   8  10 2.10792 3.98533   4
  -2   8 -10 8.67431 3.94978   2
   3  -9 -10 47.2476 5.79781   6
   3  -9 -10 36.3654 4.18542   5
   3   9 -10 35.0577 6.28323   2
  -3   9  10 37.9204 4.55223   4
  -2  -9  10 9.54768 3.92071   4
   2  -9 -10 9.83251 4.58121   6
   2  -9 -10 3.54904 2.89292   5
  -2   9  10 8.47024 3.72906   4
   2   9 -10 4.22910 2.88610   5
   2   9 -10 3.44902 4.30512   2
  -1  -9  10 110.744 7.71884   4
   1  -9 -10 125.005 9.02969   6
   1  -9 -10 129.087 7.31998   5
   1   9 -10 126.936 8.40098   2
   1   9 -10 124.274 6.91458   5
  -1   9  10 118.383 7.79169   4
   0  -9  10 81.1227 6.94406   4
   0  -9 -10 75.6774 7.87509   6
   0   9 -10 82.1913 7.38784   2
   0   9  10 81.1022 6.39473   4
   0   9 -10 81.5152 5.61433   5
  -1  -9 -10 7.21098 7.28774   6
   1   9  10 14.7501 4.49244   4
  -1   9 -10 8.58337 4.26430   2
   2  -9  10 8.28791 4.50784   4
   2   9  10 16.9656 4.23831   4
   3 -10 -10 3.09281 4.24957   6
   3  10 -10 6.39381 2.94562   5
   3  10 -10 6.50355 5.01128   2
  -3  10  10 14.8567 5.90126   4
   2 -10 -10 49.5633 8.30323   6
  -2 -10  10 69.6853 6.21729   4
   2 -10 -10 69.6369 5.34087   5
  -2  10  10 75.1105 6.39108   4
   2  10 -10 73.4882 7.19617   2
   2  10 -10 77.2923 5.21076   5
  -1 -10  10 13.5126 3.96076   4
   1 -10 -10 21.8396 3.59712   5
   1 -10 -10 15.7374 4.92935   6
   1  10 -10 12.8909 4.48067   2
  -1  10  10 19.5632 4.39223   4
   1  10 -10 12.9883 3.07359   5
   0 -10 -10 24.0930 5.43413   6
   0 -10  10 27.9763 4.86687   4
   0  10 -10 26.5638 3.50442   5
   0  10 -10 28.3655 5.10128   2
   0  10  10 32.6113 4.87667   4
   1 -10  10 45.0997 5.56773   4
  -1 -10 -10 57.8456 7.17968   6
  -1  10 -10 58.0575 6.87395   2
   1  10  10 49.4435 5.59031   4
   2 -11 -10 13.9178 3.28457   5
   2 -11 -10 11.4255 4.51800   6
   2  11 -10 10.1945 2.99812   5
  -2  11  10 11.9133 3.71074   4
   2  11 -10 13.6102 5.37435   2
   1 -11 -10 17.9464 8.84538   6
  -1 -11  10 5.22078 3.73593   4
   1 -11 -10 10.0529 3.32274   5
   1  11 -10 12.5270 4.69352   2
   1  11 -10 9.00977 2.87575   5
  -1  11  10 7.20361 5.03192   4
   0 -11 -10 38.5771 6.73841   6
   0 -11  10 40.4322 8.08708   4
   0  11  10 33.8680 5.01407   4
   0  11 -10 32.0624 5.46880   2
   1 -11  10 -0.2520 3.75927   4
  -1 -11 -10 -1.4704 5.10656   6
   1  11  10 3.70256 4.05301   4
  -1  11 -10 5.76806 4.93272   2
   2 -12 -10 81.8791 6.06223   5
  -2  12  10 97.9617 6.80997   4
   2  12 -10 83.8252 5.60816   5
   1 -12 -10 2.69244 4.49211   6
   1  12 -10 -3.6531 2.67091   5
  -1  12  10 3.56915 3.78732   4
   1  12 -10 0.70785 5.72134   2
   0 -12 -10 41.2942 6.29936   6
   0  12 -10 39.7407 9.07517   2
   0  12  10 34.0035 5.09295   4
   3   0 -11 28.0136 5.26533   5
  -3   0  11 15.7239 3.73954   4
   2   0 -11 4.55521 3.22128   5
   2   0 -11 8.38515 3.79834   6
   2   0 -11 3.53307 5.13860   2
  -2   0  11 2.19736 3.08678   4
  -1   0  11 106.145 7.24047   4
   1   0 -11 110.030 7.37686   6
   1   0 -11 123.975 6.92631   5
   1   0 -11 108.832 6.61647   2
   0   0  11 154.236 9.02768   4
   0   0 -11 149.631 9.17520   6
   0   0 -11 158.781 8.49325   5
  -1   0 -11 4.80205 3.68988   6
   1   0  11 4.52706 4.07565   4
  -2   0 -11 51.5918 6.45308   6
   2   0  11 37.9154 5.34434   4
   3  -1 -11 10.5764 3.16178   5
  -3  -1  11 11.3834 3.62375   4
  -3   1  11 3.28879 3.20401   4
   3   1 -11 11.5383 3.63382   5
   2  -1 -11 11.7388 3.30241   2
   2  -1 -11 8.79897 3.04053   5
  -2  -1  11 10.9096 3.80028   4
   2  -1 -11 5.99803 3.77959   6
   2   1 -11 9.05920 3.42282   2
   2   1 -11 11.7926 3.72612   6
  -2   1  11 5.17255 3.63433   4
   2   1 -11 10.7390 3.05668   5
  -1  -1  11 29.8566 4.55670   4
   1  -1 -11 20.4917 3.33056   5
   1  -1 -11 22.7920 4.07228   6
   1   1 -11 27.3683 3.68168   5
   1   1 -11 20.9909 3.23068   2
  -1   1  11 24.2937 4.43591   4
   1   1 -11 24.9361 3.94898   6
   0  -1 -11 2.99678 2.97869   5
   0  -1 -11 6.11078 3.67035   6
   0  -1  11 2.85892 3.80662   4
   0   1  11 5.78004 3.87078   4
   0   1 -11 0.90014 3.37225   6
   0   1 -11 5.90599 3.44703   5
  -1  -1 -11 3.27369 3.87487   6
   1  -1  11 2.24447 3.78232   4
  -1   1 -11 6.01052 3.49309   6
   1   1  11 4.91295 3.56047   4
   2  -1  11 4.90269 4.21920   4
   2   1  11 4.12440 4.04853   4
  -2   1 -11 7.14367 3.85981   6
   3  -2 -11 34.7138 4.63731   5
  -3  -2  11 26.3213 4.03330   4
  -3   2  11 31.9577 4.26966   4
   3   2 -11 32.7283 3.88993   5
   2  -2 -11 41.1971 5.29579   6
   2  -2 -11 46.7105 4.49541   5
  -2  -2  11 43.7824 4.90590   4
   2   2 -11 35.5908 3.99736   5
  -2   2  11 40.5642 4.77584   4
   2   2 -11 32.3159 4.52111   6
   2   2 -11 43.6203 5.32585   2
   1  -2 -11 167.168 9.56391   6
   1  -2 -11 171.540 8.76881   5
  -1  -2  11 155.643 9.37570   4
   1   2 -11 144.233 9.01581   6
   1   2 -11 165.570 8.64758   5
   1   2 -11 160.798 8.67572   2
  -1   2  11 145.855 9.26017   4
   0  -2 -11 33.3595 4.84044   6
   0  -2 -11 32.4599 4.45172   5
   0  -2  11 29.8426 4.46052   4
   0   2 -11 31.0992 4.31002   6
   0   2 -11 35.2622 4.22677   5
   0   2  11 35.4123 4.80675   4
   1  -2  11 1.28410 3.65162   4
  -1  -2 -11 1.66421 3.98016   6
   1   2  11 0.52983 3.42013   4
  -1   2 -11 1.60682 3.30059   6
   2  -2  11 40.6945 5.45179   4
   2   2  11 25.7322 4.79981   4
  -2   2 -11 31.0898 4.86611   6
   3  -3 -11 29.8094 3.82277   5
  -3  -3  11 25.4180 3.97280   4
   3   3 -11 30.4816 3.76665   5
  -3   3  11 32.1392 4.26754   4
   2  -3 -11 104.008 7.71489   6
  -2  -3  11 94.4102 6.87342   4
   2  -3 -11 95.8136 6.06373   5
   2   3 -11 91.1042 6.72218   2
   2   3 -11 86.2652 5.97430   5
   2   3 -11 83.8870 6.88673   6
  -2   3  11 93.3600 6.85996   4
   1  -3 -11 -0.9648 2.67206   5
  -1  -3  11 -0.1771 3.26200   4
   1  -3 -11 1.85392 3.56970   6
  -1   3  11 -0.0876 3.25869   4
   1   3 -11 2.05802 2.96460   5
   1   3 -11 -1.3610 3.11965   2
   1   3 -11 0.66472 2.91372   6
   0  -3 -11 28.7841 3.95396   5
   0  -3  11 34.7259 4.85350   4
   0  -3 -11 37.6334 5.16025   6
   0   3 -11 33.3028 3.92712   5
   0   3 -11 32.3108 4.22226   6
   0   3 -11 34.0400 3.94902   2
   0   3  11 22.4628 4.45088   4
  -1  -3 -11 58.5873 6.73778   6
   1   3  11 45.9836 7.33888   4
  -1   3 -11 55.5444 5.61960   6
  -3  -4  11 46.9194 5.28805   4
   3  -4 -11 61.6719 5.02810   5
   3  -4 -11 60.2937 6.89989   6
  -3   4  11 56.5548 5.60965   4
   3   4 -11 60.4923 6.40969   2
   3   4 -11 61.0339 5.32122   5
   2  -4 -11 2.48947 3.75069   6
  -2  -4  11 2.55327 3.51664   4
   2  -4 -11 7.25226 3.01290   5
   2   4 -11 5.23313 3.21329   5
  -2   4  11 2.21195 3.54781   4
   2   4 -11 5.88823 3.26603   6
   2   4 -11 1.71114 3.66833   2
  -1  -4  11 63.1863 6.31016   4
   1  -4 -11 76.0216 5.28541   5
   1  -4 -11 70.6255 6.80663   6
   1   4 -11 70.1626 5.28424   5
   1   4 -11 71.1954 5.78155   2
   1   4 -11 62.3172 5.52659   6
  -1   4  11 63.7136 5.75223   4
   0  -4 -11 18.9381 4.35601   6
   0  -4 -11 18.9077 3.72386   5
   0  -4  11 23.9858 4.27244   4
   0   4 -11 20.6223 3.60287   6
   0   4  11 13.0867 3.82224   4
   0   4 -11 24.1752 3.76266   2
   0   4 -11 17.0937 3.43638   5
  -1  -4 -11 -2.5337 4.01423   6
   1  -4  11 -2.3521 6.75332   4
   1   4  11 4.14161 5.97233   4
   3  -5 -11 111.432 8.68636   6
   3  -5 -11 120.682 6.93494   5
  -3  -5  11 105.408 7.17141   4
  -3   5  11 106.433 7.31802   4
   3   5 -11 105.936 6.99413   5
   2  -5 -11 120.607 6.94443   5
   2  -5 -11 112.094 8.51829   6
  -2   5  11 111.231 7.36546   4
   2   5 -11 117.157 8.14366   2
   2   5 -11 111.170 7.02321   5
   2   5 -11 109.423 7.36975   6
   1  -5 -11 4.15143 3.88039   6
  -1  -5  11 -3.0887 3.69192   4
   1  -5 -11 2.21321 2.83443   5
   1   5 -11 0.03352 2.61219   5
   1   5 -11 -0.5477 2.73426   6
  -1   5  11 -3.0970 3.24794   4
   1   5 -11 -2.0477 3.26203   2
   0  -5 -11 66.5096 7.27082   6
   0  -5 -11 69.4986 5.62616   5
   0  -5  11 63.4801 6.54960   4
   0   5  11 70.7252 6.60385   4
   0   5 -11 78.3166 5.82522   5
   0   5 -11 82.7851 6.87087   2
   1  -5  11 24.7688 4.72306   4
   1   5  11 24.1376 4.62775   4
  -3  -6  11 -1.2094 3.44437   4
   3  -6 -11 0.86665 3.24419   5
   3  -6 -11 -2.3837 4.48815   6
   3   6 -11 3.33085 4.37493   2
   3   6 -11 3.59446 2.79876   5
  -2  -6  11 -1.0981 3.59820   4
   2  -6 -11 6.10398 5.71565   6
   2  -6 -11 4.73815 2.99633   5
   2   6 -11 5.38623 4.07665   2
   2   6 -11 6.41143 3.12990   6
   2   6 -11 4.84355 4.37553   5
  -2   6  11 -3.6149 3.52204   4
   1  -6 -11 0.11104 3.78068   6
   1  -6 -11 2.73006 2.91850   5
  -1  -6  11 2.26375 3.80777   4
   1   6 -11 -5.8486 2.75935   5
   1   6 -11 -2.6821 3.40138   2
   1   6 -11 -0.1937 2.78953   6
  -1   6  11 -1.9866 3.37518   4
   0  -6 -11 14.2433 3.61224   5
   0  -6  11 19.3124 4.82129   4
   0  -6 -11 15.4606 4.54866   6
   0   6 -11 17.8738 4.06853   2
   0   6  11 27.3244 6.25719   4
   0   6 -11 14.8371 3.54305   5
  -1  -6 -11 -0.7587 4.56087   6
   1  -6  11 1.28625 3.66045   4
   1   6  11 2.53978 3.94038   4
  -2  -7  11 115.545 8.12762   4
   2  -7 -11 125.030 9.12469   6
   2   7 -11 129.332 8.60499   2
   2   7 -11 138.049 9.20226   6
   1  -7 -11 5.41084 3.35082   5
  -1  -7  11 0.84006 3.63425   4
   1   7 -11 2.31061 3.55278   2
   1   7 -11 1.56577 3.03313   5
   0  -7  11 44.8329 8.45334   4
   0  -7 -11 51.4399 7.74637   6
   0   7  11 34.3914 4.97742   4
   0   7 -11 50.7751 6.08865   2
   0   7 -11 39.8474 4.16736   5
   1  -7  11 110.696 8.31428   4
  -1  -7 -11 116.466 9.51358   6
   1   7  11 123.823 8.02190   4
   2  -8 -11 17.4203 4.81859   5
  -2  -8  11 5.61220 5.71563   4
   2  -8 -11 22.8608 5.01437   6
  -2   8  11 17.7726 4.39512   4
   2   8 -11 15.9759 3.66553   5
   1  -8 -11 7.05288 4.38134   6
   1  -8 -11 12.6279 6.20586   5
   1   8 -11 13.0642 4.16975   2
  -1   8  11 13.3185 4.38914   4
   1   8 -11 12.2633 3.57275   5
   0  -8  11 1.80157 4.14961   4
   0  -8 -11 0.28699 4.57103   6
   0   8 -11 2.27852 4.02575   2
   0   8 -11 -3.2570 4.62042   5
   0   8  11 1.57512 3.99343   4
   1  -9 -11 32.2402 5.21968   6
  -1  -9  11 27.5233 4.94358   4
   1  -9 -11 34.8665 5.82020   5
  -1   9  11 22.7870 4.75218   4
   1   9 -11 38.4609 7.70643   2
   0  -9  11 18.3821 4.63113   4
   0  -9 -11 24.9176 5.38603   6
   0   9 -11 25.2574 4.77967   2
   0   9  11 18.0830 4.21478   4
   2   0 -12 60.8803 6.79618   6
   2   0 -12 73.8935 5.81938   5
  -2   0  12 57.0794 6.00473   4
   1   0 -12 0.60603 2.92074   5
   1   0 -12 6.27427 4.83186   6
  -1   0  12 -0.2811 3.57255   4
   0   0 -12 4.96098 4.68589   6
   0   0 -12 12.8036 3.85900   5
   0   0  12 5.22467 4.01219   4
   2  -1 -12 1.58520 3.86444   6
   2  -1 -12 3.69556 3.45931   5
  -2  -1  12 1.04395 3.79300   4
   2   1 -12 0.72918 3.76399   6
   2   1 -12 2.65797 2.99104   5
  -2   1  12 3.94422 3.83245   4
   2   1 -12 3.54532 4.39111   2
  -1  -1  12 2.48262 3.93055   4
   1  -1 -12 4.77916 3.39951   5
   1   1 -12 2.87961 3.52400   6
   1   1 -12 7.37313 3.04600   5
  -1   1  12 4.45338 4.00284   4
   0  -1 -12 7.49187 3.40461   5
   0  -1  12 10.5431 3.97477   4
   0   1 -12 7.90220 3.80032   5
   0   1 -12 12.3947 3.80053   6
   0   1  12 11.7846 4.39216   4
  -2  -2  12 39.3480 4.91081   4
   2  -2 -12 52.6025 6.29288   5
   2   2 -12 43.4865 4.42118   5
  -2   2  12 33.9532 4.75403   4
   1  -2 -12 0.21534 2.93254   5
  -1  -2  12 -1.1138 3.94145   4
   1  -2 -12 4.78432 4.48535   6
   1   2 -12 3.26460 3.33862   6
   1   2 -12 -4.1356 2.76119   5
  -1   2  12 5.66453 4.09280   4
   0  -2 -12 82.2358 7.81295   6
   0  -2 -12 82.6111 6.49650   5
   0  -2  12 87.5869 7.28721   4
   0   2 -12 82.6324 6.64006   6
   0   2 -12 84.0809 6.46996   5
   0   2  12 84.8201 7.21619   4
   1  -3 -12 73.6538 5.75658   5
  -1  -3  12 60.1275 6.37119   4
   1  -3 -12 68.5339 6.85429   6
   1   3 -12 51.1990 5.71198   6
   1   3 -12 57.7945 5.01043   5
  -1   3  12 67.0668 6.41684   4
   0  -3 -12 0.99757 3.99696   6
   0  -3 -12 -1.3980 3.14268   5
   0  -3  12 7.02647 4.28587   4
   0   3  12 4.02387 4.26034   4
   0   3 -12 2.25475 3.22407   6
   0   3 -12 0.62981 3.53965   5
   1  -4 -12 -4.7540 3.74359   6
  -1  -4  12 -0.3407 3.81026   4
   1  -4 -12 -0.1482 3.29646   5
  -1   4  12 -1.0076 3.94727   4
   1   4 -12 -4.0010 2.92176   6
   1   4 -12 4.37954 3.25697   5
   0   0   0    0.00    0.00   0
 _exptl_absorpt_process_details
)
 SADABS 2016/2: Krause, L., Herbst-Irmer, R., Sheldrick G.M. & Stalke D.,
 J. Appl. Cryst. 48 (2015) 3-10
)
 _exptl_absorpt_correction_type   multi-scan
 _exptl_absorpt_correction_T_max  0.3438
 _exptl_absorpt_correction_T_min  0.1647
 _exptl_special_details
)
 The following wavelength and cell were deduced by SADABS from the
 direction cosines etc. They are given here for emergency use only:
 CELL 0.71075    4.010   13.266    7.344   90.014   97.462   89.982
)
;
_shelx_hkl_checksum              42029
_shelx_res_file
;
TITL 17226z in P2(1)/m
CELL  0.71073   4.00465  13.25850   7.33559   90.0000   97.4404   90.0000
ZERR    2.000   0.00024   0.00075   0.00044    0.0000    0.0025    0.0000
LATT  1
SYMM -X, 1/2+Y, -Z
SFAC C H BR N
UNIT 14 6 4 2
TEMP -173.140
SIZE 0.05 0.07 0.20
L.S. 10
ACTA
CONF
BOND $H
LIST 4
FMAP 2
PLAN 5
WGHT    0.020200    0.246200
EXTI    0.010217
FVAR       0.62948
BR3   3    0.846127    0.462593    0.216138    11.00000    0.02244    0.01753 =
         0.02213    0.00604    0.00792   -0.00043
N7    4    0.277402    0.250000    0.877459    10.50000    0.02291    0.03936 =
         0.01691    0.00000    0.00621    0.00000
C1    1    0.545516    0.250000    0.575139    10.50000    0.01293    0.01810 =
         0.01054    0.00000    0.00389    0.00000
C2    1    0.613402    0.341828    0.493868    11.00000    0.01485    0.01583 =
         0.01409   -0.00052    0.00359    0.00041
AFIX  43
H2    2    0.566428    0.404053    0.549506    11.00000   -1.20000
AFIX   0
C3    1    0.751203    0.339748    0.329795    11.00000    0.01388    0.01594 =
         0.01358    0.00205    0.00351   -0.00013
C4    1    0.822666    0.250000    0.244917    10.50000    0.01512    0.01805 =
         0.01233    0.00000    0.00364    0.00000
AFIX  43
H4    2    0.917204    0.250000    0.132635    10.50000   -1.20000
AFIX   0
C7    1    0.399457    0.250000    0.744388    10.50000    0.01666    0.02128 =
         0.01470    0.00000    0.00308    0.00000
HKLF 4
REM  17226z in P2(1)/m
REM R1 =  0.0244 for    1696 Fo > 4sig(Fo)  and  0.0306 for all    1945 data
REM     53 parameters refined using      0 restraints
END
WGHT      0.0201      0.2472
REM Highest difference peak  0.976,  deepest hole -0.493,  1-sigma level  0.130
Q1    1   0.3892  0.2500  0.8219  10.50000  0.05    0.98
Q2    1   0.8298  0.4381  0.1392  11.00000  0.05    0.71
Q3    1   0.8039  0.2972  0.2906  11.00000  0.05    0.52
Q4    1   0.5697  0.2937  0.5236  11.00000  0.05    0.52
Q5    1   0.4708  0.2500  0.6498  10.50000  0.05    0.50
;
_shelx_res_checksum              78529
_shelxl_version_number           2014/6
loop_
_space_group_symop_operation_xyz
'x, y, z'
'-x, y+1/2, -z'
'-x, -y, -z'
'x, -y-1/2, z'
loop_
_atom_site_type_symbol
_atom_site_label
_atom_site_fract_x
_atom_site_fract_y
_atom_site_fract_z
_atom_site_U_iso_or_equiv
_atom_site_adp_type
_atom_site_calc_flag
_atom_site_occupancy
Br Br3 0.84613(4) 0.46259(2) 0.21614(2) 0.02026(6) Uani d 1
N N7 0.2774(5) 0.2500 0.8775(3) 0.0261(4) Uani d 1
C C1 0.5455(5) 0.2500 0.5751(2) 0.0136(3) Uani d 1
C C2 0.6134(3) 0.34183(11) 0.49387(18) 0.0148(2) Uani d 1
H H2 0.5664 0.4041 0.5495 0.018 Uiso calc 1
C C3 0.7512(3) 0.33975(11) 0.32980(18) 0.0143(2) Uani d 1
C C4 0.8227(5) 0.2500 0.2449(3) 0.0150(3) Uani d 1
H H4 0.9172 0.2500 0.1326 0.018 Uiso calc 1
C C7 0.3995(5) 0.2500 0.7444(3) 0.0175(3) Uani d 1
loop_
_atom_site_aniso_label
_atom_site_aniso_U_11
_atom_site_aniso_U_22
_atom_site_aniso_U_33
_atom_site_aniso_U_12
_atom_site_aniso_U_13
_atom_site_aniso_U_23
Br3 0.02244(8) 0.01753(8) 0.02213(8) -0.00043(5) 0.00792(5) 0.00604(5)
N7 0.0229(9) 0.0394(12) 0.0169(8) 0.000 0.0062(7) 0.000
C1 0.0129(7) 0.0181(8) 0.0105(6) 0.000 0.0039(5) 0.000
C2 0.0148(5) 0.0158(6) 0.0141(5) 0.0004(4) 0.0036(4) -0.0005(4)
C3 0.0139(5) 0.0159(6) 0.0136(5) -0.0001(4) 0.0035(4) 0.0021(4)
C4 0.0151(7) 0.0180(8) 0.0123(7) 0.000 0.0036(6) 0.000
C7 0.0167(8) 0.0213(9) 0.0147(8) 0.000 0.0031(6) 0.000
loop_
_atom_type_symbol
_atom_type_description
_atom_type_scat_dispersion_real
_atom_type_scat_dispersion_imag
_atom_type_scat_source
C C 0.0033 0.0016 'International Tables Vol C Tables 4.2.6.8 and 6.1.1.4'
H H 0.0000 0.0000 'International Tables Vol C Tables 4.2.6.8 and 6.1.1.4'
Br Br -0.2901 2.4595 'International Tables Vol C Tables 4.2.6.8 and 6.1.1.4'
N N 0.0061 0.0033 'International Tables Vol C Tables 4.2.6.8 and 6.1.1.4'
loop_
_geom_angle_atom_site_label_1
_geom_angle_atom_site_label_2
_geom_angle_atom_site_label_3
_geom_angle_site_symmetry_1
_geom_angle
C2 C1 C2 4_565 121.16(16)
C2 C1 C7 4_565 119.42(8)
C2 C1 C7 . 119.42(8)
C3 C2 C1 . 118.28(13)
C3 C2 H2 . 120.9
C1 C2 H2 . 120.9
C2 C3 C4 . 122.25(13)
C2 C3 Br3 . 119.38(11)
C4 C3 Br3 . 118.37(10)
C3 C4 C3 4_565 117.78(16)
C3 C4 H4 4_565 121.1
C3 C4 H4 . 121.1
N7 C7 C1 . 178.8(2)
loop_
_geom_bond_atom_site_label_1
_geom_bond_atom_site_label_2
_geom_bond_site_symmetry_2
_geom_bond_distance
Br3 C3 . 1.8906(13)
N7 C7 . 1.147(3)
C1 C2 4_565 1.3977(16)
C1 C2 . 1.3977(16)
C1 C7 . 1.439(3)
C2 C3 . 1.3878(18)
C2 H2 . 0.9500
C3 C4 . 1.3898(17)
C4 C3 4_565 1.3898(17)
C4 H4 . 0.9500
loop_
_geom_torsion_atom_site_label_1
_geom_torsion_atom_site_label_2
_geom_torsion_atom_site_label_3
_geom_torsion_atom_site_label_4
_geom_torsion_site_symmetry_1
_geom_torsion_site_symmetry_4
_geom_torsion
C2 C1 C2 C3 4_565 . -0.1(3)
C7 C1 C2 C3 . . -179.38(17)
C1 C2 C3 C4 . . 0.0(2)
C1 C2 C3 Br3 . . 180.00(12)
C2 C3 C4 C3 . 4_565 0.1(3)
Br3 C3 C4 C3 . 4_565 -179.91(9)

_cod_database_fobs_code 1548675
