#------------------------------------------------------------------------------
#$Date: 2018-02-21 09:25:54 +0200 (Wed, 21 Feb 2018) $
#$Revision: 206533 $
#$URL: file:///home/coder/svn-repositories/cod/cif/1/54/89/1548973.cif $
#------------------------------------------------------------------------------
#
# This file is available in the Crystallography Open Database (COD),
# http://www.crystallography.net/. The original data for this entry
# were provided by IUCr Journals, http://journals.iucr.org/.
#
# The file may be used within the scientific community so long as
# proper attribution is given to the journal article from which the
# data were obtained.
#
data_1548973
loop_
_publ_author_name
'Szell, Patrick M.J.'
'Gabidullin, Bulat'
'Bryce, David L.'
_publ_section_title
;
 3-(1,2,2-Triiodoethenyl)benzoic acid
;
_journal_coeditor_code           LH4031
_journal_issue                   2
_journal_name_full               IUCrData
_journal_page_first              x180258
_journal_paper_doi               10.1107/S2414314618002584
_journal_volume                  3
_journal_year                    2018
_chemical_formula_iupac          'C9 H5 I3 O2'
_chemical_formula_moiety         'C9 H5 I3 O2'
_chemical_formula_sum            'C9 H5 I3 O2'
_chemical_formula_weight         525.83
_chemical_name_common            '3-(1,2,2-triiodovinyl)benzoic acid'
_chemical_name_systematic
;
3-(1,2,2-Triiodoethenyl)benzoic acid
;
_space_group_crystal_system      monoclinic
_space_group_IT_number           14
_space_group_name_Hall           '-P 2yn'
_space_group_name_H-M_alt        'P 1 21/n 1'
_symmetry_space_group_name_Hall  '-P 2yn'
_symmetry_space_group_name_H-M   'P 1 21/n 1'
_atom_sites_solution_hydrogens   mixed
_audit_creation_method           SHELXL-2016/6
_cell_angle_alpha                90
_cell_angle_beta                 92.379(5)
_cell_angle_gamma                90
_cell_formula_units_Z            4
_cell_length_a                   4.7121(9)
_cell_length_b                   18.752(4)
_cell_length_c                   13.856(3)
_cell_measurement_reflns_used    2073
_cell_measurement_temperature    200(2)
_cell_measurement_theta_max      27.15
_cell_measurement_theta_min      2.62
_cell_volume                     1223.3(4)
_computing_cell_refinement
;
APEX2 (Bruker, 2009)
;
_computing_data_collection
;
APEX2 (Bruker, 2009)
;
_computing_data_reduction
;
SAINT (Bruker, 2009)
;
_computing_molecular_graphics
;
Mercury (Macrae et al., 2008) and PLATON (Spek, 2009)
;
_computing_publication_material
;
<i>CIFTAB</i> (Sheldrick, 1997)
;
_computing_structure_refinement
;
SHELXL2014 (Sheldrick, 2015b) and WinGX (Farrugia, 2012)
;
_computing_structure_solution
;
SHELXT (Sheldrick, 2015a)
;
_diffrn_ambient_temperature      200(2)
_diffrn_measured_fraction_theta_full 0.997
_diffrn_measured_fraction_theta_max 0.984
_diffrn_measurement_device_type  'Bruker APEXII CCD'
_diffrn_measurement_method       '\f and \w scans'
_diffrn_radiation_type           MoK\a
_diffrn_radiation_wavelength     0.71073
_diffrn_reflns_av_R_equivalents  0.0654
_diffrn_reflns_limit_h_max       6
_diffrn_reflns_limit_h_min       -6
_diffrn_reflns_limit_k_max       24
_diffrn_reflns_limit_k_min       -24
_diffrn_reflns_limit_l_max       18
_diffrn_reflns_limit_l_min       -18
_diffrn_reflns_number            9164
_diffrn_reflns_theta_full        25.242
_diffrn_reflns_theta_max         28.444
_diffrn_reflns_theta_min         1.828
_exptl_absorpt_coefficient_mu    7.639
_exptl_absorpt_correction_T_max  0.7457
_exptl_absorpt_correction_T_min  0.4852
_exptl_absorpt_correction_type   multi-scan
_exptl_absorpt_process_details
;
(SADABS; Bruker, 2004)
;
_exptl_crystal_colour            colourless
_exptl_crystal_density_diffrn    2.855
_exptl_crystal_description       prism
_exptl_crystal_F_000             936
_exptl_crystal_size_max          0.481
_exptl_crystal_size_mid          0.158
_exptl_crystal_size_min          0.062
_refine_diff_density_max         1.137
_refine_diff_density_min         -1.105
_refine_ls_extinction_method     none
_refine_ls_goodness_of_fit_ref   0.985
_refine_ls_hydrogen_treatment    mixed
_refine_ls_matrix_type           full
_refine_ls_number_parameters     159
_refine_ls_number_reflns         3033
_refine_ls_number_restraints     97
_refine_ls_restrained_S_all      0.972
_refine_ls_R_factor_all          0.1265
_refine_ls_R_factor_gt           0.0404
_refine_ls_shift/su_max          0.001
_refine_ls_shift/su_mean         0.000
_refine_ls_structure_factor_coef Fsqd
_refine_ls_weighting_details
'w=1/[\s^2^(Fo^2^)+(0.0238P)^2^+0.1535P] where P=(Fo^2^+2Fc^2^)/3'
_refine_ls_weighting_scheme      calc
_refine_ls_wR_factor_gt          0.0595
_refine_ls_wR_factor_ref         0.0778
_reflns_number_gt                1539
_reflns_number_total             3033
_reflns_threshold_expression     'I > 2\s(I)'
_cod_data_source_file            lh4031sup1.cif
_cod_data_source_block           I
_cod_database_code               1548973
_shelx_space_group_comment
;
The symmetry employed for this shelxl refinement is uniquely defined
by the following loop, which should always be used as a source of
symmetry information in preference to the above space-group names.
They are only intended as comments.
;
_shelx_estimated_absorpt_t_min   0.120
_shelx_estimated_absorpt_t_max   0.649
_shelx_hkl_file
;
   1   0   0    0.20    3.20
  -1   0   0    2.90    3.60
   1   0   0    3.50    4.10
   1   0   0   -5.10    8.10
  -1   0   0    0.10    4.30
  -1   0   0   -1.20    7.50
   2   0   0   89.19    6.80
   2   0   0   85.79   10.50
   2   0   0   90.39    8.80
  -2   0   0   86.69   10.80
  -2   0   0   87.09    8.80
  -3   0   0   -0.80    8.10
   3   0   0    5.70   14.40
  -3   0   0    2.00    7.10
  -4   0   0  223.58   23.60
  -4   0   0  312.27   20.20
   4   0   0  269.07   23.60
   5   0   0   34.50   23.70
   6   0   0   26.00   27.00
   0  -1   0   -0.10    0.30
   0  -1   0    0.10    0.50
   0   1   0    0.90    0.80
   0   1   0    1.20    0.80
   0   1   0    0.20    0.40
   1  -1   0  986.00   23.40
  -1  -1   0 1024.00   24.00
  -1  -1   0 1008.20   22.20
   1  -1   0  956.60   20.70
   1  -1   0  997.80   23.50
  -1  -1   0  972.80   19.00
  -1   1   0  988.70   23.60
  -1   1   0  978.60   21.30
   1   1   0  964.70   23.60
  -2  -1   0  370.26   11.80
   2  -1   0  377.86   18.10
   2  -1   0  359.06   15.20
   2  -1   0  342.97   12.30
  -2  -1   0  342.57   15.00
  -2   1   0  353.06   16.60
  -2   1   0  360.16   13.70
   2   1   0  333.57   17.40
   3  -1   0  204.88   20.60
  -3  -1   0  205.88   13.10
  -3  -1   0  217.18   16.20
  -3   1   0  213.88   14.90
   3   1   0  220.78   17.60
  -3   1   0  218.78   19.40
   4  -1   0   30.70   20.40
  -4  -1   0   -5.20   10.90
  -4  -1   0    8.90   11.10
  -4   1   0    6.60   12.50
  -4   1   0   -4.00   11.30
   4   1   0   -1.90   18.80
   5  -1   0   86.59   25.50
   5   1   0   67.69   21.20
  -5   1   0   38.60   14.70
   6  -1   0    7.50   25.70
   6   1   0   -6.60   26.30
   0  -2   0 1936.61   34.00
   0  -2   0 1886.51   33.80
   0  -2   0 1847.62   37.20
   0   2   0 1853.81   37.30
   0   2   0 1917.91   33.80
   0   2   0 1890.81   34.00
   1  -2   0   21.50    6.20
   1  -2   0   -1.40    5.70
   1  -2   0    2.40    6.20
  -1  -2   0    5.80    2.70
   1   2   0   -2.10    6.90
  -1   2   0    6.40    9.50
  -1   2   0   -0.90    6.40
   2  -2   0  100.49   10.80
  -2  -2   0  110.29    7.20
  -2  -2   0   91.99    9.80
  -2   2   0   99.29   10.70
   2   2   0  109.29   13.20
  -2   2   0  100.29   12.70
   3  -2   0  166.38   19.80
  -3  -2   0  192.68   15.60
  -3  -2   0  182.98   12.40
  -3   2   0  181.98   15.60
   3   2   0  194.68   20.60
  -3   2   0  164.78   19.60
   4  -2   0    1.90   19.60
  -4  -2   0    0.80   10.40
  -4   2   0    4.80   13.50
  -4   2   0  -13.50   11.10
   4   2   0   34.10   21.10
   5  -2   0   47.10   23.60
   5   2   0   26.20   24.60
  -5   2   0   17.70   15.20
   6  -2   0   41.80   21.50
   6   2   0   26.50   27.60
   0  -3   0    5.70    4.50
   0  -3   0    2.50    3.50
   0  -3   0    0.70    3.00
   0   3   0    1.70    3.30
   0   3   0    5.40    4.90
   0   3   0    2.70    3.80
  -1  -3   0  236.38    6.40
   1  -3   0  279.57   17.10
   1  -3   0  259.17   12.20
   1   3   0  233.98   13.80
  -1   3   0  287.47   16.60
  -1   3   0  240.48   12.10
  -2  -3   0 1386.66   27.50
  -2  -3   0 1397.76   33.90
   2  -3   0 1392.96   35.00
  -2   3   0 1376.86   33.10
   2   3   0 1394.66   35.70
  -2   3   0 1364.76   37.50
   3  -3   0   22.70   15.20
  -3  -3   0    9.40    6.30
  -3  -3   0   15.00    7.00
  -3   3   0   15.30    9.90
  -3   3   0   20.40   10.00
   3   3   0   34.70   15.90
   4  -3   0  130.09   20.20
  -4  -3   0  120.39   14.90
   4   3   0  143.49   24.50
  -4   3   0   76.49   15.40
  -4   3   0   99.69   16.00
   5  -3   0   15.10   22.70
   5   3   0  -12.50   16.40
  -5   3   0   -6.00   13.70
   6  -3   0   34.80   26.00
   6   3   0    5.20   26.10
   0  -4   0 1319.27   33.10
   0  -4   0 1267.37   26.10
   0  -4   0 1303.47   26.70
   0   4   0 1270.57   34.00
   0   4   0 1314.47   26.50
   0   4   0 1279.67   26.40
  -1  -4   0  452.65   10.30
  -1   4   0  506.85   21.70
  -1   4   0  458.05   16.00
   1   4   0  446.46   16.60
  -2  -4   0  599.04   14.00
   2  -4   0  589.84   21.60
   2   4   0  603.14   22.90
  -2   4   0  627.64   21.60
  -2   4   0  577.54   25.60
  -3  -4   0  221.98   16.20
  -3  -4   0  222.78   11.60
   3  -4   0  224.18   21.40
  -3   4   0  245.58   24.60
   3   4   0  210.18   18.00
  -3   4   0  199.68   16.70
  -4  -4   0   49.20   10.50
   4  -4   0   61.89   20.90
  -4   4   0   63.59   16.50
   4   4   0   50.29   21.10
  -4   4   0   36.70   15.00
   5  -4   0   45.50   23.50
  -5   4   0   -1.60   15.10
   5   4   0   68.59   25.80
   6  -4   0   50.09   26.60
   6   4   0   29.30   28.20
   0  -5   0   -4.00    5.90
   0   5   0    4.80    6.30
   0   5   0    2.10    6.10
   0   5   0    2.20    9.20
  -1  -5   0 1812.42   33.50
  -1  -5   0 1758.42   33.30
  -1   5   0 1828.12   38.60
  -1   5   0 1760.72   45.60
  -2  -5   0  471.65   12.00
   2  -5   0  462.15   19.40
  -2   5   0  473.45   25.60
  -2   5   0  485.65   19.50
   2   5   0  484.85   21.50
   3  -5   0  323.07   23.40
  -3  -5   0  346.87   19.30
  -3  -5   0  353.96   13.40
  -3   5   0  376.66   20.80
  -3   5   0  371.16   28.10
   3   5   0  329.87   24.60
   4  -5   0   84.49   20.90
  -4   5   0   31.00   14.50
   4   5   0   78.29   18.40
  -4   5   0   17.50   15.30
   5  -5   0   32.50   22.20
   5   5   0   13.30   22.40
  -5   5   0   -9.40   13.50
   6  -5   0   26.10   25.80
   6   5   0    4.80   28.30
   0  -6   0 3056.49   58.79
   0   6   0 3112.99   57.99
   0   6   0 3114.69   68.79
  -1  -6   0 1019.80   21.70
  -1  -6   0 1046.40   21.80
  -1   6   0  996.30   34.10
  -1   6   0 1027.50   26.70
  -2  -6   0  489.95   12.30
   2  -6   0  476.35   20.10
  -2   6   0  469.75   26.20
  -2   6   0  476.95   20.60
   2   6   0  504.65   22.40
  -3  -6   0  127.29    9.40
  -3  -6   0  132.59   15.10
   3  -6   0  106.99   18.30
  -3   6   0  147.89   26.50
   3   6   0  122.49   19.80
  -3   6   0  109.29   15.90
   4  -6   0   -6.70   17.60
  -4   6   0   -2.40   13.50
   4   6   0   24.00   19.20
  -4   6   0   -4.50   14.60
   5  -6   0   42.90   22.50
  -5   6   0  -13.10   15.40
   5   6   0   16.40   24.30
   6  -6   0   36.60   26.00
   6   6   0   12.80   29.80
  -6   6   0  -16.30   18.50
   0  -7   0    2.80    5.50
   0   7   0    4.20    6.80
   0   7   0    1.50    9.30
  -1  -7   0  438.06   13.00
  -1   7   0  442.36   25.40
  -1   7   0  462.75   18.00
   1   7   0  436.26    9.70
   2  -7   0   94.49   12.90
  -2  -7   0   75.19    6.40
  -2   7   0   79.29   12.90
  -2   7   0   63.79   12.70
   2   7   0   82.19   14.70
  -3  -7   0   78.89    8.70
   3  -7   0   75.69   17.20
  -3   7   0   70.59   15.60
   3   7   0   80.29   19.20
  -3   7   0   56.09   14.70
   4  -7   0    0.30   13.30
  -4   7   0  -10.00   13.90
  -4   7   0   -6.80   14.30
   4   7   0   25.40   20.00
   5  -7   0    6.30   21.50
   5   7   0   -6.80   22.50
  -5   7   0   -7.90   17.00
   6  -7   0   -0.50   29.40
  -6   7   0  -25.90   16.30
   0  -8   0  896.51   24.10
   0   8   0  920.41   35.20
   0   8   0  902.91   23.50
  -1  -8   0  203.38   10.00
  -1   8   0  192.28   16.10
   1   8   0  225.68    7.60
  -1   8   0  207.78   22.80
   1   8   0  200.88    7.30
   2  -8   0 1536.95   39.60
  -2  -8   0 1600.34   31.80
  -2   8   0 1558.64   40.90
  -2   8   0 1479.05   51.39
  -3  -8   0  587.04   17.00
   3  -8   0  561.64   28.40
   3   8   0  596.84   30.90
  -3   8   0  639.14   39.90
  -3   8   0  549.74   27.80
   4  -8   0   12.50   17.90
   4   8   0    6.20   20.30
  -4   8   0   -3.40   14.40
  -4   8   0   -7.60   15.30
   5  -8   0    8.50   20.90
  -5   8   0  -22.40   16.10
   5   8   0   13.90   24.10
   0  -9   0    7.70    7.00
   0   9   0    2.30   10.80
   0   9   0    9.20    8.30
  -1  -9   0  329.87   13.50
  -1   9   0  326.37   17.80
   1   9   0  330.47   10.70
   1   9   0  321.47   10.10
  -1   9   0  353.06   27.90
  -2  -9   0  258.47   11.00
  -2   9   0  263.87   19.80
  -2   9   0  269.47   28.00
   3  -9   0   47.00   17.10
  -3  -9   0   57.29    7.60
  -3   9   0   45.20   16.10
   3   9   0   58.69   19.70
  -3   9   0   39.90   16.40
   4  -9   0   46.60   19.50
   4   9   0   22.00   16.40
  -4   9   0   17.50   16.90
  -4   9   0   -1.80   14.90
   5  -9   0   45.00   22.80
   5   9   0   41.70   25.20
  -5   9   0   -4.50   17.50
   0 -10   0  258.87   13.60
   0  10   0  264.97   14.80
   0  10   0  258.27   26.20
  -1 -10   0  112.99    9.60
   1  10   0  110.29    8.40
  -1  10   0   84.89   16.10
   1  10   0  117.69    7.60
  -1  10   0  115.89   14.90
  -2 -10   0   47.10    7.40
  -2  10   0   45.10   15.70
  -2  10   0   34.80   14.50
   3 -10   0  407.86   26.70
  -3  10   0  400.76   27.00
  -3  10   0  472.55   42.00
   4 -10   0  157.18   24.00
   4  10   0  222.08   28.80
  -4  10   0   98.39   21.80
  -4  10   0  135.99   20.90
   5 -10   0   22.40   21.70
  -5  10   0  -18.00   17.60
   5  10   0    9.00   24.70
   0 -11   0    0.80    7.00
   0  11   0    4.30   12.00
   0  11   0    0.30    8.90
  -1 -11   0  301.57   14.70
  -1  11   0  315.37   31.40
   1  11   0  279.97   12.40
   1  11   0  307.97   11.60
  -1  11   0  300.77   19.00
  -2 -11   0   96.29   10.50
  -2  11   0   92.79   16.40
  -2  11   0   70.29   18.40
   3 -11   0   36.10   17.60
  -3  11   0   28.80   16.60
  -3  11   0   21.00   19.70
   4 -11   0   71.09   21.10
  -4  11   0   76.69   22.30
  -4  11   0   99.39   21.40
   5 -11   0   25.10   21.60
  -5  11   0  -21.30   18.10
   5  11   0    1.30   25.10
   0 -12   0  594.24   22.10
   0  12   0  621.24   38.30
   0  12   0  618.14   22.30
  -1 -12   0   -2.90    7.10
   1  12   0   -0.60    7.40
   1  12   0    1.70    6.20
  -1  12   0    0.60   15.30
  -1  12   0    0.70   13.40
  -2 -12   0  156.78   12.40
  -2  12   0  139.49   24.30
  -2  12   0  165.18   21.20
   3 -12   0    7.40   16.20
  -3  12   0   10.60   16.70
  -3  12   0    6.60   15.30
   4 -12   0   69.99   21.60
  -4  12   0   26.70   20.60
  -4  12   0   45.20   19.00
   5 -12   0   17.20   22.60
  -5  12   0  -13.50   17.00
   0  13   0    2.90   10.60
  -1 -13   0  888.21   27.40
  -1  13   0  907.51   48.40
  -1  13   0  882.51   32.30
   1  13   0  873.31   22.30
  -2 -13   0   17.00    8.70
  -2  13   0   20.40   18.30
  -2  13   0    8.50   15.20
   3 -13   0  206.98   23.90
  -3  13   0  121.29   20.50
  -3  13   0  119.09   22.90
   4 -13   0  -22.60   18.00
  -4  13   0   -3.80   16.40
  -4  13   0    1.20   20.20
   5 -13   0    3.30   22.90
  -5  13   0  -17.80   17.30
   0  14   0   29.00   12.30
  -1 -14   0  114.49   13.60
   1  14   0   96.99   11.10
  -1  14   0   94.49   17.00
  -1  14   0   62.09   20.00
  -2 -14   0  760.92   25.10
  -2  14   0  784.42   34.00
  -2  14   0  744.03   49.10
   3 -14   0   33.90   19.40
  -3  14   0   18.10   18.90
  -3  14   0   24.10   16.90
   4 -14   0   13.40   19.40
  -4  14   0   -6.90   20.80
  -4  14   0   26.50   18.00
   5 -14   0   12.60   22.90
  -5  14   0  -11.10   18.10
   0  15   0   11.50   12.30
  -1 -15   0   54.59   11.50
   1  15   0   42.00    9.10
  -1  15   0   68.09   17.00
  -1  15   0   49.10   20.30
  -2 -15   0    7.00    8.60
  -2  15   0  -11.70   16.50
  -2  15   0   40.40   17.30
   3 -15   0   -6.00   18.20
  -3  15   0   -7.60   18.50
  -3  15   0    4.10   17.00
   4 -15   0  -20.70   19.30
  -4  15   0  -37.80   20.90
  -4  15   0  -15.20   17.30
   5 -15   0    6.10   22.90
  -5  15   0  -19.90   23.40
   0  16   0   12.90   13.20
  -1 -16   0  331.87   20.60
  -1  16   0  361.46   23.90
  -1  16   0  350.86   40.40
  -2 -16   0  212.68   16.30
  -2  16   0  165.78   22.10
  -2  16   0  136.09   27.20
   3 -16   0    7.20   20.40
  -3  16   0   -1.40   19.40
  -3  16   0    1.70   17.20
   4 -16   0   -1.60   20.10
  -4  16   0  -29.10   18.90
   0  17   0    0.60   13.00
  -1 -17   0    1.60   10.20
  -1  17   0    7.40   18.50
  -1  17   0   -0.50   14.20
  -2  17   0  -16.30   17.70
  -2  17   0   -5.40   18.50
   3 -17   0   10.90   23.70
  -3  17   0   -3.00   19.00
  -3  17   0    9.80   20.20
   4 -17   0   43.50   23.90
  -4  17   0  -28.80   21.10
  -4  17   0  -22.70   17.80
   0  18   0  193.28   20.00
  -1 -18   0  248.78   18.70
  -1  18   0  199.58   23.80
  -2  18   0   -1.90   19.90
  -2  18   0   -3.70   17.00
   3 -18   0  -28.40   20.30
  -3  18   0  -11.30   22.50
  -3  18   0  -11.80   18.30
   4 -18   0   -8.00   21.80
  -4  18   0   40.70   22.80
  -4  18   0  -18.20   23.00
   0  19   0    5.00   12.90
  -1  19   0  216.58   24.70
  -2  19   0   -4.80   20.80
  -2  19   0  -25.50   16.90
   3 -19   0  -19.40   22.10
  -3  19   0   -2.80   24.90
  -3  19   0   10.10   19.40
   4 -19   0   -9.20   25.80
   0  20   0   -9.80   13.30
  -1  20   0  154.08   22.70
  -2  20   0    3.20   18.30
   3 -20   0  -34.00   22.30
  -3  20   0   -0.20   22.80
  -3  20   0    2.30   21.30
  -1  21   0  159.58   22.80
  -2  21   0   -2.20   18.10
   3 -21   0    7.60   25.10
  -3  21   0    9.90   20.30
  -1  22   0   78.99   20.80
  -2  22   0   -7.90   20.40
   3 -22   0  -40.60   23.70
  -3  22   0    8.30   24.60
  -1  23   0   -0.60   18.10
  -2  23   0    0.40   21.40
   6   0  -1   25.80   28.10
   5   0  -1  -10.90   23.30
  -4   0   1   -3.60   11.30
   4   0  -1   22.60   20.50
  -4   0   1   -6.90   10.80
  -3   0   1   26.00    8.70
  -3   0   1   35.70    9.30
   3   0  -1   30.80   15.10
  -2   0   1    3.80    5.40
   2   0  -1    6.50   10.40
  -2   0   1    9.90    5.80
  -1   0   1    0.30    4.40
  -1   0   1    3.40    6.00
   1   0  -1   -0.50    6.60
   1   0  -1    1.90    4.10
   0   0   1    0.60    1.10
   0   0  -1   -0.10    1.30
   0   0  -1    0.30    1.00
   0   0   1    1.20    1.30
   1   0   1 4816.02   86.69
  -1   0  -1 4793.62   84.09
  -1   0  -1 4737.53   85.09
   1   0   1 4975.00   85.19
   2   0   1    2.00    9.60
  -2   0  -1    1.90    4.20
  -2   0  -1    4.10    6.20
   2   0   1    0.80    5.20
   2   0   1    0.60    2.90
   3   0   1 1121.89   36.40
  -3   0  -1 1120.19   30.90
  -3   0  -1 1127.29   30.20
   4   0   1   -5.50   19.60
  -4   0  -1    1.60   11.40
   5   0   1   45.60   23.90
  -5   0  -1   13.30   14.10
   6   0   1   24.10   26.50
   6  -1  -1   27.90   27.10
   6   1  -1   29.20   27.90
   5  -1  -1  125.89   27.40
   5   1  -1  102.89   23.10
  -4  -1   1   38.90   12.10
   4  -1  -1   44.10   17.30
  -4  -1   1   28.90   12.00
  -4   1   1   27.30   13.30
  -4   1   1   29.20   12.80
   4   1  -1   55.29   22.00
   3  -1  -1  209.28   21.10
  -3  -1   1  196.88   18.20
  -3  -1   1  191.18   12.90
  -3   1   1  196.68   19.00
   3   1  -1  208.88   21.20
  -3   1   1  197.28   14.80
   2  -1  -1 1103.09   29.50
  -2  -1   1 1114.99   23.70
  -2  -1   1 1098.89   30.80
  -2   1   1 1076.39   25.80
   2   1  -1 1116.29   30.60
  -2   1   1 1077.09   31.70
  -1  -1   1   70.09   10.00
   1  -1  -1  109.19   11.10
   1  -1  -1   94.99    9.90
  -1  -1   1  106.39   11.50
  -1   1   1   83.59    8.00
  -1   1   1  105.59   12.10
   1   1  -1   78.59    8.60
   0  -1  -1  162.88    5.20
   0  -1  -1  146.09    6.00
   0  -1   1  149.19    4.10
   0   1  -1  154.28    4.20
   0   1   1  162.28    5.00
   0   1   1  145.89    6.30
  -1  -1  -1 7128.29  125.99
  -1  -1  -1 7785.62  129.79
   1  -1   1 7087.49  125.59
  -1  -1  -1 7152.28  126.59
   1  -1   1 7031.00  125.89
   1  -1   1 6902.01  124.29
   1   1   1 7207.68  125.39
  -1   1  -1 7143.89  124.89
  -1   1  -1 6952.20  131.19
   1   1   1 7085.59  126.29
  -1   1  -1 7144.69  125.29
   2  -1   1  718.73   19.90
  -2  -1  -1  710.33   18.70
   2  -1   1  727.93   23.40
  -2  -1  -1  723.23   18.70
   2   1   1  695.53   17.00
  -2   1  -1  754.82   21.40
  -2   1  -1  713.63   20.30
   2   1   1  732.93   23.70
  -3  -1  -1   47.30    9.40
  -3  -1  -1   34.20    7.00
   3  -1   1   69.49   13.60
  -3   1  -1   51.69   11.10
  -3   1  -1   37.10    8.40
   3   1   1   38.60   15.30
   3   1   1   40.60    5.80
  -4  -1  -1    0.80   11.00
   4  -1   1   22.00   19.70
   4   1   1    3.40   19.20
  -4   1  -1   -8.30   10.80
   5  -1   1   28.90   22.70
   5   1   1   50.09   23.80
   6  -1   1   31.10   26.40
   6   1   1   10.00   26.20
   6  -2  -1   36.80   27.20
   6   2  -1   37.90   27.00
   5  -2  -1   35.20   23.80
   5   2  -1   60.59   25.30
  -5   2   1   16.70   15.00
  -4  -2   1   26.50   11.00
   4  -2  -1   32.10   20.40
  -4  -2   1    4.70   10.30
  -4   2   1   16.70   13.10
  -4   2   1   14.40   13.70
   4   2  -1   21.50   20.90
  -3  -2   1  132.79   16.10
  -3  -2   1  134.99   10.80
   3  -2  -1  142.59   19.30
  -3   2   1  125.09   13.80
   3   2  -1  119.09   18.30
  -3   2   1  130.39   19.20
   2  -2  -1   80.49   12.60
  -2  -2   1   76.99   10.80
  -2  -2   1   74.99    6.20
   2   2  -1   94.29   12.90
  -2   2   1   81.79    9.90
  -2   2   1   90.19   13.90
   1  -2  -1  630.14   18.30
   1  -2  -1  631.94   21.90
   1   2  -1  600.14   17.20
  -1   2   1  638.04   21.70
  -1   2   1  613.54   17.40
   0  -2  -1   86.19    7.00
   0  -2  -1   88.19    5.00
   0  -2   1   91.79    4.10
   0   2   1   90.19    5.20
   0   2   1   91.89    7.40
   0   2  -1   89.99    4.30
  -1  -2  -1  246.18   11.20
   1  -2   1  248.68   12.20
   1  -2   1  236.58   11.50
  -1  -2  -1  247.58    8.70
   1  -2   1  274.87   13.30
   1   2   1  230.08   13.40
  -1   2  -1  239.38   11.40
   1   2   1  244.38    8.20
  -1   2  -1  273.87   14.70
  -1   2  -1  248.78   11.50
  -2  -2  -1   89.49    8.10
   2  -2   1   92.79   10.30
  -2  -2  -1  107.29    8.30
   2  -2   1  117.49   13.00
  -2   2  -1   86.49   10.20
   2   2   1   97.19    6.30
   2   2   1  102.89   12.90
  -2   2  -1  107.69   13.00
   3  -2   1  143.99   18.80
  -3  -2  -1  153.78   12.80
  -3  -2  -1  156.18   12.00
   3   2   1  154.38   16.10
  -3   2  -1  151.78   15.80
  -3   2  -1  150.38   17.40
  -4  -2  -1   37.30   12.00
   4  -2   1   45.60   16.50
  -4   2  -1   17.70   12.30
   4   2   1   41.60   16.90
   5  -2   1   20.00   22.10
   5   2   1   39.30   24.10
  -5   2  -1   22.80   15.20
   6  -2   1   43.10   26.60
   6   2   1   33.10   27.20
   6  -3  -1   25.90   20.90
   6   3  -1    8.00   21.20
   5  -3  -1    5.20   23.30
  -5   3   1  -17.70   13.40
   5   3  -1  -10.80   21.60
  -4  -3   1   19.00   10.80
   4  -3  -1   34.70   20.40
  -4  -3   1   31.00   10.40
   4   3  -1   15.80   20.20
  -4   3   1   13.80   13.60
  -4   3   1    0.80   14.20
  -3  -3   1  605.84   17.50
  -3  -3   1  602.34   26.00
   3  -3  -1  575.44   25.10
  -3   3   1  606.24   23.90
  -3   3   1  603.74   30.30
   3   3  -1  590.14   25.70
  -2  -3   1  782.82   15.70
   2  -3  -1  784.82   25.00
  -2  -3   1  771.42   25.40
  -2   3   1  739.13   22.20
  -2   3   1  720.43   27.30
   2   3  -1  759.42   25.30
  -1   3   1  131.19   10.80
   1   3  -1  110.89    9.20
   0  -3   1   81.39    5.50
   0  -3  -1   86.49    6.40
   0  -3  -1   75.79    9.70
   0   3  -1   80.79    5.70
   0   3   1   83.59    6.70
   0   3   1   80.09    6.50
   0   3   1  103.69   10.80
  -1  -3  -1 2664.23   52.29
   1  -3   1 2569.94   54.69
   1  -3   1 2598.14   50.19
  -1  -3  -1 2629.44   48.10
  -1   3  -1 2698.93   51.29
  -1   3  -1 2619.54   55.19
   1   3   1 2714.63   52.49
   1   3   1 2677.13   47.30
  -2  -3  -1  443.66   13.40
   2  -3   1  445.36   18.80
  -2  -3  -1  447.76   15.00
  -2   3  -1  458.45   20.40
   2   3   1  439.26   17.90
  -2   3  -1  429.96   17.00
  -3  -3  -1  332.67   15.10
  -3  -3  -1  334.07   16.00
   3  -3   1  308.67   22.50
  -3   3  -1  349.17   20.10
  -3   3  -1  348.97   22.30
   3   3   1  357.76   23.50
   4  -3   1   12.90   18.70
  -4  -3  -1  -11.10    9.60
   4   3   1    9.60   18.80
  -4   3  -1  -10.60   13.10
   5  -3   1   37.40   22.90
  -5   3  -1    0.40   14.60
   5   3   1   12.40   18.20
   6  -3   1    7.90   24.00
   6   3   1    9.30   25.50
   6  -4  -1   25.50   25.90
   6   4  -1    8.30   27.60
   5  -4  -1   94.29   25.70
  -5   4   1   46.60   17.30
   5   4  -1  100.09   27.60
  -4  -4   1   16.60    9.90
   4  -4  -1   45.70   16.60
  -4   4   1    3.80   15.00
   4   4  -1   39.30   16.90
  -4   4   1   31.40   13.80
  -3  -4   1  889.91   21.40
   3  -4  -1  865.91   30.50
  -3  -4   1  883.31   31.60
  -3   4   1  870.21   29.70
   3   4  -1  843.82   33.50
  -3   4   1  895.91   37.70
  -2  -4   1   44.00    3.40
   2  -4  -1   47.60    9.60
  -2   4   1   34.00    9.90
   2   4  -1   42.20   12.00
  -2   4   1   29.20    9.10
  -1   4   1 3300.57   71.29
  -1   4   1 3407.96   64.49
   1   4  -1 3418.76   64.69
   0  -4  -1  141.99   15.20
   0  -4   1  101.19    7.90
   0  -4  -1   97.49    8.10
   0  -4   1  102.59   16.20
   0   4   1   90.09    9.10
   0   4  -1   93.79    6.90
   0   4   1  109.89   10.30
   0   4  -1  106.79    8.00
  -1  -4  -1  489.55   12.70
  -1  -4  -1  508.15   19.70
  -1   4  -1  484.85   20.80
   1   4   1  492.15   11.50
  -1   4  -1  487.25   16.30
   1   4   1  471.65   15.90
   2  -4   1   10.40    9.80
  -2  -4  -1    4.30    4.70
  -2   4  -1    2.10    8.00
  -2   4  -1   12.90    8.80
   2   4   1    0.80    8.10
   3  -4   1   38.10   15.70
  -3  -4  -1   36.20    6.60
  -3  -4  -1   43.60    8.10
   3   4   1   50.59   16.40
  -3   4  -1   45.20   12.40
  -3   4  -1   31.80   11.10
   4  -4   1   13.60   18.40
  -4  -4  -1   -0.70    8.90
  -4   4  -1    6.10   12.90
  -4   4  -1    5.50   12.90
   4   4   1   15.20   19.40
   5  -4   1   27.80   22.10
  -5   4  -1   -2.10   13.50
   5   4   1   32.10   24.30
   6  -4   1    3.60   23.80
   6   4   1   10.20   26.70
   6  -5  -1   -3.10   25.00
   6   5  -1   25.40   29.20
   5  -5  -1   12.10   17.60
  -5   5   1   -6.00   15.00
   5   5  -1   28.50   23.50
  -4  -5   1  194.18   21.50
   4  -5  -1  217.48   26.20
   4   5  -1  174.88   21.60
  -4   5   1  206.28   20.40
  -4   5   1  169.88   29.30
  -3  -5   1   11.60    5.30
  -3  -5   1    5.40    7.50
   3  -5  -1   19.10   12.10
  -3   5   1    6.30   11.10
   3   5  -1   22.90   16.10
  -3   5   1   15.90   12.90
   2  -5  -1   78.39   12.80
  -2  -5   1   72.59    3.10
   2   5  -1   85.29   12.00
  -2   5   1   55.49   11.10
  -2   5   1   77.69   13.00
  -1  -5   1  332.37    7.60
  -1  -5   1  329.17    7.60
   1   5  -1  339.57   14.60
  -1   5   1  342.27   15.10
  -1   5   1  339.37   20.80
   0  -5  -1 4980.00   91.69
   0   5   1 5140.49   91.39
   0   5   1 4991.80   99.69
   0   5  -1 5165.48   90.59
   0   5  -1 5125.49   90.19
  -1  -5  -1 1115.79   23.50
   1   5   1 1144.09   22.00
  -1   5  -1 1081.99   33.30
   1   5   1 1103.29   22.10
  -1   5  -1 1067.49   26.80
  -2  -5  -1  145.69    8.40
   2  -5   1  123.69   13.20
   2   5   1  161.08   15.60
  -2   5  -1  158.18   18.40
  -2   5  -1  142.69   13.80
  -3  -5  -1   24.30    6.30
   3  -5   1   21.10   15.10
  -3  -5  -1   30.00    7.50
  -3   5  -1   28.70   11.60
  -3   5  -1   23.00   12.60
   3   5   1   44.60   13.70
   4  -5   1  309.17   27.10
  -4  -5  -1  294.17   17.00
  -4   5  -1  277.17   24.40
  -4   5  -1  279.97   28.30
   4   5   1  301.07   28.10
   5  -5   1   -1.10   21.20
  -5   5  -1   13.70   16.00
   5   5   1   26.00   19.00
   6  -5   1    7.70   24.80
  -6   5  -1    0.90   19.70
   6   5   1   -5.10   26.70
   6  -6  -1   12.50   25.60
   6   6  -1    2.00   27.50
   5  -6  -1    2.70   21.00
  -5   6   1    6.70   15.30
   5   6  -1   10.40   23.90
   4  -6  -1   41.50   19.50
  -4  -6   1   29.50    9.90
  -4   6   1   15.10   16.80
  -4   6   1   52.89   15.30
   4   6  -1   59.19   21.40
  -3  -6   1   33.70    5.50
  -3  -6   1   22.10    8.40
   3  -6  -1   20.00   16.00
   3   6  -1   24.70   17.00
  -3   6   1   20.60   13.60
  -3   6   1   13.90   13.80
  -2  -6   1  144.79    4.70
   2  -6  -1  167.98   15.10
  -2   6   1  145.69   22.70
   2   6  -1  145.69   13.30
  -2   6   1  135.69   14.80
  -1  -6   1   35.90    4.10
  -1  -6   1   33.20    4.00
  -1   6   1   32.90    9.90
  -1   6   1   16.70    9.20
   0  -6  -1  247.18   12.10
   0   6  -1  251.07   10.90
   0   6  -1  263.77   10.60
   0   6   1  264.57   12.90
   0   6   1  256.67   19.50
  -1  -6  -1  871.31   20.50
   1   6   1  850.51   18.90
   1   6   1  911.31   19.10
  -1   6  -1  887.41   24.10
  -1   6  -1  874.81   31.50
  -2  -6  -1  419.26   13.10
   2  -6   1  396.26   18.00
  -2   6  -1  417.86   25.60
   2   6   1  427.86   21.00
  -2   6  -1  407.76   19.30
  -3  -6  -1  312.67   17.60
   3  -6   1  326.17   23.10
  -3  -6  -1  317.77   13.70
  -3   6  -1  316.87   27.60
  -3   6  -1  337.17   23.60
   3   6   1  346.57   21.50
   4  -6   1   35.70   18.40
  -4   6  -1   52.79   15.70
  -4   6  -1   35.90   14.10
   4   6   1   73.39   18.00
   5  -6   1   32.00   21.60
  -5   6  -1    7.30   15.20
   5   6   1   22.90   23.80
   6  -6   1   -7.60   27.10
   6   6   1    0.60   29.60
  -6   6  -1  -21.00   18.60
   6  -7  -1    5.00   28.00
  -6   7   1    5.00   17.80
   5  -7  -1   29.00   22.50
  -5   7   1   10.70   16.20
   5   7  -1   31.50   19.80
  -4  -7   1    5.90    8.70
   4  -7  -1   11.80   18.10
  -4   7   1  -15.40   12.80
   4   7  -1   12.70   20.20
  -4   7   1   -9.70   15.50
  -3  -7   1    6.60    4.60
   3  -7  -1   -0.80   15.40
  -3  -7   1    3.20    7.40
   3   7  -1   -2.10   16.60
  -3   7   1   11.60   15.10
  -3   7   1    4.60   13.40
  -2  -7   1  427.86   10.40
   2  -7  -1  448.76   20.90
  -2   7   1  471.45   21.60
  -2   7   1  447.86   30.80
   2   7  -1  464.15   22.20
  -1  -7   1  779.92   18.00
  -1   7   1  776.92   31.40
  -1   7   1  761.02   24.00
   0  -7  -1 2267.37   47.30
   0   7  -1 2373.56   45.90
   0   7   1 2318.17   46.80
   0   7   1 2316.87   58.09
  -1  -7  -1  652.03   17.70
   1   7   1  660.13   16.10
  -1   7  -1  648.24   21.10
   1   7   1  635.24   15.90
  -1   7  -1  679.73   31.30
  -2  -7  -1  109.29    8.30
   2  -7   1  108.49   13.20
   2   7   1  112.59   13.20
  -2   7  -1  106.79   14.10
  -2   7  -1   86.49   14.40
   3  -7   1  185.98   20.70
  -3  -7  -1  200.18   11.90
  -3   7  -1  197.58   22.90
   3   7   1  177.88   18.70
  -3   7  -1  181.48   27.70
   4  -7   1  137.69   22.30
   4   7   1  147.69   24.40
  -4   7  -1  106.49   18.20
  -4   7  -1   98.99   18.20
   5  -7   1    5.20   20.30
   5   7   1   31.90   23.30
  -5   7  -1  -14.40   14.50
   6  -7   1    6.10   24.00
  -6   7  -1  -28.30   18.00
   5  -8  -1   21.70   22.20
   5   8  -1   26.30   25.00
  -5   8   1  -21.30   15.30
   4  -8  -1   -2.70   18.20
  -4  -8   1    4.50   10.80
  -4   8   1   -2.20   13.70
   4   8  -1  -14.70   19.50
  -4   8   1  -13.60   16.10
   3  -8  -1    9.50   16.10
  -3  -8   1   -0.30    4.40
   3   8  -1   -2.30   17.30
  -3   8   1   -1.50   14.20
  -3   8   1   -3.00   14.40
  -2  -8   1  254.37    8.70
  -2   8   1  259.57   18.90
  -2   8   1  300.77   30.10
   2   8  -1  277.27   20.00
  -1  -8   1  207.48    9.40
  -1   8   1  217.68   23.20
  -1   8   1  207.58   15.40
   0  -8  -1  227.68   12.20
   0   8  -1  237.28   12.20
   0   8   1  242.48   13.90
   0   8   1  244.48   22.10
  -1  -8  -1  675.93   19.50
   1   8   1  740.33   18.20
   1   8   1  682.93   17.40
  -1   8  -1  730.73   33.10
  -1   8  -1  719.93   23.30
   2  -8   1   35.00   11.00
  -2  -8  -1   25.50    6.00
  -2   8  -1   10.20   11.30
  -2   8  -1    9.40   11.80
   3  -8   1  583.24   28.10
  -3  -8  -1  600.04   18.60
  -3   8  -1  620.94   30.90
   3   8   1  552.94   27.20
  -3   8  -1  625.04   38.80
   4  -8   1   19.40   17.70
  -4   8  -1   -0.70   14.80
   4   8   1   37.40   21.20
  -4   8  -1   14.20   15.30
   5  -8   1   36.00   22.20
   5   8   1   18.60   23.90
  -5   8  -1   -0.10   15.50
   5  -9  -1    0.50   21.80
   5   9  -1  -24.80   16.70
  -5   9   1    3.20   16.90
  -4  -9   1   42.50   17.50
   4  -9  -1   71.59   21.40
   4   9  -1   62.19   23.10
  -4   9   1   22.60   17.80
  -4   9   1   22.40   18.80
   3  -9  -1   36.70   14.20
  -3   9   1   14.10   15.30
  -3   9   1   14.40   18.00
   3   9  -1   30.50   18.70
  -2  -9   1 2189.38   42.80
  -2   9   1 2324.57   54.79
  -2   9   1 2200.68   66.49
  -1  -9   1 1385.96   31.10
  -1   9   1 1435.06   48.90
  -1   9   1 1460.15   37.80
   0  -9  -1   51.79    9.20
   0   9  -1   47.90    8.90
   0   9   1   41.50    9.30
   0   9   1   32.40   12.30
  -1  -9  -1   10.80    6.60
  -1   9  -1    3.20   11.30
   1   9   1   17.30    6.20
  -1   9  -1    8.30    9.80
   1   9   1    8.30    5.90
   2  -9   1  419.46   20.40
  -2  -9  -1  460.55   15.50
  -2   9  -1  418.46   22.30
  -2   9  -1  439.16   31.40
  -3  -9  -1   79.69    9.40
   3  -9   1   95.69   18.00
  -3   9  -1   79.99   17.60
   3   9   1   71.79   17.20
  -3   9  -1   65.39   18.20
   4  -9   1   17.10   16.90
  -4   9  -1   -4.40   15.50
  -4   9  -1  -11.50   15.00
   4   9   1   -5.70   19.90
   5  -9   1   52.99   25.20
  -5   9  -1   -3.40   17.70
   5   9   1   15.30   23.80
   5 -10  -1    6.00   22.20
  -5  10   1   12.00   17.30
   5  10  -1  -11.50   24.70
   4 -10  -1    5.50   19.20
  -4  10   1   -3.40   15.20
  -4  10   1  -21.10   15.50
   4  10  -1  -33.80   19.20
   3 -10  -1  458.25   28.60
  -3  10   1  421.26   38.50
   3  10  -1  440.46   30.50
  -3  10   1  429.56   27.80
  -2 -10   1  322.67   12.40
  -2  10   1  353.16   33.00
  -2  10   1  330.27   22.40
  -1 -10   1  400.06   14.70
  -1  10   1  435.36   22.10
   1  10  -1  384.96    9.70
  -1  10   1  425.66   28.10
   0 -10  -1   96.99   12.00
   0  10   1  124.69   22.80
   0  10  -1  119.09   12.20
   0  10   1  110.39   12.60
  -1 -10  -1   61.09    8.80
  -1  10  -1   47.70   12.60
  -1  10  -1   35.10   13.60
   1  10   1   60.09    7.60
  -2 -10  -1    7.40    6.40
  -2  10  -1   22.60   14.70
  -2  10  -1    4.60   13.80
  -3 -10  -1    1.30    7.20
   3 -10   1   -7.50   14.70
  -3  10  -1   -3.60   15.20
  -3  10  -1    7.30   15.40
   4 -10   1    1.10   16.90
  -4  10  -1   -1.60   16.80
   4  10   1    0.60   21.00
  -4  10  -1   17.40   16.80
   5 -10   1   14.10   20.60
  -5  10  -1  -18.40   17.50
   5  10   1  -21.60   24.00
   5 -11  -1   24.60   23.30
  -5  11   1    1.20   19.50
   5  11  -1    3.30   24.60
   4 -11  -1   17.40   20.20
  -4  11   1   -7.20   19.10
  -4  11   1   -1.90   15.80
   4  11  -1    2.50   22.40
   3 -11  -1   47.20   19.00
  -3  11   1   26.50   20.00
  -3  11   1   45.30   17.10
  -2 -11   1  337.57   14.10
  -2  11   1  359.26   35.30
  -2  11   1  327.47   23.90
  -1 -11   1 1204.88   29.80
  -1  11   1 1219.78   49.70
  -1  11   1 1281.67   35.60
   1  11  -1 1225.88   24.20
   1  11  -1 1116.69   24.60
   0 -11  -1  317.87   17.20
   0  11   1  318.07   29.20
   0  11  -1  327.07   16.00
   0  11   1  309.87   16.20
  -1 -11  -1  214.58   13.40
  -1  11  -1  208.08   17.30
   1  11   1  203.98   11.50
  -1  11  -1  218.48   28.20
  -2 -11  -1    0.40    7.10
  -2  11  -1    5.70   15.20
  -2  11  -1   -8.50   13.80
   3 -11   1   13.90   15.10
  -3 -11  -1    2.40    8.20
  -3  11  -1   12.90   16.40
  -3  11  -1   16.80   16.30
   4 -11   1   39.80   19.00
  -4  11  -1   19.00   17.00
  -4  11  -1   34.20   19.70
   5 -11   1   69.19   23.60
  -5  11  -1    9.90   17.90
   5 -12  -1   14.50   23.50
  -5  12   1    2.30   19.70
   4 -12  -1   38.70   21.50
  -4  12   1   22.00   21.40
  -4  12   1   23.30   19.40
   3 -12  -1  232.38   25.60
  -3  12   1  271.57   36.60
  -3  12   1  279.07   25.40
  -2 -12   1   64.39    9.00
  -2  12   1   49.40   18.70
  -2  12   1   42.00   16.60
  -1 -12   1  181.68   12.90
  -1  12   1  156.58   18.00
   1  12  -1  168.08    8.20
  -1  12   1  103.69   19.90
   1  12  -1  126.39    8.80
   0 -12  -1  353.16   19.00
   0  12   1  332.57   31.90
   0  12   1  337.57   18.80
   0  12  -1  338.17   17.60
  -1 -12  -1   61.09   10.00
  -1  12  -1   61.69   15.20
  -1  12  -1   51.09   17.30
   1  12   1   74.19    9.30
  -2 -12  -1  178.38   13.70
  -2  12  -1  147.99   19.30
  -2  12  -1  125.79   21.40
   3 -12   1   12.00   15.20
  -3  12  -1   19.40   18.50
  -3  12  -1   -4.90   14.80
   4 -12   1   15.50   18.20
  -4  12  -1   16.50   16.70
  -4  12  -1    3.60   18.50
   5 -12   1    2.40   21.20
  -5  12  -1    3.00   18.80
   5 -13  -1   41.60   25.40
  -5  13   1  -15.40   18.70
   4 -13  -1  -23.60   19.40
  -4  13   1  -13.00   20.50
  -4  13   1    1.40   17.50
   3 -13  -1   62.59   20.30
  -3  13   1   33.10   19.00
  -3  13   1   78.29   20.10
  -2 -13   1   69.99    9.70
  -2  13   1   56.89   20.70
  -2  13   1   62.59   17.70
  -1 -13   1  622.54   22.10
  -1  13   1  615.04   27.00
   1  13  -1  592.94   16.10
  -1  13   1  596.34   42.60
   0 -13  -1  540.75   23.50
   0  13  -1  522.45   21.10
   0  13   1  516.85   38.70
   0  13   1  489.95   22.50
  -1 -13  -1   94.89   12.30
  -1  13  -1   91.79   15.80
   1  13   1   99.69   11.60
  -1  13  -1   71.89   19.40
  -2 -13  -1  530.85   21.50
  -2  13  -1  554.54   47.20
  -2  13  -1  487.85   28.30
   3 -13   1  132.69   20.50
  -3  13  -1   75.29   22.30
  -3  13  -1   76.39   19.20
   4 -13   1   83.89   21.00
  -4  13  -1   38.70   19.80
  -4  13  -1   21.60   20.10
   5 -13   1   14.60   22.20
  -5  13  -1  -22.80   17.60
   5 -14  -1   47.10   25.00
  -5  14   1   17.50   19.70
   4 -14  -1  -16.60   19.90
  -4  14   1  -17.10   18.10
  -4  14   1  -16.30   18.80
   3 -14  -1   -3.50   19.80
  -3  14   1   -4.90   17.60
  -3  14   1   -9.60   15.60
  -2 -14   1   91.19   11.20
  -2  14   1  113.19   21.00
  -2  14   1   69.49   21.80
  -1 -14   1  144.69   14.20
  -1  14   1  118.99   22.40
  -1  14   1  152.38   19.00
   1  14  -1  134.09    9.60
   0 -14  -1  544.15   24.80
   0  14  -1  526.45   22.30
   0  14   1  527.55   41.20
   0  14   1  523.75   23.80
  -1 -14  -1  384.16   20.30
  -1  14  -1  398.76   35.50
  -1  14  -1  407.66   23.60
   1  14   1  399.66   17.40
  -2 -14  -1   31.60   10.60
  -2  14  -1   17.00   16.10
  -2  14  -1   24.20   18.90
   3 -14   1  102.09   20.10
  -3  14  -1   76.29   19.10
  -3  14  -1   94.99   24.60
   4 -14   1   17.60   19.30
  -4  14  -1   -5.50   17.90
  -4  14  -1    3.00   17.60
   5 -14   1   -6.20   24.50
  -5  14  -1  -16.10   18.00
   5 -15  -1   14.50   24.80
  -5  15   1  -23.90   20.50
   4 -15  -1   68.29   25.00
  -4  15   1   22.30   18.80
  -4  15   1   33.30   22.70
   3 -15  -1   86.59   24.20
  -3  15   1   61.29   19.30
  -3  15   1   64.39   25.30
  -2 -15   1   46.20   10.10
  -2  15   1   38.50   16.80
  -2  15   1   30.20   20.00
  -1 -15   1  671.13   25.10
  -1  15   1  605.04   28.70
  -1  15   1  644.24   47.70
   0 -15  -1  268.57   20.70
   0  15  -1  241.08   18.70
   0  15   1  247.98   36.60
   0  15   1  288.27   20.40
  -1 -15  -1   20.50   11.10
   1  15   1   30.40   10.40
  -1  15  -1    9.60   16.70
  -2 -15  -1  177.38   16.20
  -2  15  -1  148.79   20.80
   3 -15   1  196.48   26.30
  -3  15  -1  106.49   23.80
  -3  15  -1  128.29   22.10
   4 -15   1   -9.80   18.60
  -4  15  -1  -27.40   16.10
   5 -15   1    9.60   21.90
  -5  15  -1  -36.40   32.40
   4 -16  -1   -2.70   21.50
  -4  16   1  -19.20   21.40
  -4  16   1   -0.70   20.20
   3 -16  -1  -23.80   21.60
  -3  16   1   16.40   19.40
  -3  16   1  -24.00   21.40
  -2  16   1   23.10   17.10
  -2  16   1   51.69   21.70
  -1 -16   1  125.89   15.50
  -1  16   1   94.89   17.80
  -1  16   1   74.59   21.80
   0  16   1   82.49   15.40
   0  16  -1   94.39   14.40
   0  16   1   59.79   21.10
  -1 -16  -1   40.70   12.30
   1  16   1   51.39   10.90
  -1  16  -1   37.10   15.20
  -2 -16  -1    2.10    9.00
  -2  16  -1    2.50   18.30
  -2  16  -1   15.90   17.80
   3 -16   1   -2.40   17.60
  -3  16  -1    1.50   19.50
  -3  16  -1  -12.20   17.00
   4 -16   1   27.00   20.60
  -4  16  -1  -12.60   23.00
  -4  16  -1   11.20   18.60
   4 -17  -1  124.09   28.60
  -4  17   1   85.49   22.50
  -4  17   1   36.40   26.00
   3 -17  -1  -13.70   22.10
  -3  17   1  -12.90   23.00
  -3  17   1  -17.60   16.70
  -2  17   1   62.49   19.60
  -2  17   1   55.59   22.70
  -1  17   1   37.90   20.60
  -1  17   1   41.10   16.30
   0  17  -1  438.36   22.80
   0  17   1  423.96   23.50
  -1 -17  -1   57.79   13.20
  -1  17  -1   39.00   15.50
  -2 -17  -1   36.90   11.60
  -2  17  -1   19.20   17.20
   3 -17   1   12.40   21.60
  -3  17  -1   -5.20   19.40
  -3  17  -1  -10.80   16.80
   4 -17   1   23.40   21.60
  -4  17  -1    1.50   18.70
   4 -18  -1  -10.90   24.70
  -4  18   1    1.60   19.50
  -4  18   1  -38.90   23.10
  -3  18   1   91.09   22.20
  -3  18   1   90.19   29.20
  -2  18   1   10.10   20.80
  -2  18   1  -25.50   16.60
  -1  18   1  183.98   21.50
  -1  18   1  214.28   39.60
   0  18  -1  298.37   20.60
   0  18   1  242.08   21.00
  -1 -18  -1   39.20   13.30
  -1  18  -1   26.90   16.50
  -2  18  -1   13.10   17.80
   3 -18   1   57.99   22.10
  -3  18  -1    6.30   18.20
   4 -18   1   -4.30   20.40
  -4  18  -1  -16.70   20.20
   4 -19  -1   11.80   25.20
  -4  19   1  -21.80   25.00
  -4  19   1   -1.90   22.60
  -3  19   1   -5.50   24.40
  -3  19   1   15.00   19.40
  -2  19   1   59.39   24.30
  -2  19   1   79.09   20.40
  -1  19   1   17.30   16.60
  -1  19   1   20.00   21.10
   0  19  -1   50.19   14.50
   0  19   1   47.30   15.50
  -1 -19  -1   -5.10   10.30
  -1  19  -1   -5.70   16.30
  -2  19  -1  346.17   30.60
   3 -19   1  -13.60   19.80
  -3  19  -1  -10.70   18.50
   4 -19   1   19.20   25.70
  -3  20   1  -20.40   20.30
  -3  20   1  -24.10   25.10
  -2  20   1    8.40   21.90
  -2  20   1   -3.20   19.50
  -1  20   1   -3.40   15.90
   0  20   1  109.89   17.80
  -1 -20  -1   15.80   11.60
  -1  20  -1  -14.90   16.20
  -2  20  -1   53.69   21.40
   3 -20   1  -19.70   20.70
  -3  20  -1  -15.00   20.20
  -3  21   1  -22.20   19.10
  -3  21   1  -27.10   26.20
  -2  21   1   31.20   22.10
  -2  21   1   30.00   24.00
  -1  21   1   10.00   16.80
  -1  21  -1   26.20   17.40
  -2  21  -1  160.18   24.20
   3 -21   1  -15.10   21.80
  -3  21  -1  -11.20   21.30
  -3  22   1  -19.10   24.40
  -3  22   1  -24.00   23.40
  -2  22   1   -0.50   21.60
  -1  22   1   32.90   18.80
  -1  22  -1   32.70   17.80
  -2  22  -1   -9.20   18.50
  -2  23   1  -21.10   21.00
  -1  23   1   42.40   19.70
  -2  23  -1   -8.30   19.00
   6   0  -2  -14.90   26.00
   5   0  -2    0.60   23.40
   4   0  -2  527.15   33.70
  -4   0   2  466.15   32.20
  -4   0   2  484.65   22.40
   3   0  -2   14.90   15.60
  -3   0   2    8.30    8.60
  -3   0   2   11.40    8.90
   2   0  -2  224.18   16.50
  -2   0   2  217.38   10.10
  -2   0   2  204.08   16.20
  -1   0   2    1.10    5.90
   1   0  -2   -1.10    5.80
   1   0  -2    6.10    9.10
   0   0   2  903.21   21.20
   0   0  -2  890.01   21.00
   0   0   2  904.21   18.40
   0   0  -2  888.21   18.40
  -1   0  -2    3.90    8.10
   1   0   2    6.00    6.60
   1   0   2   -4.70    8.10
  -1   0  -2    3.10    6.20
  -2   0  -2  594.04   18.50
   2   0   2  576.74   20.70
  -3   0  -2   13.80    9.70
   3   0   2  -11.90   13.60
  -4   0  -2  243.08   20.20
   4   0   2  235.98   26.40
  -5   0  -2  -12.90   12.70
   5   0   2    7.60   21.50
   6   0   2   15.30   25.70
   6  -1  -2   20.30   27.60
   6   1  -2   20.10   27.60
   5  -1  -2   14.50   23.20
   5   1  -2   34.30   19.90
   4  -1  -2  300.67   29.30
  -4  -1   2  269.97   26.90
  -4  -1   2  307.07   18.70
   4   1  -2  325.07   30.00
  -4   1   2  311.07   21.40
  -4   1   2  305.47   29.50
   3  -1  -2  173.48   17.00
  -3  -1   2  187.58   12.80
  -3  -1   2  209.88   20.60
  -3   1   2  199.18   21.50
  -3   1   2  185.58   15.40
   3   1  -2  179.48   20.50
  -2  -1   2   16.30    6.90
   2  -1  -2   32.10    9.40
  -2   1   2   15.90    7.50
  -2   1   2   30.60    7.10
   2   1  -2   43.30   11.80
   1  -1  -2  119.99   11.30
  -1  -1   2   92.09   11.80
   1   1  -2  101.89   11.20
  -1   1   2  123.59   13.00
  -1   1   2  106.09    7.70
   0  -1  -2   36.80    4.50
   0  -1   2   30.20    3.60
   0  -1  -2   20.30    3.80
   0   1   2   20.70    4.10
   0   1  -2   31.10    3.90
   0   1   2   33.30    4.50
   1  -1   2 1506.95   31.00
   1  -1   2 1451.55   31.50
  -1  -1  -2 1543.95   31.50
  -1   1  -2 1539.85   32.10
   1   1   2 1560.34   32.70
   1   1   2 1587.74   31.20
  -1   1  -2 1533.55   31.40
   2  -1   2 1624.84   33.00
   2  -1   2 1632.84   38.30
  -2  -1  -2 1565.94   34.80
  -2   1  -2 1588.34   36.10
  -2   1  -2 1648.54   33.50
   2   1   2 1618.34   38.70
   3  -1   2   54.39   15.20
  -3  -1  -2   41.30   10.00
  -3  -1  -2   26.10    4.30
  -3   1  -2   30.90    6.50
   3   1   2   42.80   15.20
  -3   1  -2   33.00    9.90
   4  -1   2  201.38   25.30
  -4  -1  -2  177.88   18.40
  -4   1  -2  155.08   19.80
   4   1   2  176.58   24.80
   5  -1   2   12.60   21.60
  -5  -1  -2   -8.80   12.80
  -5   1  -2   -4.10   12.70
   5   1   2   13.30   22.50
   6  -1   2   26.20   25.80
   6   1   2    3.30   25.80
   6  -2  -2  -16.40   26.00
   6   2  -2   29.00   27.30
   5  -2  -2   22.40   23.20
  -5   2   2    0.30   18.20
   5   2  -2   12.80   24.60
  -4  -2   2   29.00   10.20
  -4  -2   2    7.70   11.00
   4  -2  -2   37.50   21.10
  -4   2   2   28.70   13.50
   4   2  -2   35.20   21.60
  -4   2   2    8.80   14.60
   3  -2  -2   15.00   15.10
  -3  -2   2    7.50    7.80
  -3  -2   2    9.60    6.90
  -3   2   2   -1.00   10.10
   3   2  -2    7.80   15.20
  -3   2   2    6.00   10.40
   2  -2  -2 2088.59   46.30
  -2  -2   2 2017.30   50.39
  -2   2   2 2094.69   43.40
   2   2  -2 2130.29   47.40
  -2   2   2 1975.70   51.59
   1  -2  -2  476.65   14.70
  -1  -2   2  451.55   18.80
   1   2  -2  442.86   15.70
  -1   2   2  485.95   21.00
   0  -2   2    6.90    3.60
   0  -2  -2    4.50    4.30
   0  -2   2    8.30    2.00
   0  -2  -2   10.10    4.60
   0   2   2   10.00    4.90
   0   2  -2    8.70    3.90
   0   2   2    7.70    4.80
   1  -2   2   14.50    5.70
  -1  -2  -2   18.90    6.00
   1  -2   2    5.30    6.20
   1   2   2   11.40    3.90
   1   2   2   22.70    5.60
   1   2   2   11.10    8.20
  -1   2  -2   15.60    7.10
  -1   2  -2    7.90    7.20
   2  -2   2  815.32   22.50
  -2  -2  -2  781.22   20.30
  -2  -2  -2  797.12   16.00
  -2  -2  -2  786.42   15.80
   2  -2   2  776.22   24.10
  -2   2  -2  819.52   22.60
   2   2   2  769.92   25.00
   2   2   2  777.42   19.10
  -2   2  -2  784.42   22.70
   3  -2   2  381.36   23.00
   3  -2   2  359.26   16.10
  -3  -2  -2  358.86   11.30
  -3  -2  -2  382.16   17.00
   3   2   2  334.07   13.00
  -3   2  -2  377.76   18.90
   3   2   2  336.47   19.90
  -3   2  -2  387.56   19.00
  -4  -2  -2   76.89   13.40
   4  -2   2   66.99   20.60
   4   2   2   73.99   21.20
  -4   2  -2   52.39   14.80
   5  -2   2   19.30   21.80
  -5   2  -2   -3.30   13.20
   5   2   2   15.10   22.00
   6  -2   2   -9.50   23.60
   6   2   2   22.20   25.60
   6  -3  -2    7.80   26.50
   6   3  -2   19.00   28.70
   5  -3  -2   29.60   24.40
  -5   3   2    9.60   13.50
   5   3  -2   19.10   19.30
   4  -3  -2   79.89   22.20
  -4  -3   2   62.49   13.10
   4   3  -2  100.29   19.90
  -4   3   2   72.89   16.00
  -4   3   2   58.49   16.70
  -3  -3   2   91.59    9.40
   3  -3  -2   97.89   18.10
  -3  -3   2  102.89   16.50
  -3   3   2  111.89   19.90
   3   3  -2  101.99   18.60
  -3   3   2   79.29   13.50
  -2  -3   2  151.18   15.00
   2  -3  -2  167.48   12.80
  -2   3   2  163.38   17.20
   2   3  -2  174.38   15.70
  -2   3   2  181.78   12.40
   1   3  -2 1674.13   35.30
  -1   3   2 1642.64   42.40
   0  -3   2  186.08    8.30
   0  -3  -2  217.48   14.30
   0  -3  -2  205.78   11.10
   0   3   2  259.37   17.00
   0   3   2  205.58   10.70
   0   3  -2  194.08    8.70
   1  -3   2  390.96   12.40
  -1  -3  -2  372.76   11.90
   1  -3   2  402.86   17.50
  -1  -3  -2  416.26   14.60
   1   3   2  385.46   12.00
  -1   3  -2  399.26   14.50
   1   3   2  392.46   14.90
   1   3   2  400.96   15.40
   2  -3   2    3.00    6.30
   2  -3   2    8.90    9.50
  -2  -3  -2    4.10    4.00
  -2  -3  -2    6.50    5.70
  -2   3  -2    4.30    9.10
   2   3   2    8.90   10.80
   2   3   2    5.30    5.00
  -2   3  -2    6.20    6.30
  -3  -3  -2   61.89    8.80
  -3  -3  -2   42.20    7.50
  -3  -3  -2   67.09   10.00
   3  -3   2   72.19   15.90
   3   3   2   50.39    6.50
  -3   3  -2   52.09   12.10
   3   3   2   62.39   16.60
  -3   3  -2   44.00    9.40
   4  -3   2    2.70   17.50
  -4  -3  -2  -10.60   10.00
   4   3   2   -0.40   18.10
  -4   3  -2   10.90   12.60
   5  -3   2   17.30   21.40
   5   3   2   -3.80   21.50
  -5   3  -2    4.10   15.20
   6  -3   2    3.00   23.30
   6   3   2   23.60   25.90
   6  -4  -2    7.30   26.70
   6   4  -2    5.90   28.20
   5  -4  -2   53.49   24.90
  -5   4   2   16.60   15.40
   5   4  -2   28.80   25.00
  -4  -4   2    4.00    9.60
   4  -4  -2    8.00   15.00
   4   4  -2   22.20   16.40
  -4   4   2   20.80   14.50
  -4   4   2   -2.60   15.00
  -3  -4   2   59.39   10.60
   3  -4  -2   99.19   18.20
  -3   4   2   52.79   13.10
  -3   4   2   76.19   13.60
   3   4  -2   91.99   18.60
  -2  -4   2 3137.19   70.49
   2  -4  -2 3056.29   64.59
   2   4  -2 3149.08   65.49
  -2   4   2 3151.48   63.29
  -2   4   2 3070.79   73.59
  -1   4   2 1159.48   35.60
   1   4  -2 1194.98   27.80
  -1   4   2 1188.78   28.30
   0  -4  -2 3007.90   55.79
   0  -4   2 2793.62   52.79
   0   4   2 2841.42   61.19
   0   4  -2 2853.81   52.79
  -1  -4  -2 1518.25   35.30
  -1  -4  -2 1496.75   30.90
   1  -4   2 1442.36   30.50
   1   4   2 1503.85   35.40
  -1   4  -2 1484.45   33.10
   1   4   2 1500.15   30.20
   2  -4   2 2402.16   51.89
  -2  -4  -2 2401.86   47.80
  -2  -4  -2 2407.56   49.20
   2   4   2 2395.16   45.20
   2   4   2 2532.25   54.49
  -2   4  -2 2422.66   55.49
  -2   4  -2 2446.86   52.19
  -3  -4  -2    0.20    5.40
  -3  -4  -2    2.00    7.60
   3  -4   2  -10.30   13.40
  -3  -4  -2   -0.10    3.90
   3   4   2   10.90   15.30
  -3   4  -2    7.60    9.30
  -3   4  -2    1.90   10.80
   4  -4   2   15.00   18.10
  -4  -4  -2    5.20    9.90
   4   4   2  -11.90   13.20
  -4   4  -2    2.40   12.50
   5  -4   2   46.50   22.40
   5   4   2   36.90   23.50
  -5   4  -2   14.10   15.70
   6  -4   2   19.40   23.90
   6   4   2   -8.00   25.80
  -6   4  -2    7.10   30.00
   6  -5  -2   26.80   27.60
   6   5  -2   50.19   29.60
   5  -5  -2   31.00   18.90
  -5   5   2   -4.00   15.30
   5   5  -2   22.10   19.30
  -4  -5   2   62.89   12.50
   4  -5  -2   77.09   22.40
  -4   5   2   54.89   17.90
   4   5  -2  131.69   23.90
  -4   5   2   67.29   16.50
   3  -5  -2  454.65   26.40
  -3  -5   2  468.75   26.00
  -3  -5   2  461.25   12.60
  -3   5   2  465.95   24.60
  -3   5   2  495.25   34.30
   3   5  -2  483.25   27.70
   2  -5  -2  218.48   14.00
  -2   5   2  205.98   21.20
   2   5  -2  239.68   17.30
  -2   5   2  212.08   16.90
  -1  -5   2   92.49    3.20
  -1  -5   2  100.69    3.40
  -1   5   2  109.29   17.10
  -1   5   2  101.99   11.50
   1   5  -2  100.59   10.30
   0  -5  -2    6.50    6.50
   0   5  -2    0.40    5.70
   0   5   2   13.40    8.60
  -1  -5  -2  206.68    9.80
   1   5   2  210.88   15.30
   1   5   2  218.78    9.60
  -1   5  -2  207.78   12.40
   2  -5   2  201.58   14.00
  -2  -5  -2  225.28   14.90
  -2  -5  -2  214.38   10.90
   2   5   2  203.68    8.20
  -2   5  -2  217.38   18.90
  -2   5  -2  213.08   15.40
   2   5   2  211.68   14.30
  -3  -5  -2  187.48   11.80
  -3  -5  -2  179.58   12.90
   3  -5   2  165.88   20.00
  -3  -5  -2  169.88   13.90
  -3   5  -2  169.48   18.00
   3   5   2  185.88   21.60
  -3   5  -2  174.08   22.50
  -4  -5  -2   11.30    9.40
   4  -5   2   16.80   17.50
  -4   5  -2   16.80   14.80
   4   5   2   21.50   19.10
   5  -5   2  -10.90   19.90
   5   5   2    9.00   22.60
  -5   5  -2   11.20   15.10
   6  -5   2   15.20   23.90
  -6   5  -2   -8.60   17.40
   6   5   2   -5.70   26.50
   6  -6  -2   35.90   28.00
   6   6  -2    7.40   30.60
   5  -6  -2   41.70   23.30
   5   6  -2   56.49   26.20
  -5   6   2   11.00   16.50
  -4  -6   2   21.10   10.00
   4  -6  -2   22.30   15.50
  -4   6   2    0.20   16.00
  -4   6   2   28.40   15.00
   4   6  -2   34.50   21.00
  -3  -6   2    7.40    3.90
  -3  -6   2    3.90    8.30
   3  -6  -2    0.00   15.40
  -3   6   2    1.00   12.90
   3   6  -2   11.10   12.90
  -3   6   2    4.60   12.70
   2  -6  -2   21.40    9.30
   2   6  -2   10.40   11.60
  -2   6   2   25.80   11.10
  -2   6   2   16.80   10.50
  -1  -6   2  569.34   12.70
  -1  -6   2  576.44   12.90
  -1   6   2  591.24   27.90
  -1   6   2  620.44   20.60
   0  -6  -2  161.88   10.40
   0   6   2  153.88   17.70
   0   6  -2  145.39    9.40
   0   6   2  165.88   11.20
   0   6  -2  145.79    9.50
  -1  -6  -2 2046.50   42.30
   1   6   2 2069.59   50.49
  -1   6  -2 2146.89   45.00
   1   6   2 2136.59   41.90
  -2  -6  -2   35.50    6.70
   2  -6   2   28.80    9.70
   2   6   2   29.00    4.30
   2   6   2   31.70   12.60
   2   6   2   29.20    4.10
  -2   6  -2   35.90   12.00
  -2   6  -2   24.70   10.30
  -3  -6  -2   14.90    7.70
   3  -6   2   32.50   15.00
  -3  -6  -2   13.70    5.30
   3   6   2   18.90   16.50
  -3   6  -2   13.40   12.30
  -3   6  -2   25.30   13.10
  -4  -6  -2   21.00    9.30
   4  -6   2   23.90   17.30
   4   6   2   10.90   19.20
  -4   6  -2   14.40   13.90
   5  -6   2   71.39   23.60
   5   6   2   48.00   24.40
  -5   6  -2   40.40   18.00
   6  -6   2   22.70   23.80
  -6   6  -2  -23.40   18.10
   6   6   2   10.40   44.80
   6  -7  -2   48.90   44.70
   5  -7  -2   18.90   21.70
   5   7  -2   13.70   24.10
  -5   7   2  -11.50   16.10
  -4  -7   2  127.09   20.60
   4  -7  -2  121.99   23.00
   4   7  -2  134.79   24.80
  -4   7   2   94.59   17.60
  -4   7   2   78.79   20.70
  -3  -7   2   23.60    9.50
   3  -7  -2   51.69   17.60
  -3  -7   2   36.60    4.20
   3   7  -2   49.90   18.60
  -3   7   2   23.90   14.60
  -3   7   2   46.40   15.20
  -2   7   2  237.88   24.80
   2   7  -2  198.98   17.50
  -2   7   2  204.88   17.50
  -1  -7   2  165.88    7.70
  -1  -7   2  148.09    7.30
  -1   7   2  160.78   13.90
  -1   7   2  165.78   20.80
   0  -7  -2  316.17   13.80
   0   7   2  330.87   14.60
   0   7   2  335.17   22.70
   0   7  -2  352.56   13.00
  -1  -7  -2    7.70    5.80
   1   7   2    8.00    6.30
   1   7   2    3.50    8.40
  -1   7  -2    6.90    9.40
   2  -7   2  488.15   20.30
  -2  -7  -2  461.05   15.50
  -2   7  -2  468.35   21.40
   2   7   2  453.05   11.00
  -2   7  -2  479.15   26.80
  -3  -7  -2    3.40    7.10
   3  -7   2    2.00   13.80
   3   7   2   -5.90   16.70
  -3   7  -2    6.40   13.60
  -3   7  -2    8.50   13.20
   4  -7   2  229.98   27.30
   4   7   2  194.78   21.60
  -4   7  -2  207.88   22.60
   5  -7   2   -2.20   19.60
  -5   7  -2    6.30   17.20
   5   7   2   -2.90   17.10
   5  -8  -2   39.80   23.40
   5   8  -2   22.30   24.20
  -5   8   2   14.40   17.70
  -4  -8   2   31.30   10.40
   4  -8  -2   61.89   21.10
  -4   8   2   30.80   19.40
   4   8  -2   41.70   22.10
  -4   8   2   39.80   17.60
   3  -8  -2   56.89   17.90
  -3   8   2   44.90   17.70
   3   8  -2   18.30   18.40
  -3   8   2   25.90   15.90
  -2  -8   2  139.39    5.30
  -2  -8   2  144.99    5.50
  -2   8   2  139.39   17.60
   2   8  -2  160.48   17.30
  -2   8   2  154.98   25.30
  -1  -8   2 1331.67   28.20
  -1   8   2 1355.16   35.90
  -1   8   2 1333.77   45.70
   0  -8  -2  186.18   11.90
   0   8   2  190.18   21.10
   0   8  -2  182.48   11.10
   0   8   2  192.48   12.90
  -1  -8  -2 1043.50   26.30
  -1   8  -2 1117.09   29.50
   1   8   2 1058.99   36.60
   1   8   2 1023.30   25.00
  -2  -8  -2  303.47   13.30
   2  -8   2  314.97   16.70
   2   8   2  297.47    7.80
  -2   8  -2  335.17   28.60
  -2   8  -2  324.17   19.80
  -3  -8  -2  106.39   11.50
   3  -8   2   98.39   19.20
  -3   8  -2   91.19   17.70
   3   8   2  107.39   21.10
  -3   8  -2   59.29   16.30
   4  -8   2   18.70   17.00
   4   8   2   32.20   20.60
  -4   8  -2   20.40   15.10
   5  -8   2    9.00   20.00
   5   8   2    8.20   23.80
  -5   8  -2   -5.10   15.60
   5  -9  -2    4.10   22.00
  -5   9   2    5.40   16.00
   5   9  -2   40.20   26.00
  -4  -9   2    2.70    8.80
   4  -9  -2   -0.20   19.50
  -4   9   2  -10.90   14.50
  -4   9   2  -22.80   15.30
   4   9  -2    5.60   21.00
   3  -9  -2  155.08   19.20
  -3   9   2  112.79   20.90
   3   9  -2  176.58   23.60
  -3   9   2  142.09   20.30
  -2  -9   2  246.98    8.80
  -2   9   2  280.17   30.30
  -2   9   2  246.88   20.80
  -1  -9   2 2867.41   55.89
  -1   9   2 2986.80   76.89
  -1   9   2 2907.91   62.79
   0  -9  -2   88.39   10.60
   0   9   2   69.69   13.50
   0   9   2   83.89   11.90
   0   9  -2   80.79   10.30
  -1  -9  -2 1002.40   26.60
   1   9   2 1019.30   25.20
  -1   9  -2 1062.49   29.70
   1   9   2 1038.50   39.70
   2  -9   2   81.99   13.70
  -2  -9  -2   81.29    9.40
  -2   9  -2   67.59   14.70
   2   9   2   46.10    2.10
  -2   9  -2   57.19   14.60
   2   9   2   61.89    2.80
  -3  -9  -2   73.19   10.20
   3  -9   2   53.39   16.00
  -3   9  -2   59.19   16.80
  -3   9  -2   49.20   17.10
   4  -9   2   46.40   18.60
  -4   9  -2   40.10   17.70
   4   9   2   35.80   21.80
  -4   9  -2   29.10   19.50
   5  -9   2   -0.30   20.10
   5   9   2   -0.80   23.70
  -5   9  -2    3.10   17.40
   5 -10  -2   21.30   18.60
   5  10  -2   16.50   25.10
  -5  10   2   16.60   17.40
  -4 -10   2   59.99   12.60
   4 -10  -2   93.29   23.70
  -4  10   2   45.40   21.80
   4  10  -2   92.09   21.10
  -4  10   2   41.50   17.30
   3 -10  -2    6.60   17.90
  -3  10   2   -2.20   15.80
  -3  10   2   -1.90   19.30
   3  10  -2   13.20   18.80
  -2 -10   2   47.60    6.30
  -2  10   2   28.70   15.20
  -2  10   2   28.60   16.10
  -1 -10   2  660.63   19.20
  -1  10   2  654.43   36.80
  -1  10   2  691.43   26.00
   0 -10  -2 2815.02   60.89
   0  10  -2 2898.21   57.39
   0  10   2 2831.22   75.19
   0  10   2 2912.91   60.19
  -1 -10  -2  121.19   11.80
   1  10   2  141.39   21.90
   1  10   2  123.89   11.50
  -1  10  -2  120.39   14.50
  -2 -10  -2   48.90    9.00
   2 -10   2   48.30   12.50
  -2  10  -2   26.30   14.40
  -2  10  -2   37.10   14.40
   3 -10   2   33.00   17.60
  -3 -10  -2   17.00    8.80
  -3  10  -2   32.40   16.70
  -3  10  -2    8.70   17.40
   4 -10   2   21.90   17.20
  -4  10  -2    3.60   16.90
  -4  10  -2   27.90   17.20
   5 -10   2    6.00   19.80
  -5  10  -2  -30.00   15.90
   5 -11  -2  -22.60   22.60
   5  11  -2    3.70   25.40
  -5  11   2  -22.30   15.60
   4 -11  -2  -10.10   20.30
  -4 -11   2   16.50    9.90
   4  11  -2   14.40   22.50
  -4  11   2   -4.50   17.70
  -4  11   2  -15.20   15.40
   3 -11  -2   -0.20   18.20
  -3  11   2    0.20   17.90
  -3  11   2    4.90   17.70
  -2 -11   2  208.08   10.90
  -2  11   2  213.08   22.00
  -2  11   2  237.08   33.20
  -1 -11   2  392.66   15.20
  -1  11   2  422.26   33.90
  -1  11   2  385.76   21.90
   0 -11  -2    2.00    7.80
   0  11   2    1.80   10.10
   0  11   2   11.30   13.10
   0  11  -2   12.60    8.60
  -1 -11  -2  190.58   14.30
   1  11   2  217.88   13.90
   1  11   2  218.38   25.80
  -1  11  -2  207.08   18.70
  -2 -11  -2    5.40    8.00
  -2  11  -2    2.30   14.90
  -2  11  -2   -4.40   13.60
  -3 -11  -2    2.50    8.20
   3 -11   2   11.30   14.40
  -3  11  -2   16.70   16.10
  -3  11  -2   20.70   17.40
   4 -11   2   13.30   16.80
  -4  11  -2    6.20   16.80
  -4  11  -2   19.30   16.50
   5 -11   2   38.70   21.80
  -5  11  -2    1.80   17.90
   5 -12  -2   22.70   25.10
  -5  12   2  -10.20   19.30
   5  12  -2    9.70   26.40
   4 -12  -2  115.29   25.60
  -4  12   2   59.39   21.70
  -4  12   2   53.89   18.40
   3 -12  -2  151.78   21.00
  -3  12   2   96.19   19.20
  -3  12   2   87.39   23.90
  -2 -12   2   19.20    6.70
  -2  12   2   15.60   17.80
  -2  12   2   19.70   15.90
  -1 -12   2   18.60    7.60
  -1  12   2   18.80   16.20
  -1  12   2   23.10   14.30
   1  12  -2   15.60    3.40
   0 -12  -2 2404.76   56.09
   0  12  -2 2492.05   52.49
   0  12   2 2480.65   73.89
   0  12   2 2501.65   55.59
  -1 -12  -2  587.74   22.80
   1  12   2  629.14   20.90
  -1  12  -2  620.94   26.40
  -2 -12  -2   16.40    9.20
  -2  12  -2    5.90   16.60
  -2  12  -2   10.40   14.50
   3 -12   2  162.78   20.10
  -3 -12  -2  160.78   13.40
  -3  12  -2  120.59   19.40
  -3  12  -2  117.19   21.00
   4 -12   2   67.99   19.70
  -4  12  -2   72.69   21.20
  -4  12  -2   71.79   19.60
   5 -12   2   34.40   21.50
  -5  12  -2    5.80   18.50
   5 -13  -2   31.10   25.60
  -5  13   2   -1.50   18.50
   4 -13  -2   20.30   21.80
  -4 -13   2   33.90   17.30
  -4  13   2    2.40   16.50
  -4  13   2  -28.60   20.50
   3 -13  -2   86.69   23.30
  -3  13   2   25.70   19.20
  -3  13   2   65.79   19.00
  -2 -13   2  171.28   12.40
  -2  13   2  127.39   23.50
  -2  13   2  134.69   20.50
  -1 -13   2   28.40    8.70
   1  13  -2   27.80    4.40
  -1  13   2   10.80   14.50
  -1  13   2   25.40   14.30
   0 -13  -2   77.49   12.80
   0  13   2   97.29   14.40
   0  13  -2   96.69   12.90
   0  13   2   55.59   18.10
  -1 -13  -2   17.80    9.80
   1  13   2    5.10    9.70
  -1  13  -2   18.80   13.60
  -2 -13  -2   42.90   11.00
  -2  13  -2   36.30   16.70
   3 -13   2  106.69   18.20
  -3  13  -2   92.49   20.40
  -3  13  -2   69.19   21.70
   4 -13   2   37.40   18.60
  -4  13  -2   14.40   17.40
   5 -13   2   20.10   24.50
  -5  13  -2  -19.80   17.10
   5 -14  -2   26.40   26.20
  -5  14   2  -36.80   18.70
   4 -14  -2    1.60   23.00
  -4  14   2    1.70   17.10
  -4  14   2  -19.30   22.00
   3 -14  -2   41.30   22.90
  -3  14   2   19.40   19.90
  -3  14   2   44.00   18.00
  -2 -14   2  518.85   19.50
  -2  14   2  549.25   45.30
  -2  14   2  532.05   29.90
  -1  14   2   17.00   16.90
  -1  14   2   31.00   18.80
   0 -14  -2  190.18   17.50
   0  14   2  195.78   19.50
   0  14  -2  204.78   16.80
   0  14   2  196.78   33.50
  -1 -14  -2   63.59   12.80
   1  14   2   56.69   11.40
  -1  14  -2   42.80   16.70
  -2 -14  -2  403.66   20.90
  -2  14  -2  351.36   27.60
   3 -14   2  133.99   21.60
  -3  14  -2   98.29   20.10
   4 -14   2    1.60   16.90
  -4  14  -2    2.50   16.80
   5 -14   2    2.20   20.40
  -5  14  -2  -31.80   17.80
   5 -15  -2   -7.10   26.10
  -5  15   2  -17.60   19.50
   4 -15  -2  -18.90   22.00
  -4  15   2   -6.20   17.30
  -4  15   2   -5.50   21.20
   3 -15  -2   19.20   23.60
  -3  15   2   32.10   19.20
  -3  15   2   31.30   21.50
  -2  15   2   73.39   22.20
  -2  15   2   72.69   20.00
  -1  15   2  371.76   27.30
  -1  15   2  390.06   42.20
   0 -15  -2   49.40   13.20
   0  15   2   58.89   14.80
   0  15   2   28.40   19.00
   0  15  -2   54.19   13.50
  -1 -15  -2  367.96   20.70
   1  15   2  375.06   18.60
  -1  15  -2  398.46   23.80
  -2 -15  -2  153.88   16.80
  -2  15  -2  140.79   20.50
   3 -15   2   10.70   16.00
  -3  15  -2   -3.70   16.20
   4 -15   2  -18.30   19.30
  -4  15  -2   -1.40   19.60
   4 -16  -2   -9.10   24.10
  -4  16   2  -15.30   19.20
  -4  16   2  -19.20   21.70
  -3  16   2   92.39   20.80
  -3  16   2   56.09   26.50
  -2  16   2   60.69   19.90
  -2  16   2   34.70   21.10
  -1  16   2   28.00   19.90
  -1  16   2   43.10   16.20
   0 -16  -2   52.19   13.80
   0  16   2   40.70   20.00
   0  16  -2   74.79   13.90
   0  16   2   85.39   16.60
  -1 -16  -2  110.59   15.90
  -1  16  -2  117.49   18.60
   1  16   2  118.69   14.40
  -2 -16  -2  100.89   14.00
  -2  16  -2   76.79   19.70
   3 -16   2   15.90   16.80
  -3  16  -2    8.20   16.80
   4 -16   2  -14.80   17.70
  -4  16  -2   -5.70   17.50
   4 -17  -2   18.40   26.70
  -4  17   2    3.70   18.80
  -4  17   2   -9.90   24.30
  -3  17   2  118.29   22.20
  -3  17   2  126.39   27.70
  -2  17   2   -9.20   19.10
  -2  17   2   34.00   19.70
  -1  17   2  309.67   40.80
  -1  17   2  307.87   24.10
   0 -17  -2   -7.80   10.60
   0  17   2   -7.00   13.60
   0  17   2   -2.30   17.80
   0  17  -2  -10.50   11.50
  -1 -17  -2  526.45   25.20
  -1  17  -2  554.04   26.80
   1  17   2  567.74   29.20
  -2 -17  -2   -1.50   10.10
  -2  17  -2   15.20   16.90
   3 -17   2    9.90   17.30
  -3  17  -2   13.90   17.90
   4 -17   2  -12.10   21.30
  -4  17  -2   -3.20   18.20
   4 -18  -2  -13.00   26.70
  -4  18   2  -34.50   24.40
  -4  18   2    9.90   20.30
  -3  18   2  122.79   28.60
  -3  18   2  134.09   23.70
  -2  18   2   76.09   22.00
  -2  18   2   47.10   23.20
  -1  18   2   33.80   16.60
  -1  18   2   22.20   20.50
   0 -18  -2  454.95   25.70
   0  18   2  424.36   44.40
   0  18  -2  468.85   23.10
   0  18   2  421.66   24.30
  -1 -18  -2   35.30   13.40
  -1  18  -2   13.50   15.70
  -2 -18  -2   33.20   12.30
  -2  18  -2   14.20   19.60
   3 -18   2  134.69   25.10
  -3  18  -2   74.09   22.60
   4 -18   2   21.70   20.70
  -4  18  -2   -7.20   18.70
   4 -19  -2  -46.70   25.40
  -3  19   2    3.20   20.20
  -3  19   2   -5.70   21.90
  -2  19   2    3.80   20.90
  -2  19   2    3.00   19.20
  -1  19   2    4.70   20.30
  -1  19   2   12.50   16.40
   0  19   2   39.00   15.70
   0  19  -2   40.10   18.10
  -1 -19  -2    9.10   11.70
  -1  19  -2    2.80   15.90
  -2  19  -2    2.10   17.20
   3 -19   2   -4.10   18.40
  -3  19  -2   11.90   19.00
   4 -19   2   13.40   23.10
  -3  20   2   69.69   28.00
  -3  20   2   84.79   24.60
  -2  20   2    7.20   20.00
  -2  20   2   -2.60   21.30
  -1  20   2   64.69   25.20
  -1  20   2   76.19   20.50
   0  20   2   -9.90   14.00
  -1 -20  -2    5.80   12.50
  -1  20  -2   11.00   16.40
  -2  20  -2   -8.50   16.90
   3 -20   2  133.19   25.50
  -3  20  -2  123.49   24.30
  -3  21   2  -26.00   22.80
  -3  21   2  -30.90   20.60
  -2  21   2  -22.50   20.80
  -2  21   2    0.00   20.50
  -1  21   2    6.10   21.40
  -1  21   2   -7.40   18.30
   0  21   2   -1.10   15.70
  -1 -21  -2   -3.90   12.90
  -1  21  -2  -13.40   15.70
  -2  21  -2   32.00   21.30
   3 -21   2  -11.70   32.40
  -3  21  -2  -11.30   21.40
  -2  22   2    3.90   23.40
  -2  22   2   15.50   22.00
  -1  22   2   22.70   19.60
  -1 -22  -2   33.30   14.90
  -1  22  -2   -0.60   17.20
  -2  22  -2    7.80   20.90
  -2  23   2  -15.50   23.40
  -2  23   2  -23.70   21.40
  -1  23   2   66.39   21.20
  -2  23  -2  -12.90   19.90
  -1  24   2  -14.00   22.40
   6   0  -3   22.80   27.70
   5   0  -3   99.19   27.40
   4   0  -3  -10.10   19.60
  -4   0   3   -7.40   12.20
  -4   0   3   -7.60   11.40
   3   0  -3 2153.48   55.19
  -3   0   3 2123.59   45.90
  -3   0   3 2152.28   60.19
  -2   0   3    0.50    6.40
   2   0  -3   -6.90   10.70
   1   0  -3 3474.95   63.89
  -1   0   3 3327.07   61.19
  -1   0   3 3357.56   71.39
   0   0   3    3.00    5.90
   0   0   3   -0.60    5.40
   0   0  -3   -4.10    4.50
   0   0  -3    1.30    5.50
  -1   0  -3  247.98   11.50
   1   0   3  242.58   10.60
  -1   0  -3  255.17   12.00
   1   0   3  260.57    9.40
   2   0   3   21.50    9.50
  -2   0  -3   14.20    7.40
  -3   0  -3   18.00    9.80
   3   0   3   10.30   13.70
   4   0   3   15.30   17.60
  -4   0  -3    5.80   12.20
   5   0   3   14.30   21.90
  -5   0  -3   -3.90   13.10
   6   0   3   24.60   25.10
   6  -1  -3   49.80   29.00
   6   1  -3   35.20   22.70
   5  -1  -3   12.70   23.90
   5   1  -3   22.30   25.50
   4  -1  -3   44.50   21.00
  -4  -1   3   26.50   13.90
  -4  -1   3   37.40   11.50
  -4   1   3   54.29   14.10
  -4   1   3   45.20   15.50
   4   1  -3   71.69   23.30
   3  -1  -3   49.90   16.80
  -3  -1   3   26.60   10.50
  -3  -1   3   34.60    8.40
  -3   1   3   37.80   10.30
   3   1  -3   67.39   17.70
  -3   1   3   41.40   11.90
   2  -1  -3  884.51   27.40
  -2  -1   3  826.72   30.30
  -2   1   3  826.62   31.10
   2   1  -3  841.62   27.00
  -1  -1   3 2645.24   47.90
  -1  -1   3 2672.43   59.09
   1  -1  -3 2630.44   51.09
  -1   1   3 2599.54   59.19
   1   1  -3 2692.33   51.69
   0  -1   3  180.88    8.70
   0  -1  -3  176.68   11.80
   0  -1  -3  188.28   10.90
   0  -1   3  170.78   12.20
   0   1   3  187.58   13.90
   0   1   3  198.88   11.30
   0   1  -3  190.98    9.00
  -1  -1  -3  257.47    9.10
   1  -1   3  237.08   10.60
  -1  -1  -3  252.47   11.30
  -1   1  -3  260.27   10.40
   1   1   3  264.17    9.90
   1   1   3  243.38   11.30
  -1   1  -3  256.07   12.00
   2  -1   3  822.02   18.10
   2  -1   3  765.72   23.80
  -2  -1  -3  801.42   22.70
   2   1   3  803.42   24.80
  -2   1  -3  814.32   23.40
   3  -1   3    3.90   13.60
  -3  -1  -3   13.70    9.70
  -3   1  -3    0.40   10.30
   3   1   3    3.70   10.60
   4  -1   3   51.99   19.00
  -4  -1  -3   16.60   12.00
  -4   1  -3   29.20   12.40
   4   1   3   47.10   19.20
   5  -1   3   74.09   24.00
  -5  -1  -3   33.70   14.50
  -5   1  -3   56.29   16.40
   5   1   3   80.79   24.10
   6  -1   3   46.80   26.20
   6   1   3   18.50   25.30
   6  -2  -3   19.20   28.50
   6   2  -3   25.70   29.20
   5  -2  -3  -11.30   16.80
   5   2  -3   26.10   24.90
   4  -2  -3   12.30   19.60
  -4  -2   3   -4.80   11.30
  -4  -2   3   -3.80   15.90
   4   2  -3   17.00   21.00
  -4   2   3   -4.10   12.20
  -4   2   3  -10.70   13.90
  -3  -2   3  575.34   17.50
  -3  -2   3  574.94   30.30
   3  -2  -3  571.54   28.80
   3   2  -3  575.14   25.90
  -3   2   3  599.64   22.80
  -3   2   3  598.64   33.70
   2  -2  -3   53.69   12.70
  -2  -2   3   40.60    8.90
   2   2  -3   49.20   10.40
  -2   2   3   31.30    9.20
  -1  -2   3 1232.08   23.40
  -1  -2   3 1257.97   35.00
   1  -2  -3 1265.47   27.20
  -1   2   3 1217.08   35.80
   1   2  -3 1237.98   27.80
   0  -2  -3  809.72   24.20
   0  -2   3  822.32   19.10
   0  -2  -3  854.61   21.00
   0   2  -3  845.22   19.50
   0   2   3  849.52   25.40
  -1  -2  -3   89.69    8.30
   1  -2   3   82.39    7.60
  -1  -2  -3   91.99    7.40
   1   2   3  112.79    9.20
  -1   2  -3   89.59    9.60
  -1   2  -3   87.79    7.90
   2  -2   3  316.67   15.50
  -2  -2  -3  308.07   13.40
   2  -2   3  311.97   13.80
   2   2   3  326.37   17.10
  -2   2  -3  314.77   15.60
   3  -2   3  278.37   20.90
   3  -2   3  276.97   11.80
  -3  -2  -3  286.07   16.80
  -3   2  -3  312.97   18.60
   3   2   3  308.97   22.10
   4  -2   3  169.68   23.50
  -4  -2  -3  147.29   17.50
  -4   2  -3  145.49   18.70
   4   2   3  174.28   23.70
  -5  -2  -3   -3.20   12.90
   5  -2   3   -7.50   20.50
   5   2   3   10.80   21.00
  -5   2  -3   -3.80   13.90
   6  -2   3   19.70   24.90
   6   2   3   30.30   25.20
   6  -3  -3   13.80   27.40
   6   3  -3   35.50   29.70
   5  -3  -3   19.90   23.30
   5   3  -3  -10.30   24.40
  -5   3   3  -13.90   13.60
  -4  -3   3   -4.60   11.20
   4  -3  -3    7.60   19.80
   4   3  -3    3.40   20.20
  -4   3   3  -18.20   14.30
  -4   3   3   -7.40   12.80
   3  -3  -3   28.90   16.70
  -3  -3   3   17.20    6.20
  -3  -3   3   18.30    9.00
   3   3  -3   15.90   16.50
  -3   3   3   34.60   12.40
  -3   3   3   13.90   12.50
  -2  -3   3  566.84   26.20
   2  -3  -3  558.44   22.30
   2   3  -3  561.34   22.50
  -2   3   3  582.34   28.20
  -2   3   3  556.14   19.80
   1  -3  -3 6503.75  118.09
  -1  -3   3 6803.52  112.89
   1   3  -3 6656.63  117.59
  -1   3   3 6374.66  127.99
   0  -3  -3   44.90    7.80
   0  -3   3   34.10    4.10
   0   3  -3   37.30    6.20
   0   3   3   41.90    8.40
  -1  -3  -3  479.05   16.00
   1  -3   3  448.16   13.50
  -1  -3  -3  453.45   14.40
   1   3   3  482.05   16.40
  -1   3  -3  486.35   13.60
  -1   3  -3  456.65   16.20
  -2  -3  -3  865.31   16.90
  -2  -3  -3  845.22   22.80
   2  -3   3  817.32   25.10
   2  -3   3  845.22   25.40
   2   3   3  821.22   26.50
  -2   3  -3  880.91   25.70
   3  -3   3  496.65   26.90
  -3  -3  -3  523.25   20.20
   3   3   3  536.85   26.70
  -3   3  -3  483.75   22.90
  -4  -3  -3   21.50   11.30
   4  -3   3   35.30   17.80
  -4   3  -3   22.80   13.30
   4   3   3   26.50   18.50
   5  -3   3   14.90   21.00
  -5   3  -3  -22.90   12.70
   5   3   3   -8.60   20.70
   6  -3   3    1.70   23.90
   6   3   3   13.80   25.60
   6  -4  -3   13.50   27.90
   6   4  -3    9.10   27.60
   5  -4  -3   65.89   25.80
   5   4  -3    0.10   23.70
  -5   4   3   10.40   13.80
   4  -4  -3   19.10   15.70
  -4  -4   3   13.20   11.10
  -4   4   3   14.60   14.30
   4   4  -3   16.50   16.30
  -4   4   3   -4.40   14.00
  -3  -4   3   -2.60    7.60
   3  -4  -3   -8.70   15.60
   3   4  -3   -0.90   12.40
  -3   4   3    1.10   11.30
  -3   4   3    0.20   11.50
   2  -4  -3   33.60    9.80
  -2  -4   3   20.50    7.80
  -2   4   3   23.80   10.00
  -2   4   3   38.10   10.10
   2   4  -3   41.10   12.30
   1  -4  -3  323.77   13.60
  -1  -4   3  320.47    7.60
  -1   4   3  349.17   21.60
   1   4  -3  331.67   13.40
   0  -4  -3  255.27   12.50
   0   4   3  290.47   18.20
   0   4  -3  243.98   10.30
   1  -4   3 1681.43   33.40
  -1  -4  -3 1636.24   35.40
  -1  -4  -3 1644.14   38.30
  -1   4  -3 1702.43   37.00
   1   4   3 1656.53   38.70
  -2  -4  -3    1.10    4.30
  -2  -4  -3    8.20    6.20
   2  -4   3    6.90    8.40
   2   4   3   -1.60   10.20
  -2   4  -3    4.80   10.00
   3  -4   3  502.75   24.90
  -3  -4  -3  491.15   19.60
   3   4   3  487.05   26.60
  -3   4  -3  459.15   23.20
  -4  -4  -3   86.99   13.30
   4  -4   3  119.49   21.10
  -4   4  -3   88.99   16.30
   4   4   3  100.09   21.70
   5  -4   3    4.30   20.80
  -5   4  -3    4.40   16.00
   5   4   3   11.40   17.00
   6  -4   3  -18.50   23.50
  -6   4  -3  -22.00   16.60
   6   4   3  -13.90   25.10
   6  -5  -3    1.20   27.30
   6   5  -3   13.10   29.20
   5  -5  -3   11.40   22.90
   5   5  -3   18.30   24.80
  -5   5   3   -6.70   13.30
  -4  -5   3  389.56   28.80
   4  -5  -3  364.56   29.80
  -4   5   3  368.36   25.40
   4   5  -3  390.96   26.60
  -4   5   3  312.57   37.40
  -3  -5   3    8.00    8.20
   3  -5  -3   11.00   16.20
  -3   5   3   22.10   13.40
  -3   5   3   14.80   12.80
   3   5  -3   25.70   17.50
   2  -5  -3  100.29   12.50
  -2  -5   3   79.69   14.00
  -2   5   3  108.19   13.00
   2   5  -3  106.29   14.30
  -2   5   3  113.39   20.30
  -1  -5   3 1265.27   23.80
   1  -5  -3 1280.37   31.10
  -1   5   3 1259.57   40.30
   1   5  -3 1281.47   29.80
   0  -5  -3 3231.88   63.29
   0   5  -3 3255.27   59.99
   0   5   3 3190.08   70.59
  -1  -5  -3  236.88   11.70
   1  -5   3  262.37   10.60
   1   5   3  261.27   16.30
  -1   5  -3  259.17   13.70
  -2  -5  -3   99.29    9.80
   2  -5   3  109.69   11.80
  -2  -5  -3   88.69   11.80
   2   5   3  112.39   14.90
  -2   5  -3   92.99   12.50
  -3  -5  -3   99.89    7.30
  -3  -5  -3   98.39   12.60
  -3  -5  -3   70.29   12.30
   3  -5   3  133.79   17.70
  -3   5  -3   92.89   16.00
   3   5   3  102.39   18.80
  -4  -5  -3   32.00   10.70
   4  -5   3   10.80   16.40
   4   5   3   55.69   19.90
  -4   5  -3   27.50   15.40
   5  -5   3   19.80   20.40
   5   5   3    1.60   21.70
  -5   5  -3  -11.00   16.20
   6  -5   3   19.40   24.00
  -6   5  -3  -35.20   17.70
   6   5   3   10.90   29.20
   6  -6  -3   -5.70   42.70
   6   6  -3  -14.20   43.70
   5  -6  -3   50.69   24.70
   5   6  -3   22.60   24.40
  -5   6   3   11.20   14.40
   4  -6  -3   46.10   20.40
  -4  -6   3   29.40   11.80
   4   6  -3   76.39   22.30
  -4   6   3    8.30   17.20
  -4   6   3   37.70   15.10
  -3  -6   3  609.14   31.90
   3  -6  -3  603.54   29.80
  -3   6   3  606.54   37.60
   3   6  -3  601.14   30.30
  -3   6   3  619.04   27.40
   2  -6  -3   37.70   10.60
  -2   6   3   38.60   13.70
   2   6  -3   30.00   11.70
  -2   6   3   46.30   12.60
  -1  -6   3  498.25   11.90
   1  -6  -3  505.45   18.50
   1   6  -3  493.75   16.80
  -1   6   3  497.75   27.50
  -1   6   3  512.15   19.40
   0  -6  -3   45.20    8.30
   0   6   3   35.20    9.70
   0   6  -3   32.50    6.50
  -1  -6  -3  156.48    9.80
  -1   6  -3  161.58   12.60
   1   6   3  157.68   16.50
  -2  -6  -3  181.28   11.40
   2  -6   3  189.88   13.50
  -2   6  -3  219.88   16.40
  -3  -6  -3   35.70    9.40
   3  -6   3   39.70   14.70
  -3   6  -3   31.00   14.00
   3   6   3   39.70   17.20
  -4  -6  -3   34.00   11.00
   4  -6   3   35.70   17.00
  -4   6  -3   44.70   15.50
   4   6   3   42.60   19.80
   5  -6   3    8.40   22.00
   5   6   3   22.10   22.70
  -5   6  -3   -6.00   15.10
  -6   6  -3  -11.40   17.30
   5  -7  -3   21.70   18.30
  -5   7   3   17.70   15.30
   5   7  -3   26.20   25.20
  -4  -7   3  199.38   23.80
   4  -7  -3  186.78   23.10
   4   7  -3  213.38   27.20
  -4   7   3  204.38   24.10
   3  -7  -3   42.70   17.90
  -3  -7   3   24.80   10.00
  -3   7   3   33.00   15.90
   3   7  -3   52.09   18.80
  -3   7   3   54.39   17.40
   2   7  -3   11.80   11.70
  -2   7   3   14.10   11.80
  -2   7   3   14.60   12.60
   1  -7  -3  267.87   14.80
  -1   7   3  267.17   16.40
  -1   7   3  299.17   24.80
   0  -7  -3 1436.46   34.50
   0   7  -3 1450.25   31.50
   0   7   3 1456.55   44.10
  -1  -7  -3   10.10    6.80
   1   7   3    8.40    8.80
  -1   7  -3   12.40    9.20
  -2  -7  -3  649.24   20.30
   2  -7   3  637.34   22.60
  -2   7  -3  664.43   26.10
   2   7   3  689.53   22.60
   3  -7   3  213.28   20.20
  -3  -7  -3  201.28   15.00
  -3   7  -3  222.68   23.30
   3   7   3  198.78   23.90
  -4  -7  -3   28.10   10.40
   4  -7   3   62.19   18.30
   4   7   3   38.20   20.50
  -4   7  -3   21.50   15.10
   5  -7   3   52.49   21.80
   5   7   3   63.39   25.60
  -5   7  -3   28.10   17.60
   5  -8  -3  106.99   23.50
  -5   8   3   62.89   19.10
   5   8  -3  110.19   24.00
   4  -8  -3   15.10   19.90
  -4  -8   3    9.20    9.80
   4   8  -3   -2.00   20.60
  -4   8   3  -10.60   16.10
  -4   8   3   -0.50   14.20
   3  -8  -3  439.06   28.60
  -3  -8   3  429.66   27.90
   3   8  -3  492.05   29.60
  -3   8   3  502.65   42.10
  -3   8   3  468.75   29.60
  -2  -8   3   -0.40    2.00
  -2  -8   3   -3.00    1.80
   2   8  -3   -5.60   11.70
  -2   8   3    4.50   12.90
  -2   8   3    1.40   12.70
   1  -8  -3  903.61   28.00
  -1   8   3  900.71   38.60
  -1   8   3  894.31   28.10
   0  -8  -3 1563.64   37.70
   0   8   3 1625.94   37.70
   0   8   3 1602.34   49.10
   0   8  -3 1591.74   34.60
  -1  -8  -3   36.60    8.20
   1   8   3   27.20    8.40
  -1   8  -3   38.00   10.10
   1   8   3   20.70   10.50
  -2  -8  -3  165.58   12.20
   2  -8   3  158.28   13.50
   2   8   3  158.08   10.40
   2   8   3  165.58   10.10
  -2   8  -3  169.08   17.00
  -3  -8  -3    7.50    8.70
   3  -8   3   14.40   15.70
  -3   8  -3    8.70   14.40
   4  -8   3   -2.50   15.60
  -4   8  -3   -0.90   15.80
   4   8   3   11.70   15.40
   5  -8   3  -15.10   19.00
   5   8   3   19.70   24.00
  -5   8  -3  -10.10   17.80
   5  -9  -3    7.10   23.80
  -5   9   3   -1.90   17.60
   5   9  -3   29.80   26.20
  -4  -9   3    2.80    9.70
   4  -9  -3    7.20   20.00
   4   9  -3  -10.80   20.80
  -4   9   3    6.70   16.00
  -4   9   3  -28.20   18.70
   3  -9  -3   56.09   20.20
  -3   9   3   36.30   18.30
   3   9  -3   78.69   20.50
  -3   9   3   54.99   17.90
  -2  -9   3  759.32   17.00
  -2   9   3  829.22   30.70
   2   9  -3  789.12   29.60
  -2   9   3  777.82   41.70
   1  -9  -3   29.90    9.30
  -1   9   3   26.90   13.10
  -1   9   3   33.80   12.20
   0  -9  -3  108.49   12.80
   0   9   3  115.39   13.50
   0   9   3  123.19   22.00
   0   9  -3  106.09   10.60
  -1  -9  -3  841.52   25.10
   1   9   3  841.02   34.80
   1   9   3  818.82   23.60
  -1   9  -3  865.91   26.70
  -2  -9  -3 1265.07   31.80
   2  -9   3 1164.18   32.30
  -2   9  -3 1270.87   37.30
   2   9   3 1230.38   27.40
   2   9   3 1181.68   27.00
  -3  -9  -3   33.00    9.80
   3  -9   3   20.70   14.30
  -3   9  -3   18.90   15.50
   4  -9   3   41.40   17.10
  -4   9  -3   17.00   15.90
   5  -9   3    8.20   19.90
  -5   9  -3    2.10   16.40
   5   9   3  -24.50   22.40
   5 -10  -3   19.50   24.60
  -5  10   3    4.90   16.80
   5  10  -3   20.10   25.60
  -4 -10   3   10.00   10.70
   4 -10  -3   -7.30   20.40
  -4  10   3   11.80   16.50
  -4  10   3  -14.10   17.50
   4  10  -3   13.00   21.60
   3 -10  -3   41.70   20.30
  -3  10   3   26.10   18.70
  -3  10   3   31.80   17.60
   3  10  -3   43.10   19.30
  -2 -10   3   42.30    5.50
  -2  10   3   56.09   17.90
  -2  10   3   49.80   17.40
   1 -10  -3    1.60    8.20
  -1  10   3   -2.10   12.80
  -1  10   3    3.60   11.90
   0 -10  -3  763.32   25.30
   0  10   3  773.52   26.20
   0  10   3  783.82   37.60
   0  10  -3  816.52   22.80
  -1 -10  -3 1030.40   29.10
   1  10   3 1018.50   27.70
  -1  10  -3 1031.40   30.60
   1  10   3 1095.49   41.60
   2 -10   3  215.08   16.00
  -2 -10  -3  228.38   14.90
  -2  10  -3  236.08   20.70
   2  10   3  222.48   11.50
  -3 -10  -3  119.69   14.30
   3 -10   3  145.49   19.90
  -3  10  -3   98.29   18.60
   4 -10   3    4.50   18.00
  -4  10  -3  -22.60   14.40
   5 -10   3   37.80   23.00
  -5  10  -3   -6.10   17.50
   5 -11  -3   13.50   25.60
   5  11  -3   18.40   26.30
  -5  11   3    1.40   16.70
   4 -11  -3   57.09   23.40
  -4 -11   3   61.19   13.90
  -4  11   3   23.40   22.90
   4  11  -3   95.49   24.70
  -4  11   3   46.50   19.90
   3 -11  -3  182.78   25.60
  -3  11   3  119.49   23.10
  -3  11   3  204.58   24.10
  -2 -11   3   46.40    6.70
  -2  11   3   22.50   16.40
  -2  11   3   31.40   18.30
   1 -11  -3    4.60    9.40
  -1  11   3    3.60   14.50
  -1  11   3   -5.80   13.00
   0 -11  -3  147.99   13.80
   0  11  -3  147.09   12.90
   0  11   3  139.09   16.80
   0  11   3  142.59   25.80
  -1 -11  -3 1600.84   40.60
   1  11   3 1582.44   37.50
   1  11   3 1571.74   53.89
  -1  11  -3 1629.54   42.00
  -2 -11  -3  321.57   17.50
   2 -11   3  287.57   18.20
  -2  11  -3  336.07   23.40
   2  11   3  326.37   13.10
  -3 -11  -3   -0.40    8.90
   3 -11   3   10.60   13.40
  -3  11  -3   14.00   15.50
   4 -11   3   -4.90   18.00
  -4  11  -3  -17.40   14.90
   5 -11   3   56.79   24.40
  -5  11  -3    4.30   18.80
   5 -12  -3   11.90   25.90
  -5  12   3  -13.30   18.70
   5  12  -3   33.40   27.40
  -4 -12   3   25.70   11.50
   4 -12  -3   16.60   17.90
   4  12  -3   21.40   22.80
  -4  12   3   -8.80   19.40
  -4  12   3    0.00   16.60
   3 -12  -3   31.60   21.40
  -3  12   3   19.60   19.20
  -3  12   3   27.80   16.30
  -2 -12   3   28.60    6.80
  -2  12   3   32.10   17.10
  -2  12   3   19.00   17.90
  -1  12   3   13.80   15.90
  -1  12   3   -0.90   13.70
   0 -12  -3  108.99   13.90
   0  12   3  104.59   16.00
   0  12   3   65.49   17.00
   0  12  -3   98.29   12.10
  -1 -12  -3  485.25   22.10
   1  12   3  457.75   19.80
   1  12   3  477.35   34.30
  -1  12  -3  474.65   24.20
  -2 -12  -3   22.60   10.00
   2  12   3   26.80    7.50
  -2  12  -3    8.40   15.00
   3 -12   3   34.30   14.40
  -3 -12  -3   52.69   10.90
  -3  12  -3   31.80   16.70
   4 -12   3   50.89   19.90
  -4  12  -3   36.40   17.90
   5 -12   3   11.90   19.40
  -5  12  -3  -12.30   18.20
   5 -13  -3    2.60   25.30
  -5  13   3  -13.70   18.00
   4 -13  -3  156.88   29.40
  -4  13   3   71.19   26.40
  -4  13   3   81.89   21.50
   3 -13  -3   95.99   25.60
  -3  13   3   80.29   20.70
  -3  13   3   62.79   21.70
  -2 -13   3  511.95   18.00
  -2  13   3  517.65   30.30
  -2  13   3  486.05   44.10
  -1  13   3   53.39   17.00
  -1  13   3   46.60   18.70
   0 -13  -3  197.38   17.20
   0  13  -3  182.98   16.20
   0  13   3  196.78   32.30
   0  13   3  181.48   19.60
  -1 -13  -3  542.25   24.00
   1  13   3  583.64   42.00
  -1  13  -3  574.94   25.40
   1  13   3  549.35   22.10
  -2 -13  -3   13.70   10.10
  -2  13  -3    3.80   15.10
   3 -13   3  144.89   18.90
  -3 -13  -3  149.09   15.60
  -3  13  -3  113.89   19.70
   4 -13   3   -1.90   17.70
  -4  13  -3  -22.50   14.90
   5 -13   3   12.30   20.00
  -5  13  -3   -2.80   18.80
   5 -14  -3    2.80   27.40
  -5  14   3   25.50   21.70
   4 -14  -3   18.30   24.40
  -4 -14   3   22.30   11.20
  -4  14   3   -6.20   16.90
  -4  14   3  -31.90   21.70
   3 -14  -3   64.59   25.40
  -3  14   3   33.70   17.50
  -3  14   3   26.50   21.00
  -2  14   3   66.89   18.60
  -2  14   3   56.29   20.60
  -1  14   3  688.93   43.60
  -1  14   3  676.03   32.70
   0 -14  -3   77.99   14.20
   0  14  -3   89.29   13.40
   0  14   3   55.59   19.30
   0  14   3   75.09   15.80
  -1 -14  -3   23.60   11.70
  -1  14  -3   13.20   14.00
   1  14   3   20.50   18.50
   1  14   3   28.90   12.30
  -2 -14  -3   52.29   12.20
  -2  14  -3   42.70   18.20
   3 -14   3   10.00   14.00
  -3  14  -3  -19.30   16.80
   4 -14   3    0.10   16.40
  -4  14  -3   23.00   19.60
   5 -14   3    8.50   20.50
  -5  14  -3  -26.00   18.30
   4 -15  -3   10.30   25.80
  -4  15   3  -29.40   20.20
  -4  15   3  -11.10   17.00
  -3  15   3   -5.40   19.50
  -3  15   3   29.50   17.80
  -2  15   3   36.50   20.60
  -2  15   3   41.90   18.20
  -1  15   3  100.79   18.80
  -1  15   3   82.99   22.50
   0 -15  -3  189.28   19.20
   0  15   3  175.28   20.60
   0  15  -3  183.88   16.70
  -1 -15  -3  113.69   15.10
   1  15   3   71.29   20.40
   1  15   3   99.59   13.90
  -1  15  -3   97.39   17.90
  -2 -15  -3   29.00   12.30
  -2  15  -3   11.70   15.50
   3 -15   3  140.59   21.40
  -3  15  -3   92.49   20.50
   4 -15   3   25.20   17.70
  -4  15  -3    9.50   18.10
   4 -16  -3   -2.80   26.70
  -4  16   3    8.10   20.00
  -4  16   3  -16.00   22.70
  -3  16   3  -11.30   19.60
  -3  16   3   13.90   17.80
  -2  16   3  103.29   20.50
  -2  16   3   47.90   21.90
  -1  16   3   93.19   23.10
  -1  16   3  139.09   20.10
   0 -16  -3  258.67   20.80
   0  16   3  214.08   36.80
   0  16  -3  235.18   18.20
   0  16   3  249.78   20.40
  -1 -16  -3   -6.40   10.60
   1  16   3    1.60   10.60
  -1  16  -3   -8.60   13.00
  -2 -16  -3  166.98   18.50
  -2  16  -3  184.48   22.90
   3 -16   3   -7.80   14.40
  -3  16  -3   -3.90   16.90
   4 -16   3   15.90   20.10
  -4  16  -3  -26.30   17.40
   4 -17  -3  -14.70   27.90
  -4  17   3  -20.90   16.90
  -4  17   3  -13.70   24.30
  -3  17   3    5.70   17.30
  -3  17   3  -15.80   20.50
  -2  17   3   23.60   17.80
  -2  17   3   38.30   22.50
  -1  17   3    1.80   15.50
  -1  17   3   -6.90   18.50
   0 -17  -3  556.64   28.90
   0  17   3  557.44   45.90
   0  17  -3  593.74   24.10
   0  17   3  501.25   27.10
  -1 -17  -3  158.58   19.20
  -1  17  -3  140.79   19.70
   1  17   3  153.98   16.60
  -2 -17  -3   36.10   12.60
  -2  17  -3   19.60   18.80
   3 -17   3  -16.20   16.40
  -3  17  -3  -26.00   18.10
   4 -17   3   69.59   24.10
  -4  17  -3   31.50   21.70
   4 -18  -3   11.40   28.50
  -4  18   3  -13.80   19.00
  -3  18   3   13.40   18.30
  -3  18   3  -16.40   22.00
  -2  18   3  163.58   23.60
  -2  18   3  111.79   26.50
  -1  18   3   70.29   20.40
  -1  18   3   64.39   23.40
   0 -18  -3   66.09   16.10
   0  18   3   72.59   16.00
   0  18  -3   35.10   12.50
   0  18   3   27.30   20.30
  -1 -18  -3   49.50   14.20
  -1  18  -3   41.90   15.90
  -2 -18  -3   76.19   15.30
  -2  18  -3   40.70   18.70
   3 -18   3   31.90   17.20
  -3  18  -3   11.30   19.10
  -4  18  -3    0.00   19.80
   4 -19  -3  -19.50   29.30
  -3  19   3   -8.70   17.90
  -3  19   3  -30.40   22.40
  -2  19   3  336.97   46.20
  -2  19   3  354.46   29.20
  -1  19   3    7.30   18.00
  -1  19   3    9.40   20.50
   0 -19  -3   63.79   16.90
   0  19   3   43.20   16.60
   0  19   3   33.80   21.20
  -1 -19  -3   68.09   15.10
  -1  19  -3   63.29   18.00
  -2 -19  -3   40.20   13.80
  -2  19  -3    0.40   18.50
   3 -19   3  -23.30   30.80
  -3  19  -3   -6.70   20.80
  -3  20   3    6.30   20.60
  -3  20   3   -4.80   24.80
  -2  20   3   56.19   25.60
  -2  20   3   79.19   22.60
  -1  20   3  -22.70   15.50
  -1  20   3   -1.40   19.90
   0  20   3   -9.50   14.50
   0  20   3  -12.80   19.40
  -1 -20  -3   -3.20   13.30
  -1  20  -3    6.50   15.70
  -2  20  -3   -0.10   19.20
  -3  20  -3   10.30   21.00
  -3  21   3  -28.90   23.90
  -3  21   3  -19.70   21.20
  -2  21   3  106.49   29.30
  -2  21   3  183.68   27.50
  -1  21   3   15.50   18.20
  -1  21   3   14.10   22.10
   0  21   3   21.70   16.00
  -1 -21  -3   23.40   14.30
  -1  21  -3   36.90   17.80
  -2  21  -3   34.70   19.60
  -3  21  -3  -20.10   21.20
  -2  22   3    8.30   24.30
  -2  22   3   24.20   22.80
  -1  22   3   16.60   23.30
  -1  22   3    7.10   19.30
  -1 -22  -3   90.39   18.10
  -2  22  -3   -2.60   20.40
  -2  23   3  -26.10   23.90
  -2  23   3  -11.50   21.10
  -1  23   3   -0.20   23.10
  -1  23   3    7.70   20.20
  -1 -23  -3   47.70   17.80
  -2  23  -3  -13.90   20.90
  -1  24   3   -3.70   20.10
   6   0  -4    5.00   27.90
   5   0  -4    3.10   18.90
  -4   0   4  343.67   33.80
   4   0  -4  352.46   30.50
  -4   0   4  313.87   19.30
   3   0  -4  -11.90   15.40
  -3   0   4   -4.80    8.60
  -3   0   4    4.20    9.50
   2   0  -4  784.32   26.60
  -2   0   4  798.32   32.20
  -1   0   4    6.60    6.70
   1   0  -4   -3.10    4.40
   1   0  -4    5.50    7.30
   0   0   4 9999.00  177.88
   0   0  -4 9581.34  170.98
  -1   0  -4    9.90    7.90
   1   0   4   -0.10    3.50
   1   0   4    2.30    5.20
  -1   0  -4    5.10    6.60
  -2   0  -4  139.69   13.20
   2   0   4  121.29   12.00
  -3   0  -4   -1.90   10.30
   3   0   4  -11.40   12.40
   4   0   4   14.30   16.90
  -4   0  -4   12.70   12.90
  -5   0  -4    1.00   14.70
   5   0   4   -3.50   19.00
   6   0   4   13.40   23.00
   6  -1  -4    4.40   21.60
   6   1  -4   17.00   29.30
   5  -1  -4   22.80   24.50
   5   1  -4   51.69   26.50
  -4  -1   4   12.80   13.40
  -4  -1   4   20.80   11.50
   4  -1  -4   25.90   16.50
   4   1  -4   45.20   21.80
  -4   1   4   15.00   13.70
  -4   1   4   17.10   12.70
   3  -1  -4  195.48   22.80
  -3  -1   4  173.78   21.10
   3   1  -4  192.08   22.10
  -3   1   4  193.58   14.80
  -3   1   4  181.88   22.70
   2  -1  -4 1502.35   38.30
  -2  -1   4 1498.55   45.50
   2   1  -4 1493.95   38.20
  -2   1   4 1490.85   46.10
   1  -1  -4  585.34   16.30
  -1  -1   4  556.94   23.80
   1  -1  -4  577.54   17.50
  -1   1   4  553.04   24.20
   1   1  -4  560.14   13.50
   1   1  -4  571.64   17.00
   0  -1  -4   99.19    9.20
   0   1   4   97.69   12.20
   0   1  -4   88.39    9.30
  -1  -1  -4  521.25   16.90
   1  -1   4  540.45   16.90
   1  -1   4  506.65   14.70
  -1  -1  -4  543.55   16.10
  -1   1  -4  525.85   17.20
   1   1   4  542.25   16.60
  -1   1  -4  526.25   15.00
   2  -1   4   -1.30    3.50
  -2  -1  -4    6.40    7.90
   2  -1   4    3.60    8.10
  -2   1  -4    7.60    8.00
   2   1   4    4.90    9.00
  -3  -1  -4   36.90   11.30
   3  -1   4   28.20   13.60
  -3   1  -4   34.50   11.50
   3   1   4   47.50   15.00
  -4  -1  -4   -0.60   11.20
   4  -1   4   -9.90   14.70
   4   1   4    0.50   16.70
  -4   1  -4  -10.90   11.00
  -5  -1  -4   -7.50   12.90
   5  -1   4    3.80   20.00
  -5   1  -4   -2.80   14.30
   5   1   4   17.00   20.90
   6  -1   4    4.40   26.60
   6   1   4    6.20   23.00
   6  -2  -4   54.39   28.50
   6   2  -4   42.40   29.70
   5  -2  -4   15.10   24.30
   5   2  -4    9.80   19.50
   4  -2  -4   12.40   19.80
  -4  -2   4  -10.30   11.70
   4   2  -4  -14.50   19.80
  -4   2   4   -2.70   15.30
  -4   2   4   -6.20   12.40
   3  -2  -4   17.50   17.10
  -3  -2   4   18.50    9.80
  -3   2   4   28.40   11.10
   3   2  -4   33.50   13.80
  -3   2   4   24.70   13.30
  -2  -2   4   -3.00    7.00
   2  -2  -4    9.80   11.40
  -2   2   4    4.80    8.30
   2   2  -4    4.90   11.40
   1  -2  -4  877.11   22.20
  -1  -2   4  818.32   29.30
  -1  -2   4  822.02   18.60
   1   2  -4  827.52   21.60
  -1   2   4  829.22   30.40
   0  -2  -4 3541.75   68.09
   0   2  -4 3610.94   61.19
   0   2   4 3568.44   74.19
   0   2  -4 3608.04   66.29
   1  -2   4   80.59    7.20
  -1  -2  -4   69.89    8.00
  -1  -2  -4   68.39    8.60
   1   2   4   72.79    9.70
  -1   2  -4   81.49   10.10
  -1   2  -4   68.59    7.50
   2  -2   4  163.38   12.10
  -2  -2  -4  185.48   12.10
   2  -2   4  171.08   12.10
  -2   2  -4  175.88   13.70
   2   2   4  179.88   14.30
  -3  -2  -4  553.74   22.60
   3  -2   4  524.35   24.90
   3   2   4  540.15   26.40
  -3   2  -4  531.45   23.70
  -4  -2  -4   -4.90   11.20
   4  -2   4   14.60   16.20
  -4   2  -4   -5.00   12.00
   4   2   4   -8.20   15.70
   5  -2   4   18.10   20.00
  -5  -2  -4   10.00   13.40
   5   2   4   39.00   21.80
  -5   2  -4   16.00   16.20
   6  -2   4   13.80   23.40
   6   2   4   -2.40   23.80
   6  -3  -4   14.40   26.90
   6   3  -4   59.99   29.10
   5  -3  -4   66.59   21.20
   5   3  -4   73.99   27.60
   4  -3  -4   63.79   21.90
  -4  -3   4   32.10   13.80
  -4   3   4   19.40   16.40
  -4   3   4   58.59   15.30
   4   3  -4   80.19   23.20
  -3  -3   4   -4.30    8.30
   3  -3  -4  -15.30   15.90
   3   3  -4   -7.00   16.40
  -3   3   4    9.40   13.70
  -3   3   4    3.20   11.30
   2  -3  -4  495.95   21.90
  -2  -3   4  510.25   25.90
  -2   3   4  517.75   28.60
   2   3  -4  508.05   21.60
  -1  -3   4  496.35   23.30
  -1  -3   4  533.55   13.00
   1  -3  -4  513.65   17.10
   1   3  -4  526.85   16.50
  -1   3   4  526.75   25.20
   0  -3  -4 1767.82   38.40
   0   3  -4 1814.22   36.30
   0   3   4 1765.82   44.70
   1  -3   4   44.70    6.00
  -1  -3  -4   24.90    5.30
  -1  -3  -4   36.30    7.00
  -1   3  -4   37.00    8.00
   1   3   4   31.90    6.40
  -1   3  -4   46.60    6.00
   2  -3   4  866.61   26.60
   2  -3   4  887.71   25.60
  -2  -3  -4  919.51   25.10
  -2   3  -4  922.01   27.40
   2   3   4  947.71   28.10
   3  -3   4   79.79   15.30
  -3  -3  -4   87.29   12.60
  -3   3  -4   75.49   13.90
   3   3   4   83.19   17.10
  -4  -3  -4  145.69   17.50
   4  -3   4  166.68   22.00
  -4   3  -4  170.38   20.00
   4   3   4  128.89   21.70
   5  -3   4    3.40   19.70
  -5  -3  -4    2.80   14.90
   5   3   4  -27.80   19.20
  -5   3  -4    6.50   16.20
   6  -3   4   15.50   23.60
  -6   3  -4  -25.40   17.40
   6   3   4   33.20   26.00
   6  -4  -4   42.30   28.10
   6   4  -4   68.99   31.40
   5  -4  -4    8.30   23.10
  -5   4   4    3.30   14.70
   5   4  -4    5.30   24.20
   4  -4  -4   70.19   22.10
  -4  -4   4   62.39   14.80
  -4   4   4   60.99   14.80
   4   4  -4   91.99   23.60
   3  -4  -4  209.08   23.30
  -3  -4   4  196.38   21.30
  -3   4   4  218.98   27.80
   3   4  -4  182.98   18.80
  -3   4   4  172.08   19.20
  -2  -4   4  377.86   24.30
   2  -4  -4  359.86   19.80
  -2   4   4  373.26   26.40
   2   4  -4  370.36   19.30
  -1  -4   4  424.26   11.10
   1  -4  -4  404.66   16.10
  -1   4   4  435.76   24.50
   1   4  -4  414.76   14.40
   0  -4  -4  444.86   16.30
   0  -4   4  450.25    9.70
   0   4   4  446.96   23.10
   0   4  -4  463.95   14.30
   1  -4   4  543.45   14.20
  -1  -4  -4  519.35   17.30
  -1   4  -4  559.64   19.50
   1   4   4  538.55   20.50
  -2  -4  -4  211.48   12.40
  -2  -4  -4  200.88    9.90
   2  -4   4  197.88   12.70
   2   4   4  194.08   16.30
  -2   4  -4  200.38   15.50
   3  -4   4  107.49   16.50
  -3  -4  -4  127.79   13.40
  -3   4  -4   97.39   15.30
   3   4   4  146.79   19.50
  -4  -4  -4   25.80   11.40
   4  -4   4   18.10   16.00
   4   4   4   39.70   18.50
  -4   4  -4   10.90   13.50
   5  -4   4   20.00   22.40
   5   4   4   20.70   22.10
  -5   4  -4    9.70   15.10
   6  -4   4   26.90   24.90
   6   4   4    8.40   26.50
  -6   4  -4   -7.70   17.90
   6  -5  -4  -12.30   40.40
   6   5  -4   25.00   33.10
   5  -5  -4   22.00   24.30
  -5   5   4    3.80   15.30
   5   5  -4   43.00   25.90
  -4  -5   4    7.40   11.40
   4  -5  -4   -9.20   19.00
  -4   5   4  -18.70   14.90
   4   5  -4   17.80   20.60
  -4   5   4   -3.90   14.60
  -3  -5   4  658.23   34.60
   3  -5  -4  626.84   27.70
  -3   5   4  648.44   28.40
   3   5  -4  657.33   31.50
  -3   5   4  664.73   41.80
  -2  -5   4  231.98   19.70
   2  -5  -4  245.28   18.30
  -2   5   4  264.87   24.80
  -2   5   4  231.28   16.10
   2   5  -4  241.18   17.50
  -1  -5   4  631.94   14.80
   1  -5  -4  665.73   21.80
   1   5  -4  627.24   19.00
  -1   5   4  617.64   29.50
   0  -5  -4  302.97   14.30
   0  -5   4  299.37    8.70
   0   5   4  319.67   20.50
   0   5  -4  304.87   12.00
  -1  -5  -4 1418.46   33.70
   1  -5   4 1506.25   30.10
  -1   5  -4 1490.15   35.20
   1   5   4 1492.25   39.10
   2  -5   4  530.65   19.80
  -2  -5  -4  528.15   18.40
  -2  -5  -4  532.15   18.70
  -2   5  -4  525.85   21.90
  -3  -5  -4   58.49   11.40
   3  -5   4   53.09   14.50
   3   5   4   58.79   17.80
  -3   5  -4   47.80   14.60
   4  -5   4  110.39   19.90
  -4  -5  -4   99.59   14.30
   4   5   4  131.99   22.60
  -4   5  -4   71.79   17.50
   5  -5   4   17.90   19.80
  -5   5  -4   -7.50   14.70
   5   5   4   11.10   21.80
   6   6  -4    7.00   43.40
   5  -6  -4  -16.90   22.70
  -5   6   4   -0.40   15.50
   5   6  -4    5.90   24.20
  -4  -6   4   14.40   11.60
   4  -6  -4   10.30   20.50
  -4   6   4   13.40   14.30
  -4   6   4   -2.90   16.20
   4   6  -4   23.30   20.60
   3  -6  -4  469.55   28.40
  -3  -6   4  440.86   30.60
  -3   6   4  455.25   26.90
  -3   6   4  467.65   36.70
   3   6  -4  462.55   28.10
  -2   6   4  758.82   26.60
  -2   6   4  748.23   37.60
   2   6  -4  772.32   26.60
   1  -6  -4   76.09   10.50
  -1   6   4   56.89   12.50
   1   6  -4   73.19   10.00
   0  -6  -4 2605.14   54.49
   0   6   4 2619.94   63.59
   0   6  -4 2507.45   50.19
  -1  -6  -4 1546.45   36.00
   1  -6   4 1570.74   31.90
   1   6   4 1551.74   42.70
  -1   6  -4 1577.24   37.30
  -2  -6  -4   37.30    8.00
   2  -6   4   25.30   10.00
  -2   6  -4   26.40   11.40
   3  -6   4   10.80   13.00
  -3  -6  -4   11.00    9.20
  -3   6  -4   18.50   13.60
   3   6   4   17.70   16.80
   4  -6   4   15.60   15.40
  -4  -6  -4   -0.20   10.20
  -4   6  -4    0.90   14.10
   4   6   4    2.40   18.30
   5  -6   4   42.70   20.70
  -5   6  -4   10.50   17.80
   5   6   4   40.60   22.90
   5  -7  -4   14.40   24.60
  -5   7   4   12.20   16.20
   5   7  -4   13.60   23.90
   4  -7  -4  113.39   24.20
  -4  -7   4   59.79   14.10
   4   7  -4  144.69   25.20
  -4   7   4   27.90   19.00
  -4   7   4   70.09   17.80
  -3  -7   4  306.37   26.20
   3  -7  -4  276.57   21.60
   3   7  -4  328.17   26.60
  -3   7   4  319.57   26.10
  -3   7   4  332.87   35.30
   2   7  -4  348.07   22.40
  -2   7   4  347.07   20.60
  -2   7   4  358.86   30.50
   1  -7  -4   23.70    9.20
  -1   7   4   30.20   12.20
   0  -7  -4  326.17   16.00
   0   7   4  330.47   24.10
   0   7  -4  306.87   13.30
  -1  -7  -4  296.27   14.30
   1   7   4  309.77   22.10
  -1   7  -4  326.17   16.60
   2  -7   4    5.30    9.20
  -2  -7  -4    7.60    7.90
  -2   7  -4   12.70   10.90
  -3  -7  -4   10.80    9.10
   3  -7   4    1.20   13.20
  -3   7  -4   18.10   14.60
  -4  -7  -4   66.19   13.00
   4  -7   4   71.39   18.20
   4   7   4   70.19   21.20
  -4   7  -4   33.90   17.50
   5  -7   4   38.10   20.30
   5   7   4    3.90   23.10
  -5   7  -4  -10.60   15.70
   5  -8  -4    9.60   24.40
  -5   8   4   -9.60   14.50
   5   8  -4   13.80   25.00
   4  -8  -4   12.10   16.70
  -4  -8   4   27.50   12.50
   4   8  -4   22.90   17.10
  -4   8   4   40.10   17.30
  -4   8   4  -16.60   16.10
  -3  -8   4  248.08   25.10
   3  -8  -4  239.78   26.00
  -3   8   4  278.37   36.20
  -3   8   4  285.77   27.10
   3   8  -4  270.57   26.20
  -2  -8   4 1092.49   21.50
  -2  -8   4 1114.19   21.40
  -2   8   4 1160.18   36.00
  -2   8   4 1137.59   48.70
   2   8  -4 1204.48   36.00
   1  -8  -4  518.65   21.60
  -1   8   4  545.05   22.70
  -1   8   4  555.94   30.90
   0  -8  -4  932.41   27.90
   0   8  -4  949.01   24.40
   0   8   4  995.70   38.50
  -1  -8  -4   -2.20    6.80
  -1   8  -4    3.90    9.50
   1   8   4    5.10    9.70
  -2  -8  -4  470.05   19.20
   2  -8   4  452.35   19.50
  -2   8  -4  441.26   23.00
  -3  -8  -4  642.44   23.60
   3  -8   4  611.74   27.20
  -3   8  -4  564.54   29.00
  -4  -8  -4   -1.20    9.90
   4  -8   4   -6.40   14.90
  -4   8  -4   15.20   15.70
   5  -8   4    8.70   19.30
  -5   8  -4    0.40   16.50
   5   8   4    1.90   23.40
   5  -9  -4   50.59   26.80
   5   9  -4   84.79   23.00
  -5   9   4   55.79   19.70
  -4  -9   4   65.99   14.90
   4  -9  -4   77.19   20.20
   4   9  -4  116.29   24.80
  -4   9   4  102.19   19.40
  -4   9   4   47.40   23.40
  -3  -9   4   10.40   11.50
   3  -9  -4   16.80   20.10
  -3   9   4   11.80   18.00
   3   9  -4   13.00   18.30
  -3   9   4    2.80   17.90
  -2  -9   4   31.60    4.40
  -2   9   4   33.70   16.70
  -2   9   4   21.10   14.90
   2   9  -4   20.00   13.90
   1  -9  -4  429.16   21.30
  -1   9   4  411.96   31.10
  -1   9   4  423.96   21.90
   0  -9  -4   21.50    9.30
   0   9   4   14.80   11.40
   0   9  -4   14.60    7.30
   0   9   4   20.50   11.90
  -1  -9  -4   39.80    9.70
  -1   9  -4   32.80   11.70
   1   9   4   21.10   10.80
   2  -9   4  215.28   15.90
  -2  -9  -4  213.78   15.40
  -2   9  -4  202.08   19.20
  -3  -9  -4   36.90   10.80
   3  -9   4   57.79   16.80
  -3   9  -4   43.90   16.10
   4  -9   4   10.60   14.90
  -4   9  -4  -15.90   14.90
   5  -9   4    7.20   19.10
  -5   9  -4  -29.20   17.50
   5 -10  -4    5.00   25.70
   5  10  -4  -17.90   24.60
  -5  10   4    0.20   16.50
  -4 -10   4   71.29   14.90
   4 -10  -4   85.49   25.20
  -4  10   4   64.09   19.70
   4  10  -4  154.78   26.10
  -4  10   4   22.60   20.40
   3 -10  -4  109.39   23.70
   3  10  -4  121.29   21.60
  -3  10   4   81.89   21.50
  -3  10   4   86.29   20.70
  -2  10   4   35.60   17.80
  -2  10   4   27.70   15.90
   1 -10  -4  377.66   20.40
  -1  10   4  382.86   32.70
  -1  10   4  384.96   22.00
   0 -10  -4   94.99   12.30
   0  10   4  104.29   13.70
   0  10   4   78.49   15.50
   0  10  -4  115.99   11.40
  -1 -10  -4   36.40    9.40
  -1  10  -4   30.00   11.60
   1  10   4   26.40   13.60
   1  10   4   28.80   10.50
  -2 -10  -4   65.39   10.80
   2 -10   4   47.40   10.90
  -2  10  -4   51.39   14.80
   2  10   4   64.09   10.20
  -3 -10  -4  277.77   18.10
   3 -10   4  290.27   20.60
   4 -10   4   31.00   18.50
  -4  10  -4   29.90   17.70
   5 -10   4   14.90   19.50
  -5  10  -4    5.40   19.70
   5 -11  -4    1.30   25.20
   5  11  -4   -1.40   25.50
  -5  11   4   -6.40   16.80
   4 -11  -4   75.19   25.70
  -4 -11   4   46.80   13.90
   4  11  -4   40.30   22.70
  -4  11   4   38.10   17.80
  -4  11   4    2.40   22.90
   3 -11  -4   58.59   22.60
  -3  11   4   60.79   18.10
  -3  11   4   39.30   19.30
   3  11  -4   91.49   20.70
  -2  11   4   12.30   17.50
  -2  11   4   28.60   17.20
   1 -11  -4  232.58   18.30
  -1  11   4  218.48   20.40
  -1  11   4  241.68   32.00
   0 -11  -4   18.10    9.50
   0  11   4   13.90   12.10
   0  11  -4   18.20    9.00
   0  11   4   17.90   15.60
  -1 -11  -4   90.89   12.60
   1  11   4   69.59   15.60
   1  11   4  104.79   13.80
  -1  11  -4  102.19   15.50
  -2 -11  -4  745.23   26.30
   2 -11   4  741.63   26.10
   2  11   4  721.13   21.90
  -2  11  -4  698.93   30.30
   3 -11   4   14.80   14.10
  -3 -11  -4    9.60   10.00
  -3  11  -4   14.60   15.40
   4 -11   4   66.19   20.20
  -4  11  -4   61.89   18.80
   5 -11   4   11.60   19.30
  -5  11  -4  -17.00   17.50
   5 -12  -4    6.00   26.80
  -5  12   4  -23.40   16.20
   5  12  -4  -15.80   25.30
   4 -12  -4   85.09   27.50
  -4 -12   4   80.59   16.30
  -4  12   4   35.30   23.20
  -4  12   4   67.09   19.70
   4  12  -4  128.99   27.10
   3 -12  -4  107.69   21.40
  -3  12   4   63.09   18.00
  -3  12   4   71.19   22.00
  -2  12   4  166.28   22.30
  -2  12   4  205.58   36.20
   1 -12  -4   43.90   13.80
  -1  12   4   38.40   17.50
  -1  12   4   31.40   15.20
   0 -12  -4  258.87   18.30
   0  12   4  265.07   19.60
   0  12  -4  278.77   16.60
   0  12   4  294.57   32.70
  -1 -12  -4   79.19   13.00
  -1  12  -4   59.19   15.10
   1  12   4   51.49   16.20
   1  12   4   88.59   14.00
   2 -12   4  114.59   14.50
  -2 -12  -4   91.29   14.10
  -2  12  -4   91.39   17.60
   2  12   4   97.99   11.40
  -3 -12  -4   10.70   10.10
   3 -12   4    2.60   13.60
  -3  12  -4    4.70   15.40
   4 -12   4   21.40   17.50
  -4  12  -4    4.30   16.60
   5 -12   4   32.60   22.90
  -5  12  -4   -9.00   17.90
   5 -13  -4   -0.70   27.20
  -5  13   4    3.90   18.20
  -4 -13   4   40.60   13.50
   4 -13  -4   34.20   25.40
  -4  13   4   13.10   19.20
  -4  13   4   -6.60   24.30
   3 -13  -4  284.77   32.70
  -3  13   4  158.18   27.20
  -3  13   4  242.48   26.20
  -2  13   4   50.19   21.40
  -2  13   4   61.89   19.40
   1 -13  -4  852.11   32.20
  -1  13   4  848.62   33.60
  -1  13   4  834.62   49.30
   0 -13  -4  108.49   15.60
   0  13   4  104.99   16.30
   0  13   4   86.19   19.20
   0  13  -4  103.79   12.50
  -1 -13  -4  369.86   21.00
   1  13   4  395.56   21.00
  -1  13  -4  392.86   24.40
   1  13   4  411.46   35.80
  -2 -13  -4   66.69   13.10
   2 -13   4   71.99   14.40
   2  13   4   64.29   11.30
  -2  13  -4   43.50   16.00
   3 -13   4    0.20   12.60
  -3 -13  -4   20.00   11.00
  -3  13  -4   20.20   16.60
   4 -13   4   -8.90   16.80
  -4  13  -4    0.20   17.00
  -5  13  -4   -9.60   19.30
   5 -14  -4   55.39   30.70
  -5  14   4   -0.20   18.50
  -4 -14   4   19.30   12.20
   4 -14  -4  -14.60   25.40
  -4  14   4    8.80   17.00
  -4  14   4  -34.30   20.00
  -3  14   4   17.00   21.10
  -3  14   4   58.29   19.50
  -2  14   4  440.06   31.40
  -2  14   4  449.56   43.50
   1 -14  -4  129.89   17.70
  -1  14   4  135.29   21.60
  -1  14   4  114.99   23.20
   0 -14  -4   50.29   13.50
   0  14  -4   54.69   11.60
   0  14   4   41.60   19.10
   0  14   4   56.09   17.10
  -1 -14  -4   43.10   12.40
   1  14   4   44.90   14.10
  -1  14  -4   29.30   15.50
   1  14   4   22.70   17.10
  -2 -14  -4  434.16   22.80
  -2  14  -4  357.26   28.00
  -3 -14  -4   -9.20    9.90
   3 -14   4    0.10   12.80
  -3  14  -4   -1.20   16.50
   4 -14   4   26.80   18.20
  -4  14  -4  -11.20   17.10
  -4 -15   4   34.40   12.80
   4 -15  -4   25.10   28.50
  -4  15   4    7.10   18.00
  -4  15   4  -19.10   21.80
  -3  15   4   14.00   17.70
  -3  15   4  -26.50   21.90
  -2  15   4   12.60   19.70
  -2  15   4   17.80   16.70
  -1  15   4  105.19   20.00
  -1  15   4   53.99   20.50
   0 -15  -4  177.88   21.00
   0  15   4  114.89   23.30
   0  15   4  212.58   22.90
   0  15  -4  172.78   16.50
  -1 -15  -4    5.10   11.50
   1  15   4   -3.00   15.70
   1  15   4   32.40   13.40
  -1  15  -4   17.10   13.60
  -2 -15  -4   47.40   13.30
  -2  15  -4   12.00   15.60
   3 -15   4   14.10   15.60
  -3  15  -4    6.50   17.10
   4 -15   4   -4.80   24.50
  -4  15  -4  -13.20   18.10
   4 -16  -4  -38.70   27.30
  -4  16   4  -47.90   24.30
  -4  16   4    7.30   18.70
  -3  16   4   -1.90   17.10
  -3  16   4   -5.90   21.10
  -2  16   4  170.68   23.20
  -2  16   4  132.19   26.00
  -1  16   4   -6.70   18.10
  -1  16   4   -6.90   16.80
   0 -16  -4   24.80   12.60
   0  16  -4   19.40   11.20
   0  16   4   16.20   14.40
   0  16   4    3.50   17.60
  -1 -16  -4  588.64   26.90
   1  16   4  546.25   24.30
  -1  16  -4  604.84   28.40
   1  16   4  602.04   44.20
  -2 -16  -4  123.59   17.10
  -2  16  -4   96.99   19.80
   3 -16   4   72.09   17.80
  -3  16  -4   32.40   20.50
  -4  16  -4  -11.90   18.40
   4 -17  -4  -12.30   28.50
  -4  17   4   22.90   21.00
  -4  17   4  -21.60   27.60
  -3  17   4   33.60   19.50
  -3  17   4   21.40   23.30
  -2  17   4    5.80   17.30
  -2  17   4  -10.50   19.20
  -1  17   4   80.49   23.00
  -1  17   4   86.49   19.30
   0 -17  -4    7.30   12.20
   0  17   4    2.50   18.30
   0  17  -4   13.10   11.10
   0  17   4    9.10   16.00
  -1 -17  -4   61.19   14.00
  -1  17  -4   39.90   16.20
   1  17   4   58.09   14.10
   1  17   4   42.00   19.40
  -2 -17  -4   46.80   13.90
  -2  17  -4   13.30   18.60
  -3  17  -4  -14.90   17.50
  -4  17  -4   -2.80   21.50
   4 -18  -4  -17.90   30.70
  -4  18   4   14.30   20.60
  -4  18   4  -28.90   25.50
  -3  18   4    0.50   18.30
  -3  18   4  -36.60   20.40
  -2  18   4   17.80   22.40
  -2  18   4    1.50   17.60
  -1  18   4  173.38   23.10
  -1  18   4  115.89   25.70
   0 -18  -4  123.49   18.50
   0  18   4   75.69   22.60
   0  18   4  116.79   19.10
  -1 -18  -4  217.58   22.10
  -1  18  -4  208.38   22.30
   1  18   4  259.87   22.10
  -2 -18  -4    1.00   11.30
  -2  18  -4   -4.10   16.90
  -3  18  -4  -13.20   18.40
  -4  18  -4  -22.50   20.90
  -3  19   4   -5.70   18.70
  -3  19   4  -39.70   25.20
  -2  19   4  -11.60   20.90
  -2  19   4   13.50   18.30
  -1  19   4  373.26   30.10
  -1  19   4  412.16   47.20
   0 -19  -4   49.80   15.70
   0  19   4   15.00   16.20
   0  19   4   32.70   20.90
  -1 -19  -4   35.20   14.50
  -1  19  -4   40.30   17.10
  -2 -19  -4    7.40   11.40
  -2  19  -4  -21.00   18.30
  -3  19  -4  -17.70   18.70
  -3  20   4  -41.30   21.90
  -3  20   4   -2.30   18.70
  -2  20   4   -8.40   19.20
  -2  20   4   -9.80   21.60
  -1  20   4   91.49   26.50
  -1  20   4  124.49   23.30
   0 -20  -4    3.70   13.40
   0  20   4   -5.30   15.60
   0  20   4    2.60   19.60
  -1 -20  -4   44.20   15.10
  -1  20  -4   31.30   16.00
  -2 -20  -4    8.20   13.50
  -2  20  -4   -9.60   17.30
  -3  20  -4   -1.20   20.10
  -3  21   4   -6.40   19.90
  -3  21   4  -28.50   24.20
  -2  21   4  -17.40   22.00
  -2  21   4  -26.30   20.40
  -1  21   4  337.87   27.80
  -1  21   4  351.16   48.90
   0 -21  -4   10.90   14.20
   0  21   4   -4.80   19.30
   0  21   4   28.00   17.00
  -1 -21  -4   22.00   16.20
  -1  21  -4   21.30   16.80
  -2  21  -4   24.50   20.70
  -3  21  -4  -30.00   20.80
  -2  22   4  -15.70   20.70
  -2  22   4   -5.20   27.40
  -1  22   4   75.29   21.90
  -1  22   4   45.30   26.00
  -1 -22  -4  150.98   21.70
  -2  22  -4  -21.80   18.60
  -2  23   4   -9.00   21.70
  -1  23   4   -6.70   20.30
  -1  23   4  -14.70   23.60
  -1 -23  -4   12.90   14.60
  -2  23  -4   -8.70   19.60
  -1  24   4    5.30   20.80
  -1 -24  -4   91.89   20.60
   6   0  -5   -2.80   27.50
   5   0  -5   31.20   25.70
  -4   0   5  -13.60   13.80
   4   0  -5   20.80   20.50
  -4   0   5    0.80   11.00
   3   0  -5  172.98   22.10
  -3   0   5  173.88   24.20
   2   0  -5   -0.80   11.50
  -2   0   5   -3.10    7.80
  -1   0   5    4.60    6.90
   1   0  -5    2.50    6.80
   1   0  -5   16.00    6.00
   0   0   5    1.80    5.90
   0   0  -5    4.70    6.00
   1   0   5 1011.10   27.80
  -1   0  -5 1069.59   27.60
   2   0   5    1.90    3.40
   2   0   5   -0.70    2.80
   2   0   5    3.80    8.10
  -2   0  -5   12.90    8.60
  -3   0  -5  261.57   18.60
   3   0   5  270.77   20.10
  -4   0  -5    5.90   11.40
   4   0   5    5.20   15.40
  -5   0  -5   -9.80   13.20
   5   0   5    5.70   19.00
   6  -1  -5   -2.30   29.10
   6   1  -5   38.50   28.80
   5  -1  -5   30.20   20.10
   5   1  -5   -1.30   23.50
   4  -1  -5   63.29   22.10
  -4  -1   5   28.10   15.50
  -4   1   5   16.20   14.30
  -4   1   5   24.40   13.00
   4   1  -5   72.69   22.20
   3  -1  -5  398.46   23.60
  -3  -1   5  503.75   33.60
  -3   1   5  474.55   32.40
   3   1  -5  448.26   27.90
   2  -1  -5  190.98   16.80
  -2  -1   5  206.38   19.90
   2   1  -5  196.98   16.60
  -2   1   5  186.88   20.30
   1  -1  -5  542.85   17.50
  -1  -1   5  558.64   25.40
   1  -1  -5  555.94   17.60
   1   1  -5  556.44   17.50
  -1   1   5  517.25   25.30
   1   1  -5  557.34   15.50
   0  -1   5  268.77   16.30
   0  -1  -5  279.57   12.70
   0   1  -5  276.47   12.00
   0   1   5  261.17   16.60
  -1  -1  -5 3794.32   73.69
   1  -1   5 3774.42   74.59
  -1  -1  -5 3612.94   72.39
  -1   1  -5 3721.63   72.89
  -1   1  -5 3789.72   68.69
   1   1   5 3743.53   74.19
   2  -1   5   67.29    9.10
   2  -1   5   57.49    6.60
  -2  -1  -5   68.89   10.30
   2  -1   5   71.99   10.30
   2   1   5   71.39   11.00
  -2   1  -5   70.19   11.10
  -3  -1  -5    5.20   11.10
   3  -1   5    7.60   12.20
  -3   1  -5    9.00   12.30
   3   1   5    2.20   12.80
  -4  -1  -5    6.60   12.30
   4  -1   5    7.20   15.00
   4   1   5   20.10   16.30
  -4   1  -5    6.10   12.30
  -5  -1  -5    2.30   12.80
   5  -1   5   21.00   19.80
  -5   1  -5    6.80   14.20
   5   1   5    5.90   19.10
   6  -2  -5   39.30   32.80
   6   2  -5   27.80   29.70
   5  -2  -5   51.89   25.70
  -5   2   5   -2.50   20.20
   5   2  -5  102.39   28.50
   4  -2  -5   42.10   21.40
   4   2  -5   69.49   22.40
  -4   2   5   54.19   13.90
  -3  -2   5   48.80   12.80
   3  -2  -5   99.59   19.60
  -3   2   5   55.59   16.00
   3   2  -5   87.59   19.20
  -2  -2   5   16.10    8.50
   2  -2  -5   23.00   12.00
  -2   2   5   22.90   10.10
   2   2  -5   16.20   11.70
   1  -2  -5  691.63   20.50
  -1  -2   5  692.23   28.60
   1   2  -5  680.83   19.50
  -1   2   5  687.23   29.30
   1   2  -5  722.73   16.70
   0  -2   5 1040.80   32.10
   0  -2  -5 1070.19   26.80
   0   2  -5 1059.59   25.60
   0   2  -5 1078.29   19.60
   0   2   5 1046.70   32.80
  -1  -2  -5 1591.04   39.80
   1  -2   5 1495.65   30.40
  -1  -2  -5 1517.05   35.30
  -1   2  -5 1517.25   35.70
   1   2   5 1542.15   37.60
  -1   2  -5 1509.15   30.50
  -2  -2  -5  237.78   15.50
   2  -2   5  226.88   14.30
   2  -2   5  212.18   12.70
   2   2   5  229.48   15.10
  -2   2  -5  243.18   15.90
   3  -2   5   63.19   14.60
  -3  -2  -5   62.39   13.10
   3   2   5  103.39   17.00
  -3   2  -5   71.49   14.10
  -4  -2  -5  102.39   14.80
   4  -2   5  117.39   19.60
   4   2   5  142.49   21.20
  -4   2  -5   84.39   15.90
   5  -2   5   -3.90   18.10
  -5  -2  -5  -10.50   13.60
   5   2   5   -4.60   19.70
  -5   2  -5   -8.60   13.80
   6  -3  -5   18.10   43.30
   6   3  -5   73.79   33.40
   5  -3  -5   55.59   26.10
   5   3  -5    7.90   19.60
   4  -3  -5   24.60   20.90
  -4  -3   5   13.40   13.40
  -4   3   5   45.50   15.00
   4   3  -5   36.40   21.70
  -4   3   5   21.70   16.10
  -3  -3   5   57.39   13.40
   3  -3  -5   96.29   16.70
  -3   3   5   60.69   16.10
  -3   3   5   82.49   14.70
   3   3  -5   91.79   19.60
  -2  -3   5 1022.30   38.60
   2  -3  -5  981.50   30.60
   2   3  -5 1022.40   31.20
  -2   3   5 1003.60   40.40
   1  -3  -5    7.10    7.70
  -1  -3   5    0.00    6.50
  -1   3   5    3.40    7.80
   1   3  -5    3.60    3.30
   1   3  -5    0.30    7.20
   0  -3  -5  171.08   11.40
   0   3   5  168.08   15.90
   0   3  -5  158.58   10.10
  -1  -3  -5  233.98   13.80
   1  -3   5  227.88    8.80
  -1   3  -5  238.58    9.00
   1   3   5  226.68   15.80
  -1   3  -5  232.78   13.70
   2  -3   5  240.48   13.90
  -2  -3  -5  243.88   14.40
   2   3   5  239.18   10.30
  -2   3  -5  257.37   16.50
  -3  -3  -5  297.87   19.40
   3  -3   5  281.27   20.00
   3   3   5  306.37   22.80
  -3   3  -5  299.47   21.10
   4  -3   5   22.80   17.20
  -4  -3  -5   21.00   11.70
  -4   3  -5   19.80   13.60
   4   3   5   27.00   17.70
   5  -3   5   48.80   22.40
  -5  -3  -5   20.30   13.20
  -5   3  -5   -3.80   14.40
   5   3   5   41.50   21.60
   6   4  -5  -23.20   30.10
   5  -4  -5  142.19   29.20
   5   4  -5  158.28   30.50
  -4  -4   5    1.80   12.50
   4  -4  -5   19.10   20.90
   4   4  -5   31.60   21.80
  -4   4   5  -24.40   16.40
  -4   4   5    1.50   12.30
  -3  -4   5  564.94   32.90
   3  -4  -5  494.55   25.80
   3   4  -5  548.55   29.70
  -3   4   5  537.35   24.00
  -3   4   5  617.54   41.50
  -2  -4   5  197.28   19.90
   2  -4  -5  200.88   18.10
  -2   4   5  230.48   24.50
   2   4  -5  187.68   16.40
  -1  -4   5 1743.63   49.80
   1  -4  -5 1742.03   40.60
  -1   4   5 1715.43   51.19
   1   4  -5 1757.02   36.80
   0  -4  -5   12.20    7.30
   0   4  -5   21.70    6.30
   0   4   5   15.80    8.00
   1  -4   5   22.70    5.00
  -1  -4  -5   24.60    7.50
   1   4   5   17.80    7.50
  -1   4  -5   26.70    8.90
  -2  -4  -5  281.37   11.70
   2  -4   5  271.57   14.50
  -2  -4  -5  277.47   15.90
   2   4   5  282.07   13.70
  -2   4  -5  303.77   17.80
   3  -4   5   30.60   13.10
  -3  -4  -5   17.80   10.70
  -3   4  -5   17.40   13.30
   3   4   5    4.90   15.10
   4  -4   5   10.10   15.10
  -4  -4  -5   -3.60   10.70
   4   4   5    4.80   16.50
  -4   4  -5    1.90   13.40
   5  -4   5   12.60   18.90
  -5  -4  -5   -2.60   15.20
   5   4   5   23.50   21.10
  -5   4  -5   -8.60   14.60
   5  -5  -5   24.50   20.20
  -5   5   5   15.80   14.30
   5   5  -5    5.90   24.30
   4  -5  -5   81.89   23.20
  -4  -5   5   74.39   16.50
  -4   5   5   60.59   21.90
   4   5  -5  158.78   26.20
  -4   5   5  116.69   18.70
   3  -5  -5   62.59   19.40
  -3  -5   5   30.00   12.70
   3   5  -5   43.70   18.70
  -3   5   5   36.80   14.80
  -3   5   5   31.30   15.40
  -2  -5   5    0.50    7.90
  -2  -5   5    3.50    3.40
   2  -5  -5   19.00   13.10
  -2   5   5    8.00    9.40
   2   5  -5    5.30   11.40
   1  -5  -5  142.09   12.70
   1   5  -5  101.99   11.30
  -1   5   5  121.99   20.00
   0  -5   5 2361.46   41.70
   0  -5  -5 2362.56   51.29
   0   5  -5 2373.36   47.70
   0   5   5 2414.06   60.29
   1  -5   5  361.46   11.10
  -1  -5  -5  362.86   15.90
  -1   5  -5  364.76   17.90
   1   5   5  361.16   20.70
  -2  -5  -5    1.00    4.60
  -2  -5  -5    5.70    7.70
   2  -5   5    0.40    7.80
  -2   5  -5    7.70   10.40
   2   5   5    5.30    6.00
   3  -5   5  161.08   17.80
  -3  -5  -5  153.38   15.20
  -3   5  -5  169.28   19.80
   3   5   5  177.18   21.90
  -4  -5  -5   83.99   14.40
   4  -5   5   93.29   20.30
  -4   5  -5   63.29   15.90
   4   5   5   90.39   21.20
   5  -5   5    7.10   18.80
  -5   5  -5  -19.10   16.70
   5   5   5   14.60   21.60
   5  -6  -5   -8.90   22.50
   5   6  -5   -2.90   23.60
  -5   6   5    8.70   15.70
  -4  -6   5   23.00   13.20
   4  -6  -5    2.60   19.70
   4   6  -5   48.30   22.40
  -4   6   5   12.50   15.80
  -4   6   5  -18.10   18.50
   3  -6  -5   43.50   18.80
  -3  -6   5    6.20   10.40
  -3   6   5   20.30   16.40
   3   6  -5   15.90   17.90
  -3   6   5   32.30   16.40
  -2  -6   5 1608.04   52.09
  -2  -6   5 1518.85   29.30
   2   6  -5 1530.75   39.90
  -2   6   5 1567.84   55.29
   1  -6  -5   40.70    9.80
   1   6  -5   38.40    8.80
  -1   6   5   23.20   11.40
   0  -6   5   98.59    6.00
   0  -6  -5   91.79   11.50
   0   6   5  109.99   18.60
   0   6  -5   93.49    9.50
   1  -6   5  349.67   11.10
  -1  -6  -5  327.97   15.60
   1   6   5  331.67   21.60
  -1   6  -5  326.37   16.70
   2  -6   5  577.54   20.20
  -2  -6  -5  583.94   21.80
  -2   6  -5  574.44   24.40
   2   6   5  589.94   23.80
  -3  -6  -5  154.88   16.50
   3  -6   5  149.88   17.50
  -3   6  -5  144.09   19.50
  -4  -6  -5   38.30   12.10
   4  -6   5   47.20   16.70
   4   6   5   36.20   16.00
  -4   6  -5   27.60   15.30
   5  -6   5    7.80   18.50
  -5   6  -5    0.40   16.20
   5   6   5    4.40   21.90
   5  -7  -5   -8.50   22.90
  -5   7   5    2.00   16.20
   5   7  -5  -10.30   23.80
  -4  -7   5   10.20   12.10
   4  -7  -5   17.60   21.20
   4   7  -5   11.50   21.10
  -4   7   5   -1.50   13.90
  -4   7   5  -14.80   16.90
   3  -7  -5   81.09   21.20
  -3  -7   5   50.29   13.40
   3   7  -5   68.69   19.70
  -3   7   5   64.89   17.10
  -3   7   5   51.99   19.00
  -2  -7   5  264.37    8.60
  -2   7   5  280.17   20.10
   2   7  -5  287.17   21.40
  -2   7   5  284.67   30.70
   1  -7  -5 1429.26   38.10
  -1   7   5 1458.75   50.29
   0  -7   5  816.02   18.90
   0  -7  -5  875.31   26.80
   0   7  -5  845.92   22.60
   0   7   5  860.51   35.90
  -1  -7  -5 1218.48   33.20
   1  -7   5 1328.97   27.70
   1   7   5 1316.87   42.00
  -1   7  -5 1360.96   34.50
  -2  -7  -5   40.30   10.60
   2  -7   5   40.60   10.10
  -2   7  -5   31.00   12.70
   2   7   5   39.30    9.70
  -3  -7  -5  122.09   14.50
   3  -7   5  138.39   17.30
  -3   7  -5  108.89   17.90
  -4  -7  -5   74.09   13.40
   4  -7   5   79.79   19.90
  -4   7  -5   62.39   17.40
   5  -7   5    7.00   17.90
   5   7   5   -1.60   22.50
  -5   7  -5   -7.60   17.70
   5  -8  -5   -6.50   23.60
   5   8  -5   -4.70   23.40
  -5   8   5  -12.50   14.90
   4  -8  -5   36.20   23.20
  -4  -8   5   21.80   12.10
   4   8  -5   47.80   22.80
  -4   8   5   38.40   16.40
  -4   8   5  -20.10   18.20
  -3  -8   5    7.00   12.20
   3  -8  -5    3.30   19.70
  -3   8   5   10.70   17.60
  -3   8   5   -2.10   16.20
   3   8  -5    6.10   17.60
   2   8  -5  259.37   19.80
  -2   8   5  283.07   21.80
  -2   8   5  326.47   33.60
   1  -8  -5  226.08   16.40
  -1   8   5  232.18   27.20
   0  -8   5   13.20    5.70
   0  -8  -5    2.50    8.20
   0   8   5    8.30   10.80
   0   8  -5    4.50    6.80
   1  -8   5  479.65   14.70
  -1  -8  -5  477.55   19.40
  -1   8  -5  458.75   20.20
   1   8   5  499.35   27.20
  -2  -8  -5   15.00    9.00
   2  -8   5   -1.30    9.60
   2   8   5   13.40    9.80
  -2   8  -5    2.20   13.80
  -3  -8  -5  129.19   16.20
   3  -8   5  148.49   17.30
  -3   8  -5  109.09   17.90
   4  -8   5   55.59   16.80
  -4  -8  -5   33.40   12.30
  -4   8  -5   14.60   16.20
   5  -8   5   18.30   18.50
  -5   8  -5  -17.20   16.30
   5  -9  -5  -16.50   18.60
   5   9  -5   22.30   25.50
  -5   9   5   -3.20   17.40
   4  -9  -5  101.19   26.70
  -4  -9   5   91.29   17.80
  -4   9   5  121.09   21.20
   4   9  -5  162.88   26.60
  -4   9   5   87.69   23.50
   3  -9  -5    2.60   19.90
  -3  -9   5    1.40   10.50
  -3   9   5    3.80   16.60
   3   9  -5   10.80   18.20
  -3   9   5  -10.70   17.30
  -2   9   5 1104.49   39.00
   2   9  -5 1160.28   35.20
  -2   9   5 1205.58   53.59
   1  -9  -5  977.00   32.80
  -1   9   5 1056.79   44.80
  -1   9   5 1032.30   33.30
   0  -9  -5   48.60   10.60
   0   9  -5   41.40    8.70
   0   9   5   38.00   13.30
  -1  -9  -5   19.00    9.10
  -1   9  -5   12.60   11.60
   1   9   5    9.50   10.80
   2  -9   5   71.39   12.10
  -2  -9  -5   85.59   12.70
   2   9   5   44.60   12.90
  -2   9  -5   63.79   15.40
  -3  -9  -5   61.29   12.20
   3  -9   5   42.50   14.90
  -3   9  -5   32.00   15.50
  -4  -9  -5    9.50   11.10
   4  -9   5   25.30   15.80
  -4   9  -5    1.30   16.90
   5  -9   5   16.80   18.30
  -5   9  -5  -10.20   16.90
   5 -10  -5   19.50   26.50
  -5  10   5   12.10   17.10
   5  10  -5   -6.50   23.90
   4 -10  -5   45.90   24.50
  -4 -10   5   16.30   11.60
  -4  10   5   -7.50   19.60
  -4  10   5   14.60   18.30
   4  10  -5   34.80   22.30
   3 -10  -5  414.46   31.30
  -3 -10   5  426.26   33.80
  -3  10   5  404.76   42.00
   3  10  -5  417.06   27.90
  -3  10   5  414.96   28.50
  -2  10   5   72.19   19.80
  -2  10   5   96.89   18.80
   1 -10  -5   11.90   10.70
  -1  10   5   21.10   13.60
  -1  10   5   18.70   14.60
   0 -10  -5  108.79   13.90
   0  10   5   74.89   16.10
   0  10   5   79.49   14.00
   0  10  -5   96.59   11.00
  -1 -10  -5  166.38   15.00
   1  10   5  152.78   26.40
  -1  10  -5  171.58   16.60
   2 -10   5   62.69   11.90
  -2 -10  -5   48.00   11.60
  -2  10  -5   56.19   15.50
   3 -10   5  146.19   18.20
  -3 -10  -5  127.59   16.50
  -3  10  -5  117.59   18.70
   4 -10   5   66.69   19.20
  -4  10  -5   32.50   17.30
   5 -10   5    5.60   18.30
  -5  10  -5  -10.50   19.00
   5 -11  -5   26.30   27.80
   5  11  -5    2.00   25.50
  -5  11   5    3.40   19.10
   4 -11  -5   27.20   24.10
  -4 -11   5   10.40   12.30
   4  11  -5   13.30   21.70
  -4  11   5  -29.60   19.40
  -4  11   5   15.70   17.10
   3 -11  -5   74.59   24.50
   3  11  -5  123.29   23.00
  -3  11   5   90.29   19.40
  -3  11   5   43.20   20.50
  -2  11   5  166.18   21.40
  -2  11   5  121.69   22.80
   1 -11  -5  164.08   18.20
  -1  11   5  179.88   20.40
  -1  11   5  198.38   31.40
   0 -11  -5  221.88   17.40
   0  11   5  230.68   19.00
   0  11   5  255.87   30.60
   0  11  -5  233.78   15.20
  -1 -11  -5  343.87   19.70
   1  11   5  377.36   31.10
  -1  11  -5  349.17   22.30
   1  11   5  352.26   19.00
   2 -11   5   19.70   11.00
  -2 -11  -5   10.10   10.70
   2  11   5    3.40   10.20
  -2  11  -5   -7.40   15.10
   3 -11   5   66.19   14.10
  -3 -11  -5   73.49   12.70
  -3  11  -5   45.10   16.60
   4 -11   5   36.20   17.40
  -4  11  -5    9.90   17.00
  -5  11  -5   18.40   20.50
   5 -12  -5    1.80   27.60
   5  12  -5    1.50   26.30
  -5  12   5   -9.70   17.60
  -4 -12   5    0.20   11.40
   4 -12  -5   -6.20   18.30
  -4  12   5  -22.40   22.80
   4  12  -5  -16.20   23.70
  -4  12   5   -7.20   16.30
   3 -12  -5  513.35   37.00
  -3  12   5  495.25   50.59
  -2  12   5  480.95   29.50
  -2  12   5  429.56   42.50
   1 -12  -5    2.60   11.50
  -1  12   5    2.50   16.50
  -1  12   5   -4.30   14.90
   0 -12  -5  679.83   27.40
   0  12   5  683.03   27.90
   0  12  -5  705.23   22.80
   0  12   5  676.03   42.20
  -1 -12  -5   72.29   13.60
   1  12   5   60.69   14.60
  -1  12  -5   48.60   14.60
   1  12   5   47.90   17.70
  -2 -12  -5  203.28   17.30
   2 -12   5  172.78   16.30
  -2  12  -5  216.08   24.50
   2  12   5  194.28   15.80
  -3 -12  -5   11.30   10.90
   3 -12   5   -7.10   12.40
  -3  12  -5   11.90   15.40
   4 -12   5   24.40   17.10
  -4  12  -5    9.10   16.90
  -5  12  -5   -5.40   18.40
   5 -13  -5  -13.30   21.40
  -5  13   5    7.40   20.80
   4 -13  -5   15.30   27.00
  -4 -13   5   21.70   12.70
  -4  13   5    9.00   17.40
   3 -13  -5    8.40   19.70
  -3  13   5   24.80   17.80
  -3  13   5   -7.20   19.90
  -2  13   5   59.69   18.50
  -2  13   5   32.30   20.20
   1 -13  -5  496.65   27.60
  -1  13   5  503.75   30.30
  -1  13   5  508.15   43.60
   0 -13  -5  286.47   20.50
   0  13   5  288.47   22.00
   0  13   5  290.07   35.00
   0  13  -5  291.07   17.50
  -1 -13  -5   35.90   12.80
  -1  13  -5   22.20   14.80
   1  13   5   15.00   16.00
   1  13   5   37.40   14.20
   2 -13   5  213.88   17.00
  -2 -13  -5  235.78   19.60
   2  13   5  220.68   15.90
  -2  13  -5  217.48   24.50
  -3 -13  -5  118.29   15.60
   3 -13   5  146.59   18.50
  -3  13  -5   95.39   20.80
  -4  13  -5    0.50   17.80
  -5  13  -5  -16.30   21.10
  -5  14   5   20.00   19.90
   4 -14  -5   -2.70   27.10
  -4 -14   5   32.70   14.00
  -4  14   5  -12.60   22.70
  -4  14   5    3.30   19.00
  -3  14   5  -22.20   16.10
  -3  14   5  -27.90   21.80
  -2  14   5   52.89   21.60
  -2  14   5  117.09   20.80
   1 -14  -5  291.67   22.70
  -1  14   5  312.67   39.60
  -1  14   5  304.97   25.60
   0 -14  -5  530.35   26.80
   0  14   5  522.95   42.50
   0  14  -5  571.64   22.50
   0  14   5  509.45   26.70
  -1 -14  -5   41.40   13.10
   1  14   5   30.80   14.20
  -1  14  -5   22.90   14.50
   1  14   5   15.30   16.80
  -2 -14  -5    9.20   12.00
   2 -14   5    7.70   11.30
  -2  14  -5    7.00   16.60
   3 -14   5   49.20   15.60
  -3 -14  -5   49.70   13.90
  -3  14  -5   36.10   18.20
  -4  14  -5  -16.10   16.80
  -4 -15   5   83.29   18.40
   4 -15  -5  109.79   33.60
  -4  15   5   12.60   27.60
  -4  15   5   43.80   19.80
  -3  15   5   -6.20   16.70
  -3  15   5  -24.60   20.20
  -2  15   5   19.80   20.30
  -2  15   5   14.70   18.70
   1 -15  -5  555.94   28.70
  -1  15   5  595.74   47.00
  -1  15   5  579.34   32.30
   0 -15  -5   35.10   13.70
   0  15  -5   30.90   11.00
   0  15   5   24.30   18.30
   0  15   5   16.40   16.60
  -1 -15  -5   21.60   12.80
   1  15   5   12.90   16.30
   1  15   5   35.20   13.70
  -1  15  -5    9.20   14.10
   2 -15   5  108.19   15.60
  -2 -15  -5  121.59   17.60
  -2  15  -5   89.19   19.90
  -3 -15  -5  142.29   17.80
  -3  15  -5  100.89   21.20
  -4  15  -5  -16.30   17.20
   4 -16  -5  -24.70   28.40
  -4 -16   5   21.20   11.90
  -4  16   5  -34.00   22.90
  -4  16   5   -0.30   18.60
  -3  16   5    5.20   22.30
  -3  16   5   12.00   18.20
  -2  16   5    5.20   17.50
  -2  16   5   -1.20   19.70
   1 -16  -5   51.39   15.20
  -1  16   5   74.69   19.40
  -1  16   5   59.49   21.40
   0 -16  -5   75.59   15.40
   0  16  -5   62.89   12.00
   0  16   5   58.49   17.40
   0  16   5   62.79   20.00
  -1 -16  -5   -9.60   10.50
   1  16   5   -4.40   12.80
  -1  16  -5   -9.30   14.10
   1  16   5   -7.20   15.90
  -2 -16  -5  139.49   19.00
   2 -16   5  116.09   18.80
  -2  16  -5  112.49   20.20
  -3  16  -5  -12.70   16.80
  -4  16  -5   -1.70   19.80
   4 -17  -5  157.08   38.40
  -4  17   5   82.09   23.10
  -4  17   5   32.20   28.00
  -3  17   5    0.10   21.30
  -3  17   5  -12.40   16.90
  -2  17   5   24.40   18.60
  -2  17   5   17.70   21.90
  -1  17   5   44.90   20.40
  -1  17   5   33.20   21.40
   0 -17  -5  195.28   22.80
   0  17   5  130.69   25.10
   0  17   5  193.68   21.30
  -1 -17  -5  144.29   19.20
  -1  17  -5  143.09   19.10
   1  17   5  141.49   18.40
   1  17   5   97.99   22.40
  -2 -17  -5  100.29   17.30
  -2  17  -5   75.19   19.20
  -3  17  -5  -21.50   16.80
  -4  17  -5  -10.90   20.70
   4 -18  -5   32.20   37.30
  -3  18   5   20.50   24.90
  -3  18   5   62.89   20.90
  -2  18   5    7.00   18.50
  -2  18   5   -6.30   20.10
  -1  18   5   87.39   20.70
  -1  18   5   59.19   23.80
   0 -18  -5  328.27   26.80
   0  18   5  279.17   25.80
   0  18   5  292.87   42.60
  -1 -18  -5   18.80   13.20
   1  18   5   10.10   19.10
  -1  18  -5    6.30   14.40
   1  18   5   14.10   14.30
  -2 -18  -5    1.20   11.40
  -2  18  -5   -8.10   18.40
  -3  18  -5   -4.70   19.80
  -3  19   5  -24.30   23.80
  -3  19   5  -20.70   17.60
  -2  19   5    1.00   18.30
  -2  19   5    9.90   22.70
  -1  19   5   14.80   21.50
  -1  19   5   22.10   18.30
   0 -19  -5    9.00   13.50
   0  19   5    8.80   20.90
   0  19   5   -9.70   15.80
  -1 -19  -5   56.39   17.40
  -1  19  -5   14.30   15.50
   1  19   5   37.20   20.90
  -2 -19  -5  165.58   21.00
  -2  19  -5  146.99   22.90
  -3  19  -5   10.50   20.30
  -3  20   5  -37.50   24.30
  -3  20   5  -14.90   19.20
  -2  20   5  -27.00   19.80
  -2  20   5  -24.00   21.70
  -1  20   5    4.80   19.80
  -1  20   5  -10.60   20.30
   0 -20  -5  442.66   28.80
   0  20   5  398.36   27.60
   0  20   5  394.86   48.00
  -1 -20  -5    4.50   13.40
  -1  20  -5  -18.40   14.30
  -2 -20  -5   18.00   15.30
  -2  20  -5   24.60   20.20
  -3  20  -5  -16.20   21.30
  -3  21   5  -66.59   41.70
  -2  21   5   -4.40   21.30
  -2  21   5   -2.90   23.80
  -1  21   5   -3.10   18.10
  -1  21   5  -11.70   21.10
   0 -21  -5   -4.70   13.40
   0  21   5  -14.70   20.10
   0  21   5   12.40   17.70
  -1 -21  -5   49.90   16.10
  -2 -21  -5  129.19   20.80
  -2  21  -5   94.99   21.30
  -2  22   5   -7.00   19.50
  -2  22   5   -8.50   25.10
  -1  22   5   -9.20   19.20
  -1  22   5  -22.70   20.90
   0 -22  -5   71.99   18.40
   0  22   5   76.49   22.60
   0  22   5   43.10   25.20
  -1 -22  -5   41.90   17.80
  -2  22  -5   -9.20   20.20
  -1  23   5    2.90   20.90
  -1  23   5   -4.50   24.10
   0  23   5    3.40   24.00
  -1 -23  -5   12.60   15.10
   6   0  -6   11.90   45.30
   5   0  -6   12.60   19.40
   4   0  -6  195.88   27.00
  -4   0   6  118.49   20.30
   3   0  -6   17.50   18.00
  -3   0   6    9.90   11.50
   2   0  -6   70.29   13.70
  -2   0   6   44.10   11.60
   1   0  -6   -8.50    7.10
   1   0  -6   -4.10    6.20
  -1   0   6    4.30    7.70
   0   0  -6   52.59    8.20
   0   0   6   23.40    7.20
  -1   0  -6    6.40    7.50
   1   0   6    0.60    4.80
   2   0   6  206.18   11.40
  -2   0  -6  220.78   15.70
   2   0   6  184.68   13.30
  -3   0  -6   -8.80   11.10
   3   0   6   12.60   12.60
  -4   0  -6   47.30   14.00
   4   0   6   50.89   18.90
   5   0   6   10.40   18.50
  -5   0  -6  -17.50   12.40
   6   1  -6  -11.20   46.60
   5  -1  -6    9.80   24.60
  -5  -1   6  -28.60   17.00
   5   1  -6   51.69   26.60
  -4  -1   6  141.49   22.40
   4  -1  -6  180.58   26.30
   4   1  -6  194.38   27.00
  -4   1   6  207.08   18.80
  -4   1   6  185.18   31.50
   3  -1  -6  134.09   21.80
  -3  -1   6  156.48   24.80
   3   1  -6  128.49   20.80
  -3   1   6   91.69   17.30
  -2  -1   6  242.28   22.80
   2  -1  -6  242.88   18.30
  -2   1   6  242.98   23.90
   2   1  -6  237.98   17.60
   1  -1  -6  498.75   18.10
  -1  -1   6  484.75   25.40
   1   1  -6  487.25   16.20
  -1   1   6  490.85   26.30
   1   1  -6  484.85   16.90
   0  -1   6   93.59   13.30
   0  -1  -6   98.99   10.20
   0   1   6  100.99   13.90
   0   1  -6  108.29    9.90
  -1  -1  -6  106.69   12.60
   1  -1   6   97.79   11.50
  -1   1  -6  104.79    9.00
  -1   1  -6  103.89   11.60
   1   1   6   99.19   12.00
   2  -1   6 1368.46   34.30
  -2  -1  -6 1416.96   37.00
   2  -1   6 1401.96   32.90
   2   1   6 1436.46   31.50
  -2   1  -6 1411.46   37.60
   2   1   6 1393.36   36.00
   3  -1   6    5.40   12.20
  -3  -1  -6   16.90   12.40
  -3   1  -6    0.40   12.70
   3   1   6    9.60   12.90
   4  -1   6   98.19   18.30
  -4  -1  -6   74.39   14.60
   4   1   6   87.19   18.70
  -4   1  -6   70.99   16.60
   5  -1   6   -7.60   17.70
  -5  -1  -6  -15.80   14.10
  -5   1  -6   11.40   15.10
   5   1   6  -10.70   17.90
   6   2  -6   16.00   32.40
   5  -2  -6   17.20   24.40
   5   2  -6   44.70   21.60
  -5   2   6  -28.70   17.20
  -4  -2   6    5.10   14.40
   4  -2  -6   35.40   21.80
  -4   2   6   -1.30   15.20
  -4   2   6   17.10   12.50
   4   2  -6    0.70   20.40
  -3  -2   6   69.69   15.00
   3  -2  -6   73.89   20.20
  -3   2   6   65.89   17.60
   3   2  -6   80.89   20.10
   2  -2  -6 1756.02   43.70
  -2  -2   6 1745.13   55.09
  -2   2   6 1767.82   57.19
   2   2  -6 1734.93   42.90
   1  -2  -6  847.62   25.10
  -1  -2   6  824.12   33.20
   1   2  -6  816.72   21.90
   1   2  -6  846.72   21.30
  -1   2   6  812.12   33.90
   0  -2  -6   97.19   10.40
   0  -2   6   72.59   12.70
   0   2  -6   89.19    5.20
   0   2  -6   98.29   10.40
   0   2   6  100.29   16.20
   1  -2   6  219.18   14.70
  -1  -2  -6  233.08   14.00
  -1   2  -6  234.08    9.90
  -1   2  -6  224.98   14.20
   1   2   6  233.78   15.80
   2  -2   6  335.07   15.80
  -2  -2  -6  366.96   18.10
   2  -2   6  353.66   15.40
   2   2   6  327.27   14.40
  -2   2  -6  346.17   19.10
   3  -2   6  378.66   22.90
  -3  -2  -6  389.76   21.30
  -3   2  -6  371.16   22.80
   3   2   6  397.86   23.80
  -4  -2  -6   46.00   14.20
   4  -2   6   55.49   18.10
   4   2   6   59.39   19.50
  -4   2  -6   47.10   16.10
   5  -2   6   24.00   18.50
  -5  -2  -6   11.50   14.60
   5   2   6    7.20   18.60
  -5   2  -6    3.50   15.00
  -5  -3   6  -20.00   15.40
   5  -3  -6   26.30   19.90
   5   3  -6   45.30   26.60
  -5   3   6  -30.80   17.50
   4  -3  -6  336.47   31.50
  -4  -3   6  311.47   34.60
  -4   3   6  298.37   22.40
   4   3  -6  335.97   30.50
  -4   3   6  258.77   35.60
   3  -3  -6    2.70   18.20
  -3  -3   6   -6.30   11.60
   3   3  -6   -7.80   17.10
  -3   3   6   14.10   14.60
   2  -3  -6  472.45   22.90
  -2  -3   6  474.95   28.90
  -2   3   6  481.75   31.50
   2   3  -6  495.25   23.30
   1  -3  -6  923.51   26.90
  -1  -3   6  935.21   35.70
   1   3  -6  911.91   23.30
  -1   3   6  917.61   36.90
   1   3  -6  944.01   21.90
   0  -3   6  645.64   26.70
   0  -3  -6  650.83   21.40
   0   3  -6  651.63   20.00
   0   3   6  656.33   28.00
  -1  -3  -6   10.50    7.90
  -1   3  -6   12.20    5.00
  -1   3  -6   21.80    8.60
   1   3   6   15.40    7.10
  -2  -3  -6    2.10    8.40
   2  -3   6   10.20    8.10
   2   3   6   -0.80    5.40
  -2   3  -6    7.80   10.10
   3  -3   6   14.80   13.00
  -3  -3  -6   19.40   11.30
  -3   3  -6   20.90   13.30
   3   3   6   10.80   14.50
  -4  -3  -6    0.10   12.00
   4  -3   6   22.10   15.00
   4   3   6   10.90   16.60
  -4   3  -6   12.90   14.90
  -5  -3  -6  -11.80   12.10
   5  -3   6   -5.10   19.50
   5   3   6   11.50   19.90
  -5   3  -6  -15.80   14.00
   5  -4  -6   27.10   24.40
   5   4  -6   33.50   24.90
  -4  -4   6   77.29   18.20
   4  -4  -6  111.79   24.50
   4   4  -6  129.49   24.60
  -4   4   6   89.39   17.70
  -4   4   6   34.30   18.80
  -3  -4   6   19.40   12.20
   3  -4  -6   36.20   19.40
  -3   4   6   26.40   13.20
  -3   4   6   29.40   16.10
   3   4  -6   40.20   19.10
  -2  -4   6 1537.45   51.69
   2  -4  -6 1468.15   40.40
  -2   4   6 1508.15   53.49
   2   4  -6 1396.46   37.80
   1  -4  -6  198.08   14.30
  -1  -4   6  217.88   19.70
  -1   4   6  219.48   22.80
   1   4  -6  212.68    9.10
   1   4  -6  202.68   11.70
   0  -4  -6  865.41   25.80
   0   4   6  887.51   33.80
   0   4  -6  850.61   23.40
  -1  -4  -6  907.81   26.80
   1  -4   6  880.31   18.70
   1   4   6  892.41   31.60
  -1   4  -6  907.21   26.80
  -2  -4  -6  285.97   12.80
  -2  -4  -6  282.47   17.60
   2  -4   6  277.27   14.30
  -2   4  -6  288.27   18.60
   2   4   6  287.57   16.10
  -3  -4  -6   30.20   11.70
   3  -4   6   34.20   12.60
   3   4   6   33.40   16.30
  -3   4  -6   10.90   13.40
   4  -4   6   40.60   17.50
  -4  -4  -6   22.50   12.30
  -4   4  -6   35.00   15.40
   4   4   6   23.20   17.70
   5  -4   6   13.90   19.90
  -5  -4  -6  -11.80   13.40
   5   4   6  -14.40   19.20
  -5   4  -6  -18.00   16.40
   5  -5  -6   31.60   25.50
   5   5  -6   20.70   25.60
   4  -5  -6  161.58   27.00
  -4  -5   6  163.08   29.40
   4   5  -6  236.08   28.60
  -4   5   6  162.98   20.50
  -3  -5   6  327.97   29.80
   3  -5  -6  289.17   22.70
  -3   5   6  350.86   36.00
   3   5  -6  350.36   30.10
  -3   5   6  335.17   24.20
  -2  -5   6   28.20   11.00
   2  -5  -6   56.59   15.80
  -2   5   6   46.70   14.50
   2   5  -6   46.40   12.90
  -1  -5   6  184.08   19.30
   1  -5  -6  190.08   14.60
   1   5  -6  200.78   12.40
  -1   5   6  192.68   23.30
   1   5  -6  212.48    7.20
   0  -5  -6   75.09   10.70
   0   5  -6   77.59    9.10
   0   5   6   76.69   13.10
  -1  -5  -6  385.16   17.40
   1  -5   6  375.36   10.30
   1   5   6  380.76   22.70
  -1   5  -6  394.56   18.00
  -2  -5  -6   76.19   11.60
   2  -5   6   82.29   10.60
  -2   5  -6   65.39   13.00
   2   5   6   57.59    9.00
   3  -5   6   43.30   12.90
  -3  -5  -6   27.90   11.20
  -3   5  -6   36.90   14.60
   4  -5   6  -12.50   13.20
  -4  -5  -6   -6.60   11.40
  -4   5  -6    4.80   14.60
   4   5   6   10.70   17.90
   5  -5   6   10.80   17.40
   5   5   6  -15.80   20.10
  -5   5  -6   -4.00   15.90
   5  -6  -6   -4.90   25.00
  -5   6   6   -4.50   13.90
   5   6  -6   14.90   25.10
   4  -6  -6    9.80   22.30
  -4  -6   6   20.40   12.80
  -4   6   6   20.90   15.00
   4   6  -6   34.30   21.60
  -4   6   6  -17.40   17.70
  -3  -6   6   35.70   13.10
   3  -6  -6   64.29   20.90
   3   6  -6   61.39   19.40
  -3   6   6   57.09   16.40
  -3   6   6   67.49   19.30
  -2  -6   6  130.69   20.90
  -2   6   6  178.38   27.90
   2   6  -6  158.28   19.30
   1  -6  -6   26.50   10.90
  -1   6   6   26.00   12.40
   1   6  -6   22.60    8.10
   0  -6  -6  243.28   15.50
   0  -6   6  246.18    5.80
   0   6  -6  229.28   12.80
   0   6   6  246.98   23.10
   1  -6   6 2121.99   40.20
  -1  -6  -6 2154.68   49.50
  -1   6  -6 2211.48   49.60
   1   6   6 2227.58   57.39
   2  -6   6   59.89   10.20
  -2  -6  -6   70.59   11.50
  -2   6  -6   34.30   12.60
   2   6   6   41.60    9.60
  -3  -6  -6   10.20   10.20
   3  -6   6    3.30   11.00
  -3   6  -6   19.30   15.60
  -4  -6  -6    3.60   11.50
   4  -6   6   26.80   16.90
  -4   6  -6    1.80   14.30
   5  -6   6   70.69   20.70
  -5   6  -6   27.20   17.20
   5  -7  -6   38.70   27.40
  -5   7   6   -0.20   16.90
   5   7  -6    4.40   24.20
   4  -7  -6   -4.10   22.10
  -4  -7   6    9.20   11.90
  -4   7   6  -13.40   18.00
  -4   7   6    9.00   15.40
   4   7  -6   25.90   24.60
   3  -7  -6  128.59   23.50
  -3  -7   6   83.89   16.60
  -3   7   6   99.59   21.80
  -3   7   6  107.59   18.90
   3   7  -6  112.39   20.90
  -2  -7   6    2.10    9.80
  -2   7   6   18.10   15.70
   2   7  -6   16.30   12.80
   1  -7  -6  525.95   22.90
  -1   7   6  555.94   34.50
   0  -7   6 1039.60   21.10
   0  -7  -6 1091.79   31.70
   0   7   6 1065.89   41.40
   0   7  -6 1062.29   27.20
   1  -7   6   23.50    5.20
  -1  -7  -6   14.60    9.40
   1   7   6   11.80   10.80
  -1   7  -6   15.00   10.10
  -2  -7  -6  768.22   27.50
   2  -7   6  743.93   23.30
  -2   7  -6  770.22   30.70
   2   7   6  834.22   32.10
   3  -7   6   19.80   12.60
  -3  -7  -6   23.40   11.80
  -3   7  -6   28.40   15.00
  -4  -7  -6  169.18   19.20
   4  -7   6  172.48   21.20
  -4   7  -6   99.09   19.50
   5  -7   6   10.20   17.60
  -5   7  -6  -31.50   14.90
   5  -8  -6   56.59   28.50
  -5   8   6    8.00   15.80
   5   8  -6   25.20   25.50
  -4  -8   6   18.40   13.70
   4  -8  -6   47.80   24.80
   4   8  -6   14.40   23.90
  -4   8   6  -23.80   21.10
  -4   8   6   29.60   17.50
  -3  -8   6    7.10   11.60
   3  -8  -6    9.70   15.80
  -3   8   6  -12.60   16.70
   3   8  -6   16.70   17.60
  -3   8   6    9.10   17.80
  -2   8   6    8.10   15.70
  -2   8   6    5.30   14.20
   2   8  -6   12.40   12.70
   1  -8  -6  825.22   29.50
  -1   8   6  873.11   42.40
   0  -8  -6   73.39   12.30
   0  -8   6   59.69    6.50
   0   8  -6   50.69    9.00
   0   8   6   54.49   15.00
  -1  -8  -6  128.09   13.70
   1  -8   6  139.49    8.60
  -1   8  -6  135.69   15.00
   1   8   6  144.09   20.60
  -2  -8  -6   48.70   11.20
   2  -8   6   30.20   10.20
   2   8   6   28.60   11.20
  -2   8  -6   28.20   13.70
  -3  -8  -6   46.70   12.60
   3  -8   6   55.29   13.70
  -3   8  -6   35.70   15.10
  -4  -8  -6    6.30   11.30
   4  -8   6   27.50   15.80
  -4   8  -6    4.20   15.10
  -5   8  -6   -4.30   16.70
   5  -9  -6   54.49   28.60
  -5   9   6   38.70   19.40
   5   9  -6  103.69   28.50
  -4  -9   6    6.50   11.50
   4  -9  -6   18.30   24.10
   4   9  -6   10.40   24.00
  -4   9   6   22.50   18.60
  -4   9   6  -32.50   18.70
  -3  -9   6   65.49   15.30
   3  -9  -6  119.09   23.90
   3   9  -6  100.59   22.00
  -3   9   6   45.50   20.60
  -3   9   6   79.09   18.70
  -2   9   6  170.78   21.90
  -2   9   6  209.58   33.60
   2   9  -6  218.78   21.40
   1  -9  -6 1948.01   50.59
  -1   9   6 2014.30   66.29
   0  -9  -6  309.17   18.90
   0   9   6  306.87   29.20
   0   9  -6  305.27   15.10
  -1  -9  -6   65.39   12.00
   1  -9   6   57.69    7.60
   1   9   6   39.50   13.70
  -1   9  -6   41.60   12.00
   2  -9   6    5.80    9.90
  -2  -9  -6   25.30   10.60
  -2   9  -6   25.20   13.80
   2   9   6   20.30   12.40
   3  -9   6   26.50   13.00
  -3  -9  -6   29.10   11.10
  -3   9  -6   25.00   15.10
   4  -9   6   32.00   16.90
  -4  -9  -6   16.20   12.00
  -4   9  -6    0.30   15.90
  -5   9  -6  -13.60   17.60
   5 -10  -6   -0.90   26.50
  -5  10   6   20.30   17.60
   5  10  -6   59.09   26.50
   4 -10  -6   68.09   27.00
  -4 -10   6   60.09   16.60
  -4  10   6   55.99   20.00
   4  10  -6   70.89   23.10
  -4  10   6    4.90   21.60
  -3 -10   6   79.69   16.30
   3 -10  -6  105.09   21.20
  -3  10   6   64.99   21.50
  -3  10   6   65.99   19.00
   3  10  -6  121.29   20.80
  -2  10   6  120.69   19.90
  -2  10   6   90.69   21.40
   1 -10  -6  469.65   24.20
  -1  10   6  518.55   38.90
  -1  10   6  487.75   25.80
   0 -10  -6 1270.97   37.40
   0  10   6 1267.07   51.19
   0  10  -6 1283.37   32.50
  -1 -10  -6   76.99   12.90
  -1  10  -6   56.69   13.90
   1  10   6   47.90   14.20
   2 -10   6    1.80    9.30
  -2 -10  -6   15.00   11.60
   2  10   6   12.40   13.30
  -2  10  -6  -12.00   13.40
  -3 -10  -6   66.79   14.00
   3 -10   6   60.59   14.50
  -3  10  -6   55.59   16.50
  -4 -10  -6  -14.10   10.80
   4 -10   6    0.10   16.20
  -4  10  -6  -14.30   15.20
  -5  10  -6  -14.20   17.10
   5 -11  -6  -14.80   20.50
   5  11  -6   -7.80   25.60
  -5  11   6  -21.30   17.50
  -4 -11   6   39.10   15.20
   4 -11  -6   17.10   25.90
  -4  11   6   13.80   17.20
  -4  11   6  -42.10   22.40
   4  11  -6   19.30   21.30
   3 -11  -6  -17.70   22.10
  -3 -11   6   -3.10   11.50
   3  11  -6    5.50   16.60
  -3  11   6  -16.40   17.70
  -3  11   6    5.80   17.40
  -2  11   6  731.43   48.90
  -2  11   6  757.52   34.30
   1 -11  -6  344.87   23.80
  -1  11   6  296.97   35.50
  -1  11   6  277.37   22.90
   0 -11  -6    2.10   10.60
   0  11  -6    6.90    8.80
   0  11   6   20.40   15.80
  -1 -11  -6   58.89   13.50
  -1  11  -6   61.49   13.90
   1  11   6   40.60   15.00
  -2 -11  -6  191.78   18.90
   2 -11   6  191.18   15.80
  -2  11  -6  177.08   21.30
   2  11   6  231.68   30.60
   3 -11   6   11.50   12.60
  -3 -11  -6   -0.90   11.00
  -3  11  -6  -14.50   15.50
  -4  11  -6  -15.00   16.90
  -5  11  -6  -25.30   19.20
   5 -12  -6  -18.30   28.70
  -5  12   6    5.00   18.00
   5  12  -6  -14.20   24.60
  -4 -12   6   34.70   15.10
   4 -12  -6   37.50   27.50
  -4  12   6    9.20   17.70
   4  12  -6   13.70   21.80
  -4  12   6  -14.90   22.30
   3 -12  -6  -27.10   24.30
  -3  12   6  -15.30   16.20
  -3  12   6  -15.40   19.00
  -2  12   6   78.39   20.60
  -2  12   6   45.90   20.60
   1 -12  -6   23.80   12.80
  -1  12   6   16.60   17.50
  -1  12   6    8.60   17.10
   0 -12  -6  764.22   30.30
   0  12   6  781.72   32.30
   0  12  -6  826.42   25.80
   0  12   6  824.92   46.50
  -1 -12  -6  731.93   30.50
   1  12   6  700.33   28.70
  -1  12  -6  724.53   28.40
   1  12   6  729.63   44.40
  -2 -12  -6   17.20   11.20
   2 -12   6   21.80   10.20
   2  12   6    3.30   13.20
  -2  12  -6   -4.80   15.80
   2  12   6   16.40   11.10
   3 -12   6  120.39   20.00
  -3 -12  -6  142.49   18.00
  -3  12  -6   81.59   18.60
  -4  12  -6  -11.40   17.40
  -5  12  -6   19.60   32.40
   5 -13  -6   20.90   48.70
   5  13  -6    9.40   26.50
  -5  13   6   -4.00   17.60
  -4 -13   6   12.50   13.60
   4 -13  -6  -18.90   26.60
  -4  13   6  -17.50   16.30
  -3  13   6   22.30   18.00
  -3  13   6   -2.40   19.70
  -2  13   6  193.18   24.50
  -2  13   6  123.69   24.30
   1 -13  -6   -7.40   12.20
  -1  13   6   11.90   16.80
  -1  13   6    0.90   18.30
   0 -13  -6  292.47   23.10
   0  13  -6  261.97   17.40
   0  13   6  275.77   25.10
   0  13   6  317.77   36.80
  -1 -13  -6   17.90   12.50
   1  13   6   12.00   13.00
   1  13   6   24.60   16.10
  -1  13  -6   23.70   14.70
   2 -13   6   29.50   11.10
  -2 -13  -6   30.30   12.10
   2  13   6   19.80   11.70
  -2  13  -6    1.50   15.90
   2  13   6   33.30   15.60
  -3 -13  -6   32.70   12.70
  -3  13  -6   10.50   16.50
  -4  13  -6    1.80   17.00
  -4 -14   6   30.10   15.00
   4 -14  -6   27.00   30.50
  -4  14   6    8.90   17.70
  -4  14   6  -29.20   22.70
  -3  14   6   32.80   18.40
  -3  14   6   20.10   22.70
  -2  14   6  124.89   21.60
  -2  14   6  111.59   24.80
   1 -14  -6   45.30   14.90
  -1  14   6   35.70   19.80
  -1  14   6   41.20   17.70
   0 -14  -6   87.09   16.00
   0  14  -6   71.69   12.00
   0  14   6   92.99   19.00
   0  14   6   61.79   20.10
  -1 -14  -6  104.69   16.50
   1  14   6  109.39   16.70
   1  14   6   88.19   19.90
  -1  14  -6  108.69   17.20
  -2 -14  -6   91.79   15.30
   2  14   6   95.29   14.20
  -2  14  -6   76.69   18.90
  -3 -14  -6  136.49   18.00
  -3  14  -6   84.79   20.00
  -4  14  -6   -7.40   16.90
   4 -15  -6   16.50   24.80
  -4 -15   6   18.70   14.70
  -4  15   6  -33.20   23.00
  -4  15   6   10.70   20.50
  -3  15   6   71.99   28.30
  -3  15   6   76.39   21.00
  -2  15   6    2.50   20.00
  -2  15   6   17.10   18.80
   1 -15  -6   64.19   15.70
  -1  15   6   69.59   21.30
  -1  15   6   82.59   20.90
   0 -15  -6  312.47   23.20
   0  15   6  320.97   23.50
   0  15  -6  306.87   17.90
   0  15   6  318.47   37.60
  -1 -15  -6  194.58   21.40
   1  15   6  237.48   21.00
   1  15   6  223.88   37.60
  -1  15  -6  212.28   21.40
  -2 -15  -6   68.49   15.00
  -2  15  -6   72.99   19.60
  -3 -15  -6    6.60   12.70
  -3  15  -6   -1.00   16.50
  -4  15  -6   -6.70   19.90
   4 -16  -6    5.90   31.90
  -4 -16   6   22.60   13.50
  -4  16   6    7.80   20.70
  -3  16   6  109.89   22.60
  -3  16   6   68.49   26.20
  -2  16   6   27.50   18.70
  -2  16   6   11.50   21.20
   1 -16  -6   12.10   14.70
  -1  16   6   11.30   19.50
  -1  16   6   26.70   18.40
   0 -16  -6  173.98   20.60
   0  16  -6  183.78   21.20
   0  16   6  168.08   21.00
   0  16   6  131.29   24.70
  -1 -16  -6   31.80   13.20
   1  16   6   21.60   19.80
  -1  16  -6   52.19   15.70
   1  16   6   36.50   15.40
  -2 -16  -6   80.19   16.20
  -2  16  -6   65.29   19.80
  -3 -16  -6  -10.60   12.30
  -3  16  -6  -15.80   18.70
  -4  16  -6   -4.10   20.80
   4 -17  -6  -43.50   31.90
  -4  17   6  -17.40   18.10
  -3  17   6   93.79   28.30
  -3  17   6  122.09   24.80
  -2  17   6   18.10   22.10
  -2  17   6   42.30   19.90
   1 -17  -6   79.49   17.40
  -1  17   6  110.79   22.60
  -1  17   6   55.39   22.70
   0 -17  -6   15.40   13.50
   0  17   6    2.80   18.70
   0  17   6   13.10   17.50
  -1 -17  -6  339.47   25.70
  -1  17  -6  355.56   24.40
   1  17   6  383.66   24.10
   1  17   6  332.87   43.80
  -2 -17  -6   -9.20   13.40
  -2  17  -6   19.20   17.00
  -3  17  -6  -20.60   17.40
  -3  18   6   84.39   23.80
  -3  18   6   61.89   26.90
  -2  18   6   -6.50   21.20
  -2  18   6   17.50   18.80
   1 -18  -6   22.30   14.80
  -1  18   6  -16.90   19.00
  -1  18   6    8.40   18.00
   0 -18  -6  148.59   21.20
   0  18   6  119.89   21.50
   0  18   6   70.19   26.20
  -1 -18  -6   11.10   13.40
   1  18   6   10.30   14.60
   1  18   6    3.40   17.90
  -1  18  -6    4.60   14.60
  -2 -18  -6    0.50   13.50
  -2  18  -6  -28.50   15.40
  -3  18  -6   25.80   20.60
  -3  19   6   -2.50   20.60
  -3  19   6  -32.50   23.20
  -2  19   6   43.40   21.80
  -2  19   6   14.60   23.30
  -1  19   6  -21.10   20.50
  -1  19   6    5.20   19.40
   0 -19  -6   54.29   18.30
   0  19   6   78.19   19.10
   0  19   6   30.40   22.10
  -1 -19  -6   71.89   18.60
  -1  19  -6   35.40   16.20
   1  19   6   77.89   23.70
   1  19   6   47.40   22.20
  -2 -19  -6   17.20   13.10
  -2  19  -6  -29.50   17.80
  -3  19  -6   -9.00   20.40
  -3  20   6  -36.60   25.00
  -3  20   6   12.80   22.80
  -2  20   6   -0.90   18.40
  -2  20   6  -18.00   21.80
  -1  20   6   71.79   22.30
  -1  20   6   43.70   24.70
   0 -20  -6    4.20   13.90
   0  20   6   -4.60   17.90
   0  20   6   -7.40   20.30
  -1 -20  -6   35.00   15.70
   1  20   6   15.20   20.90
  -2 -20  -6   25.90   15.40
  -2  20  -6  -17.60   16.70
  -3  20  -6   65.39   24.40
  -2  21   6  -17.50   23.90
  -2  21   6   18.30   20.60
  -1  21   6  -37.50   20.40
  -1  21   6   15.60   19.40
   0 -21  -6    6.40   14.90
   0  21   6  -18.60   16.50
   0  21   6  -18.20   21.30
  -1 -21  -6   55.09   17.10
  -2 -21  -6   42.70   17.50
  -2  21  -6   29.00   21.00
  -2  22   6   -8.30   29.00
  -2  22   6    5.40   20.90
  -1  22   6  -25.40   25.40
  -1  22   6   25.50   22.20
   0 -22  -6   50.39   17.60
   0  22   6    7.20   18.70
   0  22   6   12.40   24.80
  -1 -22  -6    7.50   16.60
  -2 -22  -6   14.90   16.60
  -2  22  -6  -14.00   17.50
  -1  23   6   -1.60   28.50
  -1  23   6   34.20   22.40
   0 -23  -6   11.10   15.70
   0  23   6  -30.50   22.50
  -1 -23  -6   38.60   17.40
  -5   0   7  -22.30   19.70
   5   0  -7   59.59   27.10
  -4   0   7  -22.70   15.20
   4   0  -7  -12.40   20.00
  -3   0   7 1672.33   63.69
   3   0  -7 1549.64   48.20
   2   0  -7    2.40   12.30
  -2   0   7    0.70    9.90
  -1   0   7   12.10    8.90
   1   0  -7   21.00    9.20
   1   0  -7   15.40    8.20
   0   0   7    3.60    6.70
   0   0  -7   10.60    7.40
   1   0   7   49.90    8.40
  -1   0  -7   68.39   10.50
  -2   0  -7    9.10   10.40
   2   0   7   -2.10    4.90
  -3   0  -7  127.39   17.80
   3   0   7  150.08   17.10
   4   0   7  -11.30   13.70
  -4   0  -7   -2.20   12.10
   5   0   7   13.30   18.30
  -5   0  -7   -1.00   16.10
   5  -1  -7   20.90   25.50
   5   1  -7  -18.40   22.90
  -4  -1   7    4.70   16.50
   4  -1  -7   51.09   22.40
  -4   1   7   30.90   15.60
   4   1  -7   48.50   21.90
  -4   1   7    5.70   15.80
  -3  -1   7   37.20   14.40
   3  -1  -7   34.90   15.60
   3   1  -7   49.99   19.70
  -3   1   7   28.00   14.60
  -2  -1   7  186.18   22.80
   2  -1  -7  208.98   18.40
  -2   1   7  208.88   24.70
   2   1  -7  185.38   17.60
  -1  -1   7  728.13   31.70
   1  -1  -7  683.23   22.50
  -1   1   7  708.33   33.30
   1   1  -7  687.43   20.70
   1   1  -7  696.73   21.90
   0  -1   7  226.78   19.60
   0  -1  -7  243.88   14.30
   0   1  -7  266.77   14.00
   0   1   7  246.38   19.20
  -1  -1  -7  312.37   16.50
   1  -1   7  317.17   18.30
  -1   1  -7  337.47   16.90
   1   1   7  338.97   19.30
   2  -1   7   12.90    9.00
   2  -1   7    8.70    5.20
  -2  -1  -7   15.30   10.30
  -2   1  -7   13.90   11.80
   2   1   7    1.30    5.80
  -3  -1  -7    8.30   12.40
   3  -1   7   14.40   13.80
   3   1   7    6.10   13.00
  -3   1  -7   21.30   13.00
  -4  -1  -7    6.10   13.60
   4  -1   7   26.40   16.70
  -4   1  -7    5.80   13.00
   4   1   7   -0.70   14.20
   5  -1   7   56.39   19.60
  -5  -1  -7   26.20   17.50
  -5   1  -7   37.40   18.20
   5   1   7   38.40   19.80
   5  -2  -7   -1.20   24.30
   5   2  -7  -21.10   24.40
   4  -2  -7   69.89   23.90
  -4  -2   7   38.30   18.10
  -4   2   7   59.99   14.70
   4   2  -7   79.59   23.00
  -4   2   7   43.50   19.10
   3  -2  -7  475.85   29.80
  -3  -2   7  505.25   36.90
  -3   2   7  501.65   38.90
   3   2  -7  505.55   29.60
   2  -2  -7  177.18   18.40
  -2  -2   7  166.28   22.40
  -2   2   7  161.18   21.40
   2   2  -7  163.38   16.90
   1  -2  -7  262.47   16.10
  -1  -2   7  272.37   20.50
  -1   2   7  259.57   23.40
   1   2  -7  242.48   13.70
   1   2  -7  260.67   14.20
   0  -2   7 1745.53   49.99
   0  -2  -7 1832.32   42.10
   0   2  -7 1756.62   40.30
   0   2   7 1744.13   50.59
   0   2  -7 1821.32   32.90
  -1  -2  -7  119.69   12.60
   1  -2   7  104.59   13.30
  -1   2  -7  101.59   12.50
   1   2   7  117.39   14.90
  -1   2  -7  112.69    8.50
   2  -2   7  251.57   14.90
   2  -2   7  247.08   14.30
  -2  -2  -7  268.07   19.10
   2   2   7  241.18   16.10
  -2   2  -7  262.97   18.70
   3  -2   7  128.99   17.10
  -3  -2  -7  138.59   17.60
   3   2   7  114.79   18.90
  -3   2  -7  109.49   16.50
   4  -2   7   99.89   17.80
  -4  -2  -7   58.59   14.80
  -4   2  -7   66.69   16.10
   4   2   7   85.89   18.30
  -5  -2  -7    2.00   15.10
   5  -2   7   10.90   17.40
   5   2   7   -7.90   20.80
  -5   2  -7   -2.00   16.40
   5  -3  -7   12.80   25.30
   5   3  -7   36.40   26.10
   4  -3  -7    1.90   21.80
  -4  -3   7   -2.60   14.30
   4   3  -7   11.80   21.50
  -4   3   7  -19.80   15.50
  -4   3   7   -2.00   13.40
  -3  -3   7  158.18   27.10
   3  -3  -7  160.68   20.30
  -3   3   7  197.38   31.90
   3   3  -7  181.78   23.00
  -2  -3   7  167.18   22.40
   2  -3  -7  157.08   18.70
   2   3  -7  156.18   16.70
  -2   3   7  177.18   26.00
   1  -3  -7 3394.16   71.59
  -1  -3   7 3597.14   85.79
   1   3  -7 3353.56   66.59
  -1   3   7 3492.95   86.49
   1   3  -7 3406.56   65.39
   0  -3   7   30.80    8.50
   0  -3  -7   45.10   10.50
   0   3  -7   41.40    9.00
   0   3   7   34.20   10.00
   1  -3   7  501.45   23.20
  -1  -3  -7  550.54   21.00
   1   3   7  529.05   24.80
  -1   3  -7  496.25   21.40
  -1   3  -7  527.25   12.80
  -2  -3  -7  210.28   18.20
   2  -3   7  198.98   13.70
   2  -3   7  202.28   14.90
   2   3   7  178.78   16.40
  -2   3  -7  214.88   17.80
   3  -3   7  200.58   19.00
  -3  -3  -7  223.08   20.70
  -3   3  -7  211.78   20.80
  -4  -3  -7    0.20   13.40
   4  -3   7   -1.70   15.20
   4   3   7    9.50   16.20
  -4   3  -7   10.00   14.30
   5  -3   7    8.20   19.40
  -5  -3  -7   -4.70   13.50
  -5   3  -7  -30.80   16.20
   5   3   7   -1.20   18.80
   5  -4  -7   13.20   25.70
   5   4  -7   43.80   26.80
  -4  -4   7   12.90   13.40
   4  -4  -7   45.40   23.20
  -4   4   7  -11.20   17.20
   4   4  -7   25.90   22.20
  -4   4   7   29.30   13.80
   3  -4  -7   32.50   19.80
  -3  -4   7   24.60   13.70
   3   4  -7   48.40   21.50
  -3   4   7   34.60   17.00
  -2  -4   7   94.49   15.70
   2  -4  -7  156.58   19.30
  -2   4   7  149.59   26.20
   2   4  -7  143.19   17.20
  -1  -4   7  557.24   30.10
   1  -4  -7  566.74   23.30
  -1   4   7  590.34   32.90
   1   4  -7  557.54   17.80
   1   4  -7  535.45   17.30
   0  -4   7  186.08   17.70
   0  -4  -7  187.48   14.20
   0   4  -7  213.48   13.50
   0   4   7  199.68   20.60
  -1  -4  -7  176.58   14.10
  -1   4  -7  173.08   14.80
   1   4   7  176.78   18.50
  -2  -4  -7  166.38   17.30
   2  -4   7  155.78   12.60
   2   4   7  146.09   16.50
  -2   4  -7  137.09   16.70
   3  -4   7   96.99   15.00
  -3  -4  -7   94.69   14.90
  -3   4  -7   77.49   16.10
   4  -4   7    0.50   12.90
  -4  -4  -7   -2.10   11.50
   4   4   7    9.70   16.50
  -4   4  -7  -11.10   13.60
   5  -4   7   26.00   19.90
  -5  -4  -7   -1.00   15.20
  -5   4  -7   -3.80   15.60
   5   4   7    6.40   20.30
  -5  -5   7  -18.80   15.90
   5  -5  -7  -17.10   24.90
   5   5  -7   -5.10   24.90
  -4  -5   7  173.48   29.30
   4  -5  -7  215.38   29.50
   4   5  -7  206.38   27.80
  -4   5   7  177.58   20.60
  -3  -5   7   66.99   16.30
   3  -5  -7   85.79   21.80
  -3   5   7   75.79   19.50
   3   5  -7  105.99   21.10
  -2  -5   7   56.39   13.80
   2  -5  -7   90.29   18.10
   2   5  -7  101.99   16.10
  -2   5   7   61.79   16.60
  -1  -5   7 1539.35   50.99
   1  -5  -7 1518.05   40.10
   1   5  -7 1434.06   31.90
  -1   5   7 1539.75   53.59
   1   5  -7 1514.85   33.20
   0  -5  -7  435.56   19.90
   0   5  -7  472.55   17.30
   0   5   7  459.45   28.10
  -1  -5  -7  204.88   15.20
   1   5   7  251.57   22.30
  -1   5  -7  207.58   15.70
   2  -5   7  152.58   12.40
  -2  -5  -7  162.18   17.70
   2   5   7  140.69   17.70
  -2   5  -7  175.38   17.90
  -3  -5  -7   41.40   12.50
   3  -5   7   48.30   13.00
  -3   5  -7   63.79   16.10
   4  -5   7   -7.80   13.80
  -4  -5  -7    4.80   12.30
  -4   5  -7   -4.50   15.80
   5  -5   7   13.50   22.60
  -5  -5  -7  -12.80   13.00
  -5   5  -7  -14.50   15.90
   5  -6  -7   47.00   28.70
  -5  -6   7   11.10   15.10
   5   6  -7   67.79   30.00
  -5   6   7   24.30   20.00
   4  -6  -7   34.00   23.30
  -4  -6   7    3.20   12.00
  -4   6   7  -29.30   17.90
  -4   6   7    4.00   14.60
   4   6  -7    0.60   21.10
   3  -6  -7  340.27   29.00
  -3  -6   7  331.87   32.30
  -3   6   7  349.87   26.00
   3   6  -7  350.76   26.40
  -3   6   7  337.87   38.70
  -2  -6   7  447.26   31.90
   2   6  -7  436.86   21.70
  -2   6   7  472.65   37.00
   1  -6  -7   62.99   12.60
  -1  -6   7   58.09   12.00
   1   6  -7   66.19    7.30
   1   6  -7   86.29    9.90
  -1   6   7   55.89   14.80
   0  -6  -7   67.99   11.40
   0   6   7   38.00   12.20
   0   6  -7   47.30    9.20
  -1  -6  -7  150.18   14.50
  -1   6  -7  147.39   16.40
   1   6   7  136.49   21.10
   2  -6   7  629.24   20.20
  -2  -6  -7  667.13   26.80
  -2   6  -7  658.83   29.20
   2   6   7  668.93   28.80
  -3  -6  -7   36.50   11.90
   3  -6   7   34.50   12.30
  -3   6  -7   25.80   13.90
   4  -6   7   27.90   15.50
  -4  -6  -7   20.00   13.50
  -4   6  -7    8.80   15.30
  -5   6  -7  -17.50   17.90
   5  -7  -7   47.70   28.40
  -5  -7   7    3.70   16.30
   5   7  -7   66.19   26.90
  -5   7   7   24.40   17.80
  -4  -7   7   64.59   16.50
   4  -7  -7   53.39   20.10
  -4   7   7   14.00   23.90
  -4   7   7   66.59   18.00
   4   7  -7  110.29   24.20
   3  -7  -7   -1.90   15.20
  -3  -7   7   13.10   12.40
  -3   7   7   12.30   15.40
  -3   7   7    1.30   17.10
   3   7  -7    0.50   16.70
  -2  -7   7   -4.10   10.10
  -2   7   7   -0.40   14.90
   2   7  -7   20.20   14.60
   1  -7  -7   -8.80    9.70
  -1   7   7    6.70   12.90
   1   7  -7    2.90    4.10
   0  -7  -7   81.09   12.80
   0   7   7   69.19   14.90
   0   7  -7   80.69   10.20
  -1  -7  -7   75.69   12.30
   1  -7   7   79.89    4.70
   1   7   7   63.29   12.90
  -1   7  -7   80.19   13.50
  -2  -7  -7  277.87   18.90
   2  -7   7  244.98   14.30
  -2   7  -7  285.27   21.30
   2   7   7  266.17   23.80
   3  -7   7  217.48   17.50
  -3  -7  -7  248.18   19.00
  -3   7  -7  199.18   21.40
  -4  -7  -7   10.90   12.50
   4  -7   7   17.10   15.00
  -4   7  -7   -5.70   14.50
  -5   7  -7    9.70   18.10
   5  -8  -7   87.49   30.30
  -5  -8   7   34.30   19.40
   5   8  -7   77.89   27.50
  -5   8   7   50.09   19.60
  -4  -8   7   63.79   16.50
   4  -8  -7   94.09   22.70
   4   8  -7   78.89   23.20
  -4   8   7   13.20   22.10
  -4   8   7   72.29   18.40
   3  -8  -7  231.88   27.90
  -3  -8   7  212.88   28.70
  -3   8   7  150.38   25.50
  -3   8   7  197.88   23.20
   3   8  -7  197.28   22.70
  -2  -8   7    6.30   11.20
   2   8  -7   19.10   14.20
  -2   8   7   24.40   17.30
   1  -8  -7  342.47   21.30
  -1   8   7  363.46   33.80
   0  -8  -7 1465.05   40.80
   0  -8   7 1437.26   27.00
   0   8  -7 1464.95   35.40
   0   8   7 1471.05   52.89
  -1  -8  -7  125.59   15.30
   1  -8   7  117.99    6.50
  -1   8  -7  136.69   17.70
   1   8   7  163.78   26.00
  -2  -8  -7  121.49   15.10
   2  -8   7  116.69   12.60
   2   8   7   87.39   14.30
  -2   8  -7   89.89   16.30
  -3  -8  -7   34.30   12.00
   3  -8   7   39.20   12.40
  -3   8  -7    8.10   14.00
  -4  -8  -7   16.60   12.80
  -4   8  -7   -4.20   15.20
  -5   8  -7  -22.40   18.50
   5  -9  -7   41.90   29.20
   5   9  -7   70.69   30.20
  -5   9   7    0.80   17.70
   4  -9  -7  -27.20   17.50
  -4  -9   7    4.00   12.10
   4   9  -7   40.70   22.00
  -4   9   7  -12.50   21.20
  -4   9   7   23.90   18.80
  -3  -9   7   60.89   15.90
   3  -9  -7   85.09   24.20
   3   9  -7   80.39   18.50
  -3   9   7   88.59   19.00
  -3   9   7   45.80   20.20
   2   9  -7  206.48   18.70
  -2   9   7  210.38   35.70
  -2   9   7  220.38   23.60
   1  -9  -7  126.69   16.90
  -1   9   7   83.19   18.90
   0  -9  -7    7.40   11.00
   0  -9   7    4.00    4.70
   0   9  -7    7.10    8.50
   0   9   7   12.20   14.20
  -1  -9  -7  140.49   16.30
   1  -9   7  134.49    8.10
  -1   9  -7  174.48   18.60
   1   9   7   92.29   17.10
  -2  -9  -7  412.96   22.60
   2  -9   7  424.66   17.80
  -2   9  -7  397.96   26.70
   2   9   7  455.65   31.70
  -3  -9  -7    5.30   10.80
   3  -9   7    0.50   11.40
  -3   9  -7   -5.80   13.80
  -4  -9  -7   11.20   12.60
  -4   9  -7   12.00   17.50
  -5   9  -7    4.60   18.00
   5 -10  -7  -20.30   28.80
   5  10  -7   16.40   25.20
  -5  10   7    8.70   19.20
   4 -10  -7   76.69   23.20
  -4 -10   7   65.79   18.20
  -4  10   7   55.49   20.80
   4  10  -7   65.79   22.90
   3 -10  -7   87.59   25.50
  -3 -10   7   50.89   15.30
  -3  10   7   47.50   21.60
  -3  10   7   69.09   19.40
   3  10  -7   81.89   18.80
  -2  10   7   64.99   21.80
  -2  10   7  111.39   21.40
   1 -10  -7   48.00   14.90
  -1  10   7   39.70   17.90
   0 -10  -7 1131.79   36.60
   0  10  -7 1115.29   30.80
   0  10   7 1139.59   50.29
   1 -10   7  529.95   15.30
  -1 -10  -7  535.45   26.30
  -1  10  -7  549.15   24.40
   1  10   7  537.55   35.00
   2 -10   7   10.60    9.60
  -2 -10  -7   14.30   11.60
   2  10   7    7.10   13.20
  -2  10  -7   11.80   14.20
  -3 -10  -7   -0.50   10.50
  -3  10  -7   -8.00   14.10
  -4 -10  -7   -5.50   12.30
  -4  10  -7   -6.80   15.70
  -5  10  -7  -14.60   18.10
   5 -11  -7   16.00   29.70
   5  11  -7   38.30   26.50
  -5  11   7   -6.70   17.30
  -4 -11   7   54.29   18.10
   4 -11  -7   29.00   27.70
   4  11  -7   65.89   23.10
  -4  11   7   63.79   21.40
   3 -11  -7  173.48   26.20
  -3 -11   7  166.08   28.00
   3  11  -7  136.69   21.10
  -3  11   7  117.79   22.20
  -2  11   7   10.40   17.00
  -2  11   7   12.90   19.30
   1 -11  -7  271.17   21.80
  -1  11   7  297.27   36.80
  -1  11   7  275.27   23.90
   0 -11  -7    3.30   11.50
   0  11  -7   -4.10    9.20
   0  11   7    7.60   15.70
  -1 -11  -7 1014.70   34.80
   1 -11   7  989.40   24.20
  -1  11  -7 1007.70   34.50
   1  11   7 1064.09   49.90
  -2 -11  -7  108.59   15.60
  -2  11  -7   85.09   16.70
   2  11   7   79.19   16.70
  -3 -11  -7   13.80   12.10
  -3  11  -7    5.00   15.50
  -4 -11  -7    5.90   13.10
  -4  11  -7   -8.90   15.80
   5  12  -7   -7.50   27.70
  -5  12   7  -20.80   18.40
  -4 -12   7    8.80   14.10
   4 -12  -7   18.30   28.30
   4  12  -7    8.00   20.80
  -4  12   7    2.00   18.50
  -3 -12   7   13.90   12.90
   3 -12  -7    0.30   26.50
  -3  12   7  -12.50   19.50
  -3  12   7   16.40   17.70
  -2  12   7   -5.00   17.40
  -2  12   7   26.70   16.70
   1 -12  -7   37.30   14.70
  -1  12   7   36.50   19.40
  -1  12   7   57.09   19.70
   0 -12  -7    5.30   11.80
   0  12   7    3.00   16.90
   0  12  -7    1.80    9.40
  -1 -12  -7  262.27   21.30
   1  12   7  289.87   36.00
  -1  12  -7  266.77   21.70
  -2 -12  -7   29.20   12.60
   2  12   7    3.40   13.70
  -2  12  -7    2.60   15.40
  -3 -12  -7  -14.60   11.50
  -3  12  -7    3.20   16.10
  -4  12  -7   51.49   19.40
   4 -13  -7   96.89   31.70
  -4 -13   7   77.99   19.50
  -4  13   7   11.00   25.20
  -4  13   7   48.10   19.70
  -3 -13   7   68.99   17.50
  -3  13   7   81.09   22.80
  -3  13   7   53.49   24.20
  -2  13   7  138.59   21.90
  -2  13   7  119.29   24.80
   1 -13  -7    1.70   12.60
  -1  13   7    3.60   18.10
  -1  13   7   19.00   16.60
   0 -13  -7   -0.60   13.00
   0  13   7   18.50   15.60
   0  13   7    7.90   17.40
   0  13  -7   -0.10    9.80
  -1 -13  -7  149.88   18.50
   1  13   7   92.99   19.60
  -1  13  -7  144.09   17.80
   1  13   7  134.99   18.70
  -2 -13  -7   75.69   14.80
   2  13   7   88.79   14.50
  -2  13  -7   55.89   16.70
   2  13   7   69.39   17.80
  -3 -13  -7   84.69   16.50
  -3  13  -7   40.30   17.40
  -4  13  -7   -4.20   18.50
   4 -14  -7  -20.60   29.50
  -4 -14   7   24.60   15.60
  -4  14   7   14.00   18.80
  -3  14   7   -5.30   18.80
  -3  14   7  -30.00   20.00
  -2  14   7   25.60   21.60
  -2  14   7   47.30   20.60
   1 -14  -7  412.06   26.60
  -1  14   7  384.36   41.90
  -1  14   7  423.86   28.30
   0 -14  -7   -0.50   11.90
   0  14   7   19.00   15.60
   0  14   7  -19.90   17.50
   0  14  -7   -4.40    9.00
  -1 -14  -7   56.89   14.90
   1  14   7   55.29   15.80
  -1  14  -7   55.09   15.20
   1  14   7   45.90   19.30
  -2 -14  -7   -2.50   11.40
   2  14   7   11.40   15.80
  -2  14  -7   -3.40   15.00
   2  14   7   11.60   12.80
  -3 -14  -7   -0.20   12.80
  -3  14  -7    6.20   16.60
  -4  14  -7    2.80   19.50
  -4 -15   7   12.50   14.90
   4 -15  -7   -7.90   28.90
  -4  15   7    4.20   19.40
  -3  15   7  -15.70   21.50
  -3  15   7   13.80   18.10
  -2  15   7    6.80   17.80
  -2  15   7  -22.10   18.20
   1 -15  -7  175.78   21.50
  -1  15   7  143.19   23.30
  -1  15   7  114.49   24.70
   0 -15  -7   58.09   15.50
   0  15   7   26.80   18.90
   0  15  -7   33.60   11.30
   0  15   7   38.60   16.70
  -1 -15  -7    6.20   12.30
   1  15   7   -6.20   15.10
  -1  15  -7   -7.30   13.10
   1  15   7   -5.00   14.00
  -2 -15  -7   19.50   14.40
  -2  15  -7  -11.50   15.00
   2  15   7    4.80   17.00
  -3 -15  -7  107.69   18.30
  -3  15  -7   84.39   20.80
  -4  15  -7  -12.80   19.40
   4 -16  -7  -14.70   33.50
  -4 -16   7    1.90   13.00
  -4  16   7    1.70   19.90
  -3  16   7   10.50   18.20
  -3  16   7   -3.30   22.70
   1 -16  -7   80.59   19.00
  -1  16   7   58.89   19.80
  -1  16   7   40.30   21.80
   0 -16  -7  156.58   20.50
   0  16   7  162.18   21.70
   0  16   7  105.69   25.60
  -1 -16  -7   48.80   15.70
   1  16   7   18.10   18.20
   1  16   7   36.80   15.90
  -1  16  -7   22.80   14.80
  -2 -16  -7  274.07   25.10
  -2  16  -7  227.38   26.70
  -3 -16  -7    1.90   13.60
  -3  16  -7   -6.30   17.80
  -4  16  -7  -15.60   20.40
  -4 -17   7   29.80   15.60
  -3  17   7    7.20   19.30
  -3  17   7  -21.90   22.90
  -2  17   7   16.90   20.30
  -2  17   7    8.30   21.10
   1 -17  -7    4.60   13.90
  -1  17   7    9.20   20.00
  -1  17   7   -6.80   20.20
   0 -17  -7  175.18   21.60
   0  17   7  184.28   24.00
  -1 -17  -7  213.48   22.00
  -1  17  -7  176.98   21.90
   1  17   7  131.39   25.30
   1  17   7  199.78   21.50
  -2 -17  -7   22.50   14.70
  -2  17  -7  -11.20   17.60
  -3 -17  -7  -13.50   13.90
  -3  17  -7  -11.50   18.50
  -3  18   7   15.40   19.30
  -3  18   7    1.80   25.00
  -2  18   7  126.29   29.30
  -2  18   7  157.58   24.90
   1 -18  -7   -4.80   13.50
  -1  18   7   12.10   18.80
  -1  18   7  -13.20   19.40
   0 -18  -7    0.40   14.80
   0  18   7  -13.60   19.20
   0  18   7    1.40   17.80
  -1 -18  -7    3.60   12.90
   1  18   7  -12.30   20.10
   1  18   7   -3.40   15.30
  -1  18  -7   -0.90   13.90
  -2 -18  -7   65.09   17.60
  -2  18  -7   40.40   19.70
  -3  18  -7  -29.70   19.20
  -3  19   7  -20.00   24.60
  -3  19   7   16.70   20.30
  -2  19   7   27.60   24.90
  -2  19   7   79.19   22.80
   1 -19  -7   21.30   15.70
  -1  19   7   10.30   20.50
  -1  19   7  -23.40   19.60
   0 -19  -7   12.80   14.80
   0  19   7    4.20   17.20
   0  19   7    1.20   20.90
  -1 -19  -7   68.79   17.20
   1  19   7   77.09   20.30
  -1  19  -7   57.59   17.30
   1  19   7   22.50   23.90
  -2 -19  -7    8.30   14.80
  -2  19  -7  -27.60   16.00
  -3  19  -7  -18.50   20.60
  -2  20   7   59.99   21.80
  -2  20   7   -6.60   27.00
  -1  20   7  -16.00   22.70
  -1  20   7   13.50   19.60
   0 -20  -7   43.20   17.00
   0  20   7    7.30   21.60
   0  20   7   35.60   20.30
  -1 -20  -7   18.70   15.50
   1  20   7  -41.20   21.40
  -2 -20  -7   14.50   14.80
  -2  20  -7  -19.70   19.30
  -2  21   7   49.60   24.30
  -2  21   7  -15.20   25.00
  -1  21   7   -9.10   21.40
  -1  21   7  -15.00   23.60
   0 -21  -7   36.80   17.50
   0  21   7   18.70   19.40
   0  21   7  -12.80   21.40
  -1 -21  -7   28.80   18.20
   1  21   7  -29.60   23.30
  -2 -21  -7   -6.30   15.50
  -2  21  -7  -25.50   18.20
  -1  22   7  -26.50   23.30
  -1  22   7   -8.60   21.50
   0 -22  -7   12.40   15.90
   0  22   7  -21.40   23.10
   0  22   7   -2.40   18.90
  -1 -22  -7   18.80   17.80
   0 -23  -7   40.90   18.00
   0  23   7  -10.50   25.80
   5   0  -8    2.20   25.60
   4   0  -8  174.68   27.10
  -3   0   8    2.00   13.40
   3   0  -8   -4.00   18.30
   2   0  -8  568.24   26.70
  -2   0   8  566.54   33.70
   1   0  -8    6.50    9.30
   1   0  -8    3.50    8.70
  -1   0   8   -6.50    8.60
   0   0  -8 1198.78   32.60
   0   0   8 1210.78   41.70
  -1   0  -8    2.60    8.80
   1   0   8    1.90    6.80
   2   0   8   13.90    6.70
  -2   0  -8   17.60   12.30
  -3   0  -8   -3.70   12.30
   3   0   8  -12.70   12.70
   4   0   8  -11.60   14.90
  -4   0  -8   11.50   14.90
   5   0   8   -6.10   16.90
  -5   0  -8   -3.40   17.00
   5  -1  -8   20.40   25.50
   5   1  -8   28.90   25.50
   4  -1  -8   70.49   23.50
   4   1  -8   64.19   23.50
  -3  -1   8    9.00   13.70
   3  -1  -8    7.10   19.20
  -3   1   8   -2.10   13.80
   3   1  -8   12.50   18.30
  -2  -1   8 1543.75   56.89
   2  -1  -8 1547.45   42.80
   2   1  -8 1561.64   42.00
  -2   1   8 1526.05   57.29
  -1  -1   8  164.48   18.70
   1  -1  -8  144.89   14.90
   1  -1  -8  152.58   13.10
   1   1  -8  150.98   14.10
  -1   1   8  165.98   21.80
   1   1  -8  147.49   12.70
   0  -1   8  163.78   18.20
   0  -1  -8  183.38   15.20
   0   1   8  183.38   19.30
   0   1  -8  188.08   14.80
  -1  -1  -8   14.50   10.10
   1  -1   8   12.60    7.10
   1   1   8   11.30    7.50
  -1   1  -8   18.80    9.40
   2  -1   8   22.10    6.90
  -2  -1  -8   30.40   12.10
  -2   1  -8   29.00   12.50
   2   1   8   15.20    7.30
  -3  -1  -8   27.10   14.10
   3  -1   8   10.50   12.30
  -3   1  -8   -5.60   12.30
  -4  -1  -8  -10.00   12.70
   4  -1   8   -5.80   13.00
  -4   1  -8   -5.30   14.70
   4   1   8   -5.80   15.80
   5  -1   8   16.30   17.30
  -5  -1  -8    2.10   16.80
  -5   1  -8  -16.20   16.30
   5   1   8    0.70   17.90
   5  -2  -8   35.60   27.00
   5   2  -8    9.00   26.00
  -4  -2   8   -0.80   16.10
   4  -2  -8  -25.10   21.70
   4   2  -8   17.50   22.10
  -4   2   8   10.80   13.50
  -4   2   8  -15.40   16.00
   3  -2  -8    6.90   18.70
  -3  -2   8   10.50   13.40
   3   2  -8    7.70   18.30
  -3   2   8   11.90   14.80
   2  -2  -8  114.39   17.20
  -2  -2   8  131.59   23.40
   2   2  -8  115.19   16.00
  -2   2   8   88.79   17.00
  -1  -2   8  924.41   39.40
   1  -2  -8  940.71   29.70
   1   2  -8  930.91   24.70
   1   2  -8  864.21   26.90
  -1   2   8  953.80   41.20
   0  -2   8 1581.24   49.20
   0  -2  -8 1581.84   40.20
   0   2  -8 1623.54   30.60
   0   2   8 1629.14   50.49
   0   2  -8 1599.74   38.80
   1  -2   8  414.46   22.90
  -1  -2  -8  430.36   20.00
  -1   2  -8  438.36   13.50
   1   2   8  442.46   24.40
  -1   2  -8  433.86   20.10
   2  -2   8   84.89   12.50
  -2  -2  -8   88.49   14.00
  -2   2  -8   85.99   14.70
   2   2   8   66.99    9.90
  -3  -2  -8  229.68   20.20
   3  -2   8  230.38   18.10
  -3   2  -8  215.78   20.60
   4  -2   8    9.00   14.60
  -4  -2  -8   -1.30   12.80
  -4   2  -8  -13.20   14.30
   4   2   8  -14.00   14.50
  -5  -2  -8  -20.90   15.30
   5  -2   8    0.70   17.10
  -5   2  -8    0.90   17.40
   5   2   8  -27.50   20.20
  -5  -3   8  -17.40   19.30
   5  -3  -8   36.40   27.10
   5   3  -8   14.00   25.20
  -4  -3   8   -7.70   13.30
   4  -3  -8    0.30   21.80
  -4   3   8  -33.30   18.40
   4   3  -8   10.80   21.70
  -4   3   8   -3.50   13.10
   3  -3  -8  -12.60   18.20
  -3  -3   8   11.10   12.80
  -3   3   8    8.00   15.40
   3   3  -8   25.80   20.30
  -2  -3   8   32.30   12.40
   2  -3  -8   38.80   15.80
  -2   3   8   45.00   15.50
   2   3  -8   62.49   15.60
  -1  -3   8  148.89   20.60
   1  -3  -8  168.78   16.50
   1   3  -8  152.98   12.40
  -1   3   8  169.58   23.60
   1   3  -8  142.39   13.20
   0  -3   8 1670.03   51.29
   0  -3  -8 1670.73   42.30
   0   3  -8 1700.33   40.50
   0   3   8 1715.63   53.89
   1  -3   8   85.69   14.90
  -1  -3  -8   92.49   12.70
  -1   3  -8   76.29   12.20
  -1   3  -8   98.39    6.50
   1   3   8   64.49   11.50
   2  -3   8  427.96   21.20
  -2  -3  -8  468.55   24.10
  -2   3  -8  437.76   25.00
   2   3   8  431.16   23.30
  -3  -3  -8   14.10   12.90
   3  -3   8    8.40   11.20
  -3   3  -8    7.60   14.00
  -4  -3  -8  116.59   18.80
   4  -3   8  121.69   18.90
  -4   3  -8  103.99   19.40
  -5  -3  -8  -18.80   13.90
  -5   3  -8  -11.90   16.90
   5  -4  -8   41.40   27.40
   5   4  -8   34.20   26.70
  -4  -4   8    5.00   14.90
   4  -4  -8   -1.70   22.80
  -4   4   8   23.90   14.80
   4   4  -8   36.70   22.40
   3  -4  -8   58.39   20.80
   3   4  -8   69.99   19.20
  -3   4   8   43.70   18.80
   2  -4  -8    1.80   15.30
  -2  -4   8   -6.30    9.90
   2  -4  -8   -8.20    9.20
  -2   4   8    3.20   13.80
   2   4  -8   -4.00   11.80
   1  -4  -8    1.20   10.20
  -1  -4   8   -8.00    8.30
   1   4  -8    3.30    7.80
   1   4  -8    0.10    8.30
  -1   4   8    1.60   11.10
   0  -4  -8  422.26   20.10
   0  -4   8  414.66   25.50
   0   4   8  411.96   27.80
   0   4  -8  413.76   18.30
   1  -4   8  150.18   17.40
  -1  -4  -8  160.98   15.20
  -1   4  -8  147.79   15.20
   1   4   8  142.29   20.40
   2  -4   8   14.80    7.00
   2  -4   8   16.70    8.30
  -2  -4  -8   31.00   11.90
   2   4   8   -3.80    8.80
  -2   4  -8   14.60   12.40
   3  -4   8   21.90   11.20
  -3  -4  -8    1.00   11.10
  -3   4  -8   10.00   12.80
  -4  -4  -8    4.80   12.60
   4  -4   8    8.40   12.40
  -4   4  -8    3.10   15.00
  -5  -4  -8  -21.80   14.90
  -5   4  -8   -3.80   16.40
   5  -5  -8   36.10   22.00
  -5  -5   8  -26.90   16.80
   5   5  -8    9.50   24.70
   4  -5  -8   30.00   24.40
  -4  -5   8    2.30   15.60
  -4   5   8    7.30   14.10
   4   5  -8   20.30   21.70
  -3  -5   8  611.94   40.60
   3  -5  -8  616.34   33.90
   3   5  -8  632.54   30.60
  -3   5   8  619.24   46.80
   2  -5  -8   91.89   19.50
   2  -5  -8   61.09   13.60
  -2  -5   8   71.69   15.90
   2   5  -8  112.69   16.10
  -2   5   8   68.09   15.80
  -1  -5   8    6.60    9.40
   1  -5  -8    4.40   10.30
   1   5  -8    9.80    7.60
   1   5  -8    4.50    8.20
  -1   5   8   18.80   12.60
   0  -5   8  747.13   33.70
   0  -5  -8  758.62   27.00
   0   5  -8  750.02   24.30
   0   5   8  716.33   36.00
  -1  -5  -8  388.46   20.50
   1   5   8  443.76   28.20
  -1   5  -8  427.76   22.10
   2  -5   8  315.07   14.60
  -2  -5  -8  334.07   21.10
  -2   5  -8  337.87   22.20
   2   5   8  321.87   23.70
  -3  -5  -8   36.40   12.80
   3  -5   8   28.90   11.40
  -3   5  -8    8.30   13.30
  -4  -5  -8    5.60   13.50
  -4   5  -8    0.10   14.70
  -5  -5  -8   -7.70   15.40
  -5   5  -8   -3.60   16.60
  -5  -6   8   -7.80   15.00
   5  -6  -8   23.80   27.10
   5   6  -8   12.50   24.70
   4  -6  -8   55.29   20.80
  -4  -6   8   29.00   15.60
  -4   6   8  -26.30   20.20
   4   6  -8   29.60   21.60
  -4   6   8   27.10   15.60
   3  -6  -8  507.95   31.80
  -3  -6   8  489.25   38.00
  -3   6   8  449.16   43.30
   3   6  -8  503.75   30.80
  -2  -6   8  392.26   32.20
   2  -6  -8  397.46   24.10
  -2   6   8  411.36   37.60
   2   6  -8  396.96   22.90
   1  -6  -8   32.00   12.30
  -1  -6   8   21.90   10.80
  -1   6   8   31.90   14.30
   1   6  -8   25.90    7.40
   1   6  -8   28.70    8.60
   0  -6  -8  533.35   23.50
   0   6  -8  536.85   20.40
   0   6   8  507.75   32.50
  -1  -6  -8  464.55   23.40
   1   6   8  460.75   28.70
  -1   6  -8  478.35   23.50
   2  -6   8   25.30    8.40
  -2  -6  -8   26.30   12.10
  -2   6  -8   34.60   13.50
   3  -6   8    7.40   10.50
  -3  -6  -8    0.60   11.90
  -3   6  -8   15.20   14.20
  -4  -6  -8   12.00   12.40
  -4   6  -8   -8.00   14.50
  -5  -6  -8   20.90   16.50
  -5   6  -8   18.80   19.40
   5  -7  -8   22.90   27.50
  -5  -7   8    6.70   17.10
   5   7  -8   31.30   26.10
  -5   7   8    3.70   18.10
   4  -7  -8  188.28   30.50
  -4  -7   8  190.28   31.10
  -4   7   8  159.38   22.00
   4   7  -8  207.18   27.20
  -3  -7   8  198.28   29.00
   3  -7  -8  198.58   26.40
  -3   7   8  198.58   22.00
   3   7  -8  189.28   22.30
   2  -7  -8  361.26   24.60
  -2  -7   8  335.07   31.60
  -2   7   8  362.16   37.90
   2   7  -8  365.76   22.20
   1  -7  -8   40.70   13.10
  -1  -7   8   18.60   11.10
  -1   7   8   30.00   14.90
   1   7  -8   29.80    6.90
   0  -7  -8  393.76   21.80
   0   7   8  403.16   31.60
   0   7  -8  397.06   18.40
  -1  -7  -8  244.98   18.50
   1   7   8  256.67   27.80
  -1   7  -8  226.98   19.80
   2  -7   8    6.80    7.70
  -2  -7  -8    2.00   11.20
   2   7   8   -7.80   10.90
  -2   7  -8    3.10   12.70
  -3  -7  -8   35.10   13.80
  -3   7  -8    9.90   13.90
  -4  -7  -8    9.40   12.30
  -4   7  -8    4.30   15.00
  -5   7  -8  -24.00   16.60
   5  -8  -8   17.40   21.90
  -5  -8   8  -15.60   15.40
   5   8  -8    5.40   23.90
  -5   8   8   -8.60   18.20
  -4  -8   8   14.20   13.90
   4  -8  -8   28.90   25.40
   4   8  -8   42.60   21.80
  -4   8   8   19.70   16.70
  -4   8   8  -21.70   20.80
  -3  -8   8   12.40   12.90
   3  -8  -8   26.50   22.10
  -3   8   8   -9.60   17.70
   3   8  -8    3.20   17.40
  -3   8   8   -3.30   16.70
  -2  -8   8  405.36   33.80
   2  -8  -8  363.66   24.40
   2   8  -8  408.56   23.10
  -2   8   8  387.06   40.50
   1  -8  -8  270.37   20.70
  -1   8   8  324.57   34.40
   1   8  -8  225.48    9.40
   0  -8  -8  411.56   22.90
   0   8   8  450.85   34.30
   0   8  -8  432.06   19.10
  -1  -8  -8   33.40   12.10
  -1   8  -8   21.40   13.10
   1   8   8   16.20   14.30
  -2  -8  -8   11.10   11.70
  -2   8  -8   16.20   14.20
   2   8   8   -6.60   11.80
  -3  -8  -8  262.47   22.10
  -3   8  -8  222.48   23.10
  -4  -8  -8    2.30   13.40
  -4   8  -8   -7.40   14.90
  -5   8  -8  -34.70   16.90
  -5  -9   8   26.60   16.70
   5  -9  -8   75.29   32.70
  -5   9   8   35.00   18.80
   5   9  -8   70.29   26.80
  -4  -9   8   97.69   21.30
   4  -9  -8  125.59   29.80
  -4   9   8  114.99   21.80
   4   9  -8  150.68   25.10
  -3  -9   8   49.20   15.90
   3  -9  -8   33.70   24.00
   3   9  -8   21.20   16.10
  -3   9   8   43.00   17.80
  -3   9   8    8.00   18.90
  -2  -9   8    3.20   12.10
   2  -9  -8    7.40   13.20
   2   9  -8    0.00   13.20
  -2   9   8   10.40   18.70
   1  -9  -8   51.99   14.40
  -1   9   8   48.60   18.30
   0  -9  -8   13.70   11.80
   0   9  -8   28.80   10.00
   0   9   8   28.80   15.50
  -1  -9  -8  231.68   19.60
  -1   9  -8  236.78   19.40
   1   9   8  219.48   27.70
  -2  -9  -8   95.49   16.20
   2   9   8   54.69   14.70
  -2   9  -8   82.99   16.30
  -3  -9  -8    3.60   11.40
  -3   9  -8    4.80   14.50
  -4  -9  -8    0.10   13.60
  -4   9  -8  -14.90   15.10
  -5   9  -8  -27.40   16.60
  -5 -10   8    3.80   15.50
   5 -10  -8   20.60   31.50
   5  10  -8   21.10   25.10
  -5  10   8  -13.60   16.60
  -4 -10   8   33.60   17.00
   4 -10  -8   -4.60   19.80
   4  10  -8   30.80   21.40
  -4  10   8   27.30   19.00
   3 -10  -8  -22.40   22.80
  -3 -10   8    3.70   12.60
  -3  10   8   -1.00   16.50
   3  10  -8   -6.60   17.40
  -3  10   8  -21.60   18.80
  -2 -10   8   37.50   14.30
  -2  10   8   54.79   18.40
  -2  10   8   18.50   19.70
   1 -10  -8  368.16   26.00
  -1  10   8  416.06   40.20
   0 -10  -8   -3.50   11.50
   0  10   8   -2.50   15.00
   0  10  -8    0.70    9.40
  -1 -10  -8  232.08   21.70
   1  10   8  212.58   29.00
  -1  10  -8  204.98   19.20
  -2 -10  -8  128.49   17.60
   2  10   8   65.39   16.00
  -2  10  -8   97.99   17.30
  -3 -10  -8  168.68   19.40
  -3  10  -8  137.19   20.70
  -4 -10  -8   -8.00   13.20
  -4  10  -8   -7.60   17.40
  -5  11   8  -19.40   18.90
   5  11  -8   14.80   25.00
   4 -11  -8    0.90   27.70
  -4 -11   8   19.30   14.70
  -4  11   8    4.40   18.10
   4  11  -8   27.20   21.10
   3 -11  -8  107.29   29.60
  -3 -11   8   76.89   18.40
   3  11  -8  100.19   19.30
  -3  11   8  121.89   23.40
  -3  11   8   51.59   24.20
  -2  11   8  273.47   40.00
  -2  11   8  264.97   25.10
   1 -11  -8   86.39   16.80
  -1  11   8   41.70   19.90
   0 -11  -8   79.99   15.00
   0  11   8   62.79   19.30
   0  11  -8   69.19   12.10
  -1 -11  -8   64.09   14.80
  -1  11  -8   45.00   14.60
   1  11   8   20.00   15.40
  -2 -11  -8  694.43   31.00
   2  11   8  742.63   40.50
  -2  11  -8  684.63   33.10
  -3 -11  -8    1.70   11.50
  -3  11  -8    8.10   15.60
  -4 -11  -8   30.10   15.30
  -4  11  -8   -0.50   16.80
  -4 -12   8   38.10   16.80
   4 -12  -8   64.09   31.60
  -4  12   8  -12.40   23.50
   4  12  -8   24.80   21.10
  -4  12   8   18.30   18.50
  -3 -12   8  191.78   31.80
   3 -12  -8  212.18   35.20
  -3  12   8  135.79   23.30
  -2  12   8   43.20   20.60
  -2  12   8   87.89   20.60
   1 -12  -8   97.69   17.20
  -1  12   8   67.69   18.30
  -1  12   8   47.20   20.30
   0 -12  -8   -0.80   11.30
   0  12  -8   -4.70    9.30
   0  12   8   -9.10   15.60
  -1 -12  -8   84.19   15.90
   1  12   8   28.30   17.50
  -1  12  -8   49.90   14.60
  -2 -12  -8   29.90   13.00
  -2  12  -8   37.40   15.70
   2  12   8   28.90   17.30
  -3 -12  -8   -6.40   11.30
  -3  12  -8   -2.70   17.00
  -4 -12  -8   -5.00   12.60
  -4  12  -8   -9.90   17.20
  -4 -13   8   41.10   18.10
   4 -13  -8   37.50   31.10
  -4  13   8   39.20   20.00
  -4  13   8  -12.70   24.80
  -3 -13   8  116.59   21.70
  -3  13   8  105.69   22.50
  -3  13   8   65.19   25.50
  -2  13   8   18.00   17.10
  -2  13   8    1.00   19.20
   1 -13  -8  285.07   23.90
  -1  13   8  331.47   28.30
  -1  13   8  255.77   38.20
   0 -13  -8   99.89   17.00
   0  13  -8  106.99   12.80
   0  13   8   65.19   22.10
  -1 -13  -8   28.40   14.50
   1  13   8   12.10   16.80
  -1  13  -8    4.60   11.80
  -2 -13  -8   25.80   13.60
  -2  13  -8   39.80   16.70
   2  13   8    3.10   22.60
  -3 -13  -8   12.00   13.20
  -3  13  -8   14.50   16.70
  -4  13  -8  -20.10   16.70
   4 -14  -8  -26.50   30.60
  -4 -14   8   39.30   17.80
  -4  14   8   -3.50   18.30
  -3 -14   8   78.89   20.30
  -3  14   8   42.60   20.30
  -3  14   8   10.40   22.80
  -2  14   8  128.19   27.20
   1 -14  -8   25.00   14.90
  -1  14   8   44.10   18.20
  -1  14   8   16.80   19.10
   0 -14  -8   10.30   13.10
   0  14  -8    2.20    9.40
   0  14   8    5.90   16.90
   0  14   8   -2.20   17.10
  -1 -14  -8    1.80   12.50
   1  14   8   -6.50   14.70
  -1  14  -8    1.80   12.70
   1  14   8    5.10   15.00
  -2 -14  -8   48.50   14.80
   2  14   8   57.69   14.80
  -2  14  -8   48.70   17.60
  -3 -14  -8   -4.60   13.60
  -3  14  -8   14.90   17.40
  -4  14  -8   -0.30   18.20
   4 -15  -8   88.39   35.90
  -4 -15   8   92.99   20.80
  -4  15   8   61.19   23.30
  -3 -15   8   15.20   13.80
  -3  15   8   11.40   18.20
  -3  15   8  -22.80   21.90
  -2  15   8   11.80   18.30
  -2  15   8   -1.10   16.70
   1 -15  -8  282.27   25.30
  -1  15   8  243.68   41.50
  -1  15   8  264.87   26.60
   0 -15  -8  362.26   25.50
   0  15   8  376.96   42.00
   0  15   8  370.06   28.20
  -1 -15  -8   -6.00   14.30
   1  15   8    2.90   14.00
   1  15   8  -12.40   15.50
  -1  15  -8  -27.20   12.30
  -2 -15  -8  -15.50   13.60
   2  15   8   12.00   14.80
  -2  15  -8    3.00   16.10
  -3 -15  -8    0.60   14.20
  -3  15  -8  -29.70   16.40
  -4  15  -8   -7.30   20.80
  -4 -16   8   11.00   14.70
   4 -16  -8  -12.60   52.89
  -4  16   8   -4.90   20.60
  -3  16   8   12.50   19.00
  -2  16   8    8.00   22.30
  -2  16   8   49.10   22.00
   1 -16  -8   87.39   18.30
  -1  16   8   76.49   22.00
  -1  16   8   31.50   21.80
   0 -16  -8    5.80   15.40
   0  16   8    4.40   16.60
   0  16   8  -18.80   17.40
  -1 -16  -8  340.27   25.50
   1  16   8  318.37   43.40
   1  16   8  284.57   22.80
  -1  16  -8  333.27   23.70
  -2 -16  -8   45.20   16.30
  -2  16  -8    9.20   16.40
  -3 -16  -8   49.70   17.40
  -3  16  -8   12.70   18.90
  -3  17   8  -22.00   24.10
  -3  17   8   12.90   21.00
  -2  17   8  -11.40   20.90
  -2  17   8   14.00   19.50
   1 -17  -8  178.88   23.90
  -1  17   8  144.59   24.00
  -1  17   8   98.49   26.40
   0 -17  -8   -1.30   13.80
   0  17   8   -9.70   16.50
   0  17   8   -9.20   18.00
  -1 -17  -8   11.90   13.40
   1  17   8   15.30   16.30
  -1  17  -8    4.10   13.80
   1  17   8    8.80   18.60
  -2 -17  -8   36.40   15.90
  -2  17  -8   30.40   17.80
  -3 -17  -8   26.20   16.00
  -3  17  -8  -15.90   20.30
  -3  18   8   10.70   21.90
  -2  18   8   -2.60   23.40
  -2  18   8   -4.90   18.00
   1 -18  -8   -7.00   13.70
  -1  18   8   -5.90   19.50
  -1  18   8  -14.70   20.10
   0 -18  -8   17.90   15.40
   0  18   8   11.60   21.20
   0  18   8   17.80   19.80
  -1 -18  -8   89.99   18.00
   1  18   8  110.19   19.90
  -1  18  -8   64.99   16.00
   1  18   8   67.09   24.00
  -2 -18  -8    7.20   16.00
  -2  18  -8    9.30   18.90
  -3 -18  -8   -3.90   15.60
  -3  18  -8  -32.20   19.70
  -3  19   8  -35.00   26.60
  -2  19   8   24.00   21.90
  -2  19   8   -9.70   23.20
   1 -19  -8  273.27   26.90
  -1  19   8  297.07   29.30
  -1  19   8  287.67   47.10
   0 -19  -8   23.10   16.10
   0  19   8   21.90   19.40
   0  19   8   -4.70   21.00
  -1 -19  -8   -2.80   14.10
   1  19   8  -35.40   18.20
   1  19   8    5.80   16.70
  -2 -19  -8    4.50   15.00
  -2  19  -8  -26.70   17.90
  -2  20   8   -8.30   18.50
   1 -20  -8   75.69   19.50
  -1  20   8   30.70   26.10
  -1  20   8  109.59   25.70
   0 -20  -8  -13.70   14.30
   0  20   8  -36.90   23.30
   0  20   8   11.00   18.20
  -1 -20  -8    6.20   16.60
  -2 -20  -8    8.10   16.40
  -2  20  -8   -5.90   16.60
  -2  21   8   21.90   22.00
  -1  21   8  153.58   25.90
  -1  21   8   59.69   29.00
   0 -21  -8    0.20   15.60
   0  21   8  -35.90   21.50
   0  21   8   -1.10   20.90
  -1 -21  -8    2.20   15.70
  -1  22   8  -22.80   24.80
  -1  22   8   -9.30   20.70
   0 -22  -8   12.40   16.00
   0  22   8   -4.80   20.00
   0  22   8  -43.10   22.80
  -1 -22  -8   57.09   18.70
   1  22   8  -36.40   27.10
   5   0  -9   70.69   28.10
  -5   0   9  -19.20   20.10
   4   0  -9   28.20   22.30
  -4   0   9  -12.10   16.60
  -3   0   9   53.49   17.50
   3   0  -9  107.59   21.10
   2   0  -9    1.30   15.50
  -2   0   9   -1.40   11.70
  -1   0   9  168.68   23.20
   1   0  -9  201.58   16.20
   1   0  -9  184.18   17.30
   0   0  -9    2.40    9.10
   0   0   9    6.40    8.50
  -1   0  -9  699.83   26.80
   1   0   9  732.73   32.30
  -2   0  -9    7.60   11.70
   2   0   9   -3.00    6.90
  -3   0  -9    1.40   12.00
   4   0   9   -5.40   13.50
  -4   0  -9   -2.70   13.50
  -5   0  -9  -16.80   16.80
   5  -1  -9   54.29   26.70
   5   1  -9   50.89   27.20
  -4  -1   9   13.10   18.00
   4  -1  -9   82.29   24.20
   4   1  -9   49.10   23.50
   3  -1  -9  394.76   28.30
  -3  -1   9  420.06   38.30
   3   1  -9  411.76   30.50
  -3   1   9  411.46   39.00
   2  -1  -9  111.09   18.90
  -2  -1   9   72.09   16.40
   2   1  -9  106.49   17.90
  -2   1   9   74.19   16.80
   1  -1  -9  899.51   30.60
  -1  -1   9  889.41   40.80
   1  -1  -9  916.81   27.40
   1   1  -9  866.71   24.90
  -1   1   9  920.61   42.00
   1   1  -9  871.51   29.00
   0  -1  -9    3.90    9.80
   0  -1   9    0.90    8.00
   0   1  -9    4.80    9.60
   0   1   9   -2.70    8.10
  -1  -1  -9 1112.39   34.20
   1  -1   9 1116.49   39.60
  -1   1  -9 1101.79   34.00
   1   1   9 1119.29   40.20
  -2  -1  -9   28.70   12.60
   2  -1   9    7.60    7.10
   2   1   9    7.70    8.10
  -2   1  -9   16.20   12.20
  -3  -1  -9    1.40   13.00
  -3   1  -9    0.60   12.40
  -4  -1  -9   -2.10   14.00
   4  -1   9   12.00   15.00
  -4   1  -9   12.10   15.80
  -5  -1  -9    6.80   18.00
  -5   1  -9    6.70   18.30
   5  -2  -9  164.68   32.00
   5   2  -9   88.89   29.00
   4  -2  -9  147.89   27.80
  -4  -2   9   82.69   23.50
  -4   2   9   51.19   24.30
   4   2  -9  126.99   25.40
   3  -2  -9   19.00   18.60
  -3  -2   9    5.60   14.10
  -3   2   9    7.40   15.30
   3   2  -9   34.30   18.10
   2  -2  -9   21.50   10.60
   2  -2  -9   27.90   15.40
  -2  -2   9   22.30   12.80
  -2   2   9   24.20   14.10
   2   2  -9   38.70   15.50
  -1  -2   9  253.07   25.30
   1  -2  -9  243.68   18.00
   1   2  -9  255.57   15.00
  -1   2   9  259.87   27.00
   1   2  -9  245.88   18.00
   0  -2  -9  917.11   30.10
   0  -2   9  943.41   39.60
   0   2   9  971.40   41.30
   0   2  -9  921.21   29.30
   0   2  -9  973.50   20.40
  -1  -2  -9  648.34   26.10
   1  -2   9  665.03   30.70
  -1   2  -9  684.93   21.80
  -1   2  -9  677.73   26.10
   1   2   9  687.73   32.20
  -2  -2  -9  187.98   18.50
   2  -2   9  171.88   16.80
  -2   2  -9  168.38   18.70
   2   2   9  150.98   19.00
  -3  -2  -9   16.10   12.60
   3  -2   9    2.20   11.00
  -3   2  -9   17.70   13.90
   4  -2   9   33.80   23.80
  -4  -2  -9   42.10   15.30
  -4   2  -9   32.90   16.70
  -5  -2  -9  -10.30   16.50
  -5   2  -9    7.00   18.20
  -5  -3   9   -9.20   20.60
   5  -3  -9   78.89   29.80
   5   3  -9   31.80   26.80
   4  -3  -9    8.90   22.20
  -4  -3   9   -4.80   15.60
  -4   3   9  -14.20   18.90
   4   3  -9   36.60   22.10
   3  -3  -9  -17.30   17.40
  -3  -3   9   -4.30   13.40
   3   3  -9  -13.70   18.30
  -3   3   9  -17.30   16.50
   2  -3  -9   49.70   12.60
   2  -3  -9   33.70   17.00
  -2  -3   9   39.10   12.20
   2   3  -9   61.19   15.70
  -2   3   9   32.30   15.30
  -1  -3   9   -2.20    9.30
   1  -3  -9   12.20   10.80
   1   3  -9    1.40    9.20
  -1   3   9    3.50   11.50
   1   3  -9   -3.00    9.10
   0  -3   9   40.80   10.80
   0  -3  -9   54.69   12.00
   0   3  -9   69.09   11.10
   0   3   9   54.09   13.90
  -1  -3  -9    6.80    9.80
   1  -3   9    2.00    7.70
  -1   3  -9    3.40   11.30
   1   3   9   -3.50    9.10
   2  -3   9    2.00    6.70
  -2  -3  -9    5.20   11.50
   2   3   9   -8.50    9.30
  -2   3  -9    6.30   12.60
   3  -3   9  191.78   16.20
  -3  -3  -9  179.68   19.40
  -3   3  -9  197.78   21.70
  -4  -3  -9   25.80   15.30
  -4   3  -9    4.60   14.60
  -5  -3  -9    4.60   15.50
  -5   3  -9    4.40   18.50
  -5  -4   9   44.60   21.40
   5  -4  -9  138.39   31.80
  -5   4   9   -6.90   24.70
   4  -4  -9   36.40   25.00
  -4  -4   9   -8.30   15.10
  -4   4   9    9.70   14.60
   4   4  -9    7.80   20.60
  -3  -4   9   67.49   17.50
   3  -4  -9   92.19   22.10
  -3   4   9   47.60   19.30
   3   4  -9  119.59   20.30
   2  -4  -9  402.16   26.30
   2  -4  -9  408.06   23.60
  -2  -4   9  411.36   33.50
   2   4  -9  387.36   22.60
  -2   4   9  403.36   37.10
  -1  -4   9  227.08   23.00
   1  -4  -9  241.08   20.30
   1   4  -9  227.98   13.60
   1   4  -9  182.58   15.30
  -1   4   9  239.08   28.30
   0  -4  -9    1.50    9.60
   0  -4   9    4.00    8.40
   0   4  -9    9.30    9.70
   0   4   9   12.80   12.60
  -1  -4  -9  489.35   23.50
   1  -4   9  515.45   28.00
   1   4   9  503.05   30.70
  -1   4  -9  467.75   22.60
  -2  -4  -9  193.38   19.30
   2  -4   9  201.68   18.50
  -2   4  -9  208.48   20.50
   2   4   9  171.18   22.10
  -3  -4  -9   62.99   14.60
  -3   4  -9   63.29   16.00
  -4  -4  -9   11.50   13.50
  -4   4  -9   -2.20   14.90
  -5  -4  -9   -5.90   15.10
  -5   4  -9  -15.50   16.40
   5  -5  -9   43.00   28.10
   5   5  -9   43.70   29.10
  -4  -5   9   -7.50   14.70
   4  -5  -9   24.90   24.30
  -4   5   9    5.70   15.10
   4   5  -9   27.40   21.30
   3  -5  -9   54.79   21.20
  -3  -5   9   45.50   15.80
  -3   5   9   38.70   19.40
   3   5  -9   89.29   20.30
   2  -5  -9   35.50   19.00
   2  -5  -9   12.20   13.30
  -2  -5   9    8.60   12.10
  -2   5   9   15.50   16.10
   2   5  -9   17.60   14.10
   1  -5  -9   27.10   13.60
  -1  -5   9   29.10   10.70
  -1   5   9   30.90   14.80
   1   5  -9   35.10    9.70
   1   5  -9   41.60    9.00
   0  -5   9  210.88   22.20
   0  -5  -9  228.78   18.50
   0   5  -9  238.68   16.80
   0   5   9  231.38   26.40
  -1  -5  -9   25.50   11.10
   1  -5   9   18.60    9.40
   1   5   9   23.30   12.60
  -1   5  -9   44.30   12.20
  -2  -5  -9   84.09   15.60
   2  -5   9   60.09   10.50
   2   5   9   36.90   12.30
  -2   5  -9   71.89   15.70
  -3  -5  -9   87.89   16.70
  -3   5  -9   85.09   17.00
  -4  -5  -9   -9.70   12.20
  -4   5  -9   -5.60   14.40
  -5  -5  -9   -1.10   16.50
  -5   5  -9   -9.70   15.90
   5  -6  -9  -26.70   26.60
  -5  -6   9  -12.00   15.60
   5   6  -9   37.00   25.90
  -4  -6   9   -6.80   13.50
   4  -6  -9   -0.80   18.70
  -4   6   9    3.20   16.20
  -4   6   9  -38.30   19.80
   4   6  -9   33.80   21.20
   3  -6  -9   46.40   21.30
  -3  -6   9   31.00   15.30
   3   6  -9   52.79   18.90
  -3   6   9   -0.80   17.80
   2  -6  -9 1398.36   44.10
  -2  -6   9 1407.16   58.39
   2   6  -9 1431.06   38.90
  -2   6   9 1408.76   62.39
   1  -6  -9   -4.00   11.00
  -1  -6   9   -0.20    9.70
  -1   6   9   14.90   14.60
   1   6  -9    0.00    8.00
   1   6  -9    0.90    7.90
   0  -6  -9  132.19   16.60
   0  -6   9  120.59   19.90
   0   6   9   84.39   16.70
   0   6  -9  133.39   15.10
  -1  -6  -9   84.29   14.40
  -1   6  -9   80.79   14.10
   1   6   9   56.69   15.30
  -2  -6  -9  324.57   22.00
  -2   6  -9  296.37   23.00
   2   6   9  314.07   30.20
  -3  -6  -9   16.60   12.40
  -3   6  -9    3.50   14.90
  -4  -6  -9   -4.50   13.50
  -4   6  -9    6.70   16.40
  -5  -6  -9    8.70   16.30
  -5   6  -9  -10.50   16.00
   5  -7  -9   -1.10   27.30
  -5  -7   9    0.00   16.20
   5   7  -9    7.70   24.40
   4  -7  -9  -14.40   23.80
  -4  -7   9    5.00   14.70
   4   7  -9   10.60   20.30
  -4   7   9   -0.20   16.70
   3  -7  -9  222.48   23.80
  -3  -7   9  231.58   35.20
   3   7  -9  224.38   22.50
  -2  -7   9   42.30   15.00
   2  -7  -9   34.00   16.10
   2   7  -9   38.10   14.20
  -2   7   9   40.70   19.10
   1  -7  -9 1126.99   38.00
  -1  -7   9 1146.19   49.60
  -1   7   9 1221.08   54.29
   0  -7  -9  160.48   17.90
   0   7   9  105.69   18.40
   0   7  -9  157.08   15.60
  -1  -7  -9  653.93   28.10
  -1   7  -9  650.83   27.10
   1   7   9  719.23   39.60
  -2  -7  -9   13.00   12.10
  -2   7  -9   10.10   13.30
  -3  -7  -9   52.99   14.50
  -3   7  -9   41.90   15.50
  -4  -7  -9    7.20   14.30
  -4   7  -9   16.10   16.30
  -5  -7  -9   -7.50   16.00
  -5   7  -9    9.90   18.50
  -5  -8   9    3.60   18.20
   5  -8  -9    8.30   28.60
  -5   8   9   11.70   18.30
   5   8  -9   -0.10   23.50
   4  -8  -9   -6.40   24.30
  -4  -8   9   21.40   15.60
  -4   8   9  -31.30   24.70
   4   8  -9   28.20   20.40
  -4   8   9    6.80   18.50
  -3  -8   9   32.30   15.60
   3  -8  -9   32.70   23.20
   3   8  -9   55.19   18.70
  -3   8   9    6.90   20.60
  -3   8   9   37.30   17.40
   2  -8  -9  104.59   17.50
  -2  -8   9   85.89   17.90
  -2   8   9   70.99   20.60
   2   8  -9  124.39   16.60
  -1  -8   9   76.39   16.10
   1  -8  -9  116.79   17.70
  -1   8   9   83.69   19.80
   0  -8  -9  266.27   21.00
   0   8  -9  258.27   17.70
   0   8   9  275.67   32.20
  -1  -8  -9   15.30   13.00
  -1   8  -9   11.40   13.50
   1   8   9   12.00   13.50
  -2  -8  -9    4.40   11.50
  -2   8  -9   11.00   13.40
  -3  -8  -9   10.20   13.70
  -3   8  -9    2.60   14.10
  -4  -8  -9   27.60   14.50
  -4   8  -9   11.20   17.60
   5  -9  -9   -3.00   29.90
  -5  -9   9   -8.10   17.20
   5   9  -9    4.90   27.10
  -5   9   9   -8.10   19.30
  -4  -9   9   69.39   21.10
   4  -9  -9  108.29   29.90
  -4   9   9   62.59   21.40
  -4   9   9    3.80   24.40
   4   9  -9  128.09   23.90
  -3  -9   9   46.20   16.90
   3  -9  -9   55.29   25.40
  -3   9   9   49.20   19.60
  -3   9   9    4.70   20.50
   3   9  -9   52.19   18.50
  -2  -9   9  168.48   27.90
   2  -9  -9  173.88   20.70
   2   9  -9  153.68   17.40
  -2   9   9  119.19   23.70
   1  -9  -9  309.47   23.50
  -1   9   9  359.06   39.50
   0  -9  -9  147.89   19.10
   0   9   9  117.39   22.40
   0   9  -9  152.08   15.90
  -1  -9  -9   57.59   14.30
  -1   9  -9   56.29   15.10
   1   9   9   44.00   16.90
  -2  -9  -9   -2.40   11.00
  -2   9  -9   -1.00   13.30
  -3  -9  -9   -4.50   11.70
  -3   9  -9    4.80   14.90
  -4  -9  -9   28.60   16.00
  -4   9  -9   24.60   17.40
  -5 -10   9   12.60   17.90
  -5  10   9    9.70   19.70
   5  10  -9   -5.80   23.50
  -4 -10   9   63.49   18.50
   4 -10  -9   78.09   24.50
  -4  10   9   59.29   22.20
   4  10  -9   81.09   21.90
  -3 -10   9  330.87   36.80
   3 -10  -9  340.27   29.90
   3  10  -9  291.67   26.20
  -3  10   9  307.37   28.10
  -3  10   9  259.37   44.40
  -2 -10   9   52.09   15.80
   2 -10  -9   60.09   17.40
  -2  10   9   20.00   19.20
   1 -10  -9   54.79   15.80
  -1  10   9   48.50   19.90
   0 -10  -9  116.99   17.60
   0  10   9   78.29   21.50
   0  10  -9   94.49   13.10
  -1 -10  -9   -2.00   11.60
  -1  10  -9   13.90   12.50
   1  10   9  -14.70   15.00
  -2 -10  -9   90.49   15.80
  -2  10  -9   60.49   16.90
  -3 -10  -9   82.39   16.50
  -3  10  -9   35.50   17.40
  -4 -10  -9   14.20   15.40
  -4  10  -9   10.30   16.60
  -4 -11   9   17.30   15.20
   4 -11  -9    2.10   29.20
   4  11  -9   18.40   20.20
  -4  11   9  -45.70   22.90
  -4  11   9    4.80   20.50
   3 -11  -9   47.40   28.70
  -3 -11   9   69.49   19.70
  -3  11   9   71.59   20.70
  -3  11   9   23.10   23.90
   2 -11  -9   24.40   14.60
  -2 -11   9   18.20   13.20
  -2  11   9    3.60   17.30
  -2  11   9   14.30   20.10
   1 -11  -9   -2.70   12.70
  -1  11   9   -3.50   17.80
   0 -11  -9   54.99   14.90
   0  11   9   46.60   18.10
   0  11  -9   69.19   12.00
  -1 -11  -9  307.27   22.50
  -1  11  -9  308.57   22.60
   1  11   9  254.07   34.90
  -2 -11  -9    6.40   12.50
  -2  11  -9   24.10   14.70
  -3 -11  -9   15.30   14.10
  -3  11  -9   -0.70   15.20
  -4 -11  -9    7.90   13.80
  -4  11  -9    2.00   18.00
  -4 -12   9   39.30   17.40
   4 -12  -9   -3.40   29.90
  -4  12   9  -47.20   23.40
  -4  12   9   23.00   21.70
   3 -12  -9  247.58   36.60
  -3 -12   9  260.87   35.00
  -3  12   9  247.18   28.30
   2 -12  -9  385.96   27.50
  -2  12   9  406.46   31.90
  -2  12   9  290.57   43.40
   1 -12  -9   90.79   18.70
  -1  12   9   38.00   20.00
   0 -12  -9  373.26   24.60
   0  12  -9  411.06   20.00
   0  12   9  366.76   42.30
  -1 -12  -9   17.20   13.00
  -1  12  -9   11.60   13.00
   1  12   9   -8.50   15.60
  -2 -12  -9   87.39   18.10
  -2  12  -9   34.60   16.10
  -3 -12  -9   62.79   17.30
  -3  12  -9   14.80   16.40
  -4 -12  -9   18.70   14.90
  -4  12  -9  -15.10   16.40
  -4 -13   9   14.40   16.80
   4 -13  -9  -35.50   27.90
  -4  13   9  -44.00   24.70
  -4  13   9  -14.70   20.00
   3 -13  -9  -15.10   21.60
  -3 -13   9   17.30   14.50
  -3  13   9    4.30   20.10
  -3  13   9  -34.50   20.40
  -2  13   9   22.40   18.90
  -2  13   9   -5.40   19.60
   1 -13  -9  308.07   25.20
  -1  13   9  281.27   39.80
  -1  13   9  295.97   26.20
   0 -13  -9  101.19   17.20
   0  13   9   34.30   18.90
   0  13  -9   80.09   12.20
  -1 -13  -9    5.30   12.90
  -1  13  -9    8.80   12.40
   1  13   9  -22.40   14.00
  -2 -13  -9   -5.90   12.50
  -2  13  -9  -12.70   13.90
  -3 -13  -9   12.00   14.80
  -3  13  -9   -3.50   15.90
  -4 -13  -9    0.40   16.00
  -4  13  -9    3.50   18.40
  -4 -14   9   30.20   18.30
   4 -14  -9   10.20   34.20
  -4  14   9   17.90   21.50
  -3 -14   9   31.80   16.80
  -3  14   9   35.50   19.80
  -3  14   9  -15.90   22.50
  -2  14   9   99.89   23.40
  -2  14   9   53.09   24.60
   1 -14  -9  207.48   23.70
  -1  14   9  170.88   23.50
  -1  14   9  116.09   25.40
   0 -14  -9  334.57   24.70
   0  14   9  259.97   38.70
   0  14   9  317.77   25.80
  -1 -14  -9   45.60   16.00
  -1  14  -9   24.70   14.40
   1  14   9   27.90   19.40
  -2 -14  -9    9.30   13.60
  -2  14  -9   13.70   17.10
  -3 -14  -9    1.10   13.50
  -3  14  -9  -22.10   17.30
  -4  14  -9   -6.90   19.90
  -4 -15   9   39.90   17.90
   4 -15  -9   39.80   34.80
  -4  15   9   44.90   22.90
  -3 -15   9   19.50   16.10
  -3  15   9   53.39   22.00
  -3  15   9  -26.10   22.90
  -2  15   9   -9.50   19.90
  -2  15   9   19.00   18.90
   1 -15  -9  365.26   28.20
  -1  15   9  330.47   44.90
  -1  15   9  357.46   31.40
   0 -15  -9   18.10   14.50
   0  15   9    2.40   21.00
   0  15   9   45.80   18.20
  -1 -15  -9   46.20   16.00
  -1  15  -9   23.90   14.50
   1  15   9   17.90   18.10
   1  15   9   39.00   17.60
  -2 -15  -9   36.00   17.10
  -2  15  -9   25.70   18.20
   2  15   9   48.90   15.30
  -3 -15  -9   58.39   18.20
  -3  15  -9   31.90   21.20
  -3 -16   9   31.20   16.50
  -3  16   9  -21.60   23.80
  -3  16   9   24.20   21.10
  -2  16   9   17.60   18.90
  -2  16   9  -15.50   21.40
   1 -16  -9   14.10   15.40
  -1  16   9   13.80   18.80
  -1  16   9   15.20   21.30
   0 -16  -9   26.00   15.70
   0  16   9   26.60   19.60
   0  16   9   -6.20   19.60
  -1 -16  -9   -0.70   14.80
   1  16   9  -25.10   18.80
  -1  16  -9   -8.40   13.30
   1  16   9  -12.20   16.00
  -2 -16  -9  159.58   22.30
  -2  16  -9  104.29   21.60
  -3 -16  -9  -11.60   15.40
  -3  16  -9  -13.60   19.50
  -3  17   9    9.40   19.80
  -3  17   9  -40.90   24.00
  -2  17   9   33.60   22.20
  -2  17   9  -35.60   23.80
   1 -17  -9    7.50   14.80
  -1  17   9   -1.20   19.90
  -1  17   9  -22.30   19.80
   0 -17  -9    3.00   14.40
   0  17   9  -15.00   21.30
   0  17   9    0.00   18.60
  -1 -17  -9   77.29   17.80
   1  17   9   25.80   22.60
   1  17   9   57.09   18.70
  -1  17  -9   31.70   14.80
  -2 -17  -9   40.40   18.30
  -2  17  -9   35.00   18.40
  -3 -17  -9  -16.90   13.70
  -3  17  -9  -31.00   17.70
  -3 -18   9   50.19   17.10
  -3  18   9   29.60   21.10
  -3  18   9  -43.60   28.40
  -2  18   9   -5.00   19.60
   1 -18  -9    9.80   15.20
  -1  18   9  -27.70   20.50
  -1  18   9  -10.50   18.70
   0 -18  -9  135.49   21.40
   0  18   9   68.99   25.50
   0  18   9  123.99   22.70
  -1 -18  -9    6.20   14.10
   1  18   9    1.70   20.30
   1  18   9    1.30   16.60
  -2 -18  -9   10.40   15.80
  -2  18  -9   -6.30   17.20
  -3 -18  -9   -4.40   16.90
  -3  18  -9  -19.80   18.10
  -2  19   9  -31.20   23.80
  -2  19   9   -8.10   18.80
   1 -19  -9   26.30   17.90
  -1  19   9  -35.00   20.70
  -1  19   9    8.10   22.00
   0 -19  -9   -1.80   14.40
   0  19   9  -25.30   19.90
   0  19   9   42.10   21.00
  -1 -19  -9   40.20   18.40
   1  19   9   53.59   19.50
   1  19   9   -2.60   22.20
  -2 -19  -9   37.70   18.40
  -2  19  -9   -1.70   17.50
  -2  20   9  -17.80   28.20
  -2  20   9   19.90   23.30
   1 -20  -9   -7.30   16.10
  -1  20   9  -14.30   19.40
  -1  20   9  -28.90   23.20
   0 -20  -9  376.26   32.50
   0  20   9  389.86   32.70
  -1 -20  -9   25.30   16.70
  -2 -20  -9    4.70   15.50
  -2  20  -9  -19.60   18.20
   1 -21  -9   26.10   17.10
  -1  21   9   11.90   23.50
  -1  21   9  -34.00   24.30
   0 -21  -9   -8.60   16.80
   0  21   9   -1.50   19.10
  -1 -21  -9   -4.00   15.30
   5   0 -10   19.20   26.10
  -4   0  10  -28.10   16.60
   4   0 -10   13.40   21.80
  -3   0  10   -2.90   14.80
   3   0 -10   27.90   20.60
  -2   0  10  245.18   31.70
   2   0 -10  255.97   23.40
  -1   0  10   -3.30   10.70
   1   0 -10   -3.70   10.90
   1   0 -10   -7.60   11.00
   0   0 -10   82.69   13.20
   0   0  10   60.19   13.20
  -1   0 -10   -2.40   11.70
   1   0  10   -2.80    8.80
   2   0  10  125.89   20.70
  -2   0 -10  145.49   18.80
  -3   0 -10   -3.90   12.20
  -4   0 -10   10.20   14.20
  -5   0 -10    3.50   16.70
   5  -1 -10   38.10   27.10
   5   1 -10   63.99   27.80
   4  -1 -10  103.09   25.40
  -4  -1  10   47.20   21.20
   4   1 -10   91.59   24.70
  -4   1  10   23.70   20.80
   3  -1 -10   -0.50   17.90
  -3  -1  10  -11.00   13.90
   3   1 -10   16.70   19.20
  -3   1  10   -4.60   15.20
   2  -1 -10  323.87   19.40
   2  -1 -10  303.37   22.50
  -2  -1  10  311.27   33.50
   2   1 -10  320.17   23.60
  -2   1  10  307.47   30.60
  -1  -1  10  128.19   23.20
   1  -1 -10  129.59   16.20
   1  -1 -10  137.39   16.70
   1   1 -10  124.39   14.80
   1   1 -10  139.09   17.60
  -1   1  10  140.29   25.30
   0  -1 -10  111.79   14.40
   0  -1  10   85.69   15.20
   0   1 -10  119.39   14.20
   0   1  10   69.99   14.00
   1  -1  10   52.89   12.00
  -1  -1 -10   70.29   13.70
   1   1  10   49.10   11.90
  -1   1 -10   64.79   13.70
   2  -1  10  731.43   30.70
  -2  -1 -10  691.93   29.90
   2   1  10  672.53   44.90
  -2   1 -10  693.73   31.10
  -3  -1 -10   15.10   14.70
  -3   1 -10   11.30   13.20
  -4  -1 -10   13.40   14.70
  -4   1 -10   11.00   15.30
  -5  -1 -10  -22.20   15.10
  -5   1 -10   -8.00   18.20
  -5  -2  10  -28.80   18.90
   5  -2 -10   21.90   27.70
   5   2 -10   57.59   27.60
   4  -2 -10   62.29   24.60
  -4  -2  10   -9.40   16.80
   4   2 -10   44.00   22.50
  -4   2  10  -24.00   18.30
   3  -2 -10  188.28   23.60
  -3  -2  10  120.19   22.40
   3   2 -10  183.28   22.70
  -3   2  10   95.69   22.50
  -2  -2  10  374.06   34.70
   2  -2 -10  348.47   26.70
   2  -2 -10  348.57   22.10
   2   2 -10  363.66   23.40
  -2   2  10  358.96   36.30
  -1  -2  10  582.74   36.00
   1  -2 -10  621.64   27.70
  -1   2  10  638.34   37.10
   1   2 -10  588.44   20.60
   1   2 -10  561.74   25.40
   0  -2 -10  142.29   18.20
   0  -2  10  161.18   21.50
   0   2  10  132.69   22.60
   0   2 -10  163.88   17.20
   0   2 -10  157.68    8.90
  -1  -2 -10  163.88   17.60
   1  -2  10  197.48   21.60
  -1   2 -10  181.78   18.10
   1   2  10  171.98   23.30
   2  -2  10   16.10    8.40
  -2  -2 -10   36.10   14.40
  -2   2 -10   33.10   13.40
  -3  -2 -10   96.59   16.80
  -3   2 -10   77.29   16.60
  -4  -2 -10   16.80   15.00
  -4   2 -10   22.30   15.70
  -5  -2 -10   10.60   18.20
  -5   2 -10   -4.80   18.30
   5  -3 -10   19.70   27.50
   5   3 -10   59.89   27.50
   4  -3 -10  460.35   39.50
  -4  -3  10  393.96   43.60
   4   3 -10  421.26   32.30
  -4   3  10  328.57   48.00
   3  -3 -10    6.20   21.30
  -3  -3  10    8.50   14.50
  -3   3  10   -4.40   16.20
   3   3 -10    3.60   18.40
   2  -3 -10  127.79   19.70
   2  -3 -10  110.69   16.40
  -2  -3  10   81.99   16.50
   2   3 -10  105.29   17.10
  -2   3  10   85.49   19.70
   1  -3 -10  193.48   20.80
  -1  -3  10  230.78   26.70
   1   3 -10  186.08   16.90
   1   3 -10  189.28   13.60
  -1   3  10  211.08   29.30
   0  -3  10  407.56   30.30
   0  -3 -10  454.15   23.20
   0   3 -10  452.05   22.30
   0   3  10  442.06   33.70
  -1  -3 -10   74.19   14.20
   1  -3  10   61.69   12.50
   1   3  10   60.79   13.90
  -1   3 -10   72.19   13.70
  -2  -3 -10   18.20   13.00
   2  -3  10    8.10    7.40
  -2   3 -10    3.10   12.40
  -3  -3 -10   10.50   13.00
  -3   3 -10    4.50   13.50
  -4  -3 -10   15.40   14.60
  -4   3 -10   17.00   15.80
  -5  -3 -10   -5.40   17.50
  -5   3 -10    1.20   18.10
   5  -4 -10    0.50   26.60
   5   4 -10    7.90   25.60
   4  -4 -10   65.89   26.30
   4   4 -10   55.99   22.50
  -4   4  10   18.00   25.10
   3  -4 -10  -13.30   18.90
  -3  -4  10    1.00   14.40
   3   4 -10   -7.00   15.60
  -3   4  10  -14.60   16.50
   2  -4 -10  369.76   24.80
  -2  -4  10  413.66   35.70
   2  -4 -10  415.26   26.70
  -2   4  10  410.86   39.50
   2   4 -10  424.26   24.30
  -1  -4  10   27.40   12.80
   1  -4 -10   38.40   14.30
   1   4 -10   47.20   12.00
   1   4 -10   43.50    9.70
  -1   4  10   27.00   14.90
   0  -4 -10   46.00   13.00
   0  -4  10   45.50   12.10
   0   4  10   50.39   14.20
   0   4 -10   67.19   12.80
   1  -4  10  157.08   21.00
  -1  -4 -10  157.28   18.00
  -1   4 -10  135.69   17.10
   1   4  10  170.08   25.60
  -2  -4 -10    5.60   11.50
   2  -4  10    2.00    7.30
  -2   4 -10   15.60   12.70
  -3  -4 -10   10.30   13.90
  -3   4 -10  -16.20   12.60
  -4  -4 -10   53.29   17.80
  -4   4 -10   28.70   16.50
  -5  -4 -10   -4.40   16.60
  -5   4 -10    9.00   18.10
   5  -5 -10   15.50   27.70
  -5  -5  10  -29.00   19.30
   5   5 -10   -2.80   27.10
  -4  -5  10  141.19   26.00
   4  -5 -10  177.28   30.00
  -4   5  10  188.08   23.90
   4   5 -10  198.28   26.60
   3  -5 -10  121.59   23.90
  -3  -5  10   84.69   19.60
  -3   5  10   35.00   21.10
   3   5 -10  130.19   21.30
   2  -5 -10   78.09   20.00
  -2  -5  10   50.29   16.00
   2  -5 -10   63.49   16.70
   2   5 -10   84.49   15.90
  -2   5  10   53.09   18.60
  -1  -5  10  375.56   31.90
   1  -5 -10  417.76   24.40
  -1   5  10  406.96   36.60
   0  -5 -10   25.50   12.10
   0  -5  10   17.60   10.40
   0   5  10   11.80   13.20
   0   5 -10   15.40   11.00
  -1  -5 -10   14.50   11.60
   1  -5  10   16.00    8.80
  -1   5 -10   19.20   13.40
   1   5  10    5.70   12.40
   2  -5  10   21.20    8.70
  -2  -5 -10   20.00   12.60
  -2   5 -10   23.60   14.90
  -3  -5 -10   66.89   16.00
  -3   5 -10   66.39   16.60
  -4  -5 -10  -12.80   13.10
  -4   5 -10  -12.50   14.10
  -5  -5 -10    2.50   15.90
  -5   5 -10  -15.50   16.50
  -5  -6  10  -34.60   18.10
   5  -6 -10  -23.90   26.90
   5   6 -10   24.50   25.20
   4  -6 -10    2.40   24.00
  -4  -6  10   -0.20   15.80
  -4   6  10   14.70   16.50
   4   6 -10   12.50   20.10
  -3  -6  10   55.99   18.00
   3  -6 -10   68.89   23.50
  -3   6  10   28.50   21.30
   3   6 -10   78.69   20.10
  -2  -6  10  154.48   27.70
   2  -6 -10  180.28   21.60
   2   6 -10  154.88   17.60
  -2   6  10  107.19   22.50
  -1  -6  10   91.79   17.10
   1  -6 -10  133.59   18.10
   1   6 -10   76.59   11.70
  -1   6  10   87.19   19.70
   0  -6  10  129.79   21.60
   0  -6 -10  163.58   18.40
   0   6 -10  153.28   16.80
   0   6  10  108.39   19.90
  -1  -6 -10  942.41   34.60
   1  -6  10  973.80   40.80
  -1   6 -10 1004.50   35.00
   1   6  10 1032.00   46.50
  -2  -6 -10   19.80   13.80
   2  -6  10   30.60    9.20
  -2   6 -10   18.70   13.30
  -3  -6 -10   27.30   15.40
  -3   6 -10   35.40   16.00
  -4  -6 -10    7.80   13.70
  -4   6 -10   -3.70   14.90
  -5  -7  10   -5.60   17.00
   5  -7 -10   14.50   29.10
   5   7 -10   38.00   25.90
  -4  -7  10   -6.40   14.30
   4  -7 -10   -8.30   23.70
   4   7 -10  -12.70   19.00
  -4   7  10   21.60   16.90
   3  -7 -10   -9.30   21.60
  -3  -7  10   19.20   14.90
   3   7 -10   23.20   15.90
  -3   7  10  -21.30   18.20
  -2  -7  10   60.99   17.10
   2  -7 -10   82.89   17.70
  -2   7  10   45.20   19.80
  -1  -7  10  541.75   37.30
   1  -7 -10  585.74   28.40
  -1   7  10  519.65   42.30
   0  -7 -10  699.83   30.60
   0  -7  10  735.33   38.80
   0   7 -10  774.92   27.70
   0   7  10  820.52   44.80
  -1  -7 -10  122.89   16.60
   1  -7  10  100.69   18.50
   1   7  10   65.09   17.50
  -1   7 -10   91.79   15.30
  -2  -7 -10  341.47   23.30
   2  -7  10  356.46   24.50
  -2   7 -10  330.07   24.20
  -3  -7 -10    5.10   13.10
  -3   7 -10    7.90   14.50
  -4  -7 -10   33.00   15.60
  -4   7 -10   19.40   16.90
  -5  -8  10   14.90   18.30
   5  -8 -10   11.80   30.60
   5   8 -10   69.09   26.50
   4  -8 -10    3.50   25.10
  -4  -8  10    9.30   17.60
  -4   8  10  -16.30   15.90
   4   8 -10   21.80   19.80
   3  -8 -10   46.30   24.80
  -3  -8  10   57.19   18.60
   3   8 -10   55.39   18.90
  -3   8  10   47.90   23.20
   2  -8 -10   76.39   16.80
  -2  -8  10   68.79   17.90
  -2   8  10   48.10   20.70
   1  -8 -10  147.09   20.00
  -1  -8  10  143.19   25.90
  -1   8  10   95.39   21.40
   0  -8 -10   80.19   16.30
   0  -8  10   73.09   15.20
   0   8  10   63.19   18.20
   0   8 -10  104.99   14.10
  -1  -8 -10   12.20   12.40
   1   8  10    1.20   14.70
  -1   8 -10   13.10   12.00
  -2  -8 -10   36.00   14.20
  -2   8 -10   22.60   14.20
  -3  -8 -10   11.60   13.20
  -3   8 -10    0.90   14.40
  -4  -8 -10   -1.70   14.80
  -4   8 -10  -12.80   15.20
  -4  -9  10   10.40   15.40
   4  -9 -10    9.80   21.20
  -4   9  10    7.00   17.30
  -3  -9  10   17.00   16.10
   3  -9 -10  -28.50   23.10
  -3   9  10   12.10   17.20
  -3   9  10  -28.00   20.40
   2  -9 -10  126.99   20.30
  -2  -9  10   95.39   19.70
  -2   9  10   55.09   21.70
   1  -9 -10  394.56   25.70
  -1  -9  10  436.46   35.20
  -1   9  10  376.46   40.60
   0  -9 -10  178.28   20.20
   0   9  10  131.79   23.80
   0   9 -10  185.48   17.80
  -1  -9 -10    6.70   13.00
  -1   9 -10    1.70   12.70
   1   9  10   -5.40   13.40
  -2  -9 -10    6.30   12.40
  -2   9 -10    0.80   13.50
  -3  -9 -10   19.40   13.70
  -3   9 -10    9.30   15.10
  -4  -9 -10  -10.10   13.50
  -4   9 -10   -4.30   15.70
   4 -10 -10   53.79   30.70
  -4 -10  10   20.60   16.50
  -4  10  10   32.40   19.70
  -3 -10  10  115.69   22.70
   3 -10 -10  138.09   30.90
  -3  10  10  125.49   23.70
  -2 -10  10   78.19   18.80
   2 -10 -10   87.49   19.50
  -2  10  10   57.69   22.30
  -1 -10  10  177.88   27.20
   1 -10 -10  142.19   19.70
   0 -10 -10  166.68   20.50
   0  10 -10  134.89   15.70
  -1 -10 -10   17.30   13.20
   1  10  10    7.70   16.20
  -1  10 -10   31.80   12.80
  -2 -10 -10   54.09   15.00
  -2  10 -10   34.40   15.40
  -3 -10 -10   23.10   14.20
  -3  10 -10    4.50   15.50
  -4 -10 -10   -6.30   15.50
  -4  10 -10  -14.30   15.50
   4 -11 -10  -45.10   28.40
  -4 -11  10   22.40   16.70
  -4  11  10    6.20   18.60
   3 -11 -10  -35.60   26.30
  -3 -11  10   23.20   15.70
  -3  11  10    3.20   18.00
  -3  11  10  -32.60   19.80
  -2 -11  10  701.23   47.10
   2 -11 -10  625.14   33.30
  -2  11  10  603.84   51.69
   1 -11 -10  189.38   22.50
  -1  11  10  131.89   24.70
   0 -11 -10  -15.30   11.60
   0  11 -10   -1.50    9.70
   0  11  10  -12.00   15.30
  -1 -11 -10    6.80   14.10
  -1  11 -10    5.50   13.10
   1  11  10  -19.80   15.00
  -2 -11 -10  136.19   19.60
  -2  11 -10  115.29   19.00
  -3 -11 -10   -0.80   14.50
  -3  11 -10    4.60   17.50
  -4 -11 -10   -9.00   13.60
  -4  11 -10  -18.20   17.90
   4 -12 -10   -5.00   30.10
  -4 -12  10   14.50   16.40
  -4  12  10   13.00   20.00
   3 -12 -10  -34.40   26.00
  -3 -12  10    6.20   14.70
  -3  12  10  -30.40   22.00
  -3  12  10    3.60   18.70
   2 -12 -10   53.79   18.40
  -2 -12  10   47.90   17.00
  -2  12  10    5.60   21.20
  -2  12  10   32.10   18.30
   1 -12 -10   69.89   17.60
  -1  12  10   35.90   20.90
   0 -12 -10   57.69   15.80
   0  12 -10   87.99   12.80
   0  12  10   39.60   21.10
  -1 -12 -10  290.57   24.50
   1  12  10  254.87   34.30
  -1  12 -10  318.97   21.80
  -2 -12 -10   15.30   14.20
  -2  12 -10    4.70   16.40
  -3 -12 -10   32.80   15.20
  -3  12 -10   11.20   16.30
  -4 -12 -10   -3.20   15.40
  -4  12 -10    0.20   19.20
  -4 -13  10   10.80   17.90
   4 -13 -10   31.40   33.70
  -4  13  10   11.30   20.30
   3 -13 -10  -48.60   28.30
  -3 -13  10   21.90   16.00
  -3  13  10    2.60   18.00
   2 -13 -10  123.79   21.00
  -2 -13  10  174.88   31.60
  -2  13  10   55.39   24.30
  -2  13  10  106.19   22.60
   1 -13 -10   62.99   17.50
  -1  13  10   48.10   21.90
   0 -13 -10  253.47   23.50
   0  13  10  220.18   36.90
  -1 -13 -10   77.99   17.80
  -1  13 -10   52.89   15.50
  -2 -13 -10  -11.40   14.60
  -2  13 -10   -7.40   15.60
  -3 -13 -10    7.80   14.50
  -3  13 -10  -14.90   15.80
  -4 -13 -10   -5.70   16.10
  -4 -14  10   23.30   18.20
   4 -14 -10  -48.70   35.50
  -4  14  10   15.10   20.00
  -3 -14  10   17.80   15.90
  -3  14  10  -26.60   20.00
  -2  14  10  -17.00   16.50
  -2  14  10  -17.10   20.30
   1 -14 -10   56.69   17.30
  -1  14  10    4.60   20.10
  -1  14  10   47.70   20.60
   0 -14 -10  125.59   19.40
  -1 -14 -10  178.18   22.50
  -1  14 -10  145.99   18.80
   1  14  10   93.49   23.50
  -2 -14 -10    4.20   14.40
  -2  14 -10  -20.40   14.20
  -3 -14 -10   32.90   17.50
  -3  14 -10   -5.10   17.40
  -3 -15  10   78.39   21.70
  -3  15  10   20.90   25.90
  -3  15  10   71.29   23.10
  -2  15  10   -5.70   17.60
  -2  15  10  -19.20   21.10
   1 -15 -10   24.30   17.70
  -1  15  10   38.60   19.50
  -1  15  10  -10.80   20.30
   0 -15 -10  335.57   28.30
   0  15  10  306.07   47.80
   0  15  10  354.36   30.40
  -1 -15 -10   54.99   17.40
  -1  15 -10   45.40   15.20
   1  15  10   26.90   19.20
   1  15  10   80.79   18.90
  -2 -15 -10   24.00   17.10
  -2  15 -10    7.80   15.90
   2  15  10   18.60   15.70
  -3 -15 -10   18.80   15.90
  -3  15 -10   19.20   18.60
  -3 -16  10  109.49   23.90
  -3  16  10   93.89   24.70
  -2  16  10    4.20   19.30
  -2  16  10  -36.80   20.70
   1 -16 -10   71.59   18.70
  -1  16  10   24.30   22.50
  -1  16  10   69.59   21.00
   0 -16 -10   53.19   18.10
   0  16  10   35.20   22.40
   0  16  10   78.19   21.70
  -1 -16 -10   23.40   16.90
   1  16  10  -24.00   19.60
   1  16  10   -1.40   15.60
  -1  16 -10  -16.20   12.90
  -2 -16 -10   20.70   16.10
  -2  16 -10    8.20   15.80
  -3 -16 -10  -15.70   15.80
  -3  16 -10  -19.50   16.80
  -3 -17  10   83.69   22.80
  -3  17  10   60.39   22.60
  -2  17  10   18.30   25.00
  -2  17  10   65.89   23.90
   1 -17 -10   -3.70   15.20
  -1  17  10  -27.70   20.80
  -1  17  10   -9.10   18.10
   0 -17 -10   -6.00   13.90
   0  17  10    7.80   18.20
   0  17  10  -41.20   20.90
  -1 -17 -10   37.70   16.50
   1  17  10  -16.60   21.30
   1  17  10   43.70   18.80
  -2 -17 -10   15.70   18.00
  -2  17 -10  -13.30   16.60
  -3 -17 -10   30.60   18.90
  -3  17 -10   -0.20   18.60
  -2  18  10  -44.00   22.90
  -2  18  10    5.50   19.90
   1 -18 -10    8.90   16.00
  -1  18  10   -9.60   18.90
  -1  18  10  -37.90   24.50
   0 -18 -10   13.40   16.00
   0  18  10   13.60   20.30
   0  18  10  -27.90   19.90
  -1 -18 -10   -3.70   14.70
   1  18  10    2.50   18.20
  -2 -18 -10   22.70   17.20
  -2  18 -10   -5.20   17.80
  -2  19  10  -46.70   28.00
  -2  19  10   32.70   21.70
   1 -19 -10   -2.40   15.50
  -1  19  10    0.30   21.10
  -1  19  10  -27.20   23.00
   0 -19 -10   21.30   16.90
   0  19  10    7.50   21.40
   0  19  10  -39.90   23.60
  -1 -19 -10   89.39   21.20
   1  19  10   95.29   22.80
   1  19  10   21.00   27.10
  -2 -19 -10    3.40   17.60
  -2  19 -10  -34.50   17.00
   1 -20 -10   79.19   20.30
  -1  20  10   37.20   21.60
  -1  20  10   -0.10   25.30
   0 -20 -10    7.00   16.60
   0  20  10   10.90   19.70
   0  20  10  -38.60   21.70
  -1 -20 -10   29.90   18.60
   0 -21 -10   16.20   30.60
   0  21  10    4.60   21.30
   5   0 -11   36.00   27.40
   4   0 -11    8.60   25.10
  -4   0  11  -20.30   18.10
  -3   0  11  339.47   41.10
   3   0 -11  354.16   30.20
   2   0 -11   19.60   13.70
  -2   0  11    5.90   13.80
   2   0 -11   -0.60    9.40
   1   0 -11  402.06   19.80
  -1   0  11  374.06   33.50
   1   0 -11  388.56   24.50
   0   0 -11   -5.90   10.40
   0   0  11   -5.90    9.80
   1   0  11   16.90   10.90
  -1   0 -11   36.00   13.20
  -2   0 -11   -5.20   11.60
  -3   0 -11  218.78   23.00
  -4   0 -11   -8.30   15.50
   5  -1 -11   48.40   31.70
   5   1 -11   88.09   28.30
  -4  -1  11  -16.00   17.10
   4  -1 -11   10.30   21.60
  -4   1  11  -18.10   18.10
   4   1 -11   29.70   22.00
   3  -1 -11   20.80   21.10
  -3  -1  11    8.70   15.70
   3   1 -11   13.60   17.40
  -3   1  11  -17.80   16.00
   2  -1 -11   -4.00   16.00
  -2  -1  11   -2.70   13.20
   2  -1 -11    4.00   11.10
   2   1 -11    1.40   12.60
  -2   1  11    1.00   14.00
   1  -1 -11   69.49   14.40
   1  -1 -11   75.79   15.10
  -1  -1  11   59.39   15.70
  -1   1  11   69.69   17.10
   1   1 -11   97.39   13.20
   1   1 -11   83.69   15.90
   0  -1  11   22.70   11.60
   0  -1 -11   23.10   12.20
   0   1  11   18.00   11.70
   0   1 -11   16.60   11.70
   1  -1  11   69.49   13.90
  -1  -1 -11   99.69   15.60
   1   1  11   71.49   14.60
  -1   1 -11   65.99   14.60
  -2  -1 -11   13.00   12.90
  -2   1 -11   15.40   13.80
  -3  -1 -11   26.90   15.80
  -3   1 -11   29.70   14.70
  -4  -1 -11   -2.40   15.60
  -4   1 -11   -5.90   14.10
   5  -2 -11    4.50   26.70
   5   2 -11   59.49   27.80
  -4  -2  11   55.19   22.30
   4  -2 -11   96.19   25.80
  -4   2  11   43.40   23.90
   4   2 -11  106.39   24.60
   3  -2 -11  348.07   31.00
  -3  -2  11  306.47   39.70
  -3   2  11  283.07   40.80
   3   2 -11  316.87   27.70
  -2  -2  11  115.19   20.60
   2  -2 -11  164.38   20.30
   2  -2 -11  136.59   17.00
  -2   2  11  110.99   21.80
   1  -2 -11  206.28   21.40
  -1  -2  11  166.48   26.50
  -1   2  11  181.98   29.60
   1   2 -11  154.38   19.80
   1   2 -11  153.18   15.00
   0  -2 -11  811.22   30.90
   0  -2  11  802.52   41.60
   0   2  11  850.41   42.70
   0   2 -11  810.52   29.70
  -1  -2 -11    9.30   11.60
   1  -2  11    4.40    8.70
  -1   2 -11   10.00   12.00
   1   2  11   -0.80   11.20
  -2  -2 -11   68.99   15.40
  -2   2 -11   69.19   16.20
  -3  -2 -11   27.30   14.30
  -3   2 -11   11.90   13.80
  -4  -2 -11    6.10   14.60
  -4   2 -11    3.60   15.50
   5  -3 -11   53.89   29.60
   5   3 -11   46.40   30.20
   4  -3 -11   61.79   24.80
  -4  -3  11    8.70   17.90
   4   3 -11   20.80   21.10
  -4   3  11  -27.20   20.00
  -3  -3  11  371.66   41.00
   3  -3 -11  396.96   29.90
  -3   3  11  370.16   43.70
   3   3 -11  411.96   28.60
   2  -3 -11   -7.20   15.40
   2  -3 -11    9.00   13.30
  -2  -3  11   10.20   11.00
  -2   3  11   -5.50   15.00
   2   3 -11   -3.60   13.10
   1  -3 -11 1021.60   36.80
  -1  -3  11  938.71   46.80
  -1   3  11  972.10   50.39
   1   3 -11  900.91   32.30
   0  -3  11   -5.40    9.40
   0  -3 -11    6.30   13.20
   0   3 -11    5.90   10.80
   0   3  11    7.90   12.50
  -1  -3 -11  238.98   20.60
   1  -3  11  270.27   25.60
   1   3  11  245.18   28.20
  -1   3 -11  271.27   20.80
  -2  -3 -11    5.50   13.20
  -2   3 -11   17.80   14.10
  -3  -3 -11   51.99   15.80
  -3   3 -11   49.10   17.20
  -4  -3 -11   13.30   15.10
  -4   3 -11   10.90   16.20
   5  -4 -11   34.10   28.60
   5   4 -11   31.60   26.30
   4  -4 -11   70.29   26.10
  -4  -4  11   23.20   18.80
   4   4 -11   23.10   20.90
  -4   4  11  -16.40   20.80
   3  -4 -11  100.89   23.40
  -3  -4  11   83.09   21.00
  -3   4  11   57.19   22.60
   3   4 -11  123.29   21.40
  -2  -4  11   94.39   19.00
   2  -4 -11  148.99   19.30
   2  -4 -11  139.69   20.80
  -2   4  11   79.89   20.90
   2   4 -11  135.89   17.70
  -1  -4  11   74.99   16.60
   1  -4 -11   88.19   16.60
  -1   4  11   69.29   18.40
   1   4 -11   95.89   14.70
   0  -4 -11   56.89   14.30
   0  -4  11   34.50   12.60
   0   4 -11   71.79   13.40
   0   4  11   51.79   17.00
  -1  -4 -11   10.50   11.90
   1  -4  11   -1.00    9.20
   1   4  11   -8.30   12.40
  -1   4 -11   11.70   12.00
  -2  -4 -11   91.39   16.30
   2  -4  11   74.69   19.20
  -2   4 -11   73.89   16.70
  -3  -4 -11  -13.30   12.50
  -3   4 -11   -8.00   14.90
  -4  -4 -11    5.00   14.70
  -4   4 -11    0.40   15.70
   5  -5 -11   20.10   28.40
   5   5 -11   27.90   25.20
   4  -5 -11   73.39   27.40
  -4  -5  11   29.10   19.50
  -4   5  11  -22.40   22.80
   4   5 -11   56.09   21.80
  -3  -5  11  115.29   22.90
   3  -5 -11  141.59   25.10
   3   5 -11  118.59   19.10
  -3   5  11   59.79   23.80
   2  -5 -11   17.40   15.00
   2  -5 -11  -10.90   17.00
  -2  -5  11   11.40   13.40
  -2   5  11   -5.40   16.20
   1  -5 -11  710.13   30.70
  -1  -5  11  719.43   42.20
   1   5 -11  545.25   24.60
  -1   5  11  704.33   46.00
   0  -5 -11    1.70   11.70
   0  -5  11   -5.90    9.70
   0   5 -11   12.30   11.40
   0   5  11   -7.70   13.40
  -1  -5 -11   52.29   13.80
   1  -5  11   58.29   13.30
   1   5  11   28.90   14.80
  -1   5 -11   35.90   13.40
   2  -5  11  169.98   19.60
  -2  -5 -11  158.48   19.80
  -2   5 -11  164.18   20.40
  -3  -5 -11    1.60   14.70
  -3   5 -11   -7.60   14.20
  -4  -5 -11    9.10   16.00
  -4   5 -11   -6.60   17.00
   5  -6 -11   36.30   35.20
  -4  -6  11   -1.10   15.70
   4  -6 -11  -14.20   24.70
  -4   6  11    5.50   17.20
   4   6 -11   23.40   23.60
  -3  -6  11   84.09   20.90
   3  -6 -11  147.29   26.40
  -3   6  11   87.69   25.80
   2  -6 -11  264.87   25.50
  -2  -6  11  299.17   33.70
   2  -6 -11  258.57   26.50
  -2   6  11  251.07   38.50
  -1  -6  11   18.40   13.20
   1  -6 -11   15.20   14.70
   1   6 -11   11.80   10.10
  -1   6  11   16.70   16.60
   0  -6  11   16.90   11.30
   0  -6 -11   34.80   14.20
   0   6  11   16.30   15.20
   0   6 -11   30.20   12.10
   1  -6  11   52.69   13.00
  -1  -6 -11   60.19   14.40
   1   6  11   28.80   13.90
  -1   6 -11   48.20   13.70
  -2  -6 -11  302.87   23.10
   2  -6  11  301.67   23.70
  -2   6 -11  278.27   23.70
  -3  -6 -11   49.60   15.90
  -3   6 -11   16.70   15.40
  -4  -6 -11   12.30   15.10
  -4   6 -11   11.90   16.50
   4  -7 -11   -9.90   25.60
  -4  -7  11   17.40   16.90
  -4   7  11    2.10   17.60
  -3  -7  11   10.10   15.10
   3  -7 -11   10.30   22.90
  -3   7  11   -9.00   20.20
   2  -7 -11    7.90   14.30
  -2  -7  11   -0.50   12.80
  -2   7  11  -15.00   16.00
   1  -7 -11   22.80   15.50
  -1  -7  11    8.90   11.90
  -1   7  11   -4.60   16.10
   0  -7  11   11.90   11.70
   0  -7 -11   30.40   13.70
   0   7 -11   20.10   11.60
   0   7  11   14.60   17.20
  -1  -7 -11   99.29   16.90
   1  -7  11   76.29   14.40
   1   7  11   52.19   18.20
  -1   7 -11   86.39   14.90
   2  -7  11   53.89   11.20
  -2  -7 -11   69.19   16.20
  -2   7 -11   53.29   15.60
  -3  -7 -11   46.00   16.80
  -3   7 -11   29.40   17.50
  -4  -7 -11    0.50   14.70
  -4   7 -11    3.10   15.70
  -4  -8  11   74.99   21.80
   4  -8 -11  102.79   30.90
  -4   8  11   86.59   21.00
  -3  -8  11   29.80   17.00
   3  -8 -11  -19.00   23.30
  -3   8  11  -12.60   21.30
   2  -8 -11   23.60   16.90
  -2  -8  11   22.70   15.40
  -2   8  11    0.20   17.90
  -1  -8  11   10.70   12.20
   1  -8 -11   12.30   13.70
  -1   8  11   -8.30   16.40
   0  -8  11  545.65   35.90
   0  -8 -11  561.74   28.60
   0   8 -11  529.35   23.80
   0   8  11  519.85   41.40
  -1  -8 -11  378.06   24.50
   1  -8  11  393.66   28.70
  -1   8 -11  347.37   23.90
   1   8  11  340.97   36.20
   2  -8  11    7.10    8.20
  -2  -8 -11    4.00   14.00
  -2   8 -11   12.20   15.70
  -3  -8 -11    5.20   13.80
  -3   8 -11   22.40   16.20
  -4  -8 -11    0.50   16.30
  -4   8 -11   -5.10   15.70
  -4  -9  11   22.60   17.70
   4  -9 -11  -24.00   27.30
  -4   9  11   20.30   18.90
   3  -9 -11  -13.60   24.80
  -3  -9  11   19.50   16.30
   2  -9 -11   -3.20   16.20
  -2  -9  11   -2.80   12.70
  -1  -9  11  101.49   19.10
   1  -9 -11  106.09   18.60
  -1   9  11   66.59   21.50
   0  -9 -11   17.50   14.70
   0  -9  11   17.00   10.80
   0   9 -11   20.10   10.70
   0   9  11   -7.70   15.60
  -1  -9 -11   13.40   13.50
   1   9  11  -18.00   13.40
  -1   9 -11   22.20   12.30
  -2  -9 -11    3.30   13.20
  -2   9 -11   14.10   14.70
  -3  -9 -11    6.10   13.60
  -3   9 -11    9.10   17.40
  -4  -9 -11   18.40   15.90
  -4   9 -11   19.10   19.20
   4 -10 -11   50.39   31.70
  -4 -10  11   53.79   20.40
  -4  10  11   34.40   20.30
  -3 -10  11    8.20   15.30
   3 -10 -11  -28.70   24.40
  -3  10  11  -41.00   20.40
  -3  10  11    8.30   17.80
  -2 -10  11   94.09   20.80
   2 -10 -11   94.99   19.50
  -2  10  11   46.50   23.70
  -1 -10  11   34.70   14.10
   1 -10 -11   64.79   17.10
  -1  10  11   24.60   19.40
   0 -10 -11  491.55   28.20
   0  10  11  428.46   41.10
   0  10 -11  481.85   23.00
  -1 -10 -11   34.80   14.80
  -1  10 -11   45.60   14.60
   1  10  11   20.50   17.60
  -2 -10 -11   21.00   15.80
  -2  10 -11   -2.40   15.50
  -3 -10 -11    8.10   14.00
  -3  10 -11    3.00   15.80
  -4 -10 -11   -9.60   16.30
  -4  10 -11  -11.40   17.20
  -4 -11  11   34.50   18.80
   4 -11 -11   -7.00   30.10
  -4  11  11    0.40   19.00
  -3 -11  11   99.79   22.50
   3 -11 -11  110.19   30.20
  -3  11  11  122.49   24.10
  -2 -11  11   27.60   14.90
   2 -11 -11    8.20   17.20
  -2  11  11   -9.10   19.70
   1 -11 -11  424.46   28.90
  -1 -11  11  464.95   38.60
  -1  11  11  410.06   44.70
   0 -11 -11   10.50   13.70
   0  11  11  -11.50   16.90
   0  11 -11   27.10   10.90
  -1 -11 -11  218.68   22.90
  -1  11 -11  225.28   19.90
   1  11  11  143.19   24.00
  -2 -11 -11   65.19   17.20
  -2  11 -11   60.59   18.10
  -3 -11 -11   15.50   15.60
  -3  11 -11    8.70   16.30
  -4 -11 -11    3.80   15.50
   4 -12 -11  -19.90   29.50
  -4 -12  11   -4.30   15.00
  -4  12  11   15.40   21.00
  -3 -12  11   15.60   16.20
   3 -12 -11  -44.80   27.30
  -3  12  11    9.60   19.50
  -3  12  11  -22.80   23.00
   2 -12 -11    7.10   15.90
  -2 -12  11    9.80   13.50
  -2  12  11  -22.30   19.70
   1 -12 -11  209.18   25.30
  -1 -12  11  200.98   30.70
   0 -12 -11   10.00   13.80
   0  12  11  -20.70   16.40
  -1 -12 -11  161.18   21.80
   1  12  11   87.19   20.90
  -1  12 -11  128.59   17.90
  -2 -12 -11   47.30   17.60
  -2  12 -11   24.50   15.90
  -3 -12 -11   36.00   16.30
  -3  12 -11    1.60   18.20
   4 -13 -11   30.70   38.60
  -4 -13  11   31.40   20.80
  -4  13  11   21.10   20.40
  -4  13  11  -84.39   45.20
  -3 -13  11   13.50   15.90
   3 -13 -11  -41.50   28.30
  -3  13  11  -39.00   23.60
  -3  13  11    0.40   19.20
   2 -13 -11   22.00   18.10
  -2 -13  11   14.00   14.80
  -2  13  11   -4.70   17.60
   1 -13 -11   18.20   17.20
  -1  13  11  -34.10   18.80
   0 -13 -11   29.10   15.40
   0  13  11  -24.20   19.80
  -1 -13 -11   12.90   16.60
   1  13  11  -20.50   18.10
  -1  13 -11    5.70   13.00
  -2 -13 -11   93.79   19.20
  -2  13 -11   83.99   19.60
  -3 -13 -11   19.40   17.10
  -3  13 -11  -21.00   17.60
  -3 -14  11   15.70   15.60
   3 -14 -11    7.80   32.60
  -3  14  11  -21.90   20.50
  -2 -14  11   26.90   16.60
   2 -14 -11    3.40   15.60
  -2  14  11  -27.80   20.20
  -2  14  11   34.70   20.10
   1 -14 -11   51.19   17.50
  -1  14  11   -3.00   20.50
   0 -14 -11  -13.70   13.00
   0  14  11  -22.50   17.80
  -1 -14 -11  146.29   21.90
  -1  14 -11  169.18   20.60
  -2 -14 -11   11.70   16.30
  -2  14 -11  -22.10   16.10
  -3 -14 -11    6.90   15.90
  -3  14 -11   -6.20   17.00
  -3 -15  11   20.30   17.00
  -3  15  11   -2.90   19.30
  -2 -15  11   20.50   15.30
  -2  15  11  -32.90   21.70
  -2  15  11    0.70   20.50
   1 -15 -11   51.89   18.10
  -1  15  11    5.80   21.60
  -1  15  11   52.89   20.10
   0 -15 -11    3.10   14.60
   0  15  11  -23.90   18.40
  -1 -15 -11   -4.90   14.90
   1  15  11  -33.50   16.80
  -1  15 -11   -4.00   12.70
  -2 -15 -11    3.20   15.40
  -2  15 -11  -18.20   16.50
  -3 -15 -11   14.80   18.20
  -3  15 -11    5.50   17.60
  -3 -16  11   22.90   17.50
  -3  16  11   23.40   22.20
  -2 -16  11  386.46   41.90
  -2  16  11  330.07   32.90
   1 -16 -11   20.10   16.70
  -1  16  11   19.00   19.90
  -1  16  11  -28.00   20.50
   0 -16 -11   90.59   19.70
   0  16  11   71.59   20.50
  -1 -16 -11   33.90   18.10
   1  16  11   28.80   19.00
   1  16  11  -20.90   21.30
  -2 -16 -11   39.80   18.10
  -2  16 -11    8.60   18.20
  -2  17  11  -36.80   24.20
  -2  17  11   17.60   20.10
   1 -17 -11   11.30   16.60
  -1  17  11   19.50   19.60
  -1  17  11  -37.40   21.80
   0 -17 -11  -10.00   15.90
   0  17  11    9.50   18.70
  -1 -17 -11   39.60   17.20
   1  17  11   -2.90   21.10
   1  17  11   45.10   20.80
  -2 -17 -11   -9.90   17.20
  -2  17 -11  -27.80   16.90
  -2  18  11   93.89   25.60
  -2  18  11   35.20   29.70
   1 -18 -11    7.80   16.00
  -1  18  11   25.10   20.10
  -1  18  11  -27.90   22.40
   0 -18 -11    1.90   17.10
   0  18  11    8.70   20.80
   0  18  11  -37.60   20.80
  -1 -18 -11   -0.40   15.10
   1  18  11  -39.30   21.00
   1  18  11   -2.80   19.40
  -2 -18 -11   18.40   17.80
  -2  18 -11    6.20   17.80
   1 -19 -11    1.80   18.40
  -1  19  11   15.80   21.40
  -1  19  11  -45.30   23.60
   0 -19 -11   48.10   20.00
   0  19  11   18.80   22.20
   0  19  11  -45.40   24.90
  -1 -19 -11   50.19   18.60
   1  19  11   61.29   22.40
   0  20  11   53.29   21.90
  -4   0  12  -33.40   18.30
   4   0 -12   30.60   22.00
   3   0 -12    7.10   17.50
  -3   0  12  -10.10   16.70
   2   0 -12  142.59   18.80
  -2   0  12  138.59   23.30
   1   0 -12   10.20   16.90
   1   0 -12   -0.30   12.90
  -1   0  12   -3.20   12.20
   0   0  12   40.90   14.30
   0   0 -12   51.89   13.60
   1   0  12    3.60   10.80
  -1   0 -12    5.30   11.70
  -2   0 -12   95.79   18.30
  -3   0 -12   -2.10   13.30
  -4   0 -12   19.70   17.60
   4  -1 -12   72.49   24.80
  -4  -1  12    3.40   21.70
   4   1 -12   52.99   25.00
  -4   1  12    3.60   22.30
  -3  -1  12   -8.60   17.10
   3  -1 -12   -0.50   17.80
   3   1 -12   -4.40   18.60
  -3   1  12   -0.20   17.80
   2  -1 -12  553.74   26.10
  -2  -1  12  560.24   43.80
   2  -1 -12  538.45   26.10
   2   1 -12  541.05   25.90
  -2   1  12  552.74   43.90
  -1  -1  12    3.70   12.50
   1  -1 -12    7.60   12.40
   1  -1 -12    0.50   12.90
  -1   1  12   -1.10   12.70
   1   1 -12    8.60   13.20
   0  -1  12   91.19   17.10
   0  -1 -12   87.99   15.40
   0   1  12   76.69   18.00
   0   1 -12   99.99   15.60
   1  -1  12   58.69   13.40
  -1  -1 -12   85.49   15.40
   1   1  12   61.59   15.20
  -1   1 -12  110.19   17.20
  -2  -1 -12    9.90   13.20
  -2   1 -12    6.30   14.10
  -3  -1 -12   -8.70   13.40
  -3   1 -12   19.90   14.50
  -4  -1 -12   -5.90   16.50
  -4   1 -12  -10.60   16.30
   4  -2 -12   13.90   26.00
  -4   2  12  -26.40   20.30
   4   2 -12   30.90   23.80
  -3  -2  12   82.79   22.80
   3  -2 -12   96.79   22.10
  -3   2  12   63.79   23.10
   3   2 -12  114.99   21.90
   2  -2 -12  194.38   22.00
   2  -2 -12  199.08   21.50
  -2  -2  12  192.28   32.80
  -2   2  12  145.49   24.50
   1  -2 -12  240.48   20.00
   1  -2 -12  261.67   23.20
  -1  -2  12  287.87   32.20
   1   2 -12  240.08   20.90
  -1   2  12  270.57   33.10
   0  -2  12  225.78   27.20
   0  -2 -12  202.08   19.90
   0   2  12  184.28   28.40
   0   2 -12  198.48   20.10
  -1  -2 -12  175.28   19.30
   1  -2  12  189.88   24.90
   1   2  12  144.29   26.00
  -1   2 -12  190.38   21.50
  -2  -2 -12    7.90   13.10
  -2   2 -12   18.90   14.80
  -3  -2 -12   52.89   16.30
  -3   2 -12   38.20   15.50
  -4  -2 -12  -22.40   15.60
  -4   2 -12   -5.90   14.80
  -4  -3  12  -10.70   19.20
   4  -3 -12   18.60   24.30
   4   3 -12   21.40   37.00
  -3  -3  12   65.69   21.40
   3  -3 -12   79.39   21.70
  -3   3  12   28.90   20.90
   2  -3 -12   -9.00   17.00
   2  -3 -12   10.90   14.10
  -2  -3  12   -2.40   10.60
  -2   3  12   -7.90   15.40
   1  -3 -12   26.80   14.80
  -1  -3  12   -1.20   11.30
   1   3 -12    9.50   12.40
  -1   3  12    3.80   14.10
   0  -3  12  886.81   44.10
   0  -3 -12  874.71   33.80
   0   3 -12  890.91   32.90
   0   3  12  916.81   47.30
   1  -3  12  123.19   20.20
  -1  -3 -12  130.39   17.60
   1   3  12   81.89   16.60
  -1   3 -12  116.69   17.50
  -2  -3 -12   86.89   17.00
  -2   3 -12   97.49   18.30
  -3  -3 -12    8.10   15.50
  -3   3 -12   -7.60   14.80
  -4  -3 -12    9.50   17.50
  -4   3 -12    1.80   15.60
  -4  -4  12  -24.80   17.10
   4  -4 -12   14.10   24.70
  -3  -4  12   20.30   17.20
   3  -4 -12   18.10   19.80
  -3   4  12   -6.60   19.30
   2  -4 -12  134.09   19.60
   2  -4 -12  186.18   24.00
  -2  -4  12  208.68   33.00
  -2   4  12  199.58   36.90
   1  -4 -12   20.70   13.50
  -1  -4  12    3.50   11.70
   1   4 -12   13.80   11.50
  -1   4  12   -3.60   14.20
   0  -4 -12  342.27   23.30
   0  -4  12  350.66   30.20
   0   4  12  326.97   36.80
   0   4 -12  334.57   22.20
  -1  -4 -12    8.60   11.90
   1  -4  12    4.60    9.50
  -1   4 -12   -0.50   12.70
   1   4  12   -6.30   12.90
  -2  -4 -12   24.40   14.10
  -2   4 -12   26.30   14.10
  -3  -4 -12   -3.00   13.80
  -3   4 -12   -3.20   13.80
  -4  -4 -12   10.70   15.60
  -4   4 -12    5.90   16.30
   4  -5 -12    6.40   25.70
  -4  -5  12  -11.60   20.00
   3  -5 -12  125.99   24.80
  -3  -5  12   72.09   21.30
  -3   5  12   19.50   22.40
  -2  -5  12    9.80   14.00
   2  -5 -12   -7.50   13.80
   2  -5 -12    5.60   17.70
  -2   5  12  -19.80   16.20
  -1  -5  12   78.79   17.10
   1  -5 -12  102.59   17.20
   1   5 -12   80.09   13.60
  -1   5  12   69.49   19.50
   0  -5 -12  268.07   22.00
   0  -5  12  234.68   27.00
   0   5  12  226.18   32.30
   0   5 -12  262.67   20.30
  -1  -5 -12    9.60   13.40
   1  -5  12   13.50   10.30
   1   5  12   -8.20   13.50
  -1   5 -12   -3.20   11.50
  -2  -5 -12   74.09   17.40
  -2   5 -12   51.69   16.00
  -3  -5 -12   53.19   16.80
  -3   5 -12   53.19   17.20
  -4  -5 -12  -17.30   14.60
  -4   5 -12  -19.40   16.70
  -4  -6  12    1.90   17.70
   4  -6 -12  -18.10   25.10
  -3  -6  12  122.09   24.10
   3  -6 -12  154.88   27.00
  -3   6  12   83.59   26.70
   2  -6 -12   92.99   19.40
  -2  -6  12  103.59   20.90
   2  -6 -12   67.09   23.60
  -2   6  12   61.69   22.30
   1  -6 -12  125.79   19.70
  -1  -6  12  111.09   19.60
  -1   6  12   82.89   21.20
   0  -6 -12   83.59   17.50
   0  -6  12   57.69   14.30
   0   6  12   33.60   17.20
   0   6 -12   84.69   14.20
  -1  -6 -12   29.20   13.80
   1  -6  12   33.10   12.00
   1   6  12    9.60   15.60
  -1   6 -12   36.30   13.50
  -2  -6 -12   28.00   14.70
  -2   6 -12   13.80   14.10
  -3  -6 -12    2.30   14.20
  -3   6 -12  -13.40   13.60
  -4  -6 -12   21.70   16.80
  -4   6 -12    1.50   16.50
   4  -7 -12  126.89   31.90
  -4  -7  12   85.19   23.80
  -4   7  12  109.59   22.80
   3  -7 -12  143.19   27.40
  -3  -7  12  124.89   24.40
   2  -7 -12  218.08   26.70
  -2   7  12  140.09   27.40
   1  -7 -12   67.79   17.50
  -1  -7  12   32.80   14.30
  -1   7  12   12.60   17.50
   0  -7  12   35.20   13.70
   0  -7 -12   26.60   15.40
   0   7 -12   34.90   12.70
   0   7  12    3.30   15.40
   1  -7  12   71.19   13.90
  -1  -7 -12   99.39   17.50
   1   7  12   50.89   17.60
  -1   7 -12  103.29   17.30
  -2  -7 -12   -3.50   12.90
  -2   7 -12  -11.20   14.80
  -3  -7 -12   26.70   16.40
  -3   7 -12   12.90   15.90
  -4  -7 -12    0.90   17.50
  -4   7 -12   -4.60   16.70
   4  -8 -12   28.00   28.70
  -4  -8  12   22.10   18.90
  -4   8  12   23.70   19.00
  -3  -8  12    0.20   14.40
   3  -8 -12  -17.70   26.50
  -2  -8  12   43.10   17.10
   2  -8 -12   44.80   18.40
  -2   8  12   -3.30   19.40
   1  -8 -12  119.29   19.20
  -1  -8  12  154.68   28.10
  -1   8  12   77.89   22.20
   0  -8 -12   46.80   16.10
   0  -8  12   13.10   11.20
   0   8 -12    6.70   10.90
   0   8  12  -22.90   17.40
   1  -8  12   21.50   11.20
  -1  -8 -12   22.40   13.80
  -1   8 -12   21.40   13.80
  -2  -8 -12   41.30   16.20
  -2   8 -12   26.40   15.60
  -3  -8 -12   33.90   15.90
  -3   8 -12   19.80   16.10
  -4  -8 -12   18.50   17.00
  -4   8 -12    9.90   18.00
   4  -9 -12   75.09   32.30
  -4  -9  12   29.60   19.70
  -4   9  12   38.50   20.40
  -3  -9  12   71.49   21.30
   3  -9 -12   56.79   27.10
   2  -9 -12    9.80   15.70
  -2  -9  12   -2.10   13.50
  -2   9  12  -33.40   18.60
  -1  -9  12   17.40   13.00
   1  -9 -12   15.10   15.00
  -1   9  12  -10.10   20.10
   0  -9  12   14.80   10.90
   0  -9 -12   12.70   13.80
   0   9 -12   23.10   11.30
   0   9  12  -30.90   17.70
  -1  -9 -12   91.39   17.90
   1  -9  12  152.58   22.40
  -1   9 -12  113.29   17.10
   1   9  12   53.79   21.10
  -2  -9 -12   71.29   17.30
  -2   9 -12   59.69   18.20
  -3  -9 -12   10.90   15.80
  -3   9 -12    6.90   15.90
  -4  -9 -12   -0.20   15.50
  -4 -10  12    4.60   17.00
   4 -10 -12    7.90   29.10
  -4  10  12   16.10   19.70
  -3 -10  12    6.80   15.30
   3 -10 -12  -16.10   25.00
  -2 -10  12   31.20   16.80
   2 -10 -12   24.50   18.60
  -2  10  12   13.60   21.90
   1 -10 -12  174.68   22.40
  -1 -10  12  177.68   30.00
   0 -10 -12  119.39   19.90
   0 -10  12   93.99   17.60
   0  10  12   32.40   21.90
   0  10 -12   83.79   13.80
  -1 -10 -12   89.99   18.20
   1 -10  12  147.89   24.40
  -1  10 -12  103.19   17.10
  -2 -10 -12   28.30   15.50
  -2  10 -12   38.70   16.30
  -3 -10 -12   70.99   18.60
  -3  10 -12   24.90   18.70
  -4 -11  12    1.90   16.50
   4 -11 -12   -4.00   29.70
  -4  11  12    1.80   19.50
   3 -11 -12   76.89   31.00
  -3 -11  12   66.69   21.30
  -3  11  12   77.19   22.00
  -2 -11  12  268.77   37.20
   2 -11 -12  278.07   27.30
  -1 -11  12   28.50   14.30
   1 -11 -12   40.40   18.40
  -1  11  12  -10.50   19.50
   0 -11 -12   69.79   18.00
   0 -11  12   74.29   17.30
  -1 -11 -12   39.10   16.30
  -1  11 -12   27.20   14.40
  -2 -11 -12  200.68   24.60
  -2  11 -12  152.08   21.80
  -3 -11 -12    2.10   14.80
  -3  11 -12   -2.50   16.50
  -3 -12  12  110.99   26.20
   3 -12 -12   99.29   33.10
  -3  12  12   89.79   24.00
   2 -12 -12   14.10   17.70
  -2 -12  12   30.60   16.70
  -2  12  12  -23.60   21.40
  -1 -12  12   23.60   14.50
   1 -12 -12    8.50   15.60
  -1  12  12  -27.00   19.50
   0 -12 -12   80.79   18.50
   0  12  12   36.20   21.00
  -1 -12 -12   32.20   17.10
  -1  12 -12   13.20   12.80
   1  12  12  -30.30   17.50
  -2 -12 -12   24.70   15.80
  -2  12 -12   -2.20   16.00
  -3 -12 -12    7.30   16.90
  -3  12 -12   -9.00   16.30
   3 -13 -12   -7.50   30.60
  -3 -13  12   24.70   17.40
  -3  13  12   15.20   19.70
  -3  13  12  -44.10   24.00
  -2 -13  12   17.20   15.30
   2 -13 -12   11.00   16.50
  -2  13  12   15.90   19.90
  -1 -13  12   38.70   16.30
   1 -13 -12   47.40   18.10
  -1  13  12  -18.60   22.90
   0 -13 -12   92.09   18.80
   0  13  12   21.30   21.10
  -1 -13 -12   25.70   16.00
   1  13  12  -25.90   16.80
  -1  13 -12   11.20   13.30
  -2 -13 -12   64.59   19.60
  -2  13 -12   16.60   15.90
  -3 -13 -12  -12.00   15.30
  -3  13 -12   -7.90   18.30
   3 -14 -12   -5.60   31.60
  -3 -14  12   46.30   20.50
  -3  14  12   51.49   24.40
  -3  14  12  -23.20   27.30
   2 -14 -12   -7.30   17.00
  -2 -14  12    7.30   15.10
  -2  14  12  -38.80   22.20
  -2  14  12   14.20   19.00
   1 -14 -12    4.00   15.70
  -1 -14  12    7.50   14.10
  -1  14  12  -30.40   19.90
   0 -14 -12    8.40   15.10
   0  14  12  -41.90   20.60
  -1 -14 -12   -2.60   15.30
  -1  14 -12   -5.20   12.90
  -2 -14 -12   13.00   15.70
  -2  14 -12    3.90   15.80
  -3 -14 -12   16.80   18.30
  -3  14 -12  -15.90   19.50
  -3 -15  12   16.20   17.80
   3 -15 -12  -81.49   30.50
  -3  15  12  -13.00   22.70
   2 -15 -12   20.70   17.40
  -2 -15  12   21.40   16.60
  -2  15  12   -3.00   19.50
   1 -15 -12  108.09   21.70
  -1  15  12   44.00   25.30
  -1  15  12  113.39   23.30
   0 -15 -12  153.48   22.80
  -1 -15 -12    6.10   16.00
  -2 -15 -12   10.60   17.10
  -2  15 -12   -9.90   15.50
  -2 -16  12   39.40   19.20
  -2  16  12    7.40   20.50
   1 -16 -12   84.09   20.10
  -1  16  12   12.00   24.80
  -1  16  12   67.39   22.10
   0 -16 -12    3.40   15.30
   0  16  12    3.00   20.40
  -1 -16 -12  119.29   23.10
   1  16  12  105.39   22.20
  -2 -16 -12    8.00   18.40
  -2  16 -12   -9.90   15.70
  -2 -17  12   32.60   19.00
  -2  17  12   31.90   26.40
   1 -17 -12  157.88   25.30
  -1  17  12  157.58   27.50
   0 -17 -12   -2.20   15.30
   0  17  12   26.20   20.80
   0  17  12  -37.50   21.90
  -1 -17 -12   -0.90   15.10
   1  17  12    9.50   19.90
  -2 -17 -12   22.40   18.00
  -2  17 -12  -15.70   16.40
   1 -18 -12   25.50   19.70
  -1  18  12  -35.10   24.70
  -1  18  12   12.80   20.90
   0 -18 -12   -9.90   15.60
   0  18  12   -3.90   21.00
  -1 -18 -12   12.30   17.00
   1  18  12   34.00   22.00
   0  19  12   21.00   22.90
   4   0 -13   31.20   29.80
  -3   0  13   -4.30   17.90
  -2   0  13   -6.20   14.80
  -1   0  13   87.69   19.20
   1   0 -13  146.59   18.80
   0   0  13   -0.20   11.50
   0   0 -13   -2.80   12.20
  -1   0 -13   49.00   14.70
   1   0  13   43.80   14.50
  -2   0 -13    4.00   13.90
  -3   0 -13   46.20   16.90
  -4   0 -13  -11.60   15.00
   4  -1 -13   41.40   26.40
  -4  -1  13  -25.00   19.70
  -4   1  13  -39.60   20.90
  -3  -1  13  105.19   25.50
   3  -1 -13  179.48   25.60
  -3   1  13  114.99   27.10
  -2  -1  13   -3.40   15.00
  -2   1  13   -9.40   15.40
   1  -1 -13  496.65   28.40
  -1  -1  13  525.85   40.50
  -1   1  13  493.95   40.70
   1   1 -13  495.25   27.20
   0  -1  13   27.50   13.50
   0  -1 -13   42.60   14.00
   0   1 -13   50.09   14.70
   0   1  13   27.50   15.70
   1  -1  13  107.79   18.00
  -1  -1 -13  149.39   19.10
  -1   1 -13  160.38   19.70
   1   1  13   89.99   18.10
  -2  -1 -13   44.20   15.20
  -2   1 -13   32.90   15.10
  -3  -1 -13   -3.10   14.40
  -3   1 -13   -2.80   14.20
  -4  -1 -13    4.00   16.00
  -4   1 -13   -0.80   15.60
   4  -2 -13   82.39   25.70
  -4  -2  13   14.80   23.30
  -4   2  13  -13.60   26.70
  -3  -2  13   -0.90   17.30
   3  -2 -13   16.00   21.20
  -3   2  13   -7.90   18.50
   2  -2 -13   35.60   17.90
  -2  -2  13   33.00   18.30
   2  -2 -13   39.60   15.80
  -2   2  13   22.80   18.40
   1  -2 -13   41.30   15.00
  -1  -2  13   34.40   15.10
  -1   2  13   33.00   16.70
   1   2 -13   31.40   14.20
   0  -2 -13  226.28   20.90
   0  -2  13  189.58   27.10
   0   2 -13  181.68   20.40
   0   2  13  191.08   32.70
  -1  -2 -13  333.27   23.90
   1  -2  13  308.77   28.50
  -1   2 -13  287.57   22.80
  -2  -2 -13   14.30   14.00
  -2   2 -13   12.60   14.40
  -3  -2 -13   12.90   15.30
  -3   2 -13    1.70   14.60
  -4  -2 -13   10.10   16.60
  -4   2 -13   -1.40   18.00
  -4  -3  13   -4.50   21.10
   4  -3 -13   53.09   29.00
  -3  -3  13   -4.40   16.80
   3  -3 -13  -11.90   18.10
  -3   3  13  -18.20   19.20
   2  -3 -13   41.20   15.70
   2  -3 -13    1.80   17.70
  -2  -3  13   18.60   15.60
  -2   3  13   10.80   17.80
  -1  -3  13    9.20   12.60
   1  -3 -13   -7.00   13.60
   1   3 -13   -0.70   12.10
  -1   3  13  -15.10   13.90
   0  -3 -13   46.10   14.60
   0  -3  13   29.60   12.90
   0   3 -13   52.39   13.90
   0   3  13   25.30   15.30
   1  -3  13    6.00   10.90
  -1  -3 -13   10.40   13.00
  -1   3 -13   13.20   14.20
   1   3  13  -12.10   13.30
  -2  -3 -13   12.80   14.80
  -2   3 -13   20.40   16.10
  -3  -3 -13   42.90   16.80
  -3   3 -13   53.69   17.10
  -4  -3 -13   10.50   16.60
  -4   3 -13   -8.30   15.80
  -4  -4  13  -18.70   21.80
   4  -4 -13   -0.80   24.40
   3  -4 -13   14.50   20.20
  -3  -4  13   -1.70   15.90
  -3   4  13  -33.90   18.20
   2  -4 -13  244.68   26.80
  -2  -4  13  291.47   37.80
   2  -4 -13  199.38   24.40
  -2   4  13  231.38   39.90
  -1  -4  13   16.80   13.50
   1  -4 -13   42.80   16.10
  -1   4  13   -0.20   15.80
   1   4 -13   19.50   12.50
   0  -4 -13   42.10   14.80
   0  -4  13   24.70   12.10
   0   4  13  -10.00   13.70
   0   4 -13   21.80   11.60
  -1  -4 -13  405.76   27.80
   1  -4  13  388.86   32.20
  -1   4 -13  388.26   26.80
  -2  -4 -13   42.90   16.50
  -2   4 -13   28.00   15.30
  -3  -4 -13   49.20   17.60
  -3   4 -13   27.80   16.00
  -4  -4 -13  -27.00   13.80
  -4   4 -13    0.70   16.80
   4  -5 -13   30.60   26.20
  -4  -5  13  -14.40   18.30
   3  -5 -13   -9.60   20.30
  -3  -5  13    0.10   16.40
   2  -5 -13   -8.40   17.30
  -2  -5  13   19.00   14.70
   2  -5 -13   26.00   16.40
  -2   5  13   -1.80   19.50
   1  -5 -13   23.40   14.40
  -1  -5  13   19.20   13.80
  -1   5  13   13.70   17.90
   0  -5  13   40.30   14.90
   0  -5 -13   44.80   15.00
   0   5 -13   43.00   13.70
   0   5  13   12.00   16.10
  -1  -5 -13    2.90   13.70
   1  -5  13    4.60   10.40
  -1   5 -13    3.10   12.60
  -2  -5 -13   27.80   14.90
  -2   5 -13   14.80   14.70
  -3  -5 -13   -9.90   15.30
  -3   5 -13    0.00   14.90
  -4  -5 -13   -2.30   17.50
  -4   5 -13    0.90   26.80
   4  -6 -13   -3.30   29.90
  -4  -6  13   -5.30   18.40
  -3  -6  13   23.90   18.90
   3  -6 -13   24.10   25.40
  -3   6  13  -13.10   21.10
   2  -6 -13  536.25   34.30
   2  -6 -13  451.15   31.10
  -2  -6  13  562.24   45.90
  -2   6  13  488.55   50.59
  -1  -6  13   13.10   13.60
   1  -6 -13   12.50   15.30
  -1   6  13  -26.20   15.70
   0  -6  13   34.30   13.50
   0  -6 -13   86.09   17.60
   0   6  13   24.70   17.20
   0   6 -13   57.59   13.90
  -1  -6 -13   26.20   14.40
   1  -6  13   26.10   12.00
  -1   6 -13   32.60   14.20
  -2  -6 -13   99.69   18.80
  -2   6 -13   78.19   17.60
  -3  -6 -13  -12.60   15.00
  -3   6 -13    7.00   15.30
  -4  -6 -13   -2.60   16.90
   4  -7 -13    4.20   32.00
  -4  -7  13   -1.10   18.70
  -4   7  13   32.40   19.30
  -3  -7  13  272.07   40.90
   3  -7 -13  216.78   30.40
   2  -7 -13  -25.20   19.90
   2  -7 -13   18.00   17.20
  -2  -7  13    5.20   14.30
  -2   7  13   -9.30   19.30
   1  -7 -13  475.05   31.10
  -1  -7  13  511.85   40.70
  -1   7  13  455.95   46.50
   0  -7 -13   26.40   15.00
   0  -7  13   27.90   14.00
   0   7  13   -9.70   15.80
   0   7 -13   23.90   12.50
   1  -7  13  130.19   22.40
  -1  -7 -13  117.19   19.20
  -1   7 -13  132.79   19.20
  -2  -7 -13   -5.80   13.10
  -2   7 -13    0.00   15.00
  -3  -7 -13   -1.50   14.60
  -3   7 -13   12.10   16.10
   4  -8 -13   -4.70   27.50
  -4  -8  13    8.70   19.50
  -4   8  13   42.20   19.80
   3  -8 -13   49.30   25.60
  -3  -8  13   66.09   21.60
   2  -8 -13   70.39   20.80
  -2  -8  13   85.69   21.10
  -1  -8  13    0.70   13.50
   1  -8 -13    6.10   14.70
  -1   8  13  -18.30   19.90
   0  -8  13  203.18   27.90
   0  -8 -13  193.88   23.30
   0   8 -13  185.18   18.70
   1  -8  13   19.30   11.70
  -1  -8 -13    5.60   14.40
  -1   8 -13   15.00   13.10
  -2  -8 -13  -10.70   14.50
  -2   8 -13    7.20   14.40
  -3  -8 -13   -5.80   14.50
  -3   8 -13  -10.00   15.30
  -4  -9  13   15.40   19.20
   4  -9 -13   29.10   33.90
  -4   9  13   31.10   20.10
  -3  -9  13   45.80   21.90
   3  -9 -13   -1.50   25.60
  -3   9  13  -27.50   23.20
  -2  -9  13   10.90   14.50
   2  -9 -13   -9.20   15.50
  -1  -9  13   51.39   17.00
   1  -9 -13   45.20   17.20
  -1   9  13   -1.20   19.70
   0  -9 -13  126.99   20.60
   0  -9  13  153.68   26.40
   0   9 -13  150.38   17.80
   1  -9  13   18.50   10.80
  -1  -9 -13    6.00   14.10
  -1   9 -13   13.60   14.50
  -2  -9 -13   64.39   17.30
  -2   9 -13   28.80   17.20
  -3  -9 -13   -1.50   16.40
  -3   9 -13    6.20   16.30
   3 -10 -13  -19.90   25.70
  -3 -10  13   54.39   22.60
  -3  10  13  -26.80   25.00
  -2 -10  13   31.50   16.90
   2 -10 -13   35.00   19.40
  -2  10  13  -21.30   21.20
   1 -10 -13   67.69   18.60
  -1 -10  13   64.69   18.30
  -1  10  13   12.30   22.10
   0 -10 -13   37.50   16.50
   0 -10  13   30.20   14.40
   0  10  13  -23.20   17.90
   1 -10  13   30.50   12.00
  -1 -10 -13   50.59   17.60
  -1  10 -13   35.00   14.00
  -2 -10 -13  -11.90   14.40
  -2  10 -13  -21.50   13.30
  -3 -10 -13   29.10   16.80
  -3  10 -13    6.50   18.60
   3 -11 -13  -49.00   30.60
  -3 -11  13   12.50   16.70
  -3  11  13   15.80   21.00
   2 -11 -13    8.00   17.80
  -2 -11  13   15.00   15.60
  -1 -11  13   19.50   14.10
   1 -11 -13   12.60   18.10
  -1  11  13  -30.40   19.60
   0 -11 -13   38.80   16.60
   0 -11  13   38.20   15.70
   0  11  13  -13.10   19.40
   1 -11  13   31.90   12.90
  -1 -11 -13   23.90   16.00
  -1  11 -13   23.40   14.70
   1  11  13  -22.70   20.70
  -2 -11 -13   -8.70   14.20
  -2  11 -13    2.80   15.20
  -3 -11 -13    5.40   16.10
  -3  11 -13   -2.80   16.90
   3 -12 -13   -0.50   29.90
  -3  12  13   52.89   22.00
  -3  12  13  -25.90   26.20
   2 -12 -13  183.28   26.20
  -2 -12  13  244.08   37.70
   1 -12 -13  109.79   21.30
  -1 -12  13   91.19   20.30
   0 -12 -13   85.79   19.10
   0 -12  13   81.69   18.80
   0  12  13   26.00   21.70
   1 -12  13   20.80   12.30
  -1 -12 -13   -0.30   15.30
  -1  12 -13    4.50   13.60
  -2 -12 -13    8.10   17.20
  -2  12 -13   -1.50   16.50
  -3 -12 -13   18.40   18.50
  -3  12 -13   -1.80   17.20
  -3 -13  13   30.70   19.40
   3 -13 -13  -22.10   29.30
  -3  13  13   28.40   23.50
   2 -13 -13   42.70   19.30
  -2 -13  13   25.00   17.30
  -2  13  13  -44.70   22.40
   1 -13 -13   27.90   17.90
  -1 -13  13   40.30   18.20
   0 -13 -13   22.30   15.60
   0 -13  13   16.00   12.50
  -1 -13 -13    2.30   15.90
   1 -13  13   15.10   10.70
  -1  13 -13  -10.80   12.90
  -2 -13 -13   17.00   16.50
  -2  13 -13   -5.70   17.00
   2 -14 -13   64.19   21.40
  -2 -14  13   54.59   20.00
  -2  14  13   73.49   24.70
   1 -14 -13   14.50   17.40
  -1 -14  13   26.70   16.30
   0 -14 -13   81.99   19.80
   0 -14  13   74.89   17.60
  -1 -14 -13   71.39   20.10
  -2 -14 -13    5.20   16.00
  -2  14 -13   -5.60   16.90
   2 -15 -13   15.70   17.10
  -2 -15  13   28.40   17.70
  -2  15  13    3.50   20.90
   1 -15 -13   85.49   20.70
  -1 -15  13   83.29   20.80
   0 -15 -13   37.90   17.60
   0  15  13  -37.30   23.40
  -1 -15 -13   19.00   19.40
  -2 -15 -13   14.40   19.00
  -2  15 -13    9.70   17.50
   1 -16 -13    0.20   18.20
  -1  16  13    6.50   19.90
   0 -16 -13   -0.60   16.00
  -1 -16 -13   -3.50   17.20
  -1 -17  13   34.50   17.00
   1 -17 -13   12.80   20.60
  -1  17  13   -2.50   25.20
   0 -17 -13   54.09   19.60
   0  17  13   54.39   23.50
  -1 -17 -13   26.50   20.20
   1  17  13   33.40   20.10
  -4   0  14  -30.20   22.20
  -3   0  14  -23.40   18.00
  -2   0  14  136.99   25.80
   1   0 -14    1.60   13.30
  -1   0  14  -18.70   13.10
   0   0  14  249.97   31.90
   0   0 -14  241.78   23.50
   1   0  14  -16.00   11.70
  -1   0 -14   16.50   14.70
  -2   0 -14   80.49   18.00
  -3   0 -14    5.70   15.40
  -4  -1  14  -26.70   21.50
  -4   1  14  -45.10   25.40
  -3  -1  14   16.90   20.10
  -3   1  14  -10.80   19.30
  -2  -1  14  119.59   24.90
  -2   1  14   90.59   23.90
  -1  -1  14    4.50   14.10
   1  -1 -14   13.30   13.60
  -1   1  14   -3.40   15.30
   1   1 -14   25.00   14.30
   0  -1  14   41.00   15.40
   0  -1 -14   50.49   15.10
   0   1  14    9.60   13.90
   0   1 -14   48.70   15.80
  -1  -1 -14  120.39   19.50
   1  -1  14   60.69   16.70
   1   1  14   56.29   17.60
  -1   1 -14   94.19   17.30
  -2  -1 -14  132.99   20.20
  -2   1 -14  117.09   19.70
  -3  -1 -14  -14.60   13.70
  -3   1 -14   -1.90   15.10
  -4  -2  14   -4.80   24.90
  -4   2  14  -34.60   23.70
  -3  -2  14   60.59   23.70
  -3   2  14   47.10   24.40
  -2  -2  14   47.90   20.30
  -2   2  14   54.89   21.40
   1  -2 -14  140.79   20.70
  -1  -2  14   70.49   19.10
   1   2 -14   83.09   16.70
  -1   2  14   66.09   21.10
   0  -2  14   31.20   15.50
   0  -2 -14   36.00   14.70
   0   2  14   16.00   15.00
   0   2 -14   10.70   13.10
  -1  -2 -14   42.60   16.60
   1  -2  14   35.30   14.60
  -1   2 -14   23.90   13.80
   1   2  14    3.90   15.60
  -2  -2 -14   -7.30   13.50
  -2   2 -14    1.00   14.50
  -3  -2 -14   10.50   15.20
  -3   2 -14   13.70   16.00
  -4  -3  14  110.39   30.10
  -4   3  14   36.60   30.30
  -3  -3  14    3.60   17.80
  -3   3  14  -17.90   20.60
  -2  -3  14   22.60   19.30
  -2   3  14  -15.40   17.90
  -1  -3  14   17.90   14.90
   1  -3 -14   24.00   14.70
   1   3 -14   27.60   14.20
  -1   3  14   11.70   19.30
   0  -3  14   64.99   17.80
   0  -3 -14   75.19   16.80
   0   3  14   31.10   16.70
   0   3 -14   57.09   15.00
   1  -3  14   46.20   15.00
  -1  -3 -14   83.39   18.60
   1   3  14    7.80   15.70
  -1   3 -14   64.09   15.80
  -2  -3 -14   15.60   15.00
  -2   3 -14    1.80   14.00
  -3  -3 -14   -4.40   14.80
  -3   3 -14   -5.80   14.90
   4  -4 -14   63.09   31.60
  -4  -4  14   -2.60   22.10
  -4   4  14  -48.50   28.30
  -3  -4  14    0.10   18.00
   3  -4 -14   -6.30   20.20
   2  -4 -14   12.40   16.50
  -2  -4  14   32.70   17.60
  -2   4  14  -11.20   18.30
   1  -4 -14   75.99   18.20
  -1  -4  14   67.89   19.20
  -1   4  14   26.60   18.30
   0  -4  14    1.70   11.30
   0  -4 -14    8.60   13.70
   0   4 -14    0.40   12.60
   0   4  14  -20.20   16.10
  -1  -4 -14   20.60   16.00
   1  -4  14   16.40   12.30
  -1   4 -14   26.00   14.80
  -2  -4 -14   36.30   15.80
  -2   4 -14   23.40   16.80
  -3  -4 -14  -14.90   14.10
  -3   4 -14  -20.60   15.80
   4  -5 -14   65.79   28.10
  -4  -5  14   26.80   24.30
  -4   5  14  -35.10   27.40
   3  -5 -14   -5.30   23.60
  -3  -5  14   -1.30   18.10
  -2  -5  14   19.10   16.20
   2  -5 -14   18.10   16.90
   2  -5 -14   15.30   17.90
  -2   5  14  -17.40   19.00
   1  -5 -14  262.67   26.30
  -1  -5  14  282.97   34.80
   0  -5  14    1.40   11.40
   0  -5 -14    7.30   14.90
   0   5 -14    5.20   11.80
   0   5  14  -21.80   16.90
   1  -5  14    8.90   11.50
  -1  -5 -14   27.20   16.00
  -1   5 -14   -2.40   13.60
  -2  -5 -14   18.70   15.10
  -2   5 -14   15.10   15.40
  -3  -5 -14   27.20   17.10
  -3   5 -14   23.60   16.30
  -4  -6  14    4.70   23.80
   4  -6 -14   -2.10   26.90
   3  -6 -14    8.10   22.70
  -3  -6  14    9.30   18.80
  -2  -6  14   95.09   22.40
   2  -6 -14  124.39   24.80
   2  -6 -14  107.39   20.80
  -2   6  14   41.30   24.00
  -1  -6  14  200.68   32.20
   1  -6 -14  142.19   20.60
   0  -6 -14   57.49   18.60
   0  -6  14   44.20   14.80
   0   6  14   11.50   19.90
   0   6 -14   54.89   14.40
  -1  -6 -14  110.69   19.60
   1  -6  14   64.29   15.50
   1   6  14   28.50   21.30
  -1   6 -14   68.69   16.10
  -2  -6 -14    1.70   14.30
  -2   6 -14   11.60   14.80
  -3  -6 -14    4.50   15.60
  -3   6 -14    4.80   15.60
  -3  -7  14   10.90   17.90
   3  -7 -14  -11.70   22.70
   2  -7 -14   63.39   21.80
   2  -7 -14   40.70   18.20
  -2  -7  14   38.80   18.20
  -2   7  14    0.70   24.20
  -1  -7  14  272.67   34.70
   1  -7 -14  277.67   27.80
   0  -7 -14  227.98   26.90
   0  -7  14  247.08   30.60
   0   7 -14  206.38   20.90
  -1  -7 -14   11.00   14.60
   1  -7  14   20.30   11.30
  -1   7 -14   40.00   16.00
  -2  -7 -14   44.20   16.80
  -2   7 -14   29.00   16.80
  -3  -7 -14    2.30   15.60
  -3   7 -14   -4.70   15.60
  -3  -8  14   54.89   21.90
   3  -8 -14   45.10   25.10
  -2  -8  14  105.89   22.90
   2  -8 -14  138.79   26.10
   2  -8 -14  152.88   24.60
  -2   8  14   53.49   25.80
  -1  -8  14   10.60   13.80
   1  -8 -14   -4.10   16.00
  -1   8  14  -32.20   20.50
   0  -8 -14  196.98   25.00
   0  -8  14  155.58   27.80
   0   8 -14  116.89   16.60
   1  -8  14    2.20   10.70
  -1  -8 -14   -0.70   14.00
  -1   8 -14   -5.90   12.20
  -2  -8 -14   43.30   18.50
  -2   8 -14    1.50   14.90
  -3  -8 -14   14.80   16.30
  -3   8 -14   -3.70   15.90
  -3  -9  14    3.30   16.60
   3  -9 -14   -7.00   25.10
  -2  -9  14   30.90   17.80
   2  -9 -14    3.30   17.80
  -2   9  14  -21.10   22.30
   1  -9 -14   45.30   17.70
  -1  -9  14   27.30   15.50
  -1   9  14  -18.80   20.00
   0  -9  14   56.99   16.10
   0  -9 -14   77.29   20.10
  -1  -9 -14  130.79   21.00
   1  -9  14  146.79   26.40
  -1   9 -14   90.39   17.80
  -2  -9 -14   -3.50   14.90
  -2   9 -14  -13.10   14.80
  -3  -9 -14   11.60   17.90
  -3   9 -14   11.20   17.70
   3 -10 -14   21.50   27.50
  -3 -10  14   47.10   21.50
  -2 -10  14   38.30   19.10
   2 -10 -14   37.10   19.60
  -2  10  14  -37.20   22.10
   1 -10 -14   24.00   16.40
  -1 -10  14   25.80   15.40
  -1  10  14  -32.70   20.70
   0 -10 -14    7.30   16.70
   0 -10  14   12.10   13.20
   1 -10  14   11.70   10.70
  -1 -10 -14   -4.00   15.10
  -1  10 -14    8.10   13.90
  -2 -10 -14   22.20   17.10
  -2  10 -14    4.10   16.40
  -3 -10 -14   -6.40   15.60
  -3  10 -14  -14.90   18.20
  -3 -11  14   -3.20   17.10
   3 -11 -14  -54.29   25.80
  -2 -11  14  113.69   24.50
   2 -11 -14  147.09   25.20
   1 -11 -14   94.99   22.20
  -1 -11  14   75.69   20.10
   0 -11 -14    0.30   15.70
   0 -11  14   12.70   13.60
   1 -11  14   15.30   10.90
  -1 -11 -14   10.90   15.80
  -1  11 -14   17.20   14.60
  -2 -11 -14  -15.70   15.00
  -2  11 -14   -7.70   14.70
   3 -12 -14  -55.89   30.60
  -2 -12  14   19.20   17.20
   2 -12 -14   21.80   17.80
  -1 -12  14   37.80   17.30
   1 -12 -14   45.70   20.40
  -1  12  14  -28.60   22.00
   0 -12 -14    3.40   16.00
   0 -12  14    4.60   13.10
   1 -12  14  144.09   25.90
  -1 -12 -14  126.49   22.30
  -1  12 -14   97.79   18.20
  -2 -12 -14   22.50   17.10
  -2  12 -14   -7.80   15.70
   2 -13 -14   21.70   19.40
  -2 -13  14   29.80   18.10
   1 -13 -14   72.19   21.20
  -1 -13  14   74.69   20.00
   0 -13  14   70.39   18.40
   0 -13 -14   77.69   20.30
  -1 -13 -14   33.60   19.60
   1 -13  14   37.60   13.70
  -2 -13 -14  -24.10   17.00
  -2  13 -14  -10.10   16.10
   2 -14 -14   35.10   19.40
  -2 -14  14   69.39   24.40
  -2  14  14   54.49   24.10
   1 -14 -14    4.70   16.80
  -1 -14  14   17.60   16.60
  -1  14  14  -45.60   25.90
   0 -14  14   32.80   15.00
   0 -14 -14   20.80   16.70
  -1 -14 -14   49.60   20.70
   1 -14  14   49.20   14.50
  -1 -15  14   23.90   16.80
   1 -15 -14    2.30   17.20
   0 -15 -14  125.69   22.90
   0 -15  14  193.28   30.90
  -1 -15 -14   18.00   18.10
   0 -16  14   31.30   14.50
  -3   0  15   -9.10   20.30
  -2   0  15  -13.60   16.90
  -1   0  15  297.77   39.20
   1   0 -15  338.47   25.90
   0   0 -15   -4.20   14.10
   0   0  15  -22.40   11.80
   1   0  15   32.90   15.60
  -1   0 -15   71.59   17.40
  -2   0 -15    5.10   16.00
  -3   0 -15   49.00   19.90
  -3  -1  15  -14.40   19.70
  -3   1  15  -23.80   19.80
  -2  -1  15   21.20   18.50
  -2   1  15   -8.40   17.60
  -1  -1  15   -2.50   14.10
   1  -1 -15    0.70   14.40
  -1   1  15    0.70   16.00
   1   1 -15   -0.20   13.70
   0  -1 -15   37.20   16.00
   0  -1  15   29.00   17.90
   0   1 -15   27.60   14.70
   0   1  15   19.70   16.40
   1  -1  15   -9.80   11.10
  -1  -1 -15   -3.40   13.70
  -1   1 -15   10.70   13.90
  -2  -1 -15   22.00   15.50
  -2   1 -15   32.00   17.40
  -3  -1 -15    4.10   15.90
  -3   1 -15   -3.70   17.10
  -3  -2  15   29.70   22.80
  -3   2  15   16.20   23.70
  -2  -2  15   30.10   19.40
  -2   2  15    3.70   19.90
  -1  -2  15   32.20   17.70
   1  -2 -15   74.99   17.30
  -1   2  15   23.90   18.30
   0  -2 -15  115.09   19.00
   0  -2  15   93.69   20.10
   0   2 -15  101.19   17.90
   0   2  15   79.29   20.50
   1  -2  15   -9.10   10.40
  -1  -2 -15   13.10   14.50
  -1   2 -15    6.30   15.30
  -2  -2 -15   12.70   14.90
  -2   2 -15    8.30   14.60
  -3  -2 -15   15.10   16.60
  -3   2 -15  -10.80   15.60
  -3  -3  15  152.28   30.30
  -3   3  15   93.09   29.80
  -2  -3  15    3.60   19.00
  -2   3  15  -14.20   17.70
   1  -3 -15  251.17   25.80
  -1  -3  15  285.37   37.00
  -1   3  15  213.48   39.10
   0  -3  15   -1.60   12.20
   0  -3 -15  -10.50   12.90
   0   3  15  -17.20   14.90
   0   3 -15   16.00   14.40
  -1  -3 -15   24.50   15.30
   1  -3  15   13.50   12.40
  -1   3 -15   16.90   14.10
  -2  -3 -15    9.00   14.80
  -2   3 -15   -2.90   14.90
  -3  -3 -15  -15.80   14.60
  -3   3 -15   -4.70   16.50
  -3  -4  15   81.29   24.70
  -3   4  15   12.60   25.60
  -2  -4  15   -4.50   15.70
  -2   4  15  -21.50   19.70
  -1  -4  15    1.00   14.00
   1  -4 -15   19.30   15.30
  -1   4  15  -20.50   17.10
   0  -4  15   22.70   14.90
   0  -4 -15   26.70   17.20
   0   4  15  -10.80   16.20
   0   4 -15   12.80   12.20
  -1  -4 -15   37.30   15.90
   1  -4  15   13.40   11.70
  -1   4 -15   34.80   15.40
  -2  -4 -15   18.10   15.60
  -2   4 -15    3.60   16.90
  -3  -4 -15  -13.60   15.30
  -3   4 -15   -1.70   18.20
  -3  -5  15   52.09   23.00
  -3   5  15   -9.00   28.30
  -2  -5  15    8.80   17.20
   2  -5 -15   17.50   19.80
  -2   5  15  -27.20   19.50
   1  -5 -15  111.69   20.60
  -1  -5  15  103.49   21.40
  -1   5  15   59.59   23.70
   0  -5  15  176.98   29.60
   0  -5 -15  190.68   24.50
   0   5 -15  139.19   19.00
   1  -5  15    5.50   11.90
  -1  -5 -15   -3.40   15.20
  -1   5 -15   -2.10   14.70
  -2  -5 -15   51.79   17.80
  -2   5 -15   45.40   17.50
  -3  -5 -15   12.40   16.60
  -3   5 -15   -3.20   16.80
  -3  -6  15    0.30   18.60
  -2  -6  15   65.69   21.20
   2  -6 -15   45.40   19.30
  -1  -6  15   39.10   16.90
   1  -6 -15   26.60   17.70
   0  -6 -15   14.60   15.40
   0  -6  15    1.60   11.80
   0   6  15  -30.70   18.60
   0   6 -15   16.10   13.50
   1  -6  15   58.89   16.00
  -1  -6 -15   65.49   19.50
  -1   6 -15   66.49   16.30
  -2  -6 -15   45.60   17.50
  -2   6 -15   20.20   16.30
  -3  -6 -15    4.20   16.30
  -3   6 -15   -0.60   16.80
  -3  -7  15    3.20   19.00
  -2  -7  15    0.40   17.50
   2  -7 -15   -2.90   16.60
  -1  -7  15   11.50   14.40
   1  -7 -15   29.20   16.60
   0  -7  15   34.10   14.90
   0  -7 -15   19.20   16.30
   0   7 -15    3.30   19.80
  -1  -7 -15   27.30   16.00
   1  -7  15   22.50   12.10
  -1   7 -15   15.50   15.10
  -2  -7 -15   34.00   18.40
  -2   7 -15   18.40   17.30
  -3  -7 -15  -12.00   17.20
  -3  -8  15  -11.40   17.50
   3  -8 -15  -28.10   29.30
   2  -8 -15  -24.60   33.40
   2  -8 -15   20.30   19.50
  -2  -8  15    7.60   15.90
  -2   8  15  -37.60   21.50
  -1  -8  15   35.10   16.40
   1  -8 -15   29.40   18.80
   0  -8 -15  106.69   20.70
   0  -8  15   81.79   19.30
  -1  -8 -15  165.18   23.00
   1  -8  15  175.78   28.60
  -1   8 -15  134.19   19.00
  -2  -8 -15   -7.40   17.10
  -2   8 -15   11.20   15.80
   3  -9 -15  -49.30   22.50
  -2  -9  15   40.70   19.10
   2  -9 -15   32.90   19.80
   2  -9 -15   16.90   24.30
  -1  -9  15   47.70   19.20
   1  -9 -15   51.19   20.20
   0  -9 -15    9.20   15.80
   0  -9  15   14.60   13.70
   1  -9  15   14.00   12.50
  -1  -9 -15   17.30   15.70
  -1   9 -15    0.30   14.40
  -2  -9 -15   14.50   17.90
  -2   9 -15   16.10   16.10
   2 -10 -15   40.10   20.40
  -2 -10  15   34.40   18.60
  -2  10  15  -40.90   23.40
   1 -10 -15   43.80   19.20
  -1 -10  15   49.10   19.10
   0 -10 -15  136.69   22.60
   0 -10  15  175.98   29.30
  -1 -10 -15    1.40   15.50
   1 -10  15   11.90   11.20
  -1  10 -15    3.30   14.50
  -2 -10 -15   13.40   17.10
  -2  10 -15   -9.00   17.10
   2 -11 -15   -0.90   18.30
  -2 -11  15    7.90   18.60
   1 -11 -15  160.68   24.50
  -1 -11  15  211.98   35.10
   0 -11  15    1.40   11.40
   0 -11 -15   -3.60   15.30
  -1 -11 -15   16.40   16.90
   1 -11  15   16.60   11.70
  -2 -11 -15    4.00   17.40
  -2  11 -15   22.60   18.30
   2 -12 -15    4.50   18.70
  -2 -12  15   10.10   19.20
   1 -12 -15   68.89   22.60
  -1 -12  15   48.80   17.70
  -1  12  15  -36.00   23.80
   0 -12  15    6.20   13.80
   0 -12 -15   13.20   15.80
  -1 -12 -15   20.30   17.50
   1 -12  15   14.80   11.80
  -1 -13  15    7.90   14.70
   1 -13 -15    7.20   17.60
   0 -13  15   63.99   18.90
   0 -13 -15   64.99   20.00
  -1 -13 -15  -18.30   16.60
   1 -13  15   10.60   11.90
  -1 -14  15   19.30   16.40
   1 -14 -15   -6.60   17.30
   0 -14 -15   10.40   20.20
   0 -14  15    3.20   12.40
  -3   0  16  -38.00   20.40
  -2   0  16   12.00   20.20
  -1   0  16  -10.70   15.80
   1   0 -16   18.70   27.10
   0   0  16   -4.10   17.40
   0   0 -16   42.30   16.90
  -1   0 -16   -0.90   15.60
  -2   0 -16   64.39   18.60
  -3  -1  16  -16.50   20.80
  -3   1  16  -30.20   20.80
  -2  -1  16   42.20   21.90
  -2   1  16   43.30   23.40
  -1  -1  16   -1.20   17.80
   1  -1 -16   33.80   16.40
  -1   1  16  -13.70   18.40
   0  -1 -16   56.19   18.10
   0  -1  16   19.40   18.40
   0   1  16    6.20   16.60
   0   1 -16   50.59   15.90
  -1  -1 -16   49.10   16.70
  -1   1 -16   46.30   17.20
  -2  -1 -16    5.80   15.60
  -2   1 -16    6.50   15.30
  -3  -2  16   20.70   26.00
  -3   2  16   17.50   25.60
  -2  -2  16   43.50   22.00
  -2   2  16   54.99   27.20
  -1  -2  16   -2.10   15.80
   1  -2 -16   28.00   16.10
  -1   2  16  -16.60   16.70
   0  -2  16    5.30   14.80
   0  -2 -16   49.00   16.90
   0   2 -16   35.70   16.40
   0   2  16   -0.60   16.60
  -1  -2 -16   23.60   15.70
  -1   2 -16   26.80   15.70
  -2  -2 -16   -3.70   14.40
  -2   2 -16  -20.40   15.30
  -3  -3  16   12.70   22.20
  -3   3  16  -19.70   24.30
  -2  -3  16   -5.70   16.70
  -2   3  16  -29.50   19.30
   1  -3 -16   11.60   15.70
  -1  -3  16   16.90   18.50
  -1   3  16  -28.50   16.70
   0  -3  16  216.78   36.30
   0  -3 -16  235.88   26.40
   0   3 -16  189.38   22.60
  -1  -3 -16   38.50   16.90
  -1   3 -16   38.40   17.20
  -2  -3 -16   17.00   17.50
  -2   3 -16   -4.20   15.20
  -3  -4  16    4.10   23.60
  -2   4  16  109.09   32.10
  -1  -4  16    3.00   14.70
   1  -4 -16   -7.00   14.90
   0  -4  16  108.89   21.70
   0  -4 -16  185.58   24.50
   0   4  16   71.89   25.90
   0   4 -16  150.78   20.30
  -1  -4 -16   -2.00   14.70
  -1   4 -16  -11.90   13.80
  -2  -4 -16   -3.00   16.90
  -2   4 -16    8.70   16.00
  -2  -5  16    9.90   17.30
   1  -5 -16  102.19   20.80
  -1  -5  16   86.69   22.00
  -1   5  16   29.60   23.10
   0  -5  16   53.69   18.50
   0  -5 -16   76.49   19.10
   0   5  16   -7.60   21.60
   0   5 -16   43.40   15.80
  -1  -5 -16   22.80   16.60
  -1   5 -16    5.90   15.00
  -2  -5 -16   19.40   18.90
  -2   5 -16    9.30   17.10
  -2  -6  16    4.60   16.70
  -1  -6  16   49.50   20.20
   1  -6 -16   70.89   19.90
  -1   6  16    1.20   22.30
   0  -6 -16   -8.50   15.60
   0  -6  16    1.00   12.90
  -1  -6 -16   18.50   17.60
  -1   6 -16    2.00   15.10
  -2  -6 -16   31.40   19.60
  -2   6 -16   33.30   17.50
  -2  -7  16   38.50   19.80
   1  -7 -16   -9.20   17.10
  -1  -7  16   10.60   14.90
   0  -7  16  -17.60   12.70
   0  -7 -16   -2.80   15.30
  -1  -7 -16   21.30   17.90
  -1   7 -16  -19.00   14.20
  -2  -7 -16   -3.70   17.60
  -2   7 -16    7.70   17.30
   2  -8 -16    8.70   18.20
  -2  -8  16  -11.00   14.90
  -1  -8  16    2.30   14.60
   1  -8 -16   24.90   17.60
   0  -8 -16    2.20   15.90
   0  -8  16    4.80   14.10
  -1  -8 -16   25.50   18.60
  -1   8 -16   25.50   15.40
  -2  -8 -16   16.90   20.20
  -2   8 -16   -2.60   15.50
  -2  -9  16    8.60   17.40
   2  -9 -16   18.30   18.50
  -1  -9  16   13.20   15.60
   1  -9 -16   35.60   20.20
   0  -9 -16   -0.70   17.60
   0  -9  16   14.00   13.30
  -1  -9 -16   88.69   22.90
  -1   9 -16   61.99   17.40
  -2   9 -16    8.30   16.90
   2 -10 -16   64.49   22.00
   1 -10 -16    1.40   18.90
  -1 -10  16   10.30   14.90
   0 -10  16   56.19   17.80
   0 -10 -16   72.29   21.40
  -1 -10 -16   15.30   19.60
  -1 -11  16    7.70   14.60
   1 -11 -16   -6.30   16.50
   0 -11 -16   11.20   17.80
   0 -11  16   12.70   13.50
  -1 -11 -16   -3.90   29.10
   1 -12 -16   18.70   18.00
  -1 -12  16   11.90   15.50
   0 -12  16   53.19   17.50
   0 -12 -16   56.39   19.70
  -2   0  17  -19.30   22.00
  -1   0  17   25.00   20.50
   0   0 -17   -3.10   15.40
   0   0  17  -27.80   17.00
  -1   0 -17   -2.50   14.80
  -2   0 -17   -3.20   17.60
  -2  -1  17   22.10   21.80
  -2   1  17  -12.80   21.20
  -1  -1  17   85.19   25.50
  -1   1  17   77.99   26.80
   0  -1 -17   54.39   19.30
   0  -1  17    9.90   17.10
   0   1 -17   21.90   16.30
   0   1  17    4.70   17.90
  -1  -1 -17   -3.10   16.60
  -1   1 -17    1.20   15.00
  -2  -1 -17    8.60   18.00
  -2   1 -17   19.50   17.40
  -2  -2  17  -20.10   18.10
  -1  -2  17    3.50   16.80
   1  -2 -17    4.70   19.00
   0  -2 -17   10.50   15.90
   0  -2  17    2.10   15.50
   0   2  17  -27.00   16.30
   0   2 -17   -0.20   14.80
  -1  -2 -17   61.39   20.40
  -1   2 -17   91.89   20.40
  -2  -2 -17    5.90   16.90
  -2   2 -17    3.20   16.30
  -2  -3  17   21.90   20.90
  -2   3  17   -6.50   23.20
   1  -3 -17   12.00   16.20
  -1  -3  17    4.10   16.20
  -1   3  17  -40.40   20.50
   0  -3 -17   37.70   18.60
   0  -3  17   -5.70   15.50
   0   3 -17   -0.60   15.20
  -1  -3 -17    2.70   16.00
  -1   3 -17   -5.20   14.50
  -2  -3 -17   24.80   19.70
  -2   3 -17   27.90   19.20
  -2  -4  17   51.39   23.10
  -2   4  17  -27.80   22.70
  -1  -4  17   30.00   18.00
   1  -4 -17   33.40   18.70
  -1   4  17  -20.30   20.90
   0  -4  17   -1.70   13.60
   0  -4 -17   20.50   18.50
  -1  -4 -17  137.99   22.80
  -1   4 -17  163.78   23.70
  -2   4 -17   -8.60   16.00
  -2  -5  17    3.80   18.50
   1  -5 -17    0.80   16.10
  -1  -5  17   12.30   16.50
   0  -5  17   36.70   17.50
   0  -5 -17   50.79   18.90
   0   5  17  -25.60   20.30
  -1  -5 -17    1.90   15.90
  -1   5 -17    9.70   14.80
  -2  -6  17   44.90   22.40
  -2   6  17  -26.30   25.50
   1  -6 -17    4.20   18.00
  -1  -6  17   -5.10   14.80
   0  -6  17   13.10   16.10
   0  -6 -17   -4.10   15.80
  -1  -6 -17   11.00   18.20
  -1   6 -17    9.50   16.20
  -1  -7  17   44.90   19.00
   1  -7 -17   58.49   19.00
  -1   7  17  -14.90   24.20
   0  -7 -17   -1.20   18.00
   0  -7  17    7.70   13.60
  -1  -7 -17   18.20   19.10
  -1   7 -17   -0.60   15.00
  -1  -8  17    1.30   14.20
   1  -8 -17   18.20   19.80
   0  -8 -17   -2.40   17.10
   0  -8  17   15.80   14.40
  -1  -8 -17    7.60   26.80
  -1   8 -17   10.80   15.70
   1  -9 -17    6.40   18.30
  -1  -9  17    2.50   14.70
   0  -9 -17  100.39   21.50
   0  -9  17   57.69   18.70
  -1   0  18  -32.70   17.60
   0   0 -18  101.99   20.70
   0   0  18   47.40   24.30
  -1   0 -18   -9.20   16.40
  -1  -1  18  -25.00   19.70
  -1   1  18  -21.30   21.40
   0  -1  18  -19.60   16.70
   0  -1 -18   12.60   17.70
   0   1 -18    6.30   16.50
   0   1  18  -32.90   16.50
  -1  -1 -18   23.60   17.10
  -1   1 -18   24.10   17.90
  -1  -2  18   -6.10   17.50
   0  -2 -18    5.80   17.40
   0  -2  18  -24.00   17.00
  -1  -2 -18  -23.40   15.90
  -1   2 -18  -23.00   13.90
  -1  -3  18  -21.30   15.90
   0  -3  18   -9.20   15.30
   0  -3 -18  -19.30   16.50
  -1  -3 -18   31.30   19.70
  -1   3 -18   15.90   17.70
  -1  -4  18   -6.40   18.40
  -1   4  18  -42.40   20.90
   0  -4 -18   24.50   19.80
   0  -4  18   -2.80   17.00
   1  -5 -18  114.39   22.90
  -1  -5  18   73.39   24.40
  -1   5  18   25.90   26.70
   0  -5  18    1.50   16.70
   0  -5 -18    3.20   16.50
   0   0   0    0.00    0.00
_computing_structure_solution     'SHELXT 2014/5 (Sheldrick, 2014)'
;
_shelx_hkl_checksum              39628
_shelx_res_file
;
TITL db234 in P2(1)/n
    shelx.res
    created by SHELXL-2016/6 at 14:48:38 on 23-May-2017
CELL  0.71073   4.7121  18.7517  13.8565   90.000   92.379   90.000
ZERR     4.00   0.0009   0.0035   0.0026    0.000    0.005    0.000
LATT   1
SYMM  1/2 - X, 1/2 + Y, 1/2 - Z
SFAC  C    H    I    O
UNIT  36 20 12 8
MERG   2
OMIT    -3.00 180.00
RIGU C5 C6 C7 C8 C9 I1 I2 I3
RIGU C5 C6' C7 C8' C9' I1 I2 I3
EQIV $1 -x+2, -y+1, -z+2
HTAB O1 O2_$1
HTAB O1 O2_$1
FMAP   2
PLAN    4
SIZE     0.062   0.158   0.481
ACTA
BOND   $H
CONF
L.S.  10
TEMP   -73.15
WGHT    0.023800    0.153500
FVAR       0.22824   0.45462
I1    3    0.475710    0.387288    0.473971    11.00000    0.06017    0.04181 =
         0.03208    0.00106    0.00674   -0.00752
I2    3    0.234902    0.211612    0.518786    11.00000    0.09159    0.03550 =
         0.05579   -0.01436    0.01805   -0.01374
I3    3    0.074226    0.262253    0.758673    11.00000    0.07898    0.04307 =
         0.04375    0.00409    0.02228   -0.00256
O1    4    0.732662    0.551603    0.940035    11.00000    0.04982    0.03722 =
         0.05061   -0.00991   -0.01358    0.00208
O2    4    0.868919    0.438030    0.923718    11.00000    0.05001    0.02965 =
         0.04759   -0.00215   -0.00827    0.00306
C1    1    0.718789    0.489112    0.899648    11.00000    0.03823    0.02652 =
         0.03047   -0.00698    0.00240   -0.00531
SAME C2 C3 C4 C5 C7 C6'
C2    1    0.506025    0.483912    0.817568    11.00000    0.03281    0.03227 =
         0.02993    0.00109    0.00305   -0.00184
C3    1    0.339412    0.540594    0.788831    11.00000    0.04540    0.03316 =
         0.03092   -0.00574    0.00662   -0.00290
AFIX  43
H3    2    0.357931    0.584600    0.822475    11.00000   -1.20000
AFIX   0
C4    1    0.144567    0.534845    0.711623    11.00000    0.04073    0.03222 =
         0.03805    0.00400   -0.00504    0.00810
AFIX  43
H4    2    0.028550    0.574332    0.692924    11.00000   -1.20000
AFIX   0
C5    1    0.120902    0.471344    0.662329    11.00000    0.03077    0.06000 =
         0.04561   -0.01325   -0.00122    0.00272
AFIX  43
H5    2   -0.032421    0.464049    0.616701    11.00000   -1.20000
AFIX   0
C7    1    0.479693    0.420484    0.767613    11.00000    0.04257    0.03109 =
         0.06711   -0.01471   -0.01353    0.00947
AFIX  43
H7    2    0.568537    0.378584    0.792825    11.00000   -1.20000
AFIX   0
PART    1
C6    1    0.321000    0.417776    0.679143    21.00000    0.01209    0.05437 =
         0.04935   -0.01729    0.00793   -0.00697
C8    1    0.318264    0.359072    0.608176    21.00000    0.03391    0.03591 =
         0.02401    0.00348   -0.00862    0.00027
C9    1    0.237126    0.295223    0.623508    21.00000    0.03886    0.03686 =
         0.02097    0.00201    0.00579    0.00180
PART    2
C6'   1    0.258789    0.410097    0.697695   -21.00000    0.01914    0.04744 =
         0.05394   -0.02347    0.00351    0.00168
C8'   1    0.228136    0.332637    0.659987   -21.00000    0.04088    0.03060 =
         0.02831   -0.00102   -0.00200    0.00161
C9'   1    0.283656    0.314692    0.570684   -21.00000    0.03283    0.03010 =
         0.02686   -0.00296   -0.00686   -0.01046
PART    0
H1    2    0.881196    0.549653    0.972557    11.00000    0.06338
HKLF 4
REM  db234 in P2(1)/n
REM R1 =  0.0404 for    1539 Fo > 4sig(Fo)  and  0.1265 for all    3033 data
REM    159 parameters refined using     97 restraints
END
WGHT      0.0238      0.1675
REM Highest difference peak  1.137,  deepest hole -1.105,  1-sigma level  0.207
Q1    1   0.4940  0.3602  0.5004  11.00000  0.05    1.14
Q2    1   0.0539  0.2189  0.5341  11.00000  0.05    1.11
Q3    1   0.2421  0.1891  0.5000  11.00000  0.05    1.10
Q4    1   0.4712  0.4210  0.4970  11.00000  0.05    1.07
;
_shelx_res_checksum              94534
loop_
_space_group_symop_operation_xyz
'x, y, z'
'-x+1/2, y+1/2, -z+1/2'
'-x, -y, -z'
'x-1/2, -y-1/2, z-1/2'
loop_
_atom_site_type_symbol
_atom_site_label
_atom_site_fract_x
_atom_site_fract_y
_atom_site_fract_z
_atom_site_U_iso_or_equiv
_atom_site_adp_type
_atom_site_calc_flag
_atom_site_occupancy
_atom_site_disorder_assembly
_atom_site_disorder_group
I I1 0.47571(12) 0.38729(3) 0.47397(4) 0.04455(17) Uani d 1 . .
I I2 0.23490(14) 0.21161(3) 0.51879(4) 0.0605(2) Uani d 1 . .
I I3 0.07423(13) 0.26225(3) 0.75867(4) 0.05472(19) Uani d 1 . .
O O1 0.7327(13) 0.5516(3) 0.9400(4) 0.0463(16) Uani d 1 . .
O O2 0.8689(11) 0.4380(3) 0.9237(4) 0.0427(14) Uani d 1 . .
C C1 0.7188(16) 0.4891(4) 0.8996(5) 0.0317(18) Uani d 1 . .
C C2 0.5060(15) 0.4839(4) 0.8176(5) 0.0316(18) Uani d 1 . .
C C3 0.3394(15) 0.5406(4) 0.7888(5) 0.0364(19) Uani d 1 . .
H H3 0.357931 0.584600 0.822475 0.044 Uiso calc 1 . .
C C4 0.1446(15) 0.5348(4) 0.7116(5) 0.037(2) Uani d 1 . .
H H4 0.028550 0.574332 0.692924 0.045 Uiso calc 1 . .
C C5 0.1209(16) 0.4713(5) 0.6623(6) 0.046(2) Uani d 1 . .
H H5 -0.032421 0.464049 0.616701 0.055 Uiso calc 1 A 1
C C7 0.4797(16) 0.4205(4) 0.7676(6) 0.047(2) Uani d 1 . .
H H7 0.568537 0.378584 0.792825 0.057 Uiso calc 1 B 1
C C6 0.321(6) 0.4178(10) 0.6791(17) 0.038(6) Uani d 0.455(18) C 1
C C8 0.318(4) 0.3591(11) 0.6082(13) 0.032(4) Uani d 0.455(18) C 1
C C9 0.237(4) 0.2952(12) 0.6235(14) 0.032(4) Uani d 0.455(18) C 1
C C6' 0.259(5) 0.4101(8) 0.6977(15) 0.040(6) Uani d 0.545(18) C 2
C C8' 0.228(3) 0.3326(9) 0.6600(12) 0.033(4) Uani d 0.545(18) C 2
C C9' 0.284(3) 0.3147(9) 0.5707(12) 0.030(4) Uani d 0.545(18) C 2
H H1 0.881(17) 0.550(4) 0.973(6) 0.06(3) Uiso d 1 . .
loop_
_atom_site_aniso_label
_atom_site_aniso_U_11
_atom_site_aniso_U_22
_atom_site_aniso_U_33
_atom_site_aniso_U_12
_atom_site_aniso_U_13
_atom_site_aniso_U_23
I1 0.0602(4) 0.0418(3) 0.0321(3) -0.0075(3) 0.0067(3) 0.0011(3)
I2 0.0916(5) 0.0355(3) 0.0558(4) -0.0137(3) 0.0181(3) -0.0144(3)
I3 0.0790(5) 0.0431(4) 0.0438(3) -0.0026(3) 0.0223(3) 0.0041(3)
O1 0.050(4) 0.037(4) 0.051(4) 0.002(3) -0.014(3) -0.010(3)
O2 0.050(4) 0.030(3) 0.048(3) 0.003(3) -0.008(3) -0.002(3)
C1 0.038(5) 0.027(5) 0.030(4) -0.005(4) 0.002(4) -0.007(4)
C2 0.033(5) 0.032(5) 0.030(4) -0.002(4) 0.003(4) 0.001(4)
C3 0.045(5) 0.033(5) 0.031(4) -0.003(4) 0.007(4) -0.006(4)
C4 0.041(5) 0.032(5) 0.038(5) 0.008(4) -0.005(4) 0.004(4)
C5 0.031(5) 0.060(5) 0.046(5) 0.003(4) -0.001(4) -0.013(4)
C7 0.043(5) 0.031(5) 0.067(6) 0.009(4) -0.014(4) -0.015(4)
C6 0.012(11) 0.054(9) 0.049(8) -0.007(8) 0.008(8) -0.017(8)
C8 0.034(11) 0.036(7) 0.024(7) 0.000(7) -0.009(7) 0.003(5)
C9 0.039(11) 0.037(8) 0.021(9) 0.002(8) 0.006(9) 0.002(6)
C6' 0.019(11) 0.047(6) 0.054(10) 0.002(6) 0.004(9) -0.023(6)
C8' 0.041(9) 0.031(7) 0.028(7) 0.002(7) -0.002(6) -0.001(5)
C9' 0.033(9) 0.030(7) 0.027(7) -0.010(7) -0.007(6) -0.003(6)
loop_
_atom_type_symbol
_atom_type_description
_atom_type_scat_dispersion_real
_atom_type_scat_dispersion_imag
_atom_type_scat_source
C C 0.0033 0.0016 'International Tables Vol C Tables 4.2.6.8 and 6.1.1.4'
H H 0.0000 0.0000 'International Tables Vol C Tables 4.2.6.8 and 6.1.1.4'
I I -0.4742 1.8119 'International Tables Vol C Tables 4.2.6.8 and 6.1.1.4'
O O 0.0106 0.0060 'International Tables Vol C Tables 4.2.6.8 and 6.1.1.4'
loop_
_geom_angle_atom_site_label_1
_geom_angle_atom_site_label_2
_geom_angle_atom_site_label_3
_geom_angle
C1 O1 H1 103(6)
O2 C1 O1 124.6(7)
O2 C1 C2 121.2(7)
O1 C1 C2 114.1(7)
C3 C2 C7 119.0(7)
C3 C2 C1 122.1(7)
C7 C2 C1 118.9(7)
C2 C3 C4 121.2(7)
C2 C3 H3 119.4
C4 C3 H3 119.4
C5 C4 C3 119.3(7)
C5 C4 H4 120.4
C3 C4 H4 120.4
C4 C5 C6 120.1(9)
C4 C5 C6' 120.7(9)
C4 C5 H5 119.9
C6 C5 H5 119.9
C2 C7 C6' 120.9(8)
C2 C7 C6 120.1(9)
C2 C7 H7 120.0
C6 C7 H7 120.0
C5 C6 C7 116.8(13)
C5 C6 C8 116.1(11)
C7 C6 C8 126.6(12)
C9 C8 C6 126(2)
C9 C8 I1 120.2(17)
C6 C8 I1 114.1(17)
C8 C9 I2 124.6(17)
C8 C9 I3 122.4(17)
I2 C9 I3 112.9(10)
C5 C6' C7 116.6(12)
C5 C6' C8' 128.1(11)
C7 C6' C8' 114.7(10)
C9' C8' C6' 122.4(17)
C9' C8' I3 123.4(14)
C6' C8' I3 114.1(13)
C8' C9' I2 122.7(14)
C8' C9' I1 122.1(13)
I2 C9' I1 114.9(8)
loop_
_geom_bond_atom_site_label_1
_geom_bond_atom_site_label_2
_geom_bond_distance
I1 C8 2.098(19)
I1 C9' 2.137(16)
I2 C9' 2.072(16)
I2 C9 2.14(2)
I3 C8' 2.054(17)
I3 C9 2.14(2)
O1 C1 1.299(8)
O1 H1 0.82(7)
O2 C1 1.229(8)
C1 C2 1.488(9)
C2 C3 1.371(9)
C2 C7 1.379(9)
C3 C4 1.385(9)
C3 H3 0.9500
C4 C5 1.375(10)
C4 H4 0.9500
C5 C6 1.391(15)
C5 C6' 1.398(14)
C5 H5 0.9500
C7 C6' 1.406(14)
C7 C6 1.410(15)
C7 H7 0.9500
C6 C8 1.48(2)
C8 C9 1.28(3)
C6' C8' 1.55(2)
C8' C9' 1.32(3)
loop_
_geom_hbond_atom_site_label_D
_geom_hbond_atom_site_label_H
_geom_hbond_atom_site_label_A
_geom_hbond_site_symmetry_A
_geom_hbond_distance_DH
_geom_hbond_distance_HA
_geom_hbond_distance_DA
_geom_hbond_angle_DHA
O1 H1 O2 3_767 0.82(7) 1.83(8) 2.614(7) 159(9)
loop_
_geom_torsion_atom_site_label_1
_geom_torsion_atom_site_label_2
_geom_torsion_atom_site_label_3
_geom_torsion_atom_site_label_4
_geom_torsion
O2 C1 C2 C3 -179.1(7)
O1 C1 C2 C3 -0.6(10)
O2 C1 C2 C7 -0.4(11)
O1 C1 C2 C7 178.1(7)
C7 C2 C3 C4 0.7(11)
C1 C2 C3 C4 179.4(6)
C2 C3 C4 C5 -0.8(11)
C3 C4 C5 C6 -11(2)
C3 C4 C5 C6' 9.6(18)
C3 C2 C7 C6' -9.3(18)
C1 C2 C7 C6' 172.0(16)
C3 C2 C7 C6 11(2)
C1 C2 C7 C6 -168.0(18)
C4 C5 C6 C7 21(3)
C4 C5 C6 C8 -166.2(17)
C2 C7 C6 C5 -22(3)
C2 C7 C6 C8 167(2)
C5 C6 C8 C9 -109(3)
C7 C6 C8 C9 62(4)
C5 C6 C8 I1 72(3)
C7 C6 C8 I1 -116(3)
C6 C8 C9 I2 179.8(13)
I1 C8 C9 I2 -2(2)
C6 C8 C9 I3 2(3)
I1 C8 C9 I3 179.9(8)
C4 C5 C6' C7 -18(3)
C4 C5 C6' C8' 171.7(18)
C2 C7 C6' C5 17(3)
C2 C7 C6' C8' -170.5(13)
C5 C6' C8' C9' 59(3)
C7 C6' C8' C9' -112(2)
C5 C6' C8' I3 -118(2)
C7 C6' C8' I3 71(2)
C6' C8' C9' I2 -178.6(11)
I3 C8' C9' I2 -2(2)
C6' C8' C9' I1 9(2)
I3 C8' C9' I1 -174.8(7)

_cod_database_fobs_code 1548973
