#------------------------------------------------------------------------------
#$Date: 2018-01-20 08:16:10 +0200 (Sat, 20 Jan 2018) $
#$Revision: 205434 $
#$URL: file:///home/coder/svn-repositories/cod/cif/1/54/87/1548727.cif $
#------------------------------------------------------------------------------
#
# This file is available in the Crystallography Open Database (COD),
# http://www.crystallography.net/. The original data for this entry
# were provided by IUCr Journals, http://journals.iucr.org/.
#
# The file may be used within the scientific community so long as
# proper attribution is given to the journal article from which the
# data were obtained.
#
data_1548727
loop_
_publ_author_name
'Fujii, Takuya'
'Yamakado, Hideo'
_publ_section_title
;
 The 2:1 charge-transfer complex of 4,6-dimethyldibenzothiophene and
 7,7,8,8-tetracyano-2,3,5,6-tetrafluoroquinodimethane
;
_journal_coeditor_code           IS4022
_journal_issue                   1
_journal_name_full               IUCrData
_journal_page_first              x180077
_journal_paper_doi               10.1107/S2414314618000779
_journal_volume                  3
_journal_year                    2018
_chemical_formula_iupac          '2C14 H12 S, C12 F4 N4'
_chemical_formula_moiety         '2(C14 H12 S), C12 F4 N4'
_chemical_formula_sum            'C40 H24 F4 N4 S2'
_chemical_formula_weight         700.77
_chemical_name_common
;
Bis(4,6-dimethyldibenzothiophene)
7,7,8,8-tetracyano-2,3,5,6-tetrafluoroquinodimethane
;
_chemical_name_systematic
;Bis[6,10-dimethyl-8-thiatricyclo[7.4.0.0^2,7^]trideca-1(9),2,4,6,10,12-hexaene]
2-[4-(dicyanomethylidene)-2,3,5,6-tetrafluorocyclohexa-2,5-dien-1-ylidene]propanedinitrile
;
_space_group_crystal_system      triclinic
_space_group_IT_number           2
_space_group_name_Hall           '-P 1'
_space_group_name_H-M_alt        'P -1'
_symmetry_space_group_name_Hall  '-P 1'
_symmetry_space_group_name_H-M   'P -1'
_atom_sites_solution_hydrogens   geom
_atom_sites_solution_primary     direct
_atom_sites_solution_secondary   difmap
_cell_angle_alpha                113.400(2)
_cell_angle_beta                 90.010(3)
_cell_angle_gamma                108.607(3)
_cell_formula_units_Z            1
_cell_length_a                   7.570(2)
_cell_length_b                   10.206(3)
_cell_length_c                   11.549(4)
_cell_measurement_reflns_used    2475
_cell_measurement_temperature    93
_cell_measurement_theta_max      27.48
_cell_measurement_theta_min      3.69
_cell_volume                     767.8(4)
_computing_cell_refinement
;
CrystalClear (Rigaku, 2008)
;
_computing_data_collection
;
CrystalClear (Rigaku, 2008)
;
_computing_data_reduction
;
CrystalClear (Rigaku, 2008)
;
_computing_molecular_graphics
;
ORTEP-3 for Windows (Farrugia, 2012)
;
_computing_publication_material
;
CrystalStructure (Rigaku, 2016) and publCIF (Westrip, 2010)
;
_computing_structure_refinement
;
SHELXL2016 (Sheldrick, 2015)
;
_computing_structure_solution
;
SIR2014 (Burla <i>et al.</i>, 2012)
;
_diffrn_ambient_temperature      93
_diffrn_detector_area_resol_mean 28.445
_diffrn_measured_fraction_theta_full 0.977
_diffrn_measured_fraction_theta_max 0.963
_diffrn_measurement_device_type  'Rigaku Saturn724'
_diffrn_measurement_method       \w
_diffrn_radiation_type           'Mo K\a'
_diffrn_radiation_wavelength     0.71075
_diffrn_reflns_av_R_equivalents  0.0208
_diffrn_reflns_limit_h_max       9
_diffrn_reflns_limit_h_min       -8
_diffrn_reflns_limit_k_max       13
_diffrn_reflns_limit_k_min       -13
_diffrn_reflns_limit_l_max       12
_diffrn_reflns_limit_l_min       -14
_diffrn_reflns_number            6222
_diffrn_reflns_theta_full        25.242
_diffrn_reflns_theta_max         27.245
_diffrn_reflns_theta_min         3.694
_diffrn_standards_number         0
_exptl_absorpt_coefficient_mu    0.237
_exptl_absorpt_correction_T_max  0.995
_exptl_absorpt_correction_T_min  0.854
_exptl_absorpt_correction_type   multi-scan
_exptl_absorpt_process_details
;
(<i>REQAB</i>; Rigaku, 1998)
;
_exptl_crystal_colour            black
_exptl_crystal_density_diffrn    1.516
_exptl_crystal_density_method    'not measured'
_exptl_crystal_description       prism
_exptl_crystal_F_000             360.00
_exptl_crystal_size_max          0.420
_exptl_crystal_size_mid          0.100
_exptl_crystal_size_min          0.020
_refine_diff_density_max         0.40
_refine_diff_density_min         -0.25
_refine_ls_extinction_method     none
_refine_ls_goodness_of_fit_ref   1.034
_refine_ls_hydrogen_treatment    constr
_refine_ls_number_parameters     228
_refine_ls_number_reflns         3311
_refine_ls_number_restraints     0
_refine_ls_R_factor_all          0.0410
_refine_ls_R_factor_gt           0.0345
_refine_ls_shift/su_max          0.000
_refine_ls_structure_factor_coef Fsqd
_refine_ls_weighting_details
'w = 1/[\s^2^(Fo^2^)+(0.0470P)^2^+0.4352P] where P=(Fo^2^+2Fc^2^)/3'
_refine_ls_weighting_scheme      calc
_refine_ls_wR_factor_gt          0.0871
_refine_ls_wR_factor_ref         0.0914
_reflns_number_gt                2887
_reflns_number_total             3311
_reflns_threshold_expression     F^2^>2\s(F^2^)
_cod_data_source_file            is4022sup1.cif
_cod_data_source_block           I
_cod_database_code               1548727
_shelx_hkl_file
;
   0   0   2  775.75    9.11
   0   0   2  780.30    8.66
   0   0   2  785.63    9.48
   0   0   3 2242.86   24.46
   0   0   3 2245.62   24.54
   0   0   3 2268.30   24.58
   0   0  -3 2334.07   25.43
   0   0   4 1359.76   15.30
   0   0   4 1270.45   14.31
   0   0   4 1376.52   15.31
   0   0  -4 1294.79   14.54
   0   0   5 1849.26   12.20
   0   0   5 1787.20   12.18
   0   0  -5 1848.64   13.74
   0   0   6   -0.01    0.60
   0   0   6    1.28    1.44
   0   0  -6   -0.73    2.11
   0   0   7 1788.17   30.87
   0   0   7 1761.21   30.52
   0   0  -7 1818.51   31.67
   0   0   8  398.54    8.61
   0   0   8  404.85    9.34
   0   0  -8  379.60    8.97
   0   0   9  153.27    3.73
   0   0  -9  155.39    4.02
   0   0  10    6.48    2.34
   0   0 -10    5.00    3.54
   0   0 -11   13.13    2.23
   0   0 -12   84.76    3.77
   0   0 -13    7.11    2.99
   0   1 -14  216.08    5.62
   0   1 -13  378.57    7.65
   0   1 -12   92.34    3.86
   0   1 -11  343.80    7.37
   0   1 -10   31.88    5.09
   0  -1  10   32.50    1.83
   0   1  -9    2.58    2.24
   0  -1   9    0.59    0.56
   0  -1   9    0.47    1.27
   0   1  -8   22.11    6.11
   0  -1   8   18.57    0.82
   0  -1   8   17.58    2.04
   0  -1   7  543.65    3.02
   0  -1   7  527.10    4.02
   0   1  -6    4.15    1.99
   0  -1   6    7.32    1.48
   0  -1   6    9.64    1.37
   0   1  -5  344.15    3.69
   0  -1   5  331.04    3.64
   0  -1   5  351.17    3.03
   0  -1   5  343.42    3.02
   0   1  -4 4209.97   45.62
   0  -1   4 4155.78   45.12
   0   1  -3  518.17    6.61
   0   1  -3  530.58    6.17
   0  -1   3  540.14    6.87
   0  -1   3  540.56    5.97
   0   1   2  433.01    5.33
   0   1   2  465.97    6.35
   0  -1  -2  462.44    6.39
   0  -1  -2  461.90    5.86
   0   1   3 2167.80   23.74
   0   1   3 2227.41   24.74
   0  -1  -3 2179.13   23.91
   0  -1  -3 2145.55   23.58
   0   1   4  524.85    5.14
   0  -1  -4  521.26    4.52
   0  -1  -4  508.42    4.49
   0   1   5  136.36    4.87
   0   1   5  138.06    4.97
   0  -1  -5  135.76    4.61
   0   1   6    7.56    1.47
   0   1   6    9.45    2.36
   0  -1  -6    6.81    2.86
   0   1   7  178.49    5.09
   0  -1  -7  188.79    5.26
   0   1   8   30.80    2.94
   0  -1  -8   34.20    3.14
   0   1   9    5.36    1.44
   0  -1  -9    1.92    2.49
   0   1  10  109.75    3.63
   0  -1 -10  114.81    3.73
   0  -1 -11    9.12    2.53
   0  -1 -12    4.17    2.26
   0  -1 -13    8.53    4.75
   0   2 -14  108.15    4.02
   0   2 -13    2.49    0.99
   0   2 -12  172.44    5.73
   0   2 -11  153.70    4.73
   0   2 -10    0.34    2.77
   0  -2  10    1.28    0.84
   0   2  -9    8.39    3.56
   0  -2   9   11.93    1.38
   0  -2   9   14.33    1.54
   0  -2   8    6.22    0.73
   0  -2   8    5.05    0.98
   0   2  -7  268.27    4.06
   0  -2   7  264.82    1.88
   0  -2   7  285.36    2.27
   0   2  -6  187.78    4.13
   0  -2   6  180.74    2.98
   0  -2   6  181.63    3.51
   0   2  -5 3628.97   23.30
   0  -2   5 3536.40   22.78
   0  -2   5 3687.92   22.42
   0   2  -4  469.02    6.15
   0   2  -4  464.06    5.21
   0  -2   4  445.65    5.90
   0  -2   4  449.48    5.21
   0   2  -3  192.82    3.64
   0   2  -3  202.80    3.29
   0  -2   3  189.27    3.65
   0  -2   3  196.86    2.90
   0   2  -2  150.97    3.04
   0   2  -2  145.96    3.26
   0   2  -2  144.85    3.25
   0  -2   2  151.10    2.56
   0   2  -1    0.51    1.40
   0   2  -1    0.55    2.28
   0  -2   1    3.82    1.86
   0  -2   1    1.02    1.75
   0   2   0  263.08    3.97
   0  -2   0  264.28    3.77
   0  -2   0  264.97    4.04
   0   2   1  533.61    6.34
   0   2   1  519.14    7.07
   0  -2  -1  514.60    6.19
   0  -2  -1  542.75    6.80
   0   2   2 2376.45   25.95
   0   2   2 2288.94   25.53
   0  -2  -2 2196.92   24.09
   0  -2  -2 2235.65   24.89
   0   2   3 2377.70   15.31
   0   2   3 2340.49   16.30
   0  -2  -3 2460.74   16.39
   0  -2  -3 2400.76   16.18
   0   2   4   22.72    2.63
   0  -2  -4   26.50    4.28
   0  -2  -4   22.41    1.49
   0   2   5  542.75    5.74
   0  -2  -5  586.97    5.54
   0   2   6  333.98    7.75
   0  -2  -6  341.47    7.31
   0   2   7   31.88    3.89
   0  -2  -7   31.69    2.79
   0   2   8   56.67    3.42
   0  -2  -8   53.66    3.77
   0   2   9  330.68    7.59
   0  -2  -9  333.08    7.29
   0   2  10  142.99    4.28
   0  -2 -10  142.01    4.25
   0  -2 -11  186.95    5.45
   0  -2 -12  383.55    8.23
   0   3 -14   40.48    4.76
   0   3 -13   19.24    2.54
   0   3 -12   31.74    2.63
   0   3 -11  184.18    8.63
   0   3 -10  206.93    4.65
   0   3  -9 1161.31   25.32
   0   3  -8  368.77    7.93
   0  -3   8  362.34    6.25
   0   3  -7  494.96    5.43
   0   3  -7  498.65    2.33
   0  -3   7  499.51    2.61
   0   3  -6 1173.67   18.60
   0   3  -6 1257.61   18.66
   0  -3   6 1217.38   18.20
   0   3  -5  182.65    3.47
   0   3  -5  172.51    2.03
   0  -3   5  174.93    2.15
   0   3  -4  261.69    4.39
   0   3  -4  273.84    4.02
   0  -3   4  265.87    4.20
   0  -3   4  278.25    3.89
   0   3  -3  208.32    3.54
   0   3  -3  201.72    3.98
   0   3  -3  199.64    3.43
   0  -3   3  199.40    3.52
   0   3   0  986.28   11.33
   0   3   0  990.28   12.13
   0  -3   0 1001.65   11.69
   0  -3   0 1005.79   11.92
   0   3   1  947.30   10.92
   0   3   1  965.62   11.93
   0  -3  -1  944.83   11.09
   0  -3  -1  936.25   11.28
   0   3   2   67.94    3.69
   0  -3  -2   73.19    4.72
   0   3   3 1430.65   22.44
   0  -3  -3 1429.84   21.92
   0   3   4  203.74    5.55
   0  -3  -4  194.59    3.72
   0   3   5  523.98   10.94
   0  -3  -5  498.96    9.79
   0   3   6  367.06    9.64
   0  -3  -6  344.51    8.24
   0   3   7   34.31    3.90
   0  -3  -7   32.55    3.25
   0   3   8    8.22    3.13
   0  -3  -8   14.75    3.16
   0   3   9   82.28    5.28
   0  -3  -9   82.13    3.50
   0   3  10   44.59    3.38
   0  -3 -10   40.35    5.88
   0  -3 -11   -0.20    1.29
   0   4 -14   39.87    5.49
   0   4 -13  166.60    8.07
   0   4 -12   26.94    9.73
   0   4 -11    4.02    2.39
   0   4 -10    2.94    1.40
   0   4  -9   55.75    3.95
   0   4  -8   66.63    3.62
   0  -4   8   63.25    0.93
   0   4  -7    4.68    3.08
   0   4  -7    4.41    1.11
   0  -4   7    2.64    0.96
   0   4  -6  771.61   12.92
   0   4  -6  757.76   11.62
   0  -4   6  761.30   11.77
   0   4  -5   36.55    3.49
   0   4  -5   34.48    2.12
   0  -4   5   30.80    1.62
   0   4  -4  102.87    2.65
   0   4  -4   97.33    2.80
   0  -4   4   92.62    1.92
   0   4  -3   38.12    2.21
   0   4  -3   30.32    2.77
   0   4  -3   42.32    2.90
   0  -4   3   39.34    1.77
   0  -4   2 1343.67   10.01
   0   4  -1    2.88    1.73
   0   4  -1    0.83    2.45
   0  -4   1    4.46    2.70
   0  -4   1    3.22    1.80
   0   4   0  316.31    4.91
   0  -4   0  331.29    4.30
   0   4   1    7.36    3.02
   0  -4  -1    9.65    2.34
   0   4   2  176.91    6.16
   0  -4  -2  182.39    4.44
   0   4   3   15.44    3.47
   0  -4  -3   10.63    2.78
   0   4   4   11.35    5.27
   0  -4  -4    4.09    2.63
   0   4   5  174.96    7.56
   0  -4  -5  183.68    5.52
   0   4   6  110.69    5.61
   0  -4  -6   98.31    3.70
   0   4   7   99.26    5.90
   0  -4  -7   84.70    3.61
   0   4   8    2.93    4.07
   0  -4  -8    0.38    1.74
   0   4   9    7.23    3.30
   0  -4  -9   10.38    4.31
   0   4  10   46.57    3.63
   0  -4 -10   49.17    3.70
   0   5 -15   34.13    3.74
   0   5 -14   24.23    9.28
   0   5 -13  395.73   15.60
   0   5 -12  147.86    6.50
   0   5 -11   56.24    3.78
   0   5 -10   10.74    2.93
   0   5  -9  203.18    6.00
   0  -5   9  202.25    4.40
   0   5  -8  100.15    7.44
   0   5  -8  104.88    1.32
   0  -5   8   98.01    1.74
   0   5  -7  919.56   17.71
   0   5  -7  885.32   15.48
   0  -5   7  857.22   15.04
   0   5  -6 1176.86    9.26
   0   5  -6 1187.69    7.09
   0  -5   6 1130.02    6.50
   0   5  -5    3.16    3.09
   0   5  -5    1.01    1.83
   0  -5   5    2.16    1.24
   0   5  -4  159.56    5.15
   0   5  -4  156.46    6.02
   0  -5   4  148.50    4.84
   0   5  -3  148.76    5.85
   0  -5   3  167.24    5.55
   0   5  -2  338.38    7.22
   0  -5   2  330.19    6.53
   0   5  -1    3.35    3.05
   0  -5   1   -2.41    2.58
   0   5   0  202.27    6.45
   0  -5   0  181.00    5.01
   0   5   1 1502.25   12.27
   0  -5  -1 1417.68    9.65
   0   5   2   25.06    7.99
   0  -5  -2   18.44    3.39
   0   5   3   78.99    5.94
   0  -5  -3   77.73    4.58
   0   5   4  516.03   13.63
   0  -5  -4  487.63   11.56
   0   5   5  135.57    6.10
   0  -5  -5  129.45    9.28
   0   5   6   99.83    5.55
   0  -5  -6   92.13    3.05
   0   5   7  219.39    9.63
   0  -5  -7  199.99    9.52
   0   5   8   76.34    4.78
   0  -5  -8   58.55    2.97
   0   5   9   55.14    4.57
   0  -5  -9   49.10    2.89
   0   6 -14   15.87    6.51
   0   6 -13   19.98    4.05
   0   6 -12  145.93    6.78
   0   6 -11  243.43    6.55
   0   6 -10  348.07    6.03
   0   6  -9   21.89    4.30
   0   6  -9   23.03    2.84
   0  -6   9   22.24    1.07
   0   6  -8  411.01   10.72
   0   6  -8  377.82    8.52
   0  -6   8  381.37    8.55
   0   6  -7   11.17    5.11
   0   6  -7    7.41    2.34
   0  -6   7    5.94    1.33
   0   6  -6  306.94    8.55
   0   6  -6  294.48    6.51
   0  -6   6  289.13    6.02
   0   6  -5  164.08    6.36
   0   6  -5  159.73    5.12
   0   6  -310496.74   44.21
   0  -6   310554.31   21.48
   0   6  -2   49.68    5.10
   0  -6   2   48.59   13.19
   0   6  -1   -1.15    4.30
   0  -6   1    0.83    3.72
   0   6   0  125.06    7.52
   0  -6   0  119.26    4.45
   0   6   1  444.65   13.12
   0  -6  -1  404.49    9.63
   0   6   2  282.41    9.28
   0  -6  -2  298.48    7.98
   0   6   3   19.83    4.99
   0  -6  -3    9.20    2.83
   0   6   4   50.40    5.06
   0  -6  -4   42.60    3.88
   0   6   5    3.90    4.36
   0  -6  -5    1.16    2.49
   0   6   6  100.45    5.72
   0  -6  -6  111.29   11.37
   0   6   7  175.86    8.96
   0  -6  -7  168.67    7.93
   0   6   8    8.99    4.90
   0  -6  -8    2.19    2.19
   0   7 -14    4.13    2.85
   0   7 -13   15.34    5.92
   0   7 -12   22.51    4.46
   0   7 -11    5.21    3.21
   0   7 -10    3.92    2.50
   0   7  -9   33.22    4.93
   0   7  -9   33.35    1.84
   0   7  -8   -0.73    3.82
   0   7  -8    2.89    2.62
   0   7  -7   39.13    5.13
   0   7  -7   40.68    3.45
   0   7  -6  155.86    6.67
   0   7  -6  153.47    5.86
   0   7  -5   13.33    4.27
   0   7  -5    7.76    3.48
   0   7  -4  416.53   11.03
   0  -7   4  326.84    9.67
   0   7  -3  102.07    5.59
   0  -7   3  108.39   15.55
   0   7  -2   30.09    3.41
   0  -7   2   28.61    8.99
   0   7  -1  369.53   10.52
   0  -7   1  361.85    9.68
   0   7   0   79.35    5.37
   0  -7   0   82.49    5.39
   0   7   1   -3.98    4.82
   0  -7  -1   -1.56    3.12
   0   7   2   31.76    3.97
   0  -7  -2   35.97    9.88
   0   7   3   66.19    5.48
   0  -7  -3   73.44    8.20
   0   7   4   93.53    6.73
   0  -7  -4   87.72    3.98
   0   7   5  122.33    7.09
   0  -7  -5  142.56    4.92
   0   7   6    9.39    3.60
   0  -7  -6   17.42    4.27
   0  -7  -7   15.60    2.45
   0   8 -14  341.55    8.26
   0   8 -13  195.42    6.30
   0   8 -12  107.60    6.31
   0   8 -11   93.95    5.31
   0   8 -10   54.27    4.76
   0   8  -9  128.20    5.59
   0   8  -9  111.97    3.67
   0   8  -8  479.19    8.89
   0   8  -8  487.11    6.62
   0   8  -7   78.29    5.96
   0   8  -7   80.85    5.10
   0   8  -6   48.32    5.82
   0   8  -6   34.03    3.83
   0   8  -5  345.75    7.46
   0   8  -5  322.64    6.36
   0   8  -4  435.77    8.12
   0  -8   4  454.22   11.03
   0   8  -3   74.00    5.73
   0  -8   3   67.09    5.05
   0   8  -2   24.87    5.22
   0  -8   2   34.62    9.80
   0   8  -1  246.04    7.41
   0  -8   1  251.78    8.30
   0   8   0   35.53    6.36
   0  -8   0   36.23    3.79
   0   8   1    1.89    4.84
   0  -8  -1    6.07    2.91
   0   8   2  116.14    6.84
   0  -8  -2  123.33   11.46
   0   8   3  166.85    8.26
   0  -8  -3  162.73    6.36
   0   8   4   71.23    7.34
   0  -8  -4   68.22    5.08
   0   8   5  138.03    6.68
   0  -8  -5  127.88    5.45
   0   8   6    5.47    3.75
   0  -8  -6   14.18    4.76
   0   9 -14   26.92    3.80
   0   9 -13   30.83    4.28
   0   9 -12   40.81    5.21
   0   9 -11   -0.85    3.99
   0   9 -10  139.89    6.49
   0   9  -9   29.99    4.49
   0   9  -9   29.49    3.84
   0   9  -8   78.35    4.05
   0   9  -8   90.92    4.58
   0   9  -7   27.69    5.06
   0   9  -7   32.25    3.54
   0   9  -6   64.94    5.56
   0   9  -6   69.80    4.19
   0   9  -5 2039.74   36.44
   0   9  -5 2097.29   37.64
   0   9  -4  258.49    9.53
   0  -9   4  264.47    7.99
   0   9  -3  102.47    6.47
   0  -9   3  102.04   17.65
   0   9  -2   18.98    5.18
   0  -9   2   20.15    5.73
   0   9  -1   26.99    6.08
   0  -9   1   30.36    9.44
   0   9   0  229.00   10.40
   0  -9   0  230.13   10.38
   0   9   1   18.94    5.52
   0  -9  -1    6.63    3.62
   0   9   2    4.22    4.11
   0  -9  -2    5.64    3.64
   0   9   3   22.27    5.92
   0  -9  -3   32.13    4.58
   0   9   4  157.79    8.93
   0  -9  -4  150.52    6.42
   0  10 -13   24.11    4.08
   0  10 -12    8.85    3.20
   0  10 -11   16.91    3.93
   0  10 -10   82.50    5.83
   0  10  -9  139.36    4.77
   0  10  -9  152.08    5.30
   0  10  -8  122.36    5.52
   0  10  -8  119.83    4.43
   0  10  -7   24.71    4.52
   0  10  -7   22.46    4.26
   0  10  -6  111.73    3.96
   0  10  -6  115.16    5.38
   0  10  -5  140.38    8.01
   0  10  -5  142.18    7.36
   0  10  -4   17.40    4.17
   0  10  -3  128.69    5.91
   0 -10   3  122.15    6.99
   0  10  -2  363.34   12.19
   0 -10   2  393.21   11.87
   0  10  -1   38.05    5.30
   0 -10   1   41.39   13.98
   0  10   0   34.92    7.69
   0 -10   0   31.02    5.99
   0  10   1   43.07    6.33
   0 -10  -1   47.42    5.22
   0  10   2   44.75    6.53
   0 -10  -2   35.36    5.89
   0  10   3  134.89    8.11
   0 -10  -3  131.56    7.01
   0  11 -11    7.60    3.47
   0  11 -10   69.31    4.86
   0  11  -9   49.81    4.79
   0  11  -9   54.60    3.09
   0  11  -8   18.94    3.88
   0  11  -8   14.27    3.81
   0  11  -7   94.37    5.62
   0  11  -7   95.82    4.57
   0  11  -6  304.94   12.69
   0  11  -6  323.40   13.52
   0  11  -5   91.11    5.15
   0  11  -5   95.60    5.87
   0  11  -4   20.07    6.08
   0  11  -3   24.07    5.62
   0 -11   3   16.39    7.33
   0  11  -2   11.96    6.71
   0 -11   2   -2.89    3.63
   0  11  -1   11.89    4.27
   0 -11   1    7.85    3.54
   0  11   0   10.87    5.71
   0 -11   0    0.94    1.42
   0  11   1   33.81    6.37
   0 -11  -1   30.29    4.60
   0  12 -10    8.79    4.79
   0  12  -9    8.21    5.46
   0  12  -8   10.34    4.19
   0  12  -8   13.64    3.48
   0  12  -7  164.75    7.32
   0  12  -7  171.58    6.69
   0  12  -6  156.72    7.23
   0  12  -6  144.10    7.93
   0  12  -5   37.89    5.11
   0  12  -5   29.52    4.07
   0  12  -4   21.07    4.51
   0 -12   4   22.18    7.80
   0  12  -3    2.37    3.94
   0 -12   3    1.27    2.09
   1 -12   1    3.73    1.66
  -1  12  -1   10.67    5.20
   1 -12   2   70.53    7.69
  -1  12  -2   64.45    4.82
   1 -12   3   66.57    4.34
  -1  12  -3   85.45    5.41
   1 -12   4    7.79    2.98
  -1  12  -4   10.16    4.10
  -1  12  -5    6.08    6.82
  -1  12  -6    5.17    3.99
  -1  12  -6    0.96    3.60
  -1  12  -7    8.33    3.55
  -1  12  -7   10.88    4.09
  -1  12  -8    9.23    3.48
  -1  12  -8    7.32    3.03
  -1  12  -9    3.08    3.52
  -1  12 -10   91.61    5.33
   1 -11  -1   24.40    4.10
  -1  11   1   38.94    6.07
   1 -11   0   -0.38    3.40
  -1  11   0    2.56    4.32
   1 -11   1   77.51    7.98
  -1  11  -1   75.84    6.84
   1 -11   2  137.19   13.77
  -1  11  -2  145.07    8.88
   1 -11   3   26.52   10.40
  -1  11  -3   35.94    6.96
   1 -11   4    3.07    1.92
  -1  11  -4    6.19    4.17
   1 -11   5   10.48    4.85
  -1  11  -5   10.27    3.56
  -1  11  -6   -0.74    3.90
  -1  11  -6    0.90    3.50
  -1  11  -7   54.94    4.41
  -1  11  -7   56.53    5.13
  -1  11  -8   11.84    4.42
  -1  11  -8   21.84    4.16
  -1  11  -9   63.71    6.22
  -1  11  -9   50.37    3.24
  -1  11 -10  287.53    7.80
  -1  11 -11   81.84    5.20
  -1  11 -12  128.99    5.75
   1 -10  -3   77.36    4.53
  -1  10   3   82.89    6.61
   1 -10  -2  318.26    9.40
  -1  10   2  336.59    9.94
   1 -10  -1  102.08    5.55
  -1  10   1  103.27    7.18
   1 -10   0  141.73    5.77
  -1  10   0  152.33    8.04
   1 -10   1   69.77    4.65
  -1  10  -1   51.74    6.53
   1 -10   2   32.73    8.85
  -1  10  -2   32.11    5.19
   1 -10   3  118.77    5.14
  -1  10  -3  123.30    6.00
   1 -10   4   31.86    8.89
  -1  10  -4   34.76    5.02
   1 -10   5  326.08    9.21
  -1  10  -5  302.11    8.22
  -1  10  -6   83.34    6.28
  -1  10  -6   80.71    4.39
  -1  10  -7   45.11    5.17
  -1  10  -7   47.68    5.00
  -1  10  -8   48.25    5.24
  -1  10  -8   50.07    3.45
  -1  10  -9    2.80    3.86
  -1  10  -9    5.10    3.08
  -1  10 -10   59.33    5.33
  -1  10 -11   44.01    4.58
  -1  10 -12  314.07    9.17
  -1  10 -13    1.09    2.96
   1  -9  -5    3.66    1.94
  -1   9   5    7.15    4.48
   1  -9  -4  151.52    5.63
  -1   9   4  159.53    8.00
   1  -9  -3    8.07    4.22
  -1   9   3    7.54    4.46
   1  -9  -2  289.13   10.80
  -1   9   2  313.96   10.04
   1  -9  -1   70.84    5.76
  -1   9   1   74.38    5.88
   1  -9   0    4.58    3.07
  -1   9   0    2.42    4.54
   1  -9   1  236.73    8.11
  -1   9  -1  267.79    8.52
   1  -9   2   21.69    4.91
  -1   9  -2   24.23    3.90
   1  -9   3   24.68    8.77
  -1   9  -3   27.02    5.81
   1  -9   4   21.33    6.66
  -1   9  -4   17.72    4.97
  -1   9  -5   47.22    3.72
  -1   9  -6   13.48    3.94
  -1   9  -6   14.27    2.86
  -1   9  -7   76.91    5.20
  -1   9  -7   76.48    3.82
  -1   9  -8  116.83    5.16
  -1   9  -8  102.78    3.67
  -1   9  -9    3.15    2.79
  -1   9 -10   26.84    4.48
  -1   9 -12  188.43    7.16
  -1   9 -13  350.28    9.66
  -1   9 -14  306.28    7.70
   1  -8  -6   19.68    4.39
  -1   8   6   24.47    3.67
   1  -8  -5   89.74    6.23
  -1   8   5   86.56    6.12
   1  -8  -4  446.43   12.30
  -1   8   4  480.19   14.52
   1  -8  -3   76.54    4.63
  -1   8   3   86.56    6.87
   1  -8  -2   96.58   13.87
  -1   8   2  103.95    6.88
   1  -8  -1  124.22    5.33
  -1   8   1  125.41    6.83
   1  -8   0  855.85   12.09
  -1   8   0  778.43   12.67
   1  -8   1  240.04    8.52
  -1   8  -1  239.85    7.27
   1  -8   2    4.17    2.03
  -1   8  -2    0.97    3.82
   1  -8   3   79.38    4.83
  -1   8  -3   75.43    5.83
   1  -8   4   57.80   14.82
  -1   8  -4   66.48    5.78
  -1   8  -5   65.80    5.49
  -1   8  -5   60.27    4.40
  -1   8  -6   -2.38    3.35
  -1   8  -6    1.44    2.82
  -1   8  -7   85.21    3.67
  -1   8  -7   91.08    4.64
  -1   8  -8  940.91   10.30
  -1   8  -8  984.73    9.42
  -1   8  -9  252.25    7.21
  -1   8  -9  247.82    5.39
  -1   8 -10  255.37    6.59
  -1   8 -11  289.81   11.18
  -1   8 -12  187.45    8.63
  -1   8 -14   19.95    2.38
   1  -7  -8    0.97    1.55
  -1   7   8    4.14    3.61
   1  -7  -7   45.55    3.99
  -1   7   7   57.15    5.40
   1  -7  -6  420.81   17.06
  -1   7   6  437.93   17.95
   1  -7  -5   77.45    4.88
  -1   7   5   75.49    5.98
   1  -7  -4  494.10   10.62
  -1   7   4  474.74   11.18
   1  -7  -3  355.51    8.77
  -1   7   3  341.13    7.18
   1  -7  -2  117.47    5.35
  -1   7   2  118.32    6.20
   1  -7  -1  123.10   14.22
  -1   7   1   99.94    7.28
   1  -7   0   42.22    4.14
  -1   7   0   40.35    4.03
   1  -7   1  128.95    6.27
  -1   7  -1  126.19    6.21
   1  -7   2   68.21    6.24
  -1   7  -2   57.80    4.67
   1  -7   3  141.44   11.24
  -1   7  -3  143.25    6.22
   1  -7   4  148.84    6.37
  -1   7  -4  140.23    5.05
  -1   7  -5   27.38    4.16
  -1   7  -5   23.09    3.82
  -1   7  -6   56.59    4.32
  -1   7  -6   64.28    4.16
   1  -7   7   96.68    3.17
  -1   7  -7  110.20    5.33
  -1   7  -7   98.04    3.81
  -1   7  -8    1.57    3.12
  -1   7  -8    0.35    0.25
  -1   7  -8    0.69    1.31
  -1   7  -9    9.60    3.27
  -1   7  -9   14.06    1.24
  -1   7 -10  201.44    6.13
  -1   7 -11  135.97    4.88
  -1   7 -12  161.76    6.00
  -1   7 -13    7.45    4.52
  -1   7 -14   13.52    6.54
   1  -6  -9   20.24    3.62
  -1   6   9   36.67    5.85
   1  -6  -8  121.40    4.63
  -1   6   8  130.63    5.74
   1  -6  -7   -1.13    3.59
  -1   6   7    6.95    5.28
   1  -6  -6  500.45   19.64
  -1   6   6  476.39   17.92
   1  -6  -5  180.11    8.73
  -1   6   5  187.90    7.54
   1  -6  -4   -0.61    3.35
  -1   6   4    4.54    3.23
   1  -6  -3  196.35    6.49
  -1   6   3  186.60    7.82
   1  -6  -2   19.23    4.70
  -1   6   2   13.91    4.68
   1  -6  -1  163.48    6.08
  -1   6   1  162.33    7.06
   1  -6   0    9.69    3.54
  -1   6   0    2.53    3.85
   1  -6   1  328.01    6.05
  -1   6  -1  309.54    5.73
   1  -6   2   66.49    4.72
  -1   6  -2   67.55    4.33
   1  -6   3  553.92    6.95
  -1   6  -3  531.33    6.79
   1  -6   4  106.84    5.34
  -1   6  -4  105.65    4.77
   1  -6   5  333.70    5.18
  -1   6  -5  347.59    5.70
  -1   6  -5  358.24    4.41
   1  -6   6    2.17    0.79
  -1   6  -6    4.36    3.24
  -1   6  -6    3.57    1.51
  -1   6  -7    4.43    3.12
  -1   6  -7   -0.33    0.42
  -1   6  -7    0.32    1.11
  -1   6  -8  241.81    7.10
  -1   6  -8  238.03    5.22
  -1   6  -8  240.94    5.46
  -1   6  -9    2.69    2.93
  -1   6 -10  308.25    5.69
  -1   6 -11  652.24   14.74
  -1   6 -12  689.99    8.05
  -1   6 -13  357.46   15.58
  -1   6 -14    3.86    1.92
   1  -5 -10   56.19    4.22
  -1   5  10   67.45    4.82
   1  -5  -9  123.91    4.88
  -1   5   9  135.22    6.02
   1  -5  -8  196.21    6.31
  -1   5   8  208.40    7.81
   1  -5  -7   46.13    3.77
  -1   5   7   43.58    4.63
   1  -5  -6  410.99    9.08
  -1   5   6  372.78    9.61
   1  -5  -5   87.70    3.44
  -1   5   5   81.58    5.29
   1  -5  -4  137.68   10.02
  -1   5   4  132.83    6.16
   1  -5  -3  338.86    7.89
  -1   5   3  327.92    8.75
   1  -5  -2 1097.35    8.82
  -1   5   2 1023.53    9.77
   1  -5  -1 2343.91   12.92
  -1   5   1 2219.60   13.75
   1  -5   0   18.44    3.18
  -1   5   0   10.73    2.89
   1  -5   1   83.70    4.05
  -1   5  -1   87.00    4.18
   1  -5   2  120.61    4.84
   1  -5   2  114.12    3.80
  -1   5  -2  111.61    4.44
   1  -5   3   59.92    3.72
   1  -5   3   51.41    2.15
  -1   5  -3   53.86    3.25
   1  -5   4   57.46    2.41
  -1   5  -4   55.91    3.57
  -1   5  -4   58.13    2.72
   1  -5   5   40.12    1.61
  -1   5  -5   47.37    3.67
  -1   5  -5   46.06    2.43
  -1   5  -6 1709.52   10.84
  -1   5  -6 1670.61    8.04
  -1   5  -7  710.48   13.56
  -1   5  -7  672.81   11.51
  -1   5  -7  695.43   11.99
  -1   5  -8  384.24    9.60
  -1   5  -9  266.23    7.33
  -1   5 -10   99.25    4.33
  -1   5 -11    1.54    1.76
  -1   5 -12    8.02    4.67
  -1   5 -13  229.74    9.91
  -1   5 -14   28.68    9.24
   1  -4 -11    4.03    2.38
  -1   4  11    7.35    2.61
   1  -4 -10    2.42    2.66
  -1   4  10    4.63    4.47
   1  -4  -9    1.93    2.80
  -1   4   9    7.82    3.96
   1  -4  -8  526.31   10.36
  -1   4   8  545.53   11.29
   1  -4  -7  132.67    3.61
  -1   4   7  138.84    5.74
   1  -4  -6  218.48    4.94
  -1   4   6  214.06    6.53
   1  -4  -5  735.52   16.40
  -1   4   5  718.22   17.07
   1  -4  -4   46.94    3.74
  -1   4   4   46.00    4.31
   1  -4  -3  293.58    8.00
  -1   4   3  300.95    5.95
   1  -4  -2  140.50    4.93
  -1   4   2  194.73    5.57
   1  -4  -1   64.28    2.08
  -1   4   1   71.86    3.56
   1  -4   0  227.92    3.41
   1  -4   0  208.99    3.20
  -1   4   0  220.90    2.92
  -1   4   0  223.51    4.19
   1  -4   1   19.24    1.70
   1  -4   1   19.89    1.74
  -1   4  -1   21.64    1.72
  -1   4  -1   22.29    2.50
   1  -4   2   83.84    2.88
   1  -4   2   82.42    2.06
  -1   4  -2   80.30    2.52
  -1   4  -2   82.12    3.00
   1  -4   3   22.80    2.36
   1  -4   3   21.84    1.13
  -1   4  -3   23.42    1.95
  -1   4  -3   24.08    2.14
   1  -4   4   71.78    1.41
  -1   4  -4   70.76    2.66
  -1   4  -4   68.35    1.93
  -1   4  -4   69.96    2.00
  -1   4  -5  497.99    8.56
  -1   4  -5  495.62    7.58
  -1   4  -5  470.87    7.46
  -1   4  -6  191.43    4.80
  -1   4  -6  207.69    3.22
  -1   4  -7    9.91    4.21
  -1   4  -8   19.87    3.85
  -1   4  -9  177.48    6.33
  -1   4 -10  105.56    3.87
  -1   4 -11  150.31    5.10
  -1   4 -12    5.33    1.92
  -1   4 -13   63.62    4.45
  -1   4 -14  107.45    4.77
   1  -3 -11   13.27    7.02
  -1   3  11   13.79    2.96
   1  -3 -10    4.40    3.07
  -1   3  10    1.82    2.76
   1  -3  -9    6.66    2.20
  -1   3   9    5.63    2.67
   1  -3  -8  764.51   14.54
  -1   3   8  724.91   13.99
   1  -3  -7  558.36    7.77
  -1   3   7  564.23    8.74
   1  -3  -6  419.35   10.00
  -1   3   6  409.89   10.22
   1  -3  -5   15.07    3.48
  -1   3   5   15.00    3.14
   1  -3  -4    0.85    2.11
  -1   3   4    0.49    2.62
   1  -3  -3   49.39    2.38
  -1   3   3   48.56    2.92
   1  -3  -2   43.40    2.27
  -1   3   2   45.33    2.96
  -1   3   2   42.31    3.84
  -1   3   2   43.72    2.09
   1  -3  -1  811.70    9.57
  -1   3   1  839.86    9.73
  -1   3   1  827.95   10.21
  -1   3   1  816.01    9.99
   1  -3   0  250.86    3.99
  -1   3   0  240.56    5.76
  -1   3   0  239.10    3.49
  -1   3   0  242.87    4.28
   1  -3   1  443.64    5.78
  -1   3  -1  442.74    5.57
  -1   3  -1  431.89    6.62
  -1   3  -1  446.46    5.89
   1  -3   2  247.89    4.08
  -1   3  -2  229.50    3.80
  -1   3  -2  224.11    3.03
  -1   3  -2  232.23    3.63
  -1   3  -3  594.43    8.70
  -1   3  -3  601.86    7.72
  -1   3  -3  617.80    6.99
  -1   3  -3  605.06    7.23
   1  -3   4  279.11    4.29
  -1   3  -4  269.28    4.15
  -1   3  -4  281.26    3.24
  -1   3  -4  265.04    3.46
   1  -3   5   32.30    1.84
  -1   3  -5   31.20    2.31
  -1   3  -6  774.14   12.47
  -1   3  -7   94.88    6.97
  -1   3  -8  255.16    6.28
  -1   3  -9  787.68   17.59
  -1   3 -10  627.35    6.88
  -1   3 -11  943.90   16.95
  -1   3 -12  211.02    6.10
  -1   3 -13    3.15    2.20
  -1   3 -14   40.68    3.61
   1  -2 -12  105.72    5.70
   1  -2 -11   86.55    5.34
  -1   2  11   86.83    4.12
   1  -2 -10  331.15   12.47
  -1   2  10  315.35   11.70
   1  -2  -9  102.20    3.64
  -1   2   9   87.42    3.17
   1  -2  -8  196.42    4.85
  -1   2   8  195.84    4.63
   1  -2  -7  165.52    6.84
  -1   2   7  153.86    5.37
   1  -2  -6   46.93    4.96
  -1   2   6   43.99    2.69
   1  -2  -5  394.18    4.65
  -1   2   5  403.65    4.77
   1  -2  -4  664.27   10.77
  -1   2   4  650.52   10.38
  -1   2   4  657.90   10.84
   1  -2  -3 3769.68   23.94
  -1   2   3 3637.93   22.81
  -1   2   3 3598.42   22.77
  -1   2   3 3581.74   23.10
   1  -2  -2 1030.42   11.74
  -1   2   2 1002.98   11.36
  -1   2   2 1068.27   12.31
  -1   2   2 1005.62   11.73
   1  -2  -1   11.47    1.89
  -1   2   1    9.10    2.23
  -1   2   1    9.63    3.40
  -1   2   1   13.73    2.30
   1  -2   0   14.53    2.93
   1  -2   0   11.92    1.30
  -1   2   0   12.97    1.10
  -1   2   0   13.14    3.20
   1  -2   1  390.91    5.01
   1  -2   1  407.06    5.01
  -1   2  -1  405.80    5.01
  -1   2  -1  403.63    4.84
   1  -2   2    1.65    0.62
  -1   2  -2    0.65    0.41
  -1   2  -2    1.46    2.10
  -1   2  -2    3.91    1.17
   1  -2   3   17.69    2.01
   1  -2   3   20.50    2.34
  -1   2  -3   11.01    1.95
  -1   2  -3   21.29    1.36
   1  -2   4 1204.21   13.70
  -1   2  -4 1301.98   14.76
   1  -2   5  899.29    7.03
  -1   2  -5  912.18    7.15
  -1   2  -6  343.16    7.90
   1  -2   7  177.08    3.11
  -1   2  -7  174.83    4.58
   1  -2   8   48.76    0.65
  -1   2  -8   51.45    2.99
   1  -2   9    0.65    0.25
   1  -2   9    0.30    0.48
  -1   2  -9    3.73    2.58
  -1   2 -10   71.72    6.79
  -1   2 -11    7.08    3.29
  -1   2 -12   33.13    4.22
  -1   2 -13   11.10    5.68
  -1   2 -14   14.69    5.80
   1  -1 -13    3.39    1.96
   1  -1 -12    6.77    3.69
   1  -1 -11   53.76   13.21
  -1   1  11   52.57    3.32
   1  -1 -10  200.47    4.72
  -1   1  10  200.15    4.97
   1  -1  -9  204.53    4.64
  -1   1   9  204.37    3.75
   1  -1  -8    4.22    2.71
  -1   1   8   11.75    2.73
   1  -1  -7  320.57    6.95
  -1   1   7  317.71    6.61
   1  -1  -6   32.23    8.92
  -1   1   6   23.44    1.35
  -1   1   6   24.46    1.86
   1  -1  -5  247.33    4.92
  -1   1   5  242.72    4.40
  -1   1   5  248.20    4.88
   1  -1  -4   22.76    1.34
  -1   1   4   24.67    4.15
  -1   1   4   30.74    1.09
  -1   1   4   28.35    2.03
   1  -1  -3 1059.23   12.01
   1  -1  -3 1091.56   12.60
  -1   1   3 1091.81   12.30
   1  -1  -2   15.97    2.44
   1  -1  -2   15.75    3.38
  -1   1   2   12.66    3.19
  -1   1   2   11.23    3.01
   1  -1  -1    0.63    2.27
   1  -1  -1   -0.17    2.14
  -1   1   1    2.31    1.33
  -1   1   1    1.81    1.97
   1  -1   2  132.31    1.99
   1  -1   2  136.20    2.44
  -1   1  -2  134.68    2.42
  -1   1  -2  128.98    2.13
   1  -1   3  995.23   11.20
   1  -1   3  964.06   10.89
  -1   1  -3 1014.72   11.42
  -1   1  -3  980.62   10.89
   1  -1   4  722.09    8.45
   1  -1   4  757.56    8.63
  -1   1  -4  743.26    8.71
  -1   1  -4  757.72    8.53
   1  -1   5    5.80    1.17
   1  -1   5    3.96    1.07
  -1   1  -5    6.61    1.67
  -1   1  -5    4.98    1.29
   1  -1   6    2.67    0.87
   1  -1   6    3.48    1.53
  -1   1  -6    4.75    1.63
   1  -1   7   -0.58    0.52
   1  -1   7   -1.12    1.24
  -1   1  -7    1.14    1.66
   1  -1   8  103.11    1.57
   1  -1   8  106.43    2.47
  -1   1  -8  112.87    9.12
   1  -1   9  386.20    4.10
   1  -1   9  390.54    4.97
  -1   1  -9  392.04    8.13
   1  -1  10   72.56    1.96
  -1   1 -10   71.54    9.46
  -1   1 -11    8.36    2.77
  -1   1 -12  156.10    6.96
  -1   1 -13    6.56    2.62
   1   0 -13    6.94    2.90
   1   0 -12   35.28    4.10
   1   0 -11    3.70    2.68
  -1   0  11   -1.41    1.26
   1   0 -10  608.74   11.83
  -1   0  10  639.29   12.10
   1   0  -9  690.93    8.81
  -1   0   9  730.94    8.51
   1   0  -8  564.03   12.72
  -1   0   8  573.91   12.69
   1   0  -7  272.07    6.42
  -1   0   7  259.00    4.92
  -1   0   7  272.51    5.55
   1   0  -6   -2.43    2.27
  -1   0   6   -0.16    0.68
  -1   0   6   -0.92    1.28
   1   0  -5  452.40    4.69
   1   0  -5  414.46    5.58
  -1   0   5  419.46    3.63
   1   0  -4  460.12    6.01
  -1   0   4  481.02    6.06
  -1   0   4  474.04    5.59
   1   0  -3  616.25    7.32
   1   0  -3  618.94    7.22
  -1   0   3  600.62    7.16
  -1   0   3  589.26    7.27
   1   0  -2  466.26    5.74
   1   0  -2  478.81    5.65
  -1   0   2  493.67    5.87
  -1   0   2  513.85    5.96
   1   0   1  245.38    3.33
   1   0   1  260.20    5.58
  -1   0  -1  244.78    3.39
  -1   0  -1  245.91    4.43
   1   0   2  455.34    5.34
   1   0   2  449.44    5.96
  -1   0  -2  448.29    5.43
  -1   0  -2  463.91    5.99
   1   0   3  703.63    8.08
   1   0   3  684.47    8.46
  -1   0  -3  676.42    7.86
  -1   0  -3  696.93    8.25
   1   0   4 1926.82   12.57
   1   0   4 1947.54   13.36
  -1   0  -4 1940.16   12.66
  -1   0  -4 1959.94   13.07
   1   0   5  478.54    7.79
   1   0   5  519.26    8.68
  -1   0  -5  513.87    8.34
  -1   0  -5  508.88    8.33
   1   0   6  162.14    4.22
  -1   0  -6  156.20    4.09
  -1   0  -6  165.45    3.59
   1   0   7  316.22    6.02
   1   0   7  336.51    6.98
  -1   0  -7  320.75    6.87
   1   0   8  318.73    7.66
   1   0   8  343.33    8.61
  -1   0  -8  331.20    8.13
   1   0   9  467.29    5.78
  -1   0  -9  466.81    5.75
   1   0  10  687.50   12.32
  -1   0 -10  727.70   13.24
  -1   0 -11    6.68    2.46
  -1   0 -12    2.40    2.32
  -1   0 -13   94.65    4.27
   1   1 -14   47.15    4.22
   1   1 -13   45.16    8.45
   1   1 -12  123.98    4.61
   1   1 -11  115.41    3.53
   1   1 -10   88.76    3.90
  -1  -1  10   91.31    2.55
   1   1  -9  151.34    5.20
  -1  -1   9  142.77    3.53
  -1  -1   9  155.64    4.34
   1   1  -8   26.95    8.41
  -1  -1   8   20.59    2.36
  -1  -1   8   27.03    2.31
   1   1  -7   68.00    3.61
   1   1  -7   66.46    1.79
  -1  -1   7   65.05    2.84
   1   1  -6  284.69    5.65
   1   1  -6  300.39    5.33
  -1  -1   6  289.97    4.75
   1   1  -5  812.96    5.77
  -1  -1   5  818.81    6.41
   1   1  -4  895.56   10.81
   1   1  -4  862.08   10.08
  -1  -1   4  848.41    9.98
  -1  -1   4  877.03    9.94
   1   1  -3  222.74    3.70
   1   1  -3  230.59    3.18
  -1  -1   3  225.80    3.55
  -1  -1   3  229.77    3.42
   1   1  -2    3.90    2.00
   1   1  -2    2.96    1.84
  -1  -1   2    3.82    1.52
  -1  -1   2    5.96    2.47
   1   1  -1  398.74    5.44
   1   1  -1  392.77    5.62
  -1  -1   1  386.67    5.25
  -1  -1   1  403.75    5.47
   1   1   0  371.89    4.55
   1   1   0  370.70    5.87
  -1  -1   0  360.56    4.88
  -1  -1   0  370.98    4.93
   1   1   1   77.58    1.97
   1   1   1   79.53    3.57
  -1  -1  -1   80.68    2.23
  -1  -1  -1   86.14    3.23
   1   1   2  215.21    3.08
   1   1   2  209.41    4.14
  -1  -1  -2  202.47    2.99
  -1  -1  -2  224.15    3.82
   1   1   3    0.50    0.54
   1   1   3   -1.10    2.54
  -1  -1  -3    0.77    0.64
  -1  -1  -3   -1.25    1.82
   1   1   4  238.72    4.32
   1   1   4  235.60    5.04
  -1  -1  -4  248.36    7.14
  -1  -1  -4  230.42    4.55
   1   1   5   26.18    2.46
  -1  -1  -5   30.01    2.66
  -1  -1  -5   27.15    2.03
   1   1   6    2.18    2.03
  -1  -1  -6    1.69    1.33
   1   1   7   -0.61    1.98
  -1  -1  -7    1.55    1.32
   1   1   8   62.93    2.90
  -1  -1  -8   68.96    3.03
   1   1   9   58.83    3.35
  -1  -1  -9   53.55    3.20
   1   1  10    9.66    1.99
  -1  -1 -10   12.01    3.12
  -1  -1 -11   22.01    7.92
  -1  -1 -12  113.24    5.20
   1   2 -14    2.75    2.00
   1   2 -13   84.37    3.47
   1   2 -12   20.19   10.71
   1   2 -11  106.36    3.97
   1   2 -10   15.33    5.77
  -1  -2  10   12.78    1.45
   1   2  -9    6.70    2.85
  -1  -2   9    3.87    0.85
  -1  -2   9    5.70    1.46
   1   2  -8   36.93    4.57
   1   2  -8   30.57    1.41
  -1  -2   8   29.88    1.33
   1   2  -7   65.29    5.57
   1   2  -7   61.73    2.38
  -1  -2   7   58.71    1.69
   1   2  -6  464.98    8.30
   1   2  -6  465.07    7.25
  -1  -2   6  456.08    7.33
   1   2  -5  356.03    4.27
   1   2  -5  369.87    3.67
  -1  -2   5  357.75    3.38
   1   2  -4  770.10    9.36
   1   2  -4  756.17    8.80
  -1  -2   4  779.94    9.49
  -1  -2   4  794.02    9.41
   1   2  -3  342.53    5.02
  -1  -2   3  323.90    4.48
  -1  -2   3  342.11    4.77
   1   2  -2 8039.49   49.40
  -1  -2   2 7824.51   48.12
   1   2   0   28.23    1.82
   1   2   0   30.09    2.37
  -1  -2   0   27.42    2.48
  -1  -2   0   26.37    2.68
   1   2   1  482.62    5.87
   1   2   1  479.42    6.98
  -1  -2  -1  493.08    6.30
  -1  -2  -1  500.12    6.93
   1   2   2  962.65    6.80
   1   2   2  981.48    8.64
   1   2   3   13.71    0.96
   1   2   3   14.05    3.92
  -1  -2  -3   15.36    2.18
  -1  -2  -3   12.41    1.80
   1   2   4   34.56    3.49
  -1  -2  -4   31.49    4.93
   1   2   5   44.54    3.22
  -1  -2  -5   46.45    3.03
   1   2   6  397.39   10.07
  -1  -2  -6  365.23    8.68
   1   2   7  401.22    7.50
  -1  -2  -7  383.29    5.69
   1   2   8  377.53    8.39
  -1  -2  -8  395.51    8.32
   1   2   9    0.44    2.18
  -1  -2  -9    4.13    1.89
   1   2  10   41.01    3.12
  -1  -2 -10   42.92    4.28
  -1  -2 -11   38.32    6.58
  -1  -2 -12    0.70    1.43
   1   3 -14   95.79    4.73
   1   3 -13   12.68    7.33
   1   3 -12  413.00   15.06
   1   3 -11  564.97   11.44
   1   3 -10  246.14    5.20
  -1  -3  10  245.54    2.63
   1   3  -9  312.32    8.55
   1   3  -9  295.71    7.07
  -1  -3   9  290.02    6.67
   1   3  -8  115.43    4.56
   1   3  -8  116.20    1.57
  -1  -3   8  105.70    1.86
   1   3  -7  220.65    4.81
   1   3  -7  212.60    2.03
  -1  -3   7  200.79    2.48
   1   3  -6 1312.38   20.69
   1   3  -6 1250.93   19.00
  -1  -3   6 1207.32   18.48
   1   3  -5  589.43    6.20
   1   3  -5  574.10    4.90
  -1  -3   5  557.38    5.08
   1   3  -4  262.33    3.83
   1   3  -4  261.91    4.03
  -1  -3   4  254.18    3.72
  -1  -3   4  249.39    3.28
   1   3  -3   49.48    2.09
   1   3  -3   45.01    2.75
   1   3  -3   49.20    2.85
  -1  -3   3   43.18    2.13
   1   3  -2 2193.95   24.41
   1   3  -2 2279.95   25.64
  -1  -3   2 2208.99   24.81
   1   3  -1   49.01    1.71
   1   3  -1   47.00    3.13
  -1  -3   1   49.36    1.93
  -1  -3   1   49.48    2.82
   1   3   0  322.90    3.39
   1   3   0  336.63    5.37
  -1  -3   0  328.38    3.83
  -1  -3   0  315.89    4.15
   1   3   1  199.41    2.58
   1   3   1  219.33    4.62
  -1  -3  -1  215.41    3.33
   1   3   2 1967.83   30.61
  -1  -3  -2 2003.86   30.36
   1   3   3 1088.57    9.67
  -1  -3  -3 1032.42    7.00
   1   3   4  264.80    7.06
  -1  -3  -4  269.36    6.59
   1   3   5    2.89    4.68
  -1  -3  -5    3.81    3.49
   1   3   6   36.36    4.71
  -1  -3  -6   39.25    9.32
   1   3   7   88.85    5.03
  -1  -3  -7   92.81    4.52
   1   3   8  442.68    9.65
  -1  -3  -8  467.95    9.22
   1   3   9  184.53    7.48
  -1  -3  -9  185.72    5.65
   1   3  10   18.45    3.06
  -1  -3 -10   19.42    3.80
  -1  -3 -11  109.36    4.59
   1   4 -13   14.77    6.52
   1   4 -12   44.28    7.43
   1   4 -11   73.26    6.15
   1   4 -10   17.80    4.65
   1   4 -10   20.59    0.98
   1   4  -9    0.27    3.06
   1   4  -9    4.87    1.58
   1   4  -8   34.61    4.29
   1   4  -8   33.13    1.76
  -1  -4   8   32.79    1.65
   1   4  -7   61.94    4.62
   1   4  -7   61.31    1.59
  -1  -4   7   62.61    1.88
   1   4  -6   41.17    4.27
   1   4  -6   43.56    2.11
  -1  -4   6   41.00    2.09
   1   4  -5  147.87    5.92
   1   4  -5  141.98    4.94
  -1  -4   5  137.01    4.52
   1   4  -4   43.49    3.67
   1   4  -4   37.64    3.26
  -1  -4   4   40.90    2.36
   1   4  -3  164.97    3.94
   1   4  -3  176.70    4.03
  -1  -4   3  150.25    3.14
   1   4  -2  410.88    5.00
  -1  -4   2  420.54    7.98
   1   4  -1    3.60    3.98
  -1  -4   1   -1.03    2.11
   1   4   0  158.71    5.92
  -1  -4   0  151.71    5.26
   1   4   1  742.56   13.33
  -1  -4  -1  655.45   11.02
   1   4   2   16.01    6.43
  -1  -4  -2   23.80    3.27
   1   4   3    8.23    4.34
  -1  -4  -3   15.18    3.52
   1   4   4  136.06    6.77
  -1  -4  -4  123.21    5.56
   1   4   5    1.81    4.58
  -1  -4  -5    6.63    3.38
   1   4   6   39.71    4.63
  -1  -4  -6   42.85    5.91
   1   4   7   86.65    4.31
  -1  -4  -7   89.29    3.75
   1   4   8  161.45    6.77
  -1  -4  -8  168.39    5.62
   1   4   9   51.41    5.41
  -1  -4  -9   32.85    2.95
   1   4  10  230.87    7.41
  -1  -4 -10  217.95    6.11
   1   5 -14   -4.42    2.98
   1   5 -13   38.94    4.38
   1   5 -12   37.55    6.70
   1   5 -11  122.11    4.80
   1   5 -10  300.45    6.32
   1   5 -10  283.06    2.65
   1   5  -9    7.41    3.98
   1   5  -9   15.44    2.37
  -1  -5   9   14.06    1.45
   1   5  -8  288.34    8.42
   1   5  -8  276.82    6.41
  -1  -5   8  278.24    6.66
   1   5  -7   39.25    6.38
   1   5  -7   34.33    2.34
  -1  -5   7   30.58    1.96
   1   5  -6  708.51    8.31
   1   5  -6  695.22    6.33
   1   5  -5    0.39    3.73
   1   5  -5    2.03    2.68
   1   5  -4  838.28    7.72
   1   5  -4  800.93    7.56
   1   5  -312746.32  218.56
  -1  -5   313204.79  227.12
   1   5  -2  819.94   14.30
  -1  -5   2  821.62   13.94
   1   5  -1   27.12    4.87
  -1  -5   1   32.58    7.25
   1   5   0  573.98    8.50
  -1  -5   0  643.73    7.94
   1   5   1   30.61    6.22
  -1  -5  -1   26.69    7.67
   1   5   2   38.97    5.71
  -1  -5  -2   46.61    3.19
   1   5   3   -0.97    4.50
  -1  -5  -3    2.03    2.68
   1   5   4  382.76    8.36
  -1  -5  -4  373.95    6.47
   1   5   5  295.39    9.40
  -1  -5  -5  302.18    7.60
   1   5   6  386.78   10.36
  -1  -5  -6  394.78    8.80
   1   5   7   45.87    4.19
  -1  -5  -7   34.63    5.14
   1   5   8   -2.49    3.20
  -1  -5  -8    0.85    1.52
   1   5   9   33.18    4.27
  -1  -5  -9   34.48    6.49
   1   6 -14  191.39   10.15
   1   6 -13  286.47   12.14
   1   6 -12  110.03    5.04
   1   6 -11   68.69    4.61
   1   6 -10  117.00    5.42
   1   6  -9  117.68    5.45
   1   6  -9  104.08    2.27
   1   6  -8  604.25   14.65
   1   6  -8  581.11   13.24
   1   6  -7  648.53   15.31
   1   6  -7  635.95   14.41
   1   6  -6   40.06    5.40
   1   6  -6   32.80    3.30
   1   6  -5  155.05    6.81
   1   6  -5  149.12    5.55
   1   6  -4 1311.41   24.70
   1   6  -4 1309.56   24.47
   1   6  -3 1169.28   22.26
  -1  -6   3 1225.71   22.51
   1   6  -2  148.86    5.85
  -1  -6   2  132.07    3.46
   1   6  -1    6.18    4.43
  -1  -6   1    3.04    1.78
   1   6   0  591.80   14.83
  -1  -6   0  578.22   13.78
   1   6   1  834.65   20.20
  -1  -6  -1  826.80   19.20
   1   6   2  285.40    8.33
  -1  -6  -2  284.90    6.15
   1   6   3    2.06    3.48
  -1  -6  -3    3.19    3.30
   1   6   4   51.60    5.55
  -1  -6  -4   53.91    4.86
   1   6   5   -1.25    3.95
  -1  -6  -5    2.59    2.76
   1   6   6   70.46    5.63
  -1  -6  -6   66.90    4.57
   1   6   7  267.16    8.26
  -1  -6  -7  235.79    6.08
   1   6   8   23.31    4.67
  -1  -6  -8   16.40    3.25
   1   7 -14    1.52    1.34
   1   7 -13   12.73    4.82
   1   7 -12    1.43    3.50
   1   7 -11   33.62    4.30
   1   7 -10   33.02    5.31
   1   7  -9    5.69    3.90
   1   7  -9   12.28    2.63
   1   7  -8  261.76    6.53
   1   7  -8  255.54    4.62
   1   7  -7   37.67    5.05
   1   7  -7   37.32    4.50
   1   7  -6   54.44    4.98
   1   7  -6   53.54    3.96
   1   7  -5   92.99    5.53
   1   7  -5   80.34    4.69
   1   7  -4  263.37    8.71
   1   7  -4  254.49    8.32
   1   7  -3  165.75    6.57
  -1  -7   3  153.05    5.09
   1   7  -2   80.14    5.40
  -1  -7   2   76.11   13.80
   1   7  -1  396.07   11.50
  -1  -7   1  379.35   11.33
   1   7   0  531.53   10.69
  -1  -7   0  504.72    7.96
   1   7   1    8.74    4.85
  -1  -7  -1    2.20    3.17
   1   7   2  180.03    7.79
  -1  -7  -2  174.48    6.06
   1   7   3   77.20    6.35
  -1  -7  -3   92.46    4.66
   1   7   4   35.09    6.15
  -1  -7  -4   33.14    3.90
   1   7   5   67.60    5.70
  -1  -7  -5   66.26    5.07
   1   7   6  207.06    9.80
  -1  -7  -6  211.85    8.93
   1   7   7   84.49    5.65
  -1  -7  -7   80.95    5.61
   1   8 -14   17.00    3.43
   1   8 -13   77.15    4.40
   1   8 -12  324.63   13.73
   1   8 -11  129.55    4.29
   1   8 -10   78.25    4.76
   1   8 -10   67.51    2.85
   1   8  -9  120.67    5.68
   1   8  -9  120.94    3.61
   1   8  -8  157.34    7.16
   1   8  -8  143.27    5.08
   1   8  -7   99.46    5.44
   1   8  -7   96.63    3.91
   1   8  -6   13.18    3.75
   1   8  -6    2.02    2.96
   1   8  -5 4556.59   32.47
   1   8  -5 4565.93   19.28
   1   8  -4 2248.95   18.09
   1   8  -4 2297.29   20.28
   1   8  -3   -1.82    4.10
  -1  -8   3    2.44    2.52
   1   8  -2  271.09    6.16
  -1  -8   2  297.66    6.75
   1   8  -1    0.66    4.77
  -1  -8   1    5.03    2.18
   1   8   0   61.83    5.94
  -1  -8   0   55.80    5.19
   1   8   1    5.10    4.38
  -1  -8  -1    2.42    2.77
   1   8   2   88.41    6.01
  -1  -8  -2   91.14    4.83
   1   8   3  163.43    9.91
  -1  -8  -3  165.96    8.57
   1   8   4  118.78    7.64
  -1  -8  -4  124.22    5.10
   1   8   5   46.21    5.20
  -1  -8  -5   37.55    3.54
   1   9 -13    9.69    4.37
   1   9 -12   12.46    3.38
   1   9 -11   33.80    4.66
   1   9 -10  134.59    5.39
   1   9 -10  121.51    3.30
   1   9  -9  315.06    9.13
   1   9  -9  299.35    8.27
   1   9  -8    7.13    4.62
   1   9  -8    0.28    2.88
   1   9  -7   36.14    4.88
   1   9  -7   30.40    3.15
   1   9  -6  217.34    7.05
   1   9  -6  231.82    7.18
   1   9  -5 1721.94   30.19
   1   9  -5 1766.65   13.23
   1   9  -4    7.57    4.07
   1   9  -3    0.88    3.29
  -1  -9   3   -1.04    3.03
   1   9  -2    4.07    4.48
  -1  -9   2   -0.57    2.70
   1   9  -1  301.58   13.19
  -1  -9   1  292.64   11.18
   1   9   0  174.00    6.64
  -1  -9   0  179.73    6.75
   1   9   1    7.98    4.09
  -1  -9  -1    2.47    3.17
   1   9   2  134.01    7.21
  -1  -9  -2  144.93    5.95
   1   9   3   14.76    4.82
  -1  -9  -3   14.85    2.72
   1   9   4    6.16    4.46
  -1  -9  -4    4.32    2.57
   1  10 -12  107.47    5.54
   1  10 -11   -0.62    3.66
   1  10 -10   99.40    5.55
   1  10  -9  245.55   10.48
   1  10  -9  243.82   10.00
   1  10  -8   12.42    3.19
   1  10  -8   10.13    3.46
   1  10  -7   27.32    4.40
   1  10  -7   21.97    3.79
   1  10  -6  275.31    8.39
   1  10  -6  292.68    9.59
   1  10  -5  286.82    9.49
   1  10  -5  283.49    9.34
   1  10  -4    6.27    6.24
   1  10  -3   33.33    4.42
  -1 -10   3   31.63    9.75
   1  10  -2  559.93   23.66
  -1 -10   2  530.57   20.91
   1  10  -1    0.73    5.01
  -1 -10   1    2.83    3.03
   1  10   0   27.66    6.02
  -1 -10   0   29.24    8.24
   1  10   1  199.45    8.89
  -1 -10  -1  185.54    6.77
   1  10   2   47.54    6.22
  -1 -10  -2   40.15    4.07
   1  11 -11  102.47    6.13
   1  11 -10    6.78    3.84
   1  11  -9   89.98    5.28
   1  11  -9  102.26    5.01
   1  11  -8    3.00    3.46
   1  11  -8    3.04    2.68
   1  11  -7  741.22   14.40
   1  11  -7  770.52   14.54
   1  11  -6 1906.12   14.56
   1  11  -6 1865.41   30.12
   1  11  -5   22.69    5.92
   1  11  -5   11.20    4.68
   1  11  -4   28.20    5.31
   1  11  -4   18.90    4.77
   1  11  -3   24.78    3.90
  -1 -11   3   24.45    8.22
   1  11  -2   43.36    5.96
  -1 -11   2   27.76    9.33
   1  11  -1   18.42    5.45
  -1 -11   1   13.46    6.45
   1  12  -7 1101.55   20.27
   1  12  -7 1131.59   22.45
   1  12  -6  265.54    8.35
   1  12  -6  246.28   10.17
   1  12  -5    3.42    4.25
   1  12  -5    2.54    4.82
   2 -13   5   99.61    7.01
  -2  13  -5   94.82    5.21
  -2  13  -6   44.80    4.91
  -2  13  -6   50.77    6.11
  -2  13  -7   42.19    4.95
  -2  13  -7   38.57    4.11
  -2  13  -8   70.01    4.90
   2 -12   0  126.35    6.26
  -2  12   0  131.39    6.87
   2 -12   1   23.82    8.79
  -2  12  -1   38.74    5.90
   2 -12   2   20.92    9.38
  -2  12  -2   36.32    5.88
   2 -12   3  732.91   18.36
  -2  12  -3  749.62   19.89
   2 -12   4  250.82    7.54
  -2  12  -4  247.52    8.56
   2 -12   5    2.13    1.99
  -2  12  -5    2.89    4.01
  -2  12  -6   19.19    5.55
  -2  12  -6   22.47    4.65
  -2  12  -7    4.65    4.03
  -2  12  -7    7.44    3.09
  -2  12  -8  105.94    6.13
  -2  12  -8  103.43    5.06
  -2  12  -9  446.58   12.37
  -2  12 -10    5.12    3.20
  -2  12 -11    3.66    4.18
  -2  11   2   15.52    6.84
   2 -11  -1    4.76    3.58
  -2  11   1   10.66    6.56
   2 -11   0   25.46    4.68
  -2  11   0   29.76    6.24
   2 -11   1  126.84    7.03
  -2  11  -1  127.85    8.71
   2 -11   2  296.15   12.58
  -2  11  -2  307.96   14.02
   2 -11   3   97.40    5.35
  -2  11  -3   89.70    6.61
   2 -11   4   54.48   14.40
  -2  11  -4   61.71    4.15
   2 -11   5   33.36   12.92
  -2  11  -5   49.60    5.38
  -2  11  -6   31.88    5.92
  -2  11  -6   27.96    4.43
  -2  11  -7   87.94    5.82
  -2  11  -7   94.68    6.21
  -2  11  -8  340.38   14.17
  -2  11  -8  340.81   13.94
  -2  11  -9  384.29   15.93
  -2  11 -10  135.89    5.53
  -2  11 -11  101.15    4.92
  -2  11 -12    0.17    2.46
   2 -10  -4    0.76    1.54
  -2  10   4   12.62    6.87
   2 -10  -3  125.34    7.06
  -2  10   3  115.66    5.71
   2 -10  -2  498.81   10.35
  -2  10   2  535.65   12.43
   2 -10  -1   33.84    4.31
  -2  10   1   34.70    4.34
   2 -10   0   35.08    4.34
  -2  10   0   37.20    6.47
   2 -10   1   72.19    4.77
  -2  10  -1   77.41    6.41
   2 -10   2   87.77    5.12
  -2  10  -2   89.28    6.34
   2 -10   3  160.51    6.35
  -2  10  -3  181.30    9.26
   2 -10   4  101.97    5.27
  -2  10  -4  101.96    5.51
   2 -10   5  100.12    5.32
  -2  10  -5   96.69    5.63
  -2  10  -6   84.43    5.54
  -2  10  -6   85.83    4.47
  -2  10  -7   87.77    4.56
  -2  10  -7   84.37    4.49
  -2  10  -8  132.75    4.91
  -2  10  -8  125.89    4.01
  -2  10  -9   44.50    4.43
  -2  10 -10    2.07    3.51
  -2  10 -11   98.92    5.04
  -2  10 -12   66.61    4.54
  -2  10 -13    8.68    3.50
   2  -9  -5   39.43    3.26
  -2   9   5   41.68    5.77
   2  -9  -4  216.88    8.57
  -2   9   4  198.10    8.54
   2  -9  -3 1241.82   80.25
  -2   9   3 1554.91  100.46
   2  -9  -2    6.75    3.61
  -2   9   2   11.49    3.63
   2  -9  -1  117.77    6.01
  -2   9   1  120.63    5.93
   2  -9   0   20.86    4.63
  -2   9   0   14.18    3.91
   2  -9   1  427.59   10.57
  -2   9  -1  421.42   10.45
   2  -9   2  737.52    9.44
  -2   9  -2  752.69   11.47
   2  -9   3   12.41    4.23
  -2   9  -3    7.04    4.29
   2  -9   4  111.56    4.65
  -2   9  -4  101.70    4.34
   2  -9   5  122.59    4.88
  -2   9  -5  117.81    4.37
  -2   9  -6    0.24    3.30
  -2   9  -6    0.75    2.94
  -2   9  -7  507.14   11.04
  -2   9  -7  519.02   11.18
  -2   9  -8    4.55    3.47
  -2   9  -8   10.68    3.17
  -2   9  -9   89.64    4.58
  -2   9  -9   89.41    2.57
  -2   9 -10    7.28    4.75
  -2   9 -11  287.62    9.36
  -2   9 -12  998.80   18.09
  -2   9 -13   15.70    4.10
  -2   9 -14    3.61    3.22
   2  -8  -7  173.70    5.81
  -2   8   7  154.98    6.79
   2  -8  -6   27.88    4.35
  -2   8   6   20.34    4.89
   2  -8  -5   40.30    4.58
  -2   8   5   38.02    6.23
   2  -8  -4    1.34    2.70
  -2   8   4    2.90    4.57
   2  -8  -3    4.18    3.11
  -2   8   3    5.44    4.13
   2  -8  -2  128.08    6.97
  -2   8   2  109.59    6.07
   2  -8  -1  186.49    7.16
  -2   8   1  186.07    7.49
   2  -8   0  571.79    8.50
  -2   8   0  548.07   10.05
   2  -8   1  673.13   15.97
  -2   8  -1  642.29   15.51
   2  -8   2  101.49    5.55
  -2   8  -2   94.18    5.29
   2  -8   3  110.69    5.27
  -2   8  -3  113.17    6.67
   2  -8   4  267.42   13.08
  -2   8  -4  241.21    7.29
  -2   8  -5   74.46    4.86
  -2   8  -5   68.34    4.44
  -2   8  -6  486.09   12.06
  -2   8  -6  501.04   12.60
  -2   8  -7  900.33   12.24
  -2   8  -7  918.61   11.38
  -2   8  -8  325.18    6.51
  -2   8  -8  305.67    4.24
  -2   8  -9  181.02    6.30
  -2   8 -10   75.12    4.56
  -2   8 -11   34.20    4.18
  -2   8 -12  202.45    8.98
  -2   8 -13   10.33    2.96
  -2   8 -14  106.33    4.79
   2  -7  -8    0.37    2.19
  -2   7   8    0.42    3.14
   2  -7  -7  388.06    9.07
  -2   7   7  372.42    9.53
   2  -7  -6   47.55    4.44
  -2   7   6   44.12    3.40
   2  -7  -5   -2.30    2.70
  -2   7   5    0.17    4.20
   2  -7  -4  565.01   11.93
  -2   7   4  520.25   11.70
   2  -7  -3  378.47    6.50
  -2   7   3  365.25    7.44
   2  -7  -2    9.79    4.56
  -2   7   2    0.25    4.40
   2  -7  -1   61.86    5.07
  -2   7   1   57.18    5.58
   2  -7   0  184.32    6.81
  -2   7   0  185.47    6.94
   2  -7   1   98.12    4.97
  -2   7  -1   99.29    4.88
   2  -7   2  118.11    5.30
  -2   7  -2  120.42    4.93
   2  -7   3   22.81    6.06
  -2   7  -3   18.72    4.05
   2  -7   4   57.47    3.98
  -2   7  -4   48.97    3.69
  -2   7  -5   41.07    5.58
  -2   7  -5   31.82    3.41
  -2   7  -6  113.94    5.68
  -2   7  -6  101.05    1.81
  -2   7  -6  118.19    4.96
  -2   7  -7  176.78    6.01
  -2   7  -7  174.95    4.11
  -2   7  -7  185.02    5.02
  -2   7  -8   42.88    4.04
  -2   7  -8   38.76    1.67
  -2   7  -9   21.73    3.74
  -2   7 -10   40.21    3.73
  -2   7 -11   86.89    4.45
  -2   7 -12   11.45    3.01
  -2   7 -13   69.10    4.02
  -2   7 -14    3.05    2.02
   2  -6  -9   57.91    3.21
  -2   6   9   72.90    5.56
   2  -6  -8    0.32    1.46
  -2   6   8    7.01    4.10
   2  -6  -7   18.11    5.62
  -2   6   7   21.34    4.57
   2  -6  -6   43.61    6.79
  -2   6   6   39.57    4.92
   2  -6  -5 1736.28   30.95
  -2   6   5 1894.16   34.30
   2  -6  -4  751.13   10.23
  -2   6   4  732.07   10.36
   2  -6  -3   42.40    3.30
  -2   6   3   36.88    5.23
   2  -6  -2   68.18    4.94
  -2   6   2   75.60    6.42
   2  -6  -1   53.77    4.87
  -2   6   1   50.19    5.82
   2  -6   0 1155.59    8.70
  -2   6   0 1114.62    9.45
   2  -6   1   31.36    9.11
  -2   6  -1   31.24    4.12
   2  -6   2  376.12    5.32
  -2   6  -2  378.64    5.81
   2  -6   3  188.15    4.30
  -2   6  -3  181.57    4.56
   2  -6   4  359.06    5.23
  -2   6  -4  342.00    4.66
  -2   6  -5  543.37    7.39
  -2   6  -5  518.92    3.71
  -2   6  -5  526.53    4.92
  -2   6  -6    2.08    3.71
  -2   6  -6    1.26    0.74
  -2   6  -6    3.94    1.70
  -2   6  -7  583.02   13.97
  -2   6  -7  575.68   12.03
  -2   6  -7  569.99   12.23
  -2   6  -8   27.60    3.71
  -2   6  -9  316.64    5.63
  -2   6 -10 1195.65   21.76
  -2   6 -11  196.61    5.38
  -2   6 -12   48.93    6.84
  -2   6 -13  279.75    6.43
  -2   6 -14  121.04    5.10
   2  -5 -10   86.12    4.61
  -2   5  10   94.53    5.52
   2  -5  -9  198.68    6.30
  -2   5   9  183.28    5.97
   2  -5  -8   80.34    4.54
  -2   5   8   74.31    4.66
   2  -5  -7    7.89    2.46
  -2   5   7   10.98    3.30
   2  -5  -6    5.87    3.03
  -2   5   6    9.79    4.12
   2  -5  -5  106.72    4.16
  -2   5   5  117.17    5.31
   2  -5  -4  274.32    7.84
  -2   5   4  271.22    8.15
   2  -5  -3  342.16    8.22
  -2   5   3  337.54    8.84
   2  -5  -2  373.77    5.95
  -2   5   2  353.29    7.15
   2  -5  -1 1264.92    8.90
  -2   5   1 1221.79    9.04
   2  -5   0  730.56   12.50
  -2   5   0  739.62   14.04
   2  -5   1   25.78    6.81
  -2   5  -1   30.23    2.72
   2  -5   2 1430.38   22.24
  -2   5  -2 1484.02   22.96
   2  -5   3  251.24    5.50
  -2   5  -3  249.46    4.45
  -2   5  -3  249.69    4.87
  -2   5  -4  288.82    6.58
  -2   5  -4  294.96    5.00
  -2   5  -4  299.01    5.51
  -2   5  -5 1561.70   24.45
  -2   5  -5 1664.72   25.02
  -2   5  -5 1638.68   24.84
  -2   5  -6  254.53    4.66
  -2   5  -6  254.61    1.91
  -2   5  -6  233.86    2.34
  -2   5  -7  170.27    5.88
  -2   5  -7  163.56    2.91
  -2   5  -7  164.24    2.94
  -2   5  -8   98.41    4.16
  -2   5  -9   98.44    3.22
  -2   5 -10  209.48    4.18
  -2   5 -11   47.84    8.03
  -2   5 -12  196.45    5.66
  -2   5 -13    7.42    3.42
  -2   5 -14   34.37    6.83
   2  -4 -11  102.64    4.46
  -2   4  11   98.31    5.37
   2  -4 -10   16.85    4.68
  -2   4  10   12.67    3.55
   2  -4  -9  255.57    7.30
  -2   4   9  279.96    8.36
   2  -4  -8  114.03    4.22
  -2   4   8  107.00    4.28
   2  -4  -7  104.24    4.52
  -2   4   7  105.34    4.81
   2  -4  -6   21.39    2.81
  -2   4   6   27.52    4.54
   2  -4  -5  585.88   13.48
  -2   4   5  605.98   14.61
   2  -4  -4   35.97    3.64
  -2   4   4   37.54   10.70
   2  -4  -3   14.95    3.60
  -2   4   3   12.91    4.28
   2  -4  -2  760.23   16.72
  -2   4   2  754.01   12.79
   2  -4  -1   53.34    6.25
  -2   4   1   40.03    3.00
   2  -4   0    7.24    1.89
  -2   4   0    7.66    2.12
  -2   4   0    4.83    2.30
  -2   4   0    6.50    1.95
   2  -4   1   39.17    2.38
  -2   4  -1   38.59    1.81
  -2   4  -1   38.27    1.57
  -2   4  -1   41.60    2.13
   2  -4   2  106.86    2.86
  -2   4  -2  112.06    2.62
  -2   4  -2  112.87    1.87
  -2   4  -2  112.81    2.48
   2  -4   3   -1.75    1.74
  -2   4  -3   -0.26    1.38
  -2   4  -3   -0.90    0.93
  -2   4  -3    3.67    2.00
  -2   4  -4   15.90    4.12
  -2   4  -4   14.93    2.53
  -2   4  -4   17.46    1.00
  -2   4  -4   16.23    1.64
  -2   4  -5  869.96   14.10
  -2   4  -5  907.30   14.57
  -2   4  -5  894.04   13.43
  -2   4  -5  878.63   13.51
  -2   4  -6    9.40    2.08
  -2   4  -6   17.67    0.84
  -2   4  -6   16.69    0.77
  -2   4  -7   72.04    4.27
  -2   4  -8   17.40    3.17
  -2   4  -9  487.03   13.58
  -2   4 -10  207.75    3.72
  -2   4 -11   16.83    6.60
  -2   4 -12   -0.90    2.11
  -2   4 -13   18.78    5.94
  -2   4 -14    3.03    2.77
   2  -3 -12    3.86    2.45
   2  -3 -11   19.68    5.59
  -2   3  11   24.72    2.95
   2  -3 -10   33.21    7.20
  -2   3  10   42.82    4.30
   2  -3  -9   30.52    7.97
  -2   3   9   27.63    3.53
   2  -3  -8    1.76    1.21
  -2   3   8    6.62    3.72
   2  -3  -7 1076.00   17.22
  -2   3   7 1085.68   13.09
   2  -3  -6 1521.69   33.35
  -2   3   6 1579.78   34.60
   2  -3  -5  260.30    6.88
  -2   3   5  259.56    6.71
   2  -3  -4   67.24    4.40
  -2   3   4   66.79    3.37
   2  -3  -3 1282.27   19.77
  -2   3   3 1427.20   22.23
   2  -3  -2   30.67    1.64
   2  -3  -2   32.44    4.60
  -2   3   2   30.78    1.10
   2  -3  -1  808.18    9.55
   2  -3  -1  842.35   10.06
  -2   3   1  831.21    9.60
  -2   3   1  802.53    9.32
   2  -3   0  877.96   10.15
   2  -3   0  873.04   10.38
  -2   3   0  830.12    9.97
  -2   3   0  870.94   10.04
   2  -3   1    1.22    1.40
   2  -3   1   -0.07    1.52
  -2   3  -1    1.63    0.55
  -2   3  -1    1.83    1.13
   2  -3   2 1040.20   12.19
   2  -3   2 1013.14   11.40
  -2   3  -2  991.46   11.18
  -2   3  -2 1002.12   11.18
   2  -3   3  195.95    2.76
  -2   3  -3  193.04    3.10
  -2   3  -3  184.91    3.22
  -2   3  -3  194.37    2.61
   2  -3   4   19.27    1.77
   2  -3   4   24.63    0.89
  -2   3  -4   17.62    1.85
  -2   3  -4   16.51    0.86
   2  -3   5 2685.98   40.23
   2  -3   5 2706.45   39.98
  -2   3  -5 2783.98   41.69
  -2   3  -5 2783.39   41.22
   2  -3   6  177.77    2.80
  -2   3  -6  178.10    2.66
  -2   3  -6  175.77    3.19
  -2   3  -7  542.35   10.36
  -2   3  -8 1021.04   21.82
  -2   3  -9  330.10    4.98
  -2   3 -10  143.93    4.05
  -2   3 -11   56.14    6.11
  -2   3 -12  652.16   14.95
  -2   3 -13    0.77    1.14
  -2   3 -14  376.62    7.79
   2  -2 -12  111.39    4.68
   2  -2 -11   70.16   12.18
  -2   2  11   64.35    3.38
   2  -2 -10  143.38    6.37
  -2   2  10  158.44    7.08
   2  -2  -9  110.81    4.46
  -2   2   9   93.27    3.46
   2  -2  -8   49.59    3.52
  -2   2   8   50.64    3.42
   2  -2  -7  197.85    6.03
  -2   2   7  184.28    5.33
   2  -2  -6  662.05   12.75
  -2   2   6  648.81   12.21
   2  -2  -5  280.14    8.65
   2  -2  -5  271.51    4.28
   2  -2  -4  122.08    4.03
   2  -2  -4  119.70    4.92
   2  -2  -3  199.50    2.98
   2  -2  -3  183.35    2.90
  -2   2   3  180.68    2.61
  -2   2   3  186.94    2.47
   2  -2  -2 2139.98   24.91
  -2   2   2 2233.38   24.45
  -2   2   2 2135.18   23.46
   2  -2  -1   16.50    4.61
   2  -2  -1   14.04    4.41
  -2   2   1   14.59    3.81
  -2   2   1   14.23    4.41
   2  -2   0 2115.45   23.31
   2  -2   0 2112.74   23.17
  -2   2   0 2092.89   22.66
  -2   2   0 2150.42   23.50
   2  -2   1 3163.70   34.43
  -2   2  -1 3166.34   34.25
   2  -2   2   21.49    1.36
  -2   2  -2   23.06    1.11
  -2   2  -2   21.97    1.74
  -2   2  -2   21.21    1.15
   2  -2   3 1931.04   21.16
   2  -2   3 1903.21   20.71
  -2   2  -3 1971.49   21.52
  -2   2  -3 1961.76   21.41
   2  -2   4   78.10    1.69
   2  -2   4   78.77    1.37
  -2   2  -4   80.84    1.92
  -2   2  -4   73.10    1.48
   2  -2   5   -0.99    1.36
   2  -2   5   -0.10    0.57
  -2   2  -5    0.44    1.37
  -2   2  -5    0.70    0.78
   2  -2   6    3.48    1.83
   2  -2   6    1.57    0.76
  -2   2  -6    3.21    1.78
  -2   2  -6    2.74    1.19
   2  -2   7  188.05    3.72
  -2   2  -7  187.28    4.84
  -2   2  -7  180.74    3.90
   2  -2   8    3.71    0.97
  -2   2  -8    4.62    2.10
   2  -2   9  390.13    4.09
  -2   2  -9  389.45    7.41
  -2   2 -10  118.18    8.02
  -2   2 -11    3.04    2.12
  -2   2 -12   15.06    2.57
  -2   2 -13    4.71    1.81
   2  -1 -13  374.48    8.25
   2  -1 -12   10.96    2.75
   2  -1 -11   96.77    4.32
  -2   1  11   96.12    3.79
   2  -1 -10   99.15    4.14
  -2   1  10   96.60    3.53
   2  -1  -9  279.86    5.41
  -2   1   9  296.52    4.68
   2  -1  -8  216.38    6.52
  -2   1   7   22.92    2.36
   2  -1  -6  225.34    3.61
   2  -1  -6  230.33    3.50
   2  -1  -5  265.69    5.27
   2  -1  -5  249.14    4.99
   2  -1  -4  614.88    5.37
   2  -1  -4  599.13    5.74
  -2   1   4  580.11    6.01
   2  -1  -3  497.95    6.17
   2  -1  -3  514.54    6.33
  -2   1   3  495.49    6.30
  -2   1   3  497.80    6.05
   2  -1  -2  351.44    4.40
   2  -1  -2  370.81    4.76
  -2   1   2  357.14    4.68
  -2   1   2  361.26    4.67
   2  -1  -1  100.10    1.96
  -2   1   1  100.97    1.69
   2  -1   0 1555.41   16.92
   2  -1   0 1496.25   16.70
  -2   1   0 1599.90   17.42
  -2   1   0 1541.68   17.19
   2  -1   1   96.13    2.47
  -2   1  -1  100.04    2.55
   2  -1   2  665.30    7.36
   2  -1   2  677.93    8.03
  -2   1  -2  685.47    7.52
  -2   1  -2  680.57    8.16
   2  -1   3  533.96    6.26
   2  -1   3  551.73    6.81
  -2   1  -3  537.41    6.22
  -2   1  -3  530.22    6.61
   2  -1   4  286.15    2.86
   2  -1   4  302.45    3.49
  -2   1  -4  283.10    2.70
  -2   1  -4  284.88    3.39
   2  -1   5  511.13    8.25
   2  -1   5  512.04    8.40
  -2   1  -5  494.41    7.83
  -2   1  -5  520.78    8.76
   2  -1   6    1.62    1.33
  -2   1  -6    2.53    1.69
  -2   1  -6    1.84    1.05
   2  -1   7 1129.32   23.94
  -2   1  -7 1059.88   22.43
  -2   1  -7 1105.52   23.20
   2  -1   8  870.00   19.08
  -2   1  -8  804.72   18.37
  -2   1  -8  818.53   17.78
   2  -1   9  206.87    3.24
  -2   1  -9  198.11    3.34
  -2   1 -10  125.06    3.05
  -2   1 -11    8.40    2.37
  -2   1 -12    5.39    2.58
  -2   1 -13   12.65    7.28
   2   0 -13   12.25    3.14
   2   0 -12   36.65    3.91
   2   0 -11  304.52   11.34
  -2   0  11  303.72   10.97
   2   0 -10   -1.12    2.73
  -2   0  10   -0.84    1.38
   2   0  -9  252.34    5.44
  -2   0   9  254.00    4.02
   2   0  -8 1008.73   22.52
   2   0  -8  904.81   20.81
   2   0  -7  957.50   17.69
   2   0  -7  957.46   17.16
   2   0  -6  309.30    5.12
   2   0  -6  268.30    3.00
  -2   0   6  284.19    2.80
   2   0  -5 1275.09   19.82
   2   0  -5 1322.46   20.18
  -2   0   5 1320.78   20.02
   2   0  -4 2653.23   18.25
   2   0  -4 2562.37   16.47
  -2   0   4 2563.58   16.88
  -2   0   4 2617.33   16.77
   2   0  -3  696.81    8.28
   2   0  -3  709.16    8.28
  -2   0   3  696.04    8.29
  -2   0   3  749.19    8.79
   2   0  -2  154.80    2.88
   2   0  -2  152.26    2.88
  -2   0   2  149.30    2.47
  -2   0   2  147.56    2.79
   2   0  -1   28.48    1.63
   2   0  -1   31.85    2.39
  -2   0   1   26.74    1.47
  -2   0   1   27.30    2.01
   2   0   0  218.08    2.72
   2   0   0  213.45    3.16
   2   0   0  220.88    4.01
  -2   0   0  217.09    3.59
   2   0   1   25.06    1.25
   2   0   1   23.48    1.98
  -2   0  -1   24.11    1.13
  -2   0  -1   22.56    2.26
   2   0   2  294.00    3.46
   2   0   2  293.98    4.92
  -2   0  -2  291.12    3.65
  -2   0  -2  310.89    5.01
   2   0   3 4706.65   30.02
  -2   0  -3 4664.26   29.70
   2   0   4  726.04   11.26
   2   0   4  732.15   11.99
  -2   0  -4  745.46   11.52
  -2   0  -4  740.40   12.04
   2   0   5  411.00    4.38
   2   0   5  425.46    4.55
   2   0   6 1121.04   20.06
  -2   0  -6 1107.95   19.40
  -2   0  -6 1091.34   19.39
   2   0   7  202.50    5.57
  -2   0  -7  199.56    6.43
   2   0   8  136.44    3.66
  -2   0  -8  133.26    2.96
   2   0   9   96.62    3.19
  -2   0  -9   98.35    6.37
  -2   0 -10  703.50    6.80
  -2   0 -11   60.91    4.71
  -2   0 -12   93.91    3.83
   2   1 -14  117.31    4.81
   2   1 -13    6.14    3.53
   2   1 -12   18.47    3.90
   2   1 -11  322.84   11.81
  -2  -1  11  315.30   11.10
   2   1 -10    2.59    3.21
  -2  -1  10    3.77    1.89
   2   1  -9   10.79    4.58
   2   1  -9    9.40    2.79
   2   1  -8 1010.81   27.86
   2   1  -8  983.99   20.80
   2   1  -7  173.20    5.64
   2   1  -7  165.44    3.65
  -2  -1   7  162.19    3.57
   2   1  -6   49.77    3.48
   2   1  -6   49.54    1.70
  -2  -1   6   47.27    3.48
   2   1  -5  190.82    4.46
   2   1  -5  182.18    3.50
  -2  -1   5  188.62    3.79
   2   1  -4  468.60    5.31
   2   1  -4  484.65    4.34
  -2  -1   4  458.60    4.66
  -2  -1   4  480.86    4.57
   2   1  -3  112.56    2.71
   2   1  -3  120.91    2.49
  -2  -1   3  116.44    2.75
  -2  -1   3  113.69    2.29
   2   1  -2   43.75    2.26
   2   1  -2   38.50    1.73
  -2  -1   2   42.11    1.86
  -2  -1   2   42.49    2.63
   2   1  -1 4502.69   28.10
   2   1  -1 4341.54   46.92
   2   1  -1 4410.22   27.86
  -2  -1   1 4336.86   47.40
   2   1   0    5.87    1.06
   2   1   0    1.09    2.46
  -2  -1   0    4.02    1.80
  -2  -1   0    3.47    2.23
   2   1   1  375.96    4.57
   2   1   1  371.88    5.79
  -2  -1  -1  378.30    5.10
  -2  -1  -1  352.05    5.23
   2   1   2    7.29    1.28
   2   1   2    5.71    2.74
  -2  -1  -2    7.10    1.40
  -2  -1  -2    6.70    2.06
   2   1   3  444.44    7.04
   2   1   3  453.18    8.31
  -2  -1  -3  462.15    7.49
  -2  -1  -3  468.77    8.23
   2   1   4   37.76    1.91
   2   1   4   42.13    2.85
  -2  -1  -4   42.07    2.47
   2   1   5   -1.01    2.11
  -2  -1  -5    3.19    1.48
   2   1   6  136.10    4.64
  -2  -1  -6  149.56    4.33
   2   1   7  367.89    5.76
  -2  -1  -7  359.69    5.09
   2   1   8   13.88    2.22
  -2  -1  -8   11.28    2.07
   2   1   9    4.56    2.69
  -2  -1  -9    7.46    2.24
   2   1  10  138.27    3.83
  -2  -1 -10  133.91    6.33
  -2  -1 -11   19.14    2.62
  -2  -1 -12    6.39    4.20
   2   2 -14   -0.39    2.44
   2   2 -13   -1.65    2.97
   2   2 -12   53.78    2.96
   2   2 -11  431.22    9.29
  -2  -2  11  379.77    7.06
   2   2  -9  405.62   10.21
   2   2  -9  389.08    8.86
   2   2  -8   33.26   10.18
   2   2  -8   36.22    2.77
   2   2  -7   57.53   10.38
   2   2  -7   53.21    2.96
  -2  -2   7   47.68    2.02
   2   2  -6   16.12    2.41
   2   2  -6   15.12    1.65
  -2  -2   6   18.18    1.47
   2   2  -5  490.78    8.64
   2   2  -5  488.02    8.02
  -2  -2   5  497.97    8.38
   2   2  -4  305.08    4.04
   2   2  -4  310.48    3.74
  -2  -2   4  305.69    4.19
  -2  -2   4  304.48    3.68
   2   2  -3  111.63    2.90
   2   2  -3  108.97    2.82
  -2  -2   3  108.70    2.40
  -2  -2   3  111.45    2.77
   2   2  -2 1359.77   10.62
   2   2  -2 1339.57    9.84
   2   2  -2 1347.31   10.29
  -2  -2   2 1326.87   10.61
   2   2  -1  590.15    4.95
   2   2  -1  618.75    5.76
   2   2  -1  624.37    6.68
  -2  -2   1  608.69    6.25
   2   2   0  337.02    3.40
   2   2   0  343.48    4.85
  -2  -2   0  348.18    3.97
  -2  -2   0  347.67    4.75
   2   2   1   51.25    1.60
   2   2   1   49.84    3.48
  -2  -2  -1   49.77    2.85
   2   2   2  372.28    6.09
   2   2   2  370.90    7.86
  -2  -2  -2  371.37    6.60
   2   2   3  407.49    7.11
   2   2   3  374.04    7.66
  -2  -2  -3  406.59    7.64
   2   2   4   57.48    3.58
  -2  -2  -4   54.95    3.02
   2   2   5  774.60   17.73
  -2  -2  -5  749.91   16.22
   2   2   6 1531.83   33.79
  -2  -2  -6 1459.74   31.42
   2   2   7  246.56    5.72
  -2  -2  -7  233.27    3.97
   2   2   8  418.15    9.30
  -2  -2  -8  430.60   10.22
   2   2   9   95.87    4.67
  -2  -2  -9   86.02    5.97
  -2  -2 -10    0.75    1.49
  -2  -2 -11   16.62    2.57
   2   3 -14    5.40    2.53
   2   3 -13  454.74    9.43
   2   3 -12   56.82   10.38
   2   3 -11    5.83    2.71
   2   3 -10  324.15    7.36
   2   3 -10  302.76    3.45
   2   3  -9  604.70    8.50
   2   3  -9  565.64    6.21
   2   3  -8  591.95   13.79
   2   3  -8  567.34   12.18
   2   3  -7  356.50    8.44
   2   3  -7  368.99    6.96
  -2  -3   7  333.45    6.94
   2   3  -6 2621.54   12.08
  -2  -3   6 2593.31   12.93
   2   3  -5   98.60    4.58
   2   3  -5   91.98    3.85
  -2  -3   5  108.61    4.16
   2   3  -4   21.33    2.46
   2   3  -4   19.48    2.74
  -2  -3   4   18.07    1.85
   2   3  -3   43.42    1.71
   2   3  -3   46.29    2.99
   2   3  -3   47.79    3.26
   2   3  -2   58.98    1.88
   2   3  -2   62.52    2.94
   2   3  -2   62.40    3.27
   2   3  -1  103.30    2.17
   2   3  -1  101.39    3.12
  -2  -3   1  105.37    3.25
   2   3   0  147.60    4.57
   2   3   0  131.80    5.05
  -2  -3   0  147.03    5.32
   2   3   1 1232.95   19.16
   2   3   1 1277.71   20.82
  -2  -3  -1 1246.81   19.50
   2   3   2 1105.40   10.25
  -2  -3  -2 1106.04    7.91
   2   3   3  118.07    4.76
  -2  -3  -3  119.36    3.40
   2   3   4  716.97   17.41
  -2  -3  -4  732.44   16.08
   2   3   5  123.40    6.38
  -2  -3  -5  139.94    8.46
   2   3   6   71.01    4.16
  -2  -3  -6   81.73    2.91
   2   3   7  425.61    9.31
  -2  -3  -7  416.21    8.35
   2   3   8   60.37    3.84
  -2  -3  -8   62.18    2.53
   2   3   9  155.50    7.43
  -2  -3  -9  177.43    7.69
   2   3  10    2.83    2.20
  -2  -3 -10   -0.25    2.02
   2   4 -14   11.21    3.60
   2   4 -13  130.98    5.14
   2   4 -12   24.33    8.42
   2   4 -11   94.36    4.46
   2   4 -10  317.75    6.29
   2   4 -10  323.15    3.69
   2   4  -9  154.22    4.76
   2   4  -9  148.20    2.62
   2   4  -8   11.42    3.41
   2   4  -8   19.75    2.33
   2   4  -7  136.89    5.83
   2   4  -7  130.51    3.68
   2   4  -6  196.36    6.28
   2   4  -6  198.12    5.18
   2   4  -5  123.86    5.21
   2   4  -5  130.55    5.06
   2   4  -4   10.34    2.34
   2   4  -4   11.72    4.90
   2   4  -3  289.46    6.19
   2   4  -3  289.84    6.67
   2   4  -2   30.79    4.15
  -2  -4   2   40.55    9.57
   2   4  -1    5.03    4.05
  -2  -4   1    3.16    1.69
   2   4   0   13.65    6.27
  -2  -4   0    5.14    2.68
   2   4   1  725.21    9.48
  -2  -4  -1  721.86    7.35
   2   4   2  159.32    6.82
  -2  -4  -2  168.71    5.03
   2   4   3   62.03    5.40
  -2  -4  -3   64.02    3.42
   2   4   4    7.25    4.65
  -2  -4  -4    9.48    1.95
   2   4   5  119.07    4.75
  -2  -4  -5  137.04    3.49
   2   4   6  252.80    7.49
  -2  -4  -6  248.46    6.07
   2   4   7    5.86    2.85
  -2  -4  -7    1.92    2.07
   2   4   8  113.09    5.18
  -2  -4  -8  119.18    8.46
   2   4   9   72.47    4.46
  -2  -4  -9   76.95    3.58
   2   5 -14    9.08    4.78
   2   5 -13  312.06    7.46
   2   5 -12  602.77   14.46
   2   5 -11  588.80   20.74
   2   5 -10  125.73    5.15
   2   5 -10  125.62    2.35
   2   5  -9    6.36    3.38
   2   5  -9    8.35    4.19
   2   5  -8  276.09    7.89
   2   5  -8  273.16    7.01
   2   5  -7    5.68    3.35
   2   5  -7    3.35    2.38
   2   5  -6   52.81    4.81
   2   5  -6   52.82    3.44
   2   5  -5  264.99    8.36
   2   5  -5  241.96    7.11
   2   5  -4  176.90    6.05
   2   5  -4  195.54    6.70
   2   5  -3  226.72    6.76
   2   5  -3  217.47    7.00
   2   5  -2  167.04    6.53
  -2  -5   2  178.52    5.43
   2   5  -1  233.16    8.14
  -2  -5   1  233.57    6.73
   2   5   0   17.10    5.18
  -2  -5   0   14.44    4.24
   2   5   1  193.03    8.23
  -2  -5  -1  178.18    6.33
   2   5   2  253.53    8.84
  -2  -5  -2  236.92    7.08
   2   5   3  238.00    6.75
  -2  -5  -3  230.46    6.30
   2   5   4  984.36   20.00
  -2  -5  -4 1003.44   19.69
   2   5   5  184.12    7.16
  -2  -5  -5  185.03    5.76
   2   5   6  209.28    7.82
  -2  -5  -6  213.45    6.71
   2   5   7  341.05    8.48
  -2  -5  -7  327.97    7.06
   2   5   8    7.53    4.68
  -2  -5  -8    2.30    2.37
   2   6 -14  160.42    7.15
   2   6 -13    1.35    1.78
   2   6 -12   51.31    3.81
   2   6 -11  169.01    8.22
   2   6 -10  367.76    8.78
   2   6 -10  344.91    6.59
   2   6  -9  140.84    3.77
   2   6  -9  144.27    4.22
   2   6  -8  607.03    9.60
   2   6  -8  573.08    7.94
   2   6  -7  395.20    6.94
   2   6  -7  356.38    5.84
   2   6  -6    7.81    4.33
   2   6  -6    2.04    2.69
   2   6  -5   19.48    4.35
   2   6  -5   22.93    4.38
   2   6  -4   30.74    4.42
   2   6  -4   27.50    3.39
   2   6  -3    4.78    3.56
   2   6  -3    7.41    3.51
   2   6  -2   -0.18    3.71
  -2  -6   2    8.65    3.04
   2   6  -1   51.80    6.01
  -2  -6   1   49.30    6.18
   2   6   0  307.62    8.48
  -2  -6   0  295.99    6.04
   2   6   1   21.48    5.90
  -2  -6  -1   10.99    2.76
   2   6   2  131.73    4.81
  -2  -6  -2  130.17    4.95
   2   6   3   90.41    5.77
  -2  -6  -3   92.27   12.89
   2   6   4   31.51    5.17
  -2  -6  -4   37.75    3.57
   2   6   5  394.91   11.78
  -2  -6  -5  387.97   10.06
   2   6   6   80.15    5.81
  -2  -6  -6   82.27    3.29
   2   6   7   44.12    4.47
  -2  -6  -7   45.96    3.68
   2   7 -14   20.14   14.08
   2   7 -13  108.12    5.33
   2   7 -12   -4.41    2.99
   2   7 -11   63.19    4.52
   2   7 -10    2.10    2.99
   2   7 -10    1.69    1.81
   2   7  -9   17.02    4.49
   2   7  -9    5.62    2.03
   2   7  -8  296.36    8.76
   2   7  -8  274.54    6.45
   2   7  -7   22.26    3.77
   2   7  -7   27.86    3.14
   2   7  -6    0.29    3.47
   2   7  -6    0.44    2.72
   2   7  -5   54.07    4.47
   2   7  -5   52.39    4.52
   2   7  -4   31.16    4.29
   2   7  -4   39.97    5.74
   2   7  -3    7.10    4.08
   2   7  -2   40.46    5.87
  -2  -7   2   40.43   10.06
   2   7  -1  336.07    8.95
  -2  -7   1  325.97    7.10
   2   7   0  195.13    8.18
  -2  -7   0  179.13    6.34
   2   7   1   77.81    6.45
  -2  -7  -1   70.09    4.40
   2   7   2   12.76    4.76
  -2  -7  -2   23.51    3.85
   2   7   3   68.71    7.14
  -2  -7  -3   62.51    4.15
   2   7   4  275.17   12.70
  -2  -7  -4  277.69   11.52
   2   7   5   75.44    4.20
  -2  -7  -5   79.62    9.18
   2   7   6   48.27    4.80
  -2  -7  -6   42.40    3.47
   2   8 -13  283.96    7.75
   2   8 -12  234.60    6.67
   2   8 -11   25.70    4.37
   2   8 -10  196.79    6.73
   2   8 -10  183.73    5.33
   2   8  -9  159.84    7.92
   2   8  -9  161.36    6.95
   2   8  -8   25.61    3.80
   2   8  -8   23.64    3.13
   2   8  -7  164.09    5.82
   2   8  -7  153.57    5.28
   2   8  -6   50.77    4.71
   2   8  -6   49.78    4.53
   2   8  -5   11.61    3.67
   2   8  -5   11.62    5.65
   2   8  -4    7.57    3.77
   2   8  -4   11.50    5.64
   2   8  -3  138.89    6.54
  -2  -8   3  147.39   11.61
   2   8  -2   26.95    5.58
  -2  -8   2   19.71    4.65
   2   8  -1  121.82    6.40
  -2  -8   1  120.99   12.54
   2   8   0  225.77    9.83
  -2  -8   0  288.99   11.61
   2   8   1  123.22    6.26
  -2  -8  -1  125.67    5.11
   2   8   2  262.19   12.10
  -2  -8  -2  284.15   12.64
   2   8   3  101.13    7.90
  -2  -8  -3   97.24    5.29
   2   8   4   19.33    6.35
  -2  -8  -4   23.74    4.86
   2   9 -12   83.11    4.89
   2   9 -11   63.31    4.51
   2   9 -10   62.61    4.58
   2   9 -10   58.05    2.36
   2   9  -9   92.23    4.85
   2   9  -9   74.29    3.70
   2   9  -8    6.99    5.33
   2   9  -8   -0.01    3.27
   2   9  -7    0.80    4.14
   2   9  -7    1.20    2.88
   2   9  -6    5.27    4.05
   2   9  -6    5.08    4.30
   2   9  -5   17.55    5.23
   2   9  -5   14.40    3.57
   2   9  -4    7.92    4.59
   2   9  -4    5.48    4.24
   2   9  -3    5.70    4.02
  -2  -9   3   -2.15    3.11
   2   9  -2   11.31    7.20
  -2  -9   2   -0.67    1.97
   2   9  -1   12.05    4.59
  -2  -9   1    3.34    1.51
   2   9   0   -6.95    4.98
  -2  -9   0    2.54    3.11
   2   9   1   11.18    4.72
  -2  -9  -1    6.99    3.51
   2   9   2    4.25    4.61
  -2  -9  -2   13.87    4.95
   2   9   3  176.83    7.28
  -2  -9  -3  182.59    6.66
   2  10 -11   -5.69    3.45
   2  10 -10   68.34    4.75
   2  10  -9  148.01    6.77
   2  10  -9  144.26    5.39
   2  10  -8    7.50    3.94
   2  10  -8    6.28    2.64
   2  10  -7   90.23    6.66
   2  10  -7   91.43    4.60
   2  10  -6  273.27    7.99
   2  10  -6  274.07    8.39
   2  10  -5   45.16    4.81
   2  10  -5   49.00    6.05
   2  10  -4   44.86    5.34
   2  10  -4   40.43    5.21
   2  10  -3  167.87    7.30
  -2 -10   3  164.62    6.33
   2  10  -2   98.69    7.37
  -2 -10   2   79.74   10.99
   2  10  -1   48.43    5.61
  -2 -10   1   45.32    6.15
   2  10   0   28.21    4.28
  -2 -10   0   24.50    9.90
   2  11  -9   42.82    5.83
   2  11  -9   34.79    3.85
   2  11  -8   49.75    5.81
   2  11  -8   42.10    3.70
   2  11  -7  124.18    5.98
   2  11  -7  119.33    6.35
   2  11  -6   97.21    5.58
   2  11  -6  115.19    6.29
   2  11  -5   44.34    4.43
   2  11  -5   33.82    4.37
   2  11  -4    5.95    3.24
   2  11  -4   11.11    5.62
   2  11  -3   27.14    5.07
   2  11  -3   11.97    4.07
   3 -13   4  194.35    7.30
  -3  13  -4  190.14    7.48
   3 -13   5   80.01   14.01
  -3  13  -5   72.46    6.40
  -3  13  -6   28.28    5.57
  -3  13  -6   28.98    4.09
  -3  13  -7   40.26    4.83
  -3  13  -7   35.49    4.13
  -3  13  -8   43.01    4.31
   3 -12   0  140.72    6.22
  -3  12   0  143.62    7.00
   3 -12   1   21.44    5.05
  -3  12  -1   24.37    5.84
   3 -12   2    0.81    4.48
  -3  12  -2   -2.18    3.82
   3 -12   3   -2.22    3.61
  -3  12  -3    7.11    4.42
   3 -12   4   52.70    5.40
  -3  12  -4   52.27    6.31
   3 -12   5    3.95    2.29
  -3  12  -5   -0.35    3.20
  -3  12  -6  103.42    5.35
  -3  12  -6  109.55    5.34
  -3  12  -7   21.63    4.40
  -3  12  -7   27.45    4.75
  -3  12  -8   80.31    4.43
  -3  12  -8   77.03    3.92
  -3  12  -9   31.38    3.85
  -3  12 -10   -0.15    2.83
  -3  12 -11   32.92    3.99
   3 -11  -2    1.89    2.03
  -3  11   2    1.08    4.82
  -3  11   1   23.41    5.45
   3 -11   0  121.90    6.58
  -3  11   0  131.56    7.76
   3 -11   1   84.51    5.79
  -3  11  -1   75.71    6.53
   3 -11   2    7.00    3.80
  -3  11  -2    7.48    4.37
   3 -11   3  214.53    7.07
  -3  11  -3  219.16    8.58
   3 -11   4   38.16   13.60
  -3  11  -4   27.92    4.21
   3 -11   5   -2.52    2.72
  -3  11  -5    2.81    3.01
  -3  11  -6   -0.20    3.81
  -3  11  -6    2.00    3.96
  -3  11  -7  151.50    6.41
  -3  11  -7  149.11    6.64
  -3  11  -8  115.17    6.51
  -3  11  -8  110.10    3.82
  -3  11  -9   14.62    4.86
  -3  11 -10  138.51    6.08
  -3  11 -11  146.47    6.58
  -3  11 -12  288.99    7.62
   3 -10  -4  137.80    5.93
  -3  10   4  142.14    8.10
   3 -10  -3  242.02    7.99
  -3  10   3  244.06    9.39
   3 -10  -2    2.49    3.10
  -3  10   2   -1.09    4.41
   3 -10  -1  674.44   26.19
  -3  10   1  665.48   26.25
   3 -10   0    6.30    3.84
  -3  10   0    3.28    4.84
   3 -10   1  173.71    8.30
  -3  10  -1  164.24    8.00
   3 -10   2  577.58   12.53
  -3  10  -2  512.65   11.41
   3 -10   3  137.39   15.61
  -3  10  -3  128.68    5.47
   3 -10   4   27.36    9.05
  -3  10  -4   21.81    3.91
   3 -10   5   46.14    3.57
  -3  10  -5   49.05    4.25
  -3  10  -6   42.70    4.77
  -3  10  -6   31.95    3.31
  -3  10  -7  144.79    7.04
  -3  10  -7  161.17    7.48
  -3  10  -8  463.96   16.96
  -3  10  -8  463.31   16.56
  -3  10  -9   -0.25    2.74
  -3  10 -10  125.26    6.61
  -3  10 -11  341.97    8.70
  -3  10 -12   32.56    4.07
  -3  10 -13   -0.78    2.54
   3  -9  -6   87.33    5.83
  -3   9   6   63.30    5.65
   3  -9  -5   45.21    4.83
  -3   9   5   38.92    5.61
   3  -9  -4   13.18    3.82
  -3   9   4   18.11    3.88
   3  -9  -3  858.86   20.36
  -3   9   3  804.29   19.64
   3  -9  -2  217.04    9.40
  -3   9   2  189.01    8.91
   3  -9  -1   -1.93    3.34
  -3   9   1    4.60    4.38
   3  -9   0   46.75    6.66
  -3   9   0   49.99    4.17
   3  -9   1  117.55    5.43
  -3   9  -1  106.41    5.18
   3  -9   2  156.86    5.03
  -3   9  -2  154.57    6.57
   3  -9   3  101.41    3.77
  -3   9  -3  104.70    4.96
   3  -9   4  254.20   16.60
  -3   9  -4  250.76    5.31
   3  -9   5    2.02    1.79
  -3   9  -5    0.07    2.25
  -3   9  -6  345.87    8.03
  -3   9  -6  315.19    5.55
  -3   9  -7  521.21   11.18
  -3   9  -7  537.38   11.26
  -3   9  -8  110.26    4.87
  -3   9  -8  124.28    3.89
  -3   9  -9   78.14    4.12
  -3   9 -10  122.30    4.03
  -3   9 -11  877.56   32.96
  -3   9 -12  340.39    7.62
  -3   9 -13   40.20    3.77
   3  -8  -7    3.84    4.00
  -3   8   7    7.50    3.41
   3  -8  -6  146.53    5.42
  -3   8   6  135.52    6.26
   3  -8  -5   24.43    8.34
  -3   8   5   34.21    6.48
   3  -8  -4   78.36    4.30
  -3   8   4   80.90    6.12
   3  -8  -3    8.40    4.57
  -3   8   3    1.88    4.13
   3  -8  -2   70.92    4.13
  -3   8   2   82.81    6.60
   3  -8  -1  280.93    5.51
  -3   8   1  285.99    8.42
   3  -8   0   -0.70    2.74
  -3   8   0    2.27    4.11
   3  -8   1  488.44    8.63
  -3   8  -1  499.14    8.20
   3  -8   2  268.00    8.89
  -3   8  -2  279.55    9.19
   3  -8   3  102.65    5.65
  -3   8  -3  101.84    5.70
   3  -8   4   88.68    5.59
  -3   8  -4  100.92    4.71
  -3   8  -5   95.13    4.86
  -3   8  -6  406.41    6.77
  -3   8  -6  407.07    6.72
  -3   8  -7    2.17    2.68
  -3   8  -7    1.48    1.97
  -3   8  -8   71.76    4.30
  -3   8  -8   70.92    2.34
  -3   8  -9  137.39    4.20
  -3   8 -10  620.18   21.56
  -3   8 -11  421.26   10.59
  -3   8 -12   11.33    1.85
  -3   8 -13  434.87   10.99
  -3   8 -14   32.79    7.03
   3  -7  -8   95.08    4.28
  -3   7   8  105.95    5.14
   3  -7  -7   30.46    4.13
  -3   7   7   29.09    4.41
   3  -7  -6  273.90    7.97
  -3   7   6  253.40    8.41
   3  -7  -5  226.69    9.21
  -3   7   5  215.75   10.01
   3  -7  -4  579.62   11.91
  -3   7   4  620.84   13.94
   3  -7  -3 1002.65   10.32
  -3   7   3  993.60   11.67
   3  -7  -2  100.76    3.95
  -3   7   2   94.82    5.85
   3  -7  -1   77.67    5.83
  -3   7   1   74.94    5.84
   3  -7   0 1435.56   30.88
  -3   7   0 1467.89   31.69
   3  -7   1  265.60    7.48
  -3   7  -1  275.94    8.35
   3  -7   2    2.78    2.42
  -3   7  -2    4.25    3.26
   3  -7   3    4.53    3.39
  -3   7  -3    6.23    3.38
   3  -7   4    1.62    2.23
  -3   7  -4    3.22    2.60
  -3   7  -5    6.96    3.17
  -3   7  -5    6.30    2.04
  -3   7  -6 1025.34   22.92
  -3   7  -6 1021.95   22.36
  -3   7  -7   50.78    4.08
  -3   7  -7   45.94    1.62
  -3   7  -7   46.14    2.59
  -3   7  -8    0.39    2.04
  -3   7  -8    3.50    1.54
  -3   7  -9  442.92    9.37
  -3   7 -10   97.93    3.69
  -3   7 -11  152.40    6.65
  -3   7 -12    5.52    3.52
  -3   7 -13    3.09    1.65
  -3   7 -14   12.19    7.39
   3  -6  -9  102.17    5.11
  -3   6   9  106.26    5.47
   3  -6  -8    5.52    3.02
  -3   6   8    1.19    3.29
   3  -6  -7  171.08    5.71
  -3   6   7  175.95    6.91
   3  -6  -6   -0.08    2.75
  -3   6   6    2.16    3.82
   3  -6  -5  942.22   17.60
  -3   6   5  941.74   18.69
   3  -6  -4  438.30    6.62
  -3   6   4  448.60    7.99
   3  -6  -3   64.22    4.00
  -3   6   3   70.18    5.70
   3  -6  -2  179.40    7.81
  -3   6   2  189.45    6.27
   3  -6  -1 1251.99   22.70
  -3   6   1 1258.10   23.42
   3  -6   0  742.39   14.24
  -3   6   0  713.87   14.49
   3  -6   1  640.39    6.10
  -3   6  -1  641.75    7.55
   3  -6   2  165.14    4.52
  -3   6  -2  158.65    5.32
   3  -6   3  159.09    4.59
  -3   6  -3  152.50    4.60
   3  -6   4  516.73    5.37
  -3   6  -4  536.68    5.08
  -3   6  -5 1860.43   32.61
  -3   6  -5 1873.21   32.15
  -3   6  -5 1923.20    7.25
  -3   6  -6 1704.45   36.18
  -3   6  -6 1716.15   35.51
  -3   6  -6 1740.62   47.42
  -3   6  -7  196.68    6.17
  -3   6  -7  200.37    4.57
  -3   6  -7  194.81    4.70
  -3   6  -8  735.19    9.12
  -3   6  -8  698.04    6.75
  -3   6  -9  147.71    3.88
  -3   6 -10 1604.12   28.29
  -3   6 -11    0.41    1.15
  -3   6 -12   51.88    7.15
  -3   6 -13   69.05    2.76
  -3   6 -14  383.86    8.15
   3  -5 -10   76.50    4.55
  -3   5  10   80.74    5.04
   3  -5  -9    3.49    3.59
  -3   5   9   -0.51    2.75
   3  -5  -8  406.31   10.24
  -3   5   8  421.94   11.38
   3  -5  -7  238.65   12.09
  -3   5   7  255.13    8.37
   3  -5  -6  139.43    4.22
  -3   5   6  138.91    5.68
   3  -5  -5  349.50    5.89
  -3   5   5  355.69    7.06
   3  -5  -4   39.44    9.81
  -3   5   4   34.31    4.45
   3  -5  -3  345.33    8.95
  -3   5   3  331.01    9.50
   3  -5  -2   34.31    9.38
  -3   5   2   34.93    4.88
   3  -5  -1  221.62    3.68
  -3   5   1  223.18    5.15
   3  -5   0 1128.13   17.67
   3  -5   0 1092.62   17.50
   3  -5   1  163.31    4.43
   3  -5   1  157.85    5.50
   3  -5   2  647.46   10.87
   3  -5   2  653.79   10.64
  -3   5  -2  647.20   10.52
   3  -5   3   66.50    3.81
   3  -5   3   64.52    2.65
  -3   5  -3   59.60    2.36
  -3   5  -3   60.95    2.37
   3  -5   4  564.41    4.25
  -3   5  -4  555.49    4.95
  -3   5  -4  541.93    5.07
  -3   5  -4  560.18    3.76
   3  -5   5   57.56    1.87
  -3   5  -5   54.49    2.04
  -3   5  -5   58.21    3.08
  -3   5  -5   60.82    1.70
  -3   5  -6   18.69    2.67
  -3   5  -6   17.65    1.07
  -3   5  -6   17.12    1.36
  -3   5  -7   17.40    2.59
  -3   5  -7   17.40    1.14
  -3   5  -7   17.87    2.16
  -3   5  -8  453.15   10.76
  -3   5  -9 1170.75   10.10
  -3   5 -10   39.08    4.88
  -3   5 -11  337.80   12.24
  -3   5 -12  343.90   16.66
  -3   5 -13   76.48    2.91
  -3   5 -14    7.54    1.75
   3  -4 -11  306.37    7.09
  -3   4  11  316.77    8.13
   3  -4 -10  179.17    4.99
  -3   4  10  213.26    7.70
   3  -4  -9   16.12    3.35
  -3   4   9   21.27    3.17
   3  -4  -8  136.45    6.20
  -3   4   8  137.50    6.64
   3  -4  -7   17.17    3.47
  -3   4   7   21.22    4.29
   3  -4  -6 2347.14   10.72
  -3   4   6 2314.14   23.75
   3  -4  -5  105.61    6.39
  -3   4   5   97.57    5.01
   3  -4  -4  678.11   12.72
  -3   4   4  714.28   14.20
   3  -4  -3   20.22    5.94
   3  -4  -3   31.71    7.62
   3  -4  -2 1876.70   11.07
   3  -4  -2 1840.25   28.37
   3  -4  -1 1120.30   17.35
   3  -4  -1 1189.90   18.97
   3  -4   0  117.12    3.82
   3  -4   0  118.69    7.12
  -3   4   0  121.15    4.60
   3  -4   1  247.19    3.11
   3  -4   1  264.12    3.62
  -3   4  -1  258.33    2.80
   3  -4   2   89.22    2.10
   3  -4   2   82.39    1.73
  -3   4  -2   89.97    1.96
  -3   4  -2   87.81    1.59
   3  -4   3  202.21    3.74
  -3   4  -3  201.97    3.78
  -3   4  -3  191.98    3.52
   3  -4   4  830.79   12.80
  -3   4  -4  816.95   12.74
  -3   4  -4  845.04   13.23
  -3   4  -4  835.17   12.86
   3  -4   5  532.30    3.45
  -3   4  -5  497.39    4.21
  -3   4  -5  517.24    4.09
  -3   4  -5  509.53    3.55
   3  -4   6  147.11    3.14
   3  -4   6  153.12    1.65
  -3   4  -6  167.39    4.10
  -3   4  -6  151.14    2.11
   3  -4   7  198.37    4.33
  -3   4  -7  207.56    8.21
  -3   4  -7  190.91    4.44
  -3   4  -8   66.06    7.22
  -3   4  -9  672.59    6.74
  -3   4 -10   59.76    3.27
  -3   4 -11   87.03    3.06
  -3   4 -12   11.67    2.41
  -3   4 -13    1.08    1.41
   3  -3 -11  172.92    6.20
  -3   3  11  179.37    6.14
   3  -3 -10  300.74   12.43
  -3   3  10  297.00   12.34
   3  -3  -9   63.28    3.64
  -3   3   9   66.10    3.40
   3  -3  -8    4.89    2.73
  -3   3   8    5.85    3.34
   3  -3  -7  531.45    7.19
  -3   3   7  554.87    8.32
   3  -3  -6 1049.17   23.11
  -3   3   6 1062.94   23.71
   3  -3  -5  256.02    6.55
   3  -3  -5  243.33    6.15
   3  -3  -4  409.67    4.61
   3  -3  -4  406.66    5.12
   3  -3  -3 2272.70   34.28
   3  -3  -3 2213.09   34.48
   3  -3  -2 3371.63   50.21
   3  -3  -2 2990.54   45.25
   3  -3  -1 1985.84   13.39
   3  -3  -1 1893.62   14.00
  -3   3   1 1938.58   13.26
   3  -3   0   16.92    1.75
   3  -3   0   14.44    1.93
  -3   3   0   15.70    1.37
  -3   3   0   15.08    1.37
   3  -3   1  763.20    5.68
   3  -3   1  779.80   10.19
  -3   3  -1  767.55    5.29
  -3   3  -1  755.84    5.80
   3  -3   2  206.40    2.56
   3  -3   2  200.92    2.62
  -3   3  -2  194.37    1.94
  -3   3  -2  198.19    2.57
   3  -3   3 3632.30   22.72
  -3   3  -3 3639.63   22.52
  -3   3  -3 3644.55   22.70
  -3   3  -3 3720.21   23.45
   3  -3   4 5559.52   95.11
  -3   3  -4 5707.33   97.76
  -3   3  -4 5613.37   96.17
   3  -3   5  748.56    4.88
   3  -3   5  742.37    4.07
  -3   3  -5  750.95    4.54
   3  -3   6  858.33    5.65
   3  -3   6  882.65    4.56
  -3   3  -6  837.91    5.79
  -3   3  -6  848.77    5.50
   3  -3   7  221.08    4.88
  -3   3  -7  219.92    5.35
  -3   3  -7  213.22    5.05
   3  -3   8 1665.81   34.99
  -3   3  -8 1820.58   38.91
  -3   3  -8 1646.53   34.71
  -3   3  -9  482.95    5.49
  -3   3 -10  136.95    3.57
  -3   3 -11  116.17    3.26
  -3   3 -12  219.51    8.98
  -3   3 -13  483.52   14.22
   3  -2 -12   72.82    4.21
   3  -2 -11    2.70    2.18
  -3   2  11    0.87    2.16
   3  -2 -10  295.62    8.07
  -3   2  10  277.85    7.66
   3  -2  -9  755.31   13.96
  -3   2   9  774.33   14.28
   3  -2  -8   73.26    2.66
  -3   2   8   78.66    3.39
   3  -2  -7  570.93   12.96
   3  -2  -7  561.39   12.96
   3  -2  -6  197.53    5.79
   3  -2  -6  196.74    8.49
   3  -2  -5   89.51    3.01
   3  -2  -5   90.45    3.10
   3  -2  -4    8.10    2.78
   3  -2  -4    4.67    2.10
   3  -2  -3    4.93    2.25
   3  -2  -3    3.88    2.76
   3  -2  -2 1557.46   10.53
   3  -2  -2 1647.84   11.48
  -3   2   2 1644.29   11.06
   3  -2  -1  204.11    2.33
   3  -2  -1  206.86    2.91
  -3   2   1  191.47    2.15
  -3   2   1  202.05    2.83
   3  -2   0  594.76    4.74
   3  -2   0  580.63    4.96
  -3   2   0  566.43    3.95
  -3   2   0  570.07    4.91
   3  -2   1  190.50    2.12
   3  -2   1  198.54    4.06
  -3   2  -1  189.73    1.49
  -3   2  -1  203.95    2.87
   3  -2   2   92.31    2.04
  -3   2  -2   88.81    1.12
  -3   2  -2   90.47    1.14
  -3   2  -2   84.57    2.01
   3  -2   3  305.12    3.18
  -3   2  -3  307.50    2.89
  -3   2  -3  300.79    2.36
  -3   2  -3  321.32    3.99
   3  -2   4   49.80    1.78
   3  -2   4   52.40    3.89
  -3   2  -4   53.35    2.47
  -3   2  -4   47.20    2.33
   3  -2   5  131.80    2.95
   3  -2   5  143.22    3.22
  -3   2  -5  140.11    2.93
  -3   2  -5  133.91    3.25
   3  -2   6   50.79    1.76
   3  -2   6   56.17    1.95
  -3   2  -6   54.21    2.06
  -3   2  -6   53.21    1.95
   3  -2   7 1032.50   21.70
  -3   2  -7  993.25   20.96
  -3   2  -7  974.47   20.62
   3  -2   8  110.72    1.95
  -3   2  -8  108.08    2.65
   3  -2   9   72.16    1.61
  -3   2  -9   62.66    4.44
  -3   2 -10  422.74    8.21
  -3   2 -11    8.50    3.41
  -3   2 -12  159.76    4.19
  -3   2 -13    0.48    1.01
   3  -1 -13  229.27    6.49
   3  -1 -12  153.30    5.32
   3  -1 -11   14.38    3.43
  -3   1  11    5.12    2.08
   3  -1 -10   12.69    2.31
  -3   1  10   12.09    2.16
   3  -1  -9   17.72    5.00
   3  -1  -8 2083.66   20.61
   3  -1  -8 2091.60   23.37
   3  -1  -7  721.51   15.97
   3  -1  -7  707.68   15.54
   3  -1  -6  610.61   11.71
   3  -1  -6  595.78   11.32
   3  -1  -5   61.23    2.90
   3  -1  -5   63.79    3.12
   3  -1  -4  197.66    4.35
   3  -1  -4  201.21    4.88
   3  -1  -3 2017.24   15.56
   3  -1  -3 2091.67   14.20
  -3   1   3 1981.22   13.18
   3  -1  -2   90.80    4.03
   3  -1  -2   83.98    1.81
  -3   1   2   88.08    2.06
  -3   1   2   84.13    1.80
   3  -1  -1  842.91    5.84
  -3   1   1  815.28    5.67
  -3   1   1  789.45    6.72
   3  -1   0  162.55    1.66
   3  -1   0  168.97    2.62
  -3   1   0  160.57    1.55
  -3   1   0  154.05    2.75
   3  -1   1  985.51    7.54
  -3   1  -1  991.24    7.74
   3  -1   2   53.88    2.41
  -3   1  -2   49.92    2.00
   3  -1   3  429.72    6.61
   3  -1   3  450.71    7.65
  -3   1  -3  442.22    6.73
  -3   1  -3  438.35    7.70
   3  -1   4  307.87    5.05
   3  -1   4  292.42    5.44
  -3   1  -4  304.19    4.91
  -3   1  -4  283.80    5.41
   3  -1   5    0.49    0.85
   3  -1   5   -0.64    1.39
  -3   1  -5   -0.29    0.83
  -3   1  -5   -0.58    1.49
   3  -1   6   57.00    1.66
   3  -1   6   60.47    2.21
  -3   1  -6   63.34    2.95
  -3   1  -6   57.73    2.18
   3  -1   7  945.08   20.76
  -3   1  -7  804.83   17.60
   3  -1   8  165.16    3.47
  -3   1  -8  162.59    3.34
   3  -1   9   75.00    2.43
  -3   1  -9   76.86    3.04
  -3   1 -10  259.46    9.57
  -3   1 -11   12.94    3.62
  -3   1 -12   21.23    3.90
   3   0 -13  191.15    6.71
   3   0 -12  460.66    9.01
   3   0 -11   36.20   12.02
  -3   0  11   45.12    2.33
   3   0 -10    5.92    2.76
   3   0 -10    2.43    1.24
   3   0  -9  167.76    3.85
   3   0  -9  178.05    4.03
   3   0  -8  947.33   20.92
   3   0  -8  936.10   22.06
   3   0  -7   95.29    4.00
   3   0  -7   95.79    2.80
   3   0  -6  619.72   11.84
   3   0  -6  594.41   11.07
   3   0  -5 1030.10    8.46
   3   0  -5  937.12    8.40
   3   0  -4 4717.84   81.56
   3   0  -4 4625.04   68.81
   3   0  -3 3361.01   23.15
   3   0  -2  218.17    2.60
   3   0  -2  207.18    3.46
  -3   0   2  207.52    2.88
  -3   0   2  201.78    3.25
   3   0  -1   29.52    1.28
   3   0  -1   29.38    2.45
  -3   0   1   27.78    1.24
  -3   0   1   28.03    1.53
   3   0   0    6.73    1.44
   3   0   0    5.57    0.78
   3   0   0    6.76    1.67
  -3   0   0    4.95    1.87
   3   0   1 1448.47    8.95
   3   0   1 1467.87    9.30
   3   0   1 1468.27   11.04
  -3   0  -1 1471.57   11.25
   3   0   2 7104.48   44.40
  -3   0  -2 7117.47  192.02
   3   0   3 1697.70   25.27
   3   0   3 1600.55   24.73
  -3   0  -3 1524.12   22.79
   3   0   4  321.51    2.51
   3   0   4  337.16    4.48
  -3   0  -4  330.75    2.66
   3   0   5  614.69   10.90
   3   0   5  648.09   12.28
  -3   0  -5  636.75   12.70
   3   0   6  263.95    6.72
  -3   0  -6  287.24    7.83
   3   0   7 1461.63   15.13
  -3   0  -7 1350.32   13.66
   3   0   8    1.33    1.65
  -3   0  -8    3.55    2.64
   3   0   9  280.22    6.31
  -3   0  -9  290.57    6.29
  -3   0 -10   33.25    5.93
  -3   0 -11  236.10    5.38
  -3   0 -12  186.79    5.07
   3   1 -13    4.23    2.38
   3   1 -12   49.86    5.81
   3   1 -11  729.60    7.22
   3   1 -11  643.70   22.98
   3   1 -10   57.30    6.79
   3   1 -10   57.77    2.47
   3   1  -9  107.40    3.76
   3   1  -9   83.12    2.64
   3   1  -8  337.50    8.60
   3   1  -8  344.04    8.43
   3   1  -7   28.76    7.88
   3   1  -7   26.27    1.76
   3   1  -6   10.53    3.01
   3   1  -6   10.87    2.20
   3   1  -5   17.00    5.53
   3   1  -5   17.81    1.79
   3   1  -4  338.57    6.43
   3   1  -4  343.35    6.87
   3   1  -3  235.39    4.46
   3   1  -3  225.65    4.57
  -3  -1   3  226.36    4.61
   3   1  -2   14.37    1.71
   3   1  -2   11.14    1.83
  -3  -1   2   12.44    1.45
   3   1  -1   34.23    1.95
   3   1  -1   29.84    1.49
   3   1  -1   29.58    2.77
   3   1   0    0.37    0.44
   3   1   0    0.47    1.07
   3   1   0   -1.34    2.53
   3   1   1   31.31    1.96
   3   1   1   32.04    3.74
  -3  -1  -1   33.36    2.59
   3   1   2   19.31    1.32
   3   1   2   20.44    3.41
  -3  -1  -2   19.49    2.56
   3   1   3  251.67    2.18
   3   1   3  269.20    4.65
  -3  -1  -3  268.26    2.76
   3   1   4   50.17    1.24
   3   1   4   55.60    3.32
  -3  -1  -4   55.66    5.01
   3   1   5  254.00    6.94
  -3  -1  -5  249.80    5.97
   3   1   6   16.90    3.14
  -3  -1  -6   13.71    2.70
   3   1   7   -1.50    2.36
  -3  -1  -7    0.57    1.89
   3   1   8  109.06    3.95
  -3  -1  -8  111.90    3.08
   3   1   9    2.83    2.03
  -3  -1  -9    3.92    1.88
  -3  -1 -10  191.33    4.84
  -3  -1 -11   40.61    5.54
   3   2 -14   63.25    4.35
   3   2 -13   -1.24    2.76
   3   2 -12   23.44    8.97
   3   2 -11   31.68   10.45
   3   2 -11   34.25    5.12
   3   2 -10  622.67   15.86
   3   2 -10  600.69   12.18
   3   2  -9 1916.59   14.86
   3   2  -9 2032.14   14.43
   3   2  -8    0.31    0.92
   3   2  -8    0.32    1.27
   3   2  -7    0.93    3.55
   3   2  -7   -1.02    1.71
   3   2  -6  284.23    7.23
   3   2  -6  293.43    6.18
   3   2  -5  178.22    3.59
   3   2  -5  178.72    3.71
   3   2  -4   73.31    3.35
   3   2  -4   65.59    2.97
   3   2  -3  712.14   11.56
   3   2  -3  632.88   10.76
  -3  -2   3  686.06   11.51
   3   2  -2  240.44    4.60
   3   2  -2  241.53    4.58
   3   2  -2  245.57    5.74
   3   2  -1  726.97   11.54
   3   2  -1  734.17   11.65
   3   2   0   33.27    1.66
   3   2   0   35.80    4.07
  -3  -2   0   31.96    2.46
   3   2   1    9.86    2.06
   3   2   1   13.61    3.16
  -3  -2  -1   13.72    3.39
   3   2   2  713.94    4.27
   3   2   2  747.16    8.51
  -3  -2  -2  719.45    5.25
   3   2   3   71.17    1.47
   3   2   3   73.54    4.52
  -3  -2  -3   74.62    4.86
   3   2   4  113.84    5.57
  -3  -2  -4  106.96    2.72
   3   2   5  655.79   15.95
  -3  -2  -5  656.48   14.76
   3   2   6  162.56    4.96
  -3  -2  -6  166.63    9.63
   3   2   7    4.52    3.59
  -3  -2  -7    2.37    2.52
   3   2   8  253.30   10.03
  -3  -2  -8  260.59    9.68
   3   2   9  215.67    9.41
  -3  -2  -9  226.87    9.38
  -3  -2 -10    4.95    1.63
   3   3 -14  227.33   10.14
   3   3 -13  204.67    5.85
   3   3 -12   25.29   10.92
   3   3 -11   55.86    6.93
   3   3 -11   55.96    2.11
   3   3 -10  397.13    8.77
   3   3 -10  406.26    7.91
   3   3  -9    2.38    1.38
   3   3  -9    1.82    1.97
   3   3  -8  377.39    9.56
   3   3  -8  356.71    8.36
   3   3  -7  150.32    5.32
   3   3  -7  151.79    7.70
   3   3  -6 1403.66   25.18
   3   3  -6 1286.09   22.83
   3   3  -5 2898.42   14.75
   3   3  -5 2900.56   15.33
   3   3  -4  217.77    4.75
   3   3  -4  206.92    4.52
   3   3  -3   70.17    3.04
   3   3  -3   75.47    4.65
   3   3  -2   53.75    2.69
   3   3  -2   59.63    4.35
   3   3  -1   45.12    2.17
   3   3  -1   49.03    2.52
   3   3  -1   54.52    4.74
   3   3   0 3025.34   17.95
  -3  -3   0 2929.83   13.94
   3   3   1 1113.96   21.34
  -3  -3  -1 1113.15   19.81
  -3  -3  -2   32.73    2.92
   3   3   3  214.13    8.55
  -3  -3  -3  225.36    6.46
   3   3   4    0.75    4.40
  -3  -3  -4    2.85    2.25
   3   3   5  810.25   10.19
  -3  -3  -5  851.17    8.70
   3   3   6  232.89    6.83
  -3  -3  -6  219.80    5.33
   3   3   7  311.59   12.03
  -3  -3  -7  306.52   11.40
   3   3   8    2.21    3.06
  -3  -3  -8   -1.81    2.22
  -3  -3  -9    8.64    3.77
   3   4 -14    3.00    3.20
   3   4 -13  224.86    5.99
   3   4 -12   45.95    9.41
   3   4 -11   11.33    5.22
   3   4 -11   10.40    4.29
   3   4 -10   17.61    3.97
   3   4 -10   17.24    1.86
   3   4  -9   37.27    3.40
   3   4  -9   36.51    2.23
   3   4  -8   24.51    3.43
   3   4  -8   19.05    3.05
   3   4  -7    0.56    3.12
   3   4  -7    6.18    3.23
   3   4  -6   14.75    3.72
   3   4  -6   18.44    3.02
   3   4  -5   51.49    3.97
   3   4  -5   57.24    4.81
   3   4  -4    4.42    2.45
   3   4  -4    2.13    3.45
   3   4  -3  265.52    6.23
   3   4  -3  263.50    7.35
   3   4  -2   30.16    3.40
   3   4  -2   29.02    5.06
   3   4  -1   17.96    4.81
  -3  -4   1   28.94    9.17
   3   4   0    6.90    5.12
  -3  -4   0    6.50    2.44
   3   4   1   32.34    5.59
  -3  -4  -1   32.19    3.30
   3   4   2  202.42    7.31
  -3  -4  -2  198.51    6.22
   3   4   3   18.40    4.99
  -3  -4  -3   13.19    3.23
   3   4   4   66.86    5.84
  -3  -4  -4   68.30    4.93
   3   4   5   52.18    5.40
  -3  -4  -5   53.21    3.09
   3   4   6    7.71    4.30
  -3  -4  -6    5.72    3.75
   3   4   7    0.62    2.95
  -3  -4  -7    5.72    3.38
   3   4   8   70.08    5.23
  -3  -4  -8   66.72    3.05
   3   5 -14  144.58    5.73
   3   5 -13    7.15    4.49
   3   5 -12   22.08    7.60
   3   5 -11 1157.06   25.84
   3   5 -11 1078.15   23.16
   3   5 -10  479.06   10.05
   3   5 -10  448.57    8.21
   3   5  -9    4.48    2.95
   3   5  -9    5.26    2.27
   3   5  -8  310.04    5.65
   3   5  -8  288.83    4.46
   3   5  -7  257.03    5.60
   3   5  -7  261.07    5.14
   3   5  -6   37.28    4.72
   3   5  -6   35.15    3.54
   3   5  -5  173.26    6.18
   3   5  -5  154.81    5.99
   3   5  -4  157.14    6.49
   3   5  -4  143.13    5.67
   3   5  -3  227.41    6.73
   3   5  -3  238.50    7.50
   3   5  -2  146.06    6.25
   3   5  -2  129.54    6.67
   3   5  -1    4.67    6.41
  -3  -5   1    1.71    1.23
   3   5   0  829.76   19.41
  -3  -5   0  864.86   20.98
   3   5   1  210.34    6.41
  -3  -5  -1  222.26    4.91
   3   5   2   82.18    5.57
  -3  -5  -2   88.41    3.82
   3   5   3  448.14   11.07
  -3  -5  -3  442.83    9.89
   3   5   4   76.17    6.30
  -3  -5  -4   70.34    5.45
   3   5   5   10.10    3.87
  -3  -5  -5   21.12    4.19
   3   5   6   19.07    4.45
  -3  -5  -6    6.39    2.41
   3   5   7  364.41   10.62
  -3  -5  -7  360.86    9.45
   3   6 -13    5.83    3.77
   3   6 -12  224.43    6.25
   3   6 -11    3.73    3.09
   3   6 -11    1.58    0.67
   3   6 -10  121.92    5.07
   3   6 -10  127.93    3.03
   3   6  -9   36.20    4.65
   3   6  -9   34.50    2.42
   3   6  -8   37.34    3.86
   3   6  -8   37.94    3.07
   3   6  -7 1008.82   10.52
   3   6  -7  964.38    9.57
   3   6  -6  330.51    6.54
   3   6  -6  343.05    6.63
   3   6  -5    4.34    3.88
   3   6  -5   17.39    4.49
   3   6  -4  214.98    6.11
   3   6  -4  215.41    6.16
   3   6  -3    3.85    3.40
   3   6  -3   -0.89    4.12
   3   6  -2  550.52   11.81
   3   6  -1  522.61    9.76
  -3  -6   1  534.93    7.13
   3   6   0    0.87    4.80
  -3  -6   0    7.43    2.73
   3   6   1    5.58    4.77
  -3  -6  -1    3.73    1.29
   3   6   2    3.43    4.86
  -3  -6  -2    2.53    2.63
   3   6   3  197.00    9.91
  -3  -6  -3  198.37    7.17
   3   6   4  498.58   20.02
  -3  -6  -4  516.90   20.28
   3   6   5   52.37    4.91
  -3  -6  -5   54.89    7.51
   3   6   6   20.11    3.74
  -3  -6  -6   11.67    7.26
   3   7 -13   24.58   12.14
   3   7 -12   84.92    5.47
   3   7 -11    1.91    3.09
   3   7 -10   23.17    5.24
   3   7 -10   22.03    2.54
   3   7  -9   32.99    5.14
   3   7  -9   35.09    3.56
   3   7  -8    7.92    4.48
   3   7  -8    4.50    2.46
   3   7  -7    4.06    3.52
   3   7  -7    4.74    2.72
   3   7  -6    4.64    3.67
   3   7  -6    5.60    3.15
   3   7  -5  316.93    8.39
   3   7  -5  293.79    9.55
   3   7  -4  196.88    6.35
   3   7  -4  215.90    7.22
   3   7  -3   58.88    4.42
   3   7  -3   65.51    5.47
   3   7  -2   32.33    6.12
  -3  -7   2   23.89    6.36
   3   7  -1    1.11    4.25
  -3  -7   1   -1.71    2.74
   3   7   0  162.83    8.42
  -3  -7   0  170.76    9.73
   3   7   1   17.17    5.32
  -3  -7  -1   15.88    3.71
   3   7   2  141.00    9.21
  -3  -7  -2  119.61   10.81
   3   7   3  205.47    9.46
  -3  -7  -3  218.91    6.14
   3   7   4    7.94    4.95
  -3  -7  -4    4.14    2.24
   3   7   5   37.05    5.24
  -3  -7  -5   40.99    4.36
   3   8 -12  543.44   11.43
   3   8 -11  122.49    6.23
   3   8 -10   62.93    5.63
   3   8 -10   67.59    3.43
   3   8  -9  514.85   21.05
   3   8  -9  473.06   18.46
   3   8  -8   13.40    4.83
   3   8  -8   23.17    3.52
   3   8  -7    8.42    4.50
   3   8  -7    5.43    2.54
   3   8  -6   96.98    5.83
   3   8  -6   94.99    4.54
   3   8  -5   51.02    3.35
   3   8  -5   48.88    5.67
   3   8  -4  102.96    5.00
   3   8  -4  107.48    6.60
   3   8  -3   -1.63    2.95
   3   8  -3   -2.63    3.98
   3   8  -2  363.28   11.23
  -3  -8   2  379.41   10.42
   3   8  -1  295.15    9.80
  -3  -8   1  307.85    8.98
   3   8   0   15.06    5.20
  -3  -8   0   10.03    3.53
   3   8   1  222.68    7.84
  -3  -8  -1  236.53    6.46
   3   8   2   42.88    6.55
  -3  -8  -2   37.32    4.32
   3   8   3   51.57    6.36
  -3  -8  -3   46.69    4.29
   3   9 -11   10.85    4.40
   3   9 -10    7.90    3.66
   3   9 -10   15.55    2.36
   3   9  -9   82.11    5.51
   3   9  -9   75.73    3.65
   3   9  -8  239.79    7.02
   3   9  -8  247.08    6.62
   3   9  -7    8.45    3.80
   3   9  -7    1.04    2.81
   3   9  -6   54.20    4.22
   3   9  -6   56.20    5.02
   3   9  -5   -1.52    2.84
   3   9  -5    5.37    6.25
   3   9  -4   21.42    4.40
   3   9  -4   11.90    3.60
   3   9  -3  184.86    9.10
   3   9  -3  195.62   10.73
   3   9  -2   24.26    4.57
   3   9  -1   35.59    5.67
  -3  -9   1   38.22   12.48
   3   9   0    8.68    4.87
  -3  -9   0    5.71    3.03
   3   9   1   68.86    6.97
  -3  -9  -1   54.32    8.00
   3  10  -9   15.78    4.37
   3  10  -9   11.74    2.84
   3  10  -8   12.27    3.41
   3  10  -8   14.52    3.86
   3  10  -7   85.83    4.63
   3  10  -7  103.33    6.15
   3  10  -6  223.99    7.58
   3  10  -6  197.53    7.69
   3  10  -5   51.02    4.44
   3  10  -5   60.02    4.64
   3  10  -4   57.96    4.34
   3  10  -4   50.35    5.50
   3  10  -3    1.44    2.91
   3  10  -3   -0.11    3.95
   3  10  -2   51.28    5.20
   3  10  -2   52.04    4.20
   4 -13   4   30.54   12.01
  -4  13  -4   33.87    4.76
   4 -13   5   42.58    4.94
  -4  13  -5   59.43    5.98
  -4  13  -6    3.98    2.72
  -4  13  -6    2.93    3.18
  -4  13  -7   18.79    3.57
  -4  13  -7   30.58    4.12
   4 -12   0    2.58    3.53
  -4  12   0   -2.20    3.62
   4 -12   1   13.28    3.97
  -4  12  -1   25.63    5.51
   4 -12   2    2.21    1.51
  -4  12  -2    5.60    3.43
   4 -12   3   22.17    8.61
  -4  12  -3   30.46    4.76
   4 -12   4   69.31    6.57
  -4  12  -4   78.25    6.13
   4 -12   5   16.62    7.53
  -4  12  -5   22.36    4.19
  -4  12  -6   20.31    5.31
  -4  12  -6    6.11    3.01
  -4  12  -7   62.50    5.14
  -4  12  -7   74.79    5.60
  -4  12  -8    8.01    4.85
  -4  12  -9   40.57    5.24
  -4  12 -10    3.75    4.39
   4 -11  -2   98.58    6.69
  -4  11   2   91.21    6.32
   4 -11  -1  181.74    7.26
  -4  11   1  169.14    7.36
   4 -11   0  116.39    5.19
  -4  11   0  106.27    7.36
   4 -11   1    5.83    2.71
  -4  11  -1   13.90    5.84
   4 -11   2    0.09    2.57
  -4  11  -2    2.72    3.95
   4 -11   3   57.35    9.62
  -4  11  -3   60.60    5.33
   4 -11   4    9.46    4.47
  -4  11  -4    7.91    3.15
   4 -11   5   21.75    6.14
  -4  11  -5   18.94    4.08
  -4  11  -6    4.50    3.97
  -4  11  -6    9.61    3.37
  -4  11  -7   62.86    4.14
  -4  11  -7   71.81    4.25
  -4  11  -9    2.06    3.12
  -4  11 -10  106.53    5.28
  -4  11 -11  264.49    8.27
  -4  10   4   16.09    5.73
   4 -10  -3  110.35    6.23
  -4  10   3  111.63    7.25
   4 -10  -2  379.19   19.45
  -4  10   2  379.47   10.72
   4 -10  -1  142.92    7.52
  -4  10   1  148.57    8.96
   4 -10   0  202.75    6.98
  -4  10   0  189.82    8.34
   4 -10   1  343.26   13.44
  -4  10  -1  330.47   13.08
   4 -10   2   26.76    3.94
  -4  10  -2   26.22    4.90
   4 -10   3   21.89    7.39
  -4  10  -3   24.63    4.73
   4 -10   4   14.16    3.94
  -4  10  -4   10.07    3.65
   4 -10   5   10.69    4.15
  -4  10  -5    5.98    3.08
  -4  10  -6   29.12    4.06
  -4  10  -6   27.37    3.18
  -4  10  -7   48.62    3.68
  -4  10  -7   41.03    3.62
  -4  10  -8  284.69    8.44
  -4  10  -8  258.98    7.11
  -4  10  -9  115.35    3.99
  -4  10 -10    1.29    2.18
  -4  10 -11   37.75    2.74
  -4  10 -12   98.26    4.28
   4  -9  -5   84.98    5.24
  -4   9   5   92.33    6.72
   4  -9  -4  136.34    6.09
  -4   9   4  125.77    6.38
   4  -9  -3  110.38    6.93
  -4   9   3  105.94    5.69
   4  -9  -2   44.19    6.79
  -4   9   2   45.83    5.15
   4  -9  -1   42.02   12.47
  -4   9   1   54.41    5.68
   4  -9   0   41.78    4.01
  -4   9   0   29.10    4.92
   4  -9   1    3.19    3.02
  -4   9  -1    3.52    3.14
   4  -9   2   13.02    3.11
  -4   9  -2   11.02    3.88
   4  -9   3   45.91   11.86
  -4   9  -3   48.25    5.09
   4  -9   4   50.35    3.77
  -4   9  -4   43.69    3.16
   4  -9   5   37.49   11.26
  -4   9  -5   47.14    4.19
  -4   9  -6   -1.43    2.48
  -4   9  -6    2.34    2.16
  -4   9  -7   87.49    4.47
  -4   9  -7   77.68    3.67
  -4   9  -8   98.02    4.10
  -4   9  -8   86.88    2.86
  -4   9  -9  148.87    7.17
  -4   9 -10  326.75    9.19
  -4   9 -11  142.98    5.11
  -4   9 -12    0.72    2.01
  -4   9 -13    1.69    1.67
   4  -8  -7   11.46    3.67
  -4   8   7    4.73    3.49
   4  -8  -6  109.82    5.49
  -4   8   6  104.92    6.52
   4  -8  -5   47.54   14.98
  -4   8   5   58.20    6.48
   4  -8  -4  143.36    5.39
  -4   8   4  150.30    6.44
   4  -8  -3  497.32   17.87
  -4   8   3  491.57   18.19
   4  -8  -2  329.58    8.43
  -4   8   2  339.05    9.23
   4  -8  -1    3.44    2.99
  -4   8   1    2.80    4.15
   4  -8   0    4.76    3.14
  -4   8   0    1.30    3.73
   4  -8   1  165.54    6.12
  -4   8  -1  150.50    6.06
   4  -8   2  112.56    4.29
  -4   8  -2  119.51   10.24
   4  -8   3  256.49    5.51
  -4   8  -3  263.97    5.42
   4  -8   4  212.10    5.12
  -4   8  -4  202.67    4.39
  -4   8  -5   85.27    4.15
  -4   8  -5   82.00    3.19
  -4   8  -6   89.44    3.36
  -4   8  -6   93.39    3.41
  -4   8  -7   11.45    3.20
  -4   8  -7    6.00    1.84
  -4   8  -8    1.02    2.23
  -4   8  -8    2.01    1.24
  -4   8  -9  308.09    7.04
  -4   8 -10  450.33   11.43
  -4   8 -11  280.67   11.71
  -4   8 -12  139.19    4.65
  -4   8 -13  149.35    4.61
   4  -7  -8  225.16    6.69
  -4   7   8  223.24    7.61
   4  -7  -7   66.36   11.12
  -4   7   7   69.19    5.09
   4  -7  -6    0.63    2.37
  -4   7   6   -0.82    4.09
   4  -7  -5  106.45    4.75
  -4   7   5  111.03    7.03
   4  -7  -4  717.92   13.73
  -4   7   4  703.96   14.28
   4  -7  -3  209.86    8.42
  -4   7   3  232.88    7.61
   4  -7  -2  144.63    4.65
  -4   7   2  136.04    8.37
   4  -7  -1  481.70    8.39
  -4   7   1  468.08    8.27
   4  -7   0   66.40    9.58
  -4   7   0   67.73    5.37
   4  -7   1   32.23    3.51
  -4   7  -1   40.09    3.85
   4  -7   2   -0.67    2.48
  -4   7  -2    0.44    2.80
   4  -7   3   20.73    5.23
  -4   7  -3   23.67    3.11
  -4   7  -4    6.00    2.04
  -4   7  -5   12.88    3.43
  -4   7  -5   14.89    4.52
  -4   7  -6   56.10    3.28
  -4   7  -6   60.79    2.95
  -4   7  -7  319.69    5.80
  -4   7  -7  311.99    4.38
  -4   7  -8   16.66    2.71
  -4   7  -8   17.62    1.64
  -4   7  -9   11.03    2.74
  -4   7 -10  324.19   11.75
  -4   7 -11    3.00    2.06
  -4   7 -12   -0.71    1.72
  -4   7 -13   80.16    3.08
   4  -6  -9   73.98    3.58
  -4   6   9   87.73    4.94
   4  -6  -8  117.99    3.73
  -4   6   8  139.24    6.22
   4  -6  -7   79.61    4.76
  -4   6   7   75.45    4.67
   4  -6  -6   35.38    4.28
  -4   6   6   31.31   10.19
   4  -6  -5   89.65    4.02
  -4   6   5   90.25    8.42
   4  -6  -4   33.54    2.52
  -4   6   4   31.57    2.91
   4  -6  -3  490.49    7.32
  -4   6   3  476.18    7.80
   4  -6  -2  226.87    6.55
  -4   6   2  196.51    6.90
   4  -6  -1   76.13    3.36
  -4   6   1   71.42    4.62
   4  -6   0   89.73    3.87
   4  -6   0   89.90    9.22
   4  -6   1   28.08    2.98
   4  -6   1   24.90    8.66
   4  -6   2   14.09    2.23
   4  -6   2   17.75    5.23
   4  -6   3   48.42    4.05
   4  -6   3   47.58    2.42
   4  -6   4    4.06    1.52
  -4   6  -4    7.23    2.29
   4  -6   5  185.34    4.77
  -4   6  -5  178.22    5.18
   4  -6   6  177.07    4.61
  -4   6  -6  165.08    4.69
  -4   6  -6  176.01    4.37
  -4   6  -7  383.82    5.75
  -4   6  -7  390.93    4.82
  -4   6  -8  429.12    3.91
  -4   6  -9  967.77   17.41
  -4   6 -10   96.83    2.82
  -4   6 -11    0.82    0.92
  -4   6 -12  116.24    3.03
  -4   6 -13   60.31    2.46
   4  -5 -10   46.49    7.38
  -4   5  10   48.84    4.53
   4  -5  -9    7.93    4.06
  -4   5   9   13.70    3.61
   4  -5  -8  159.49    7.59
  -4   5   8  161.72    8.26
   4  -5  -7  207.83   10.19
  -4   5   7  219.68    9.12
   4  -5  -6   44.20    2.68
  -4   5   6   42.86    4.15
   4  -5  -5  611.75    7.18
  -4   5   5  600.84    7.56
   4  -5  -4 1003.34   11.34
   4  -5  -3   -1.51    2.33
   4  -5  -3   -0.43    2.61
   4  -5  -2    9.08    2.30
   4  -5  -2   15.81    5.45
   4  -5  -1  248.16    5.36
   4  -5  -1  242.48    6.29
   4  -5   0  177.64    2.88
   4  -5   0  170.05    4.51
   4  -5   1  340.83    3.76
   4  -5   1  354.06    4.76
   4  -5   2  589.70    4.77
   4  -5   2  616.78    5.03
  -4   5  -2  615.40    4.07
   4  -5   3  193.91    5.54
   4  -5   3  168.78    3.84
  -4   5  -3  178.55    3.13
   4  -5   4   38.83    2.03
  -4   5  -4   41.76    1.70
  -4   5  -4   45.50    2.18
   4  -5   5  238.12    5.65
  -4   5  -5  227.53    4.76
  -4   5  -5  229.31    4.86
  -4   5  -5  232.81    4.78
   4  -5   6   12.93    3.26
  -4   5  -6   15.13    1.45
  -4   5  -6   14.14    1.83
  -4   5  -6   14.84    1.28
   4  -5   7   87.86    2.93
  -4   5  -7   82.19    3.67
  -4   5  -7   76.45    2.64
   4  -5   8  577.41    6.09
  -4   5  -8  572.65    9.75
  -4   5  -9  189.47    4.74
  -4   5 -10  147.24    6.36
  -4   5 -11   29.80    2.24
  -4   5 -12  259.63    5.26
   4  -4 -11    1.05    1.82
  -4   4  11    6.13    3.45
   4  -4 -10   32.68    2.75
  -4   4  10   33.75    3.91
   4  -4  -9  218.34    9.42
  -4   4   9  223.44    9.68
   4  -4  -8    1.69    2.01
  -4   4   8    2.20    2.87
   4  -4  -7    4.51    1.88
  -4   4   7    3.97    4.47
   4  -4  -6 1202.35   10.64
   4  -4  -5  286.92    7.73
   4  -4  -5  260.94    7.03
   4  -4  -4   21.28    7.07
   4  -4  -4   21.42    6.63
   4  -4  -3  171.37    7.22
   4  -4  -3  177.78    4.75
   4  -4  -2   11.79    3.20
   4  -4  -2   13.99    4.61
   4  -4  -1  248.56    2.89
   4  -4  -1  252.95    4.49
   4  -4   0  269.27    3.24
   4  -4   0  262.42    4.09
  -4   4   0  270.86    2.56
   4  -4   1  161.35    4.11
   4  -4   1  175.24    4.00
  -4   4  -1  172.23    3.23
   4  -4   2   24.82    2.70
   4  -4   2   24.13    1.94
  -4   4  -2   18.24    2.29
   4  -4   3  349.16    3.57
  -4   4  -3  331.61    3.52
  -4   4  -3  331.19    3.12
   4  -4   4  248.36    2.69
  -4   4  -4  243.12    3.00
  -4   4  -4  250.04    2.63
   4  -4   5   45.83    1.55
  -4   4  -5   43.66    1.82
  -4   4  -5   44.02    1.71
  -4   4  -5   41.91    1.54
   4  -4   6    0.79    0.61
  -4   4  -6   -0.74    0.68
  -4   4  -6    2.56    1.69
  -4   4  -6    2.73    1.31
   4  -4   7  609.20   13.15
  -4   4  -7  578.03   12.76
  -4   4  -7  590.66   13.10
   4  -4   8  372.26    4.10
  -4   4  -8  355.60    5.05
  -4   4  -9  146.17    3.96
  -4   4 -10   75.21    2.67
  -4   4 -11   15.13    5.73
  -4   4 -12    9.01    4.48
   4  -3 -11  256.62    7.16
  -4   3  11  258.39    7.79
   4  -3 -10   -0.54    2.79
  -4   3  10    1.38    2.38
   4  -3  -9    2.56    3.12
  -4   3   9    3.20    2.34
   4  -3  -8    3.42    2.15
  -4   3   8    3.45    2.53
   4  -3  -7    1.05    1.13
   4  -3  -7    0.60    2.14
   4  -3  -6   51.59    8.04
   4  -3  -6   51.91    6.57
   4  -3  -5  696.68   15.39
   4  -3  -5  698.56   16.01
   4  -3  -4  723.21   13.25
   4  -3  -4  689.17   12.92
   4  -3  -3    6.34    1.57
   4  -3  -3    3.07    2.01
   4  -3  -1   40.38    1.80
   4  -3  -1   43.54    2.39
  -4   3   1   39.15    1.58
   4  -3   0    2.69    0.79
   4  -3   0    3.48    1.64
  -4   3   0    4.16    1.10
   4  -3   1   15.77    3.66
   4  -3   1   17.54    1.85
  -4   3  -1   16.22    0.93
   4  -3   2    1.64    1.08
  -4   3  -2    3.98    0.86
   4  -3   3  359.79    3.26
  -4   3  -3  384.61    2.31
  -4   3  -3  381.95    2.17
   4  -3   4   21.73    1.98
  -4   3  -4   22.85    1.91
  -4   3  -4   23.15    1.45
  -4   3  -4   22.22    1.71
   4  -3   5  332.59    6.29
  -4   3  -5  335.47    6.81
  -4   3  -5  370.96    6.64
  -4   3  -5  351.19    7.15
   4  -3   6  383.85    8.48
   4  -3   6  419.75    9.80
  -4   3  -6  393.06    8.49
  -4   3  -6  369.08    8.59
   4  -3   7 1507.80   32.07
   4  -3   7 1707.31   36.36
  -4   3  -7 1531.02   32.46
  -4   3  -7 1505.80   32.27
  -4   3  -9    0.41    0.90
  -4   3 -10  259.07    9.29
  -4   3 -11  121.82    8.35
   4  -2 -12   92.79    4.47
   4  -2 -11   46.27    7.07
  -4   2  11   42.91    3.02
   4  -2 -10   81.90    4.50
  -4   2  10   74.45    3.40
   4  -2  -9  295.02   11.03
   4  -2  -9  275.76   10.23
   4  -2  -8    5.07    2.27
   4  -2  -8    4.11    1.87
   4  -2  -7   58.67    2.32
   4  -2  -7   66.73    5.34
   4  -2  -6 1822.71   39.55
   4  -2  -6 1719.40   38.88
   4  -2  -5   56.39    3.39
   4  -2  -5   51.21    5.48
   4  -2  -4    4.23    1.98
   4  -2  -4    6.03    3.41
   4  -2  -3  580.00    4.21
   4  -2  -3  582.11    5.41
   4  -2  -2   66.90    2.44
   4  -2  -2   68.18    3.43
  -4   2   2   68.84    2.42
   4  -2  -1   95.53    3.05
   4  -2  -1   94.90    6.56
  -4   2   1   94.56    3.28
   4  -2   0  339.47    5.31
   4  -2   0  316.22    6.69
  -4   2   0  343.66    5.54
   4  -2   1  335.64    5.92
  -4   2  -1  325.60    4.93
   4  -2   2   24.87    4.12
   4  -2   3  473.18    3.99
   4  -2   4   58.08    2.23
  -4   2  -4   57.07    1.85
  -4   2  -4   55.73    1.36
   4  -2   5   44.32    1.23
   4  -2   5   52.45    2.09
  -4   2  -5   47.56    1.07
   4  -2   6  437.86    9.71
   4  -2   6  488.16   11.02
  -4   2  -6  461.62   10.81
   4  -2   7   35.13    2.91
  -4   2  -7   36.30    4.36
   4  -2   8   34.84    2.19
  -4   2  -8   32.47    2.55
   4  -2   9    3.72    1.93
  -4   2  -9    3.68    2.52
  -4   2 -10   20.41    1.88
  -4   2 -11  139.55    3.53
   4  -1 -12   36.23    6.99
   4  -1 -11   74.45    3.86
  -4   1  11   66.62    3.07
   4  -1 -10   34.50   17.10
   4  -1 -10   39.53    4.60
   4  -1  -9   62.19    3.57
   4  -1  -9   56.09    2.69
   4  -1  -8 1117.50    9.59
   4  -1  -8 1213.44   10.62
   4  -1  -7  578.46   12.24
   4  -1  -7  590.17    7.34
   4  -1  -6   91.43    2.58
   4  -1  -6  100.88    4.32
   4  -1  -5    2.09    1.74
   4  -1  -5    1.32    1.99
   4  -1  -4  157.82    3.76
   4  -1  -4  155.02    4.35
   4  -1  -3  577.28    5.11
   4  -1  -2 1231.22   18.62
   4  -1  -2 1136.21   18.28
  -4   1   2 1138.68   17.36
   4  -1  -1  139.06    4.04
   4  -1  -1  142.18    5.90
  -4   1   1  139.24    4.25
   4  -1   0  129.32    3.89
   4  -1   0  125.09    4.47
  -4   1   0  128.57    3.69
   4  -1   1  630.59   10.56
   4  -1   2 1276.27   19.86
   4  -1   3  615.22    5.87
   4  -1   4    3.21    0.71
   4  -1   4    6.21    2.22
  -4   1  -4    2.79    0.63
   4  -1   5 1296.72   27.07
   4  -1   5 1373.50   28.96
  -4   1  -5 1339.85   27.74
   4  -1   6    1.50    0.74
   4  -1   6    4.74    2.24
  -4   1  -6    0.55    0.62
   4  -1   7  953.57    8.18
  -4   1  -7  950.15    7.56
   4  -1   8   41.87    2.16
  -4   1  -8   44.07    5.56
   4  -1   9   11.33    1.73
  -4   1  -9   10.30    3.51
  -4   1 -10   28.57    1.86
   4   0 -13  286.03    7.32
   4   0 -12    4.77    2.77
   4   0 -11   65.17    9.87
   4   0 -11   66.80    4.85
   4   0 -10  119.11    4.17
   4   0 -10  116.57    3.51
   4   0  -9   46.04    3.35
   4   0  -9   42.32    2.67
   4   0  -8  309.12    6.02
   4   0  -8  272.12    3.95
   4   0  -7  414.33   10.64
   4   0  -7  393.32   12.31
   4   0  -6  937.75   20.32
   4   0  -6  869.66   18.78
   4   0  -5    4.32    1.78
   4   0  -5    5.04    1.71
   4   0  -4  158.94    3.64
   4   0  -4  162.30    4.40
   4   0  -3  374.90    3.24
   4   0  -3  385.27    4.82
  -4   0   3  374.11    3.66
   4   0  -2    7.32    1.95
   4   0  -2   10.75    2.47
  -4   0   2    6.88    1.12
   4   0  -1  795.06   12.13
   4   0  -1  775.93   12.77
  -4   0   1  780.15   12.15
   4   0   0    0.85    0.74
   4   0   0    1.19    0.68
   4   0   0    0.26    2.42
   4   0   1  134.73    2.58
   4   0   1  138.95    2.68
   4   0   1  142.95    5.60
   4   0   2    8.94    0.90
   4   0   2   11.24    1.01
   4   0   2    9.09    2.93
   4   0   3    4.72    1.21
   4   0   3    6.31    2.31
  -4   0  -3    5.14    1.01
   4   0   4  109.81    1.87
   4   0   4  111.34    4.58
   4   0   5  772.40   16.54
   4   0   5  851.86   19.37
  -4   0  -5  772.40   17.17
   4   0   7  133.52    3.36
  -4   0  -7  146.00    3.73
   4   0   8  132.64    3.93
  -4   0  -8  121.56    3.41
   4   0   9  342.74    8.73
  -4   0  -9  324.87    7.85
   4   1 -13   55.15    3.33
   4   1 -12   34.53    8.04
   4   1 -11  101.94    4.78
   4   1 -11  101.28    3.02
   4   1 -10    9.87    5.15
   4   1 -10    8.06    4.30
   4   1  -9  146.03    9.51
   4   1  -9  150.53    4.44
   4   1  -8  987.12   11.28
   4   1  -8  892.48   11.53
   4   1  -7  361.87    9.09
   4   1  -7  360.61    8.49
   4   1  -6   32.27    4.37
   4   1  -6   34.82    8.12
   4   1  -5  819.36   14.99
   4   1  -5  786.81   14.67
   4   1  -4   38.66    2.08
   4   1  -4   37.06    3.13
   4   1  -3   34.56    2.11
   4   1  -3   33.09    3.17
  -4  -1   3   28.71    1.63
   4   1  -2   13.08    1.80
   4   1  -2    7.70    3.12
  -4  -1   2   14.67    1.53
   4   1  -1  125.76    3.36
   4   1  -1  123.29    2.94
   4   1  -1  124.99    5.05
   4   1   0  118.55    2.59
   4   1   0  130.16    2.98
   4   1   0  121.96    5.28
   4   1   1   12.64    0.88
   4   1   1   14.43    1.61
   4   1   1   11.16    4.85
   4   1   2  458.83    8.09
   4   1   2  478.47   10.47
  -4  -1  -2  464.30    9.17
   4   1   3  129.96    3.57
   4   1   3  149.70    5.55
  -4  -1  -3  150.25    4.14
   4   1   4   52.00    2.44
   4   1   4   60.53    5.24
  -4  -1  -4   52.48    2.31
   4   1   5   -3.46    3.09
  -4  -1  -5    1.42    1.57
   4   1   6   30.14    3.20
  -4  -1  -6   27.02    3.97
   4   1   7   17.61    2.77
  -4  -1  -7   19.80    2.17
   4   1   8  135.63    3.87
  -4  -1  -8  130.65    3.06
   4   1   9   69.27    3.82
  -4  -1  -9   70.88    2.38
   4   2 -13   35.86    4.08
   4   2 -12   52.48    6.64
   4   2 -11   88.26    3.81
   4   2 -11   77.16    2.57
   4   2 -10  426.52   15.47
   4   2 -10  409.78   14.23
   4   2  -9 1193.22   21.55
   4   2  -9 1211.68   21.29
   4   2  -8  208.35    4.76
   4   2  -8  205.25    3.33
   4   2  -7  104.26    4.50
   4   2  -7   97.25    4.72
   4   2  -6  437.88   10.36
   4   2  -6  411.02    9.70
   4   2  -5 1244.65   26.47
   4   2  -5 1240.15   28.35
   4   2  -4 1113.33   19.89
   4   2  -4 1045.75   19.21
   4   2  -3   29.75    1.95
   4   2  -3   30.08    3.83
   4   2  -2  261.48    3.93
   4   2  -2  272.57    3.52
   4   2  -2  262.15    7.19
   4   2  -1  140.12    2.83
   4   2  -1  142.96    2.63
   4   2  -1  145.54    5.61
   4   2   0 1175.19   20.37
   4   2   0 1193.88   20.97
   4   2   0 1225.44   23.34
   4   2   1 2465.57   12.42
   4   2   2  104.61    2.49
   4   2   2  118.64    6.26
  -4  -2  -2  113.85    4.97
   4   2   3  562.11   14.11
  -4  -2  -3  581.72   13.10
   4   2   4  700.45   10.72
  -4  -2  -4  713.95    8.37
   4   2   5  946.28   18.47
  -4  -2  -5  905.08   16.41
   4   2   6  106.61    5.00
  -4  -2  -6  103.11    3.29
   4   2   7   93.52    4.30
  -4  -2  -7   79.35    2.69
   4   2   8   38.74    4.07
  -4  -2  -8   37.77    2.09
   4   2   9  179.37    5.93
   4   3 -13   70.26    4.51
   4   3 -12  393.53    9.39
   4   3 -11   59.11   11.07
   4   3 -11   57.88    2.97
   4   3 -10  404.59   14.85
   4   3 -10  381.56   13.29
   4   3  -9  364.58    8.28
   4   3  -9  340.04    6.93
   4   3  -8  382.09    6.15
   4   3  -8  392.95    4.94
   4   3  -7   10.94    4.64
   4   3  -7    5.68    1.48
   4   3  -6    3.93    2.79
   4   3  -6    5.33    2.37
   4   3  -5  337.78    8.42
   4   3  -5  323.19    8.58
   4   3  -4    7.54    3.09
   4   3  -4    5.26    3.57
   4   3  -3  638.05   14.21
   4   3  -3  613.35   14.31
   4   3  -2  204.14    5.29
   4   3  -2  192.21    6.77
   4   3  -1    3.00    1.58
   4   3  -1   -3.63    4.28
   4   3   0    5.31    2.31
   4   3   0    8.10    4.43
   4   3   1   49.23    5.18
  -4  -3  -1   49.30    7.22
   4   3   2   -1.60    3.99
  -4  -3  -2   -0.54    2.10
   4   3   3   63.32    5.33
  -4  -3  -3   58.06    3.69
   4   3   4 2283.31   15.43
  -4  -3  -4 2227.71   38.44
   4   3   5  798.49   16.13
  -4  -3  -5  791.37   14.23
   4   3   6   16.67    3.22
  -4  -3  -6   15.62    2.39
   4   3   7  315.31   13.26
  -4  -3  -7  306.27   12.34
   4   3   8    1.72    2.70
   4   4 -13    1.60    2.99
   4   4 -12   12.95    4.45
   4   4 -11  298.46   12.41
   4   4 -11  293.27   11.27
   4   4 -10    7.31    3.81
   4   4 -10    7.74    2.77
   4   4  -9  503.60   10.42
   4   4  -9  505.27    9.46
   4   4  -8   69.68    4.25
   4   4  -8   70.70    2.68
   4   4  -7  121.56    4.75
   4   4  -7  119.06    3.22
   4   4  -6   87.35    4.38
   4   4  -6   96.98    3.84
   4   4  -5  142.59    5.38
   4   4  -5  138.82    5.72
   4   4  -4   51.24    4.08
   4   4  -4   47.90    3.36
   4   4  -3    3.21    3.15
   4   4  -3    0.43    3.59
   4   4  -2   62.64    3.51
   4   4  -2   50.81    4.21
   4   4  -1  136.61    3.24
   4   4  -1  130.57    7.06
   4   4   0   97.71    5.88
  -4  -4   0  102.10    4.14
   4   4   1   39.35    5.00
  -4  -4  -1   37.03   10.92
   4   4   2   24.78    4.44
  -4  -4  -2   31.30    8.69
   4   4   3    2.31    3.92
  -4  -4  -3    4.44    2.18
   4   4   4  150.89    7.64
  -4  -4  -4  150.61    6.21
   4   4   5   18.33    4.40
  -4  -4  -5   13.57    5.29
   4   4   6  262.97    7.18
  -4  -4  -6  248.96    6.99
   4   4   7   32.92    4.09
   4   5 -13   29.88    8.44
   4   5 -12   27.43   10.40
   4   5 -11 1189.47   76.79
   4   5 -11 1117.32   41.21
   4   5 -10   27.12    3.86
   4   5 -10   24.04    3.54
   4   5  -9  320.74   12.01
   4   5  -9  310.18   11.47
   4   5  -8  193.35    6.05
   4   5  -8  173.96    5.31
   4   5  -7 1263.67   23.04
   4   5  -7 1263.76   22.83
   4   5  -6 1017.63   10.35
   4   5  -6 1022.92   11.31
   4   5  -5  172.46    4.71
   4   5  -5  175.32    5.57
   4   5  -4   33.13    3.67
   4   5  -4   32.64    3.28
   4   5  -3    0.10    2.53
   4   5  -3    2.66    3.97
   4   5  -2  408.34    5.81
   4   5  -2  379.81    7.90
   4   5   0  551.75   13.01
  -4  -5   0  534.11   12.89
   4   5   1   84.63    5.28
  -4  -5  -1   90.42    6.30
   4   5   2  938.20   19.09
  -4  -5  -2  944.31   17.02
   4   5   3   86.08    6.20
  -4  -5  -3   79.43    4.14
   4   5   4  595.57   23.60
  -4  -5  -4  585.03   22.39
   4   5   5   12.59    3.43
  -4  -5  -5   21.97    3.25
   4   5   6   56.75    4.70
  -4  -5  -6   60.31    3.78
   4   6 -13   82.86    4.30
   4   6 -12  141.46    6.30
   4   6 -11  311.97    7.67
   4   6 -11  308.77    5.93
   4   6 -10  137.23    6.83
   4   6 -10  144.97    6.46
   4   6  -9   19.68    3.84
   4   6  -9   22.80    3.31
   4   6  -8   40.04    2.87
   4   6  -8   47.59    3.24
   4   6  -7   40.53    4.06
   4   6  -7   40.88    3.71
   4   6  -6    6.63    3.33
   4   6  -5   62.18    3.73
   4   6  -5   54.86    3.37
   4   6  -4  197.02    5.78
   4   6  -4  189.55    6.30
   4   6  -3    0.32    2.38
   4   6  -3    1.83    3.85
   4   6  -2    8.55    2.85
   4   6  -2    7.28    4.12
   4   6  -1   50.43    3.61
   4   6  -1   47.00    5.20
   4   6   0   40.56    5.18
  -4  -6   0   41.91    3.53
   4   6   1   10.21    3.88
  -4  -6  -1   12.70    4.55
   4   6   2  492.29   20.63
  -4  -6  -2  506.93   23.20
   4   6   3  856.69   16.57
  -4  -6  -3  866.94   14.69
   4   6   4   20.81    4.65
  -4  -6  -4   18.77    2.74
   4   6   5   53.13    3.88
  -4  -6  -5   51.84    4.53
   4   7 -12  187.62    6.41
   4   7 -11  109.61    5.01
   4   7 -11   97.99    3.41
   4   7 -10    9.18    2.77
   4   7 -10    6.99    2.64
   4   7  -9   25.97    3.92
   4   7  -9   19.96    3.10
   4   7  -8   31.69    3.81
   4   7  -8   26.77    2.88
   4   7  -7  105.86    5.99
   4   7  -7   96.78    3.94
   4   7  -6  128.01    4.76
   4   7  -6  116.85    5.17
   4   7  -5   16.53    3.61
   4   7  -5   14.74    4.56
   4   7  -4   32.00    3.40
   4   7  -4   41.75    4.89
   4   7  -3  168.92    7.14
   4   7  -3  160.84    8.61
   4   7  -2   22.39    3.01
   4   7  -2   27.92    5.91
   4   7  -1   39.06    4.64
   4   7  -1   39.60    5.47
   4   7   0   81.07    5.69
  -4  -7   0   74.57    7.91
   4   7   1   51.60    5.82
  -4  -7  -1   34.35   11.43
   4   7   2  153.65    8.52
  -4  -7  -2  123.96    4.86
   4   7   3    5.40    4.52
   4   8 -11  284.77    7.41
   4   8 -10   49.73    3.87
   4   8 -10   46.12    2.87
   4   8  -9  479.50   12.64
   4   8  -9  454.38   11.24
   4   8  -8  948.05   16.66
   4   8  -8  914.26   15.51
   4   8  -7  197.38    9.14
   4   8  -7  192.07    8.83
   4   8  -6    2.61    3.21
   4   8  -6    1.45    3.88
   4   8  -5    0.68    2.84
   4   8  -5    0.05    3.76
   4   8  -4   41.65    3.71
   4   8  -4   45.22    5.40
   4   8  -3  879.09   33.63
   4   8  -3  796.67   31.02
   4   8  -2  573.47   11.43
   4   8  -2  574.76   13.24
   4   8  -1    2.95    2.92
   4   8  -1    1.14    4.71
   4   8   0  280.59   10.53
  -4  -8   0  282.44    8.19
   4   8   1   40.64    5.48
  -4  -8  -1   23.40    8.74
   4   9  -9    7.69    3.20
   4   9  -9    4.62    3.18
   4   9  -8    2.58    3.05
   4   9  -8   -1.13    3.40
   4   9  -7    2.12    2.71
   4   9  -7    3.70    3.41
   4   9  -6    5.34    2.80
   4   9  -6   14.36    3.85
   4   9  -5    2.20    2.60
   4   9  -5   -0.76    3.32
   4   9  -4   55.37    4.33
   4   9  -4   44.97    5.08
   4   9  -3   52.94    4.04
   4   9  -3   58.07    5.74
   4   9  -2   40.34    4.56
   4   9  -2   50.52    4.10
   4   9  -1   81.07    6.33
   4   9  -1   61.31    6.34
   5 -12   1   53.36    4.25
  -5  12  -1   54.00    5.43
   5 -12   2    4.88    2.36
  -5  12  -2    3.71    3.36
   5 -12   3    2.14    1.98
  -5  12  -3    3.77    3.77
   5 -12   4  123.59    5.17
  -5  12  -4  125.39    6.23
   5 -12   5 1111.11   16.51
  -5  12  -5 1074.44   25.00
  -5  12  -6  716.98   17.67
  -5  12  -6  672.11   16.65
  -5  12  -7   15.62    3.47
  -5  12  -7   12.97    2.70
  -5  12  -8    5.47    3.36
  -5  12  -9    0.57    2.30
   5 -11  -2   13.83    6.65
  -5  11   2   13.96    3.82
   5 -11  -1   12.15    4.90
   5 -11   0    4.47    2.65
  -5  11   0    6.40    4.52
   5 -11   1   -0.28    2.64
  -5  11  -1    5.04    3.97
   5 -11   2    7.80    2.89
  -5  11  -2   10.12    5.77
   5 -11   3  589.20   25.45
  -5  11  -3  595.05   24.02
   5 -11   4  286.62   11.83
  -5  11  -4  284.97   11.96
   5 -11   5   10.17    3.78
  -5  11  -5   19.68    3.56
  -5  11  -6  429.39   17.21
  -5  11  -6  431.51   17.34
  -5  11  -7  310.66    7.19
  -5  11  -7  328.35    7.30
  -5  11  -8    6.32    3.22
  -5  11  -9    7.08    1.85
  -5  11 -10   83.95    4.19
  -5  11 -11   -0.82    2.22
   5 -10  -4   64.54    4.61
  -5  10   4   55.78    6.26
   5 -10  -3   75.77    9.96
  -5  10   3   83.66    6.62
   5 -10  -2    2.89    1.62
  -5  10   2    7.57    4.61
   5 -10  -1  327.32   13.26
  -5  10   1  339.26   14.97
   5 -10   0  179.47    8.34
  -5  10   0  181.40    9.91
   5 -10   1    5.19    3.03
  -5  10  -1    2.69    3.73
   5 -10   2  284.93    8.41
  -5  10  -2  302.35    9.33
   5 -10   3  232.89    9.25
  -5  10  -3  210.34    9.00
   5 -10   4    5.61    2.17
  -5  10  -4    7.98    4.48
   5 -10   5   63.32    3.53
  -5  10  -5   76.83    4.76
  -5  10  -6  440.10   11.15
  -5  10  -6  469.46   12.15
  -5  10  -7    1.86    2.89
  -5  10  -7    2.34    2.71
  -5  10  -8    6.92    3.52
  -5  10  -9  140.51    6.57
  -5  10 -10    5.08    2.17
  -5  10 -11   53.82    3.11
   5  -9  -5   77.04    4.35
  -5   9   5   77.73    6.45
   5  -9  -4    7.19    3.78
  -5   9   4    7.59    3.95
   5  -9  -3    3.67    2.30
  -5   9   3    5.42    4.07
   5  -9  -2   38.71    4.16
  -5   9   2   34.74    3.85
   5  -9  -1  266.09   10.40
  -5   9   1  280.58   11.78
   5  -9   0   13.54    3.97
  -5   9   0   11.55    4.38
   5  -9   1   29.57    3.39
  -5   9  -1   29.49    4.29
   5  -9   2   15.79    3.56
  -5   9  -2   11.26    3.63
   5  -9   3  520.51   12.94
  -5   9  -3  521.97   11.61
   5  -9   4 1030.66   18.66
  -5   9  -4 1051.24   19.00
  -5   9  -5    1.15    2.25
  -5   9  -5    0.69    1.14
  -5   9  -6  248.58    6.30
  -5   9  -6  240.10    5.70
  -5   9  -7   31.89    2.95
  -5   9  -7   29.47    2.89
  -5   9  -8  206.01    6.22
  -5   9  -9  193.86    6.05
  -5   9 -10   10.07    2.62
  -5   9 -11   17.33    1.86
   5  -8  -6   82.10    5.38
  -5   8   6   92.16    6.63
   5  -8  -5  165.21    5.30
  -5   8   5  176.05    7.24
   5  -8  -4   -0.20    2.33
  -5   8   4    2.85    3.55
   5  -8  -3   46.98    3.57
  -5   8   3   53.21    3.58
   5  -8  -2   40.86    3.84
  -5   8   2   29.10    3.44
   5  -8  -1  111.76    4.65
  -5   8   1  109.61    5.09
   5  -8   0   36.58    3.23
  -5   8   0   41.58    3.05
   5  -8   1  435.52    6.44
  -5   8  -1  401.90    6.92
   5  -8   2  968.78    9.76
  -5   8  -2  951.96   10.25
   5  -8   3   13.96    3.59
  -5   8  -3    8.72    4.40
   5  -8   4  433.19    6.60
  -5   8  -4  410.88    5.61
  -5   8  -5  659.19    7.64
  -5   8  -5  641.29    7.26
  -5   8  -6  208.58    5.51
  -5   8  -6  215.15    5.76
  -5   8  -7   33.78    2.96
  -5   8  -7   36.25    6.06
  -5   8  -8   58.47    3.44
  -5   8  -9   65.43    2.96
  -5   8 -10   30.15    2.68
   5  -7  -8  184.11    6.29
  -5   7   8  180.43    7.23
   5  -7  -7  493.35   12.84
  -5   7   7  475.44   12.64
   5  -7  -6   75.68    3.14
  -5   7   6   71.84   14.80
   5  -7  -5  285.46    7.95
  -5   7   5  259.45   16.75
   5  -7  -4    1.51    1.21
  -5   7   4    2.79    3.63
   5  -7  -3   21.14    4.88
  -5   7   3    8.90    3.45
   5  -7  -2  245.13    6.44
  -5   7   2  249.41    7.37
   5  -7  -1   39.27    3.55
  -5   7   1   31.44    5.04
   5  -7   0  138.01    3.91
   5  -7   0  126.76    4.46
   5  -7   1  239.83    4.63
   5  -7   1  238.76    5.70
   5  -7   2  137.57    4.40
   5  -7   2  132.68    6.91
   5  -7   3   95.18    2.79
   5  -7   3   93.75    3.98
   5  -7   4  269.73    4.42
   5  -7   4  270.81    6.24
   5  -7   5   40.14    2.04
  -5   7  -5   41.09    3.60
   5  -7   6  101.80    2.26
  -5   7  -6   93.64    2.77
   5  -7   7   31.17    1.80
  -5   7  -7   28.94    3.08
  -5   7  -8   43.10    4.74
  -5   7  -9    4.64    2.52
  -5   7 -10   54.46    2.43
   5  -6  -9   -0.72    3.21
  -5   6   9    2.49    2.95
   5  -6  -8  171.53   12.55
  -5   6   8  184.34    7.01
   5  -6  -7   -0.60    2.35
  -5   6   7    1.87    2.04
   5  -6  -6    2.35    2.09
  -5   6   6    2.55    2.78
   5  -6  -5  114.48    3.98
  -5   6   5  110.57    4.98
   5  -6  -4   11.62    5.59
  -5   6   4   12.97    4.30
   5  -6  -3  441.96    9.21
   5  -6  -3  435.91   11.65
   5  -6  -2   -0.16    1.56
   5  -6  -2   -0.22    2.10
   5  -6  -1    0.43    1.01
   5  -6  -1   -0.41    1.90
   5  -6   0  351.51    8.72
   5  -6   0  340.34    9.63
   5  -6   1    1.28    1.11
   5  -6   1    1.16    1.52
   5  -6   2  357.08    8.52
   5  -6   2  391.27    9.88
   5  -6   3   24.05    2.61
   5  -6   3   23.41    6.66
   5  -6   4  835.03   18.34
  -5   6  -4  767.71   16.53
  -5   6  -4  769.05   16.98
   5  -6   5   -0.09    1.47
  -5   6  -5    2.43    1.31
  -5   6  -5   -1.03    1.68
   5  -6   6    4.95    1.50
  -5   6  -6    3.26    1.51
   5  -6   7  437.50    4.51
  -5   6  -7  409.89    4.52
   5  -6   8   39.79    1.42
  -5   6  -8   45.27    2.67
  -5   6  -9  161.65    6.12
   5  -5  -9  149.88    5.83
  -5   5   9  147.27    5.74
   5  -5  -8   23.98    9.72
  -5   5   8   31.43    4.56
   5  -5  -7  310.97    8.18
  -5   5   7  283.44   12.64
   5  -5  -6    8.61    3.99
   5  -5  -6   11.38    3.27
   5  -5  -5   63.98    2.74
   5  -5  -5   63.73    7.03
   5  -5  -4  107.60    3.60
   5  -5  -4  103.82    4.04
   5  -5  -3  263.11    4.93
   5  -5  -3  269.71    6.46
   5  -5  -2  462.72   10.68
   5  -5  -2  459.85   12.51
   5  -5  -1  158.63    4.44
   5  -5  -1  149.44    5.13
   5  -5   0 1245.25   26.25
   5  -5   0 1179.49   25.24
   5  -5   1   41.72    4.61
   5  -5   1   40.09    7.37
  -5   5  -1   36.51    1.26
   5  -5   2   66.21    2.39
   5  -5   2   59.61    7.13
  -5   5  -2   58.94    1.33
   5  -5   3  774.32   18.37
  -5   5  -3  773.00   16.45
   5  -5   4  401.18    9.16
  -5   5  -4  375.87    8.61
  -5   5  -4  378.20    8.32
   5  -5   5  465.19   10.60
  -5   5  -5  438.98    9.59
  -5   5  -5  431.44    9.53
   5  -5   6   97.10    2.19
  -5   5  -6   97.40    1.83
   5  -5   7   72.74    1.99
  -5   5  -7   66.58    3.16
   5  -5   8   31.40    1.31
  -5   5  -8   29.04    3.52
  -5   5  -9    0.87    0.81
   5  -4 -10    1.75    1.86
  -5   4  10    0.37    2.64
   5  -4  -9  581.43   10.81
  -5   4   9  605.36   11.36
   5  -4  -8  167.80    5.46
  -5   4   8  170.81    6.59
   5  -4  -7  220.43    8.61
   5  -4  -7  212.93   11.78
   5  -4  -6   57.55    4.50
   5  -4  -6   65.42    6.41
   5  -4  -5  119.02    3.89
   5  -4  -5  104.30    3.25
   5  -4  -4   29.02    8.94
   5  -4  -4   34.13    7.06
   5  -4  -3  166.57    4.82
   5  -4  -3  169.70    5.63
   5  -4  -2    2.65    0.99
   5  -4  -2    2.43    2.94
   5  -4  -1  173.27    4.25
   5  -4  -1  176.48    6.81
   5  -4   0  167.59    3.98
   5  -4   0  178.97    7.51
  -5   4   0  173.57    3.62
   5  -4   1  351.25    7.39
   5  -4   1  354.36    8.34
  -5   4  -1  346.28    6.43
   5  -4   2  120.02    2.21
   5  -4   2  116.31    2.60
  -5   4  -2  108.38    1.20
   5  -4   3   61.58    2.93
  -5   4  -3   59.86    1.48
  -5   4  -3   58.81    1.17
   5  -4   4  293.56    7.35
  -5   4  -4  296.36    6.23
  -5   4  -4  282.69    5.99
   5  -4   5  161.65    4.19
  -5   4  -5  154.84    3.54
  -5   4  -5  151.97    3.43
   5  -4   6  125.29    2.15
  -5   4  -6  118.58    1.42
   5  -4   7  157.37    2.59
  -5   4  -7  150.91    2.75
   5  -4   8    0.36    0.65
   5  -3 -11    3.33    3.00
  -5   3  11   -0.58    2.41
   5  -3 -10  161.56    5.33
  -5   3  10  155.73    5.12
   5  -3  -9  257.72   10.70
   5  -3  -9  240.04   17.35
   5  -3  -8   40.09    2.66
   5  -3  -8   36.37    8.08
   5  -3  -7  476.06   13.90
   5  -3  -7  465.10    9.69
   5  -3  -6  136.28    4.99
   5  -3  -6  147.57    4.19
   5  -3  -5  307.28    6.76
   5  -3  -5  288.70    5.23
   5  -3  -4   57.51    3.11
   5  -3  -4   51.69    2.83
   5  -3  -3   71.15    5.39
   5  -3  -3   67.42    3.72
   5  -3  -2  465.96    8.99
   5  -3  -2  456.38    8.97
   5  -3  -1  356.10    7.27
   5  -3  -1  362.62    7.95
  -5   3   1  347.07    6.95
   5  -3   0   11.15    3.41
   5  -3   0   15.21    4.64
  -5   3   0   11.26    1.18
   5  -3   1    0.09    0.48
   5  -3   1   -0.44    0.81
  -5   3  -1    0.82    0.78
   5  -3   2  853.41   15.28
   5  -3   3  160.98    8.83
   5  -3   4   71.03    2.14
   5  -3   5  202.48    5.08
   5  -3   6  113.90    3.16
  -5   3  -6  101.82    1.19
   5  -3   7  225.60    3.11
   5  -3   8  463.35    8.30
   5  -2 -11  324.70    9.11
  -5   2  11  355.91    9.75
   5  -2 -10   60.97    3.95
   5  -2 -10   61.98    4.45
   5  -2  -9  110.09    2.97
   5  -2  -9  116.80    7.84
   5  -2  -8   70.17    3.30
   5  -2  -8   67.69   10.43
   5  -2  -7   47.07    2.76
   5  -2  -7   49.95    3.67
   5  -2  -6  114.86    3.65
   5  -2  -6  110.31    7.42
   5  -2  -5  161.95    5.00
   5  -2  -5  154.71    4.84
   5  -2  -4  928.93   19.71
   5  -2  -4  913.74   19.70
   5  -2  -3  168.81    4.22
   5  -2  -3  174.87    5.39
   5  -2  -2  373.96    7.77
   5  -2  -2  361.46    7.93
  -5   2   2  345.97    6.70
   5  -2  -1  133.70    1.84
   5  -2  -1  126.94    4.31
  -5   2   1  129.32    1.88
   5  -2   0   22.76    1.59
   5  -2   0   27.94    3.45
  -5   2   0   23.49    0.97
   5  -2   1  275.54    6.24
   5  -2   2  211.39    5.06
   5  -2   3  538.06   12.21
   5  -2   4  344.76    8.26
   5  -2   5   13.08    3.13
   5  -2   6   47.23    2.24
  -5   2  -6   43.70    1.16
   5  -2   7   26.44    1.94
   5  -2   8    0.20    1.20
   5  -1 -12   79.28    3.77
  -5   1  12   90.62    3.77
   5  -1 -11  157.53    5.16
   5  -1 -11  151.32    4.57
   5  -1 -10  249.13   10.18
   5  -1 -10  260.81   11.55
   5  -1  -9   58.78    4.30
   5  -1  -9   55.85    4.42
   5  -1  -8   97.32    2.99
   5  -1  -8   89.35    8.91
   5  -1  -7  198.07    3.69
   5  -1  -7  204.57    4.26
   5  -1  -6  162.85    3.77
   5  -1  -6  165.29    6.10
   5  -1  -5  251.89    6.38
   5  -1  -5  248.30    7.30
   5  -1  -4  230.46    6.45
   5  -1  -4  233.95    6.10
   5  -1  -3    5.48    1.75
   5  -1  -3    7.33    3.01
   5  -1  -2   43.60    3.32
   5  -1  -2   44.35    5.87
  -5   1   2   40.83    1.48
   5  -1  -1  333.71    6.53
   5  -1  -1  350.24    7.94
  -5   1   1  328.84    6.17
   5  -1   0  130.93    1.74
   5  -1   0  133.30    1.67
   5  -1   0  133.15    4.29
   5  -1   1    4.57    3.16
   5  -1   2  196.90    5.75
   5  -1   3  574.09   13.22
   5  -1   4  390.66    9.65
   5  -1   5  348.10    5.61
  -5   1  -5  345.42    3.68
   5  -1   6  208.55    5.43
   5  -1   7   43.21    2.24
   5  -1   8    1.18    1.49
   5   0 -12   46.21    3.03
   5   0 -12   51.14    2.69
   5   0 -11  435.43    8.60
   5   0 -11  443.67    8.28
   5   0 -10  134.47    3.74
   5   0 -10  125.97    6.39
   5   0  -9  370.65   14.58
   5   0  -9  374.81   13.24
   5   0  -8  575.36   11.48
   5   0  -8  582.66   11.56
   5   0  -7  260.28    4.62
   5   0  -7  254.38    4.37
   5   0  -6   94.15    3.32
   5   0  -6   86.75    4.99
   5   0  -5   17.51    7.59
   5   0  -5   17.17    4.62
   5   0  -4  150.74    4.43
   5   0  -4  141.62    4.31
   5   0  -3  498.23   10.78
   5   0  -3  483.99   11.06
   5   0  -2  313.03    6.03
  -5   0   2  306.96    6.15
   5   0  -1  160.88    4.09
   5   0  -1  164.06    3.64
   5   0  -1  169.20    5.91
   5   0   0  441.79    7.87
   5   0   0  454.80    8.03
   5   0   0  457.69   10.03
   5   0   1  365.42    7.57
   5   0   1  366.50   10.05
   5   0   2    3.50    2.87
   5   0   3    2.49    0.35
   5   0   3    1.50    3.17
   5   0   4   49.57    3.58
  -5   0  -4   50.64    1.87
   5   0   5   96.29    3.85
   5   0   6  289.87    6.80
   5   0   7  418.59   15.06
   5   0   8  371.27   14.53
   5   1 -12  176.47    6.28
   5   1 -12  179.23    5.32
   5   1 -11   10.44    5.06
   5   1 -11   15.14    4.51
   5   1 -10   40.14    3.36
   5   1 -10   37.14    5.07
   5   1  -9  117.97    4.10
   5   1  -9   98.99    3.04
   5   1  -8   31.66    3.31
   5   1  -8   30.00    3.44
   5   1  -7    6.14    3.07
   5   1  -7    4.11    1.88
   5   1  -6  468.90    7.62
   5   1  -6  453.93    7.29
   5   1  -5  253.92    6.48
   5   1  -5  258.37    6.88
   5   1  -4    3.31    1.03
   5   1  -4    3.51    2.39
   5   1  -3   26.97    1.66
   5   1  -3   29.92    8.94
   5   1  -2    2.53    0.54
   5   1  -2    4.77    1.18
   5   1  -2   10.62    3.30
   5   1  -1    0.88    0.81
   5   1  -1    0.77    1.33
   5   1  -1    1.12    3.71
   5   1   0    7.77    0.96
   5   1   0    7.68    1.42
   5   1   0    9.85    3.37
   5   1   1   45.98    1.64
   5   1   1   51.58    1.99
   5   1   1   50.45    4.43
   5   1   2  260.83    5.87
   5   1   2  277.48    6.32
   5   1   2  263.12    7.96
   5   1   3   19.99    5.33
  -5  -1  -3    8.40    2.59
   5   1   4  238.81    5.63
  -5  -1  -4  233.85    3.83
   5   1   5   41.85    3.29
   5   1   6   12.94    3.12
   5   1   7   37.94    3.41
   5   1   8   -1.09    1.80
   5   2 -12   90.38    4.47
   5   2 -11   20.89    3.60
   5   2 -11   11.17    2.24
   5   2 -10    9.48    2.93
   5   2 -10    4.73    2.61
   5   2  -9  154.83   10.76
   5   2  -9  163.26    6.56
   5   2  -8  466.22    9.44
   5   2  -8  452.43    8.68
   5   2  -7  285.87    4.64
   5   2  -7  286.03    4.79
   5   2  -6  264.16    4.88
   5   2  -6  247.91    8.83
   5   2  -5   77.69    3.38
   5   2  -5   76.83    6.34
   5   2  -4    0.94    1.65
   5   2  -4    0.24    2.59
   5   2  -3   21.80    1.91
   5   2  -3   32.05    4.35
   5   2  -2   13.02    1.66
   5   2  -2    9.47    3.56
   5   2  -1    3.72    1.11
   5   2  -1    2.91    1.96
   5   2  -1    8.79    5.28
   5   2   0   75.84    2.98
   5   2   0   74.38    3.19
   5   2   0   82.86    5.14
   5   2   1  307.68    3.83
   5   2   1  339.62    4.53
   5   2   1  354.57    6.92
   5   2   2  489.32    5.31
   5   2   2  447.98    7.52
   5   2   3  250.65    7.79
  -5  -2  -3  231.35    4.93
   5   2   4  570.83   12.47
   5   2   5  513.06   18.38
   5   2   6    5.55    3.41
   5   2   7   76.02    5.20
   5   2   8  296.34    8.43
   5   3 -12  225.74    7.09
   5   3 -11  119.69    3.80
   5   3 -11  121.01    3.06
   5   3 -10  480.00   11.66
   5   3 -10  468.92   11.09
   5   3  -9  427.40   15.16
   5   3  -9  405.12   14.22
   5   3  -8   38.89    5.13
   5   3  -8   36.86    3.84
   5   3  -7    0.61    1.53
   5   3  -7    4.61    2.98
   5   3  -6   77.69    3.73
   5   3  -6   86.73    7.99
   5   3  -5  135.55    4.19
   5   3  -5  125.90    4.21
   5   3  -4  219.40    4.08
   5   3  -4  203.83    5.52
   5   3  -3  237.39    4.48
   5   3  -3  230.70    6.34
   5   3  -2  252.32    4.31
   5   3  -2  235.99    6.90
   5   3  -1   97.36    2.61
   5   3  -1  105.50    3.79
   5   3   0   49.42    2.24
   5   3   0   46.07    5.10
   5   3   1    6.77    2.05
   5   3   1    1.77    3.35
   5   3   2   -2.93    3.47
  -5  -3  -2    0.03    0.97
   5   3   3   16.32    4.42
  -5  -3  -3   12.35    4.33
   5   3   4   18.94    3.18
  -5  -3  -4   23.39    4.71
   5   3   5  177.91    8.45
   5   3   6   94.17    4.34
   5   3   7  129.04    5.66
   5   4 -12    2.41    1.33
   5   4 -11  157.57    4.81
   5   4 -11  148.97    4.05
   5   4 -10   22.56    7.42
   5   4 -10   17.55    2.41
   5   4  -9   74.91    3.77
   5   4  -9   70.59    3.38
   5   4  -8   43.76    3.52
   5   4  -8   43.44    5.36
   5   4  -7   69.14    2.78
   5   4  -7   71.44    3.30
   5   4  -6   16.49    3.07
   5   4  -6   23.98    4.28
   5   4  -5   22.85    2.82
   5   4  -5   17.07    2.75
   5   4  -4   -0.65    1.98
   5   4  -4    2.04    3.22
   5   4  -3    4.28    1.86
   5   4  -3    7.10    3.91
   5   4  -2   15.95    1.92
   5   4  -2   17.76    3.90
   5   4  -1   33.26    2.05
   5   4  -1   30.86    5.36
   5   4   0    0.51    1.51
   5   4   0    3.42    5.79
   5   4   1   26.56    2.45
   5   4   1   23.36    4.97
   5   4   2  356.05   14.02
  -5  -4  -2  385.69   13.95
   5   4   3  195.01    8.00
  -5  -4  -3  201.75    6.06
   5   4   4    1.72    3.22
   5   4   5   61.84    4.38
   5   4   6   10.31    3.01
   5   5 -12    2.41    1.33
   5   5 -11  220.72    7.03
   5   5 -11  188.01    6.16
   5   5 -10  436.18   19.04
   5   5 -10  444.18    8.39
   5   5  -9  293.48   12.00
   5   5  -9  293.74   11.65
   5   5  -8  110.47    4.88
   5   5  -8  110.81    3.46
   5   5  -7  110.75    3.81
   5   5  -7  104.74    3.94
   5   5  -6   17.27    2.72
   5   5  -6   12.49    3.72
   5   5  -5   -0.48    2.12
   5   5  -5    2.33    2.84
   5   5  -4   68.65    3.16
   5   5  -4   55.44    4.42
   5   5  -3    2.07    2.09
   5   5  -3    1.34    3.50
   5   5  -2   13.65    2.81
   5   5  -2   12.50    4.68
   5   5  -1   73.71    3.40
   5   5  -1   81.30    5.35
   5   5   0  226.63    8.62
   5   5   0  218.99    9.74
   5   5   1  100.22    6.52
   5   5   2  232.23   11.23
  -5  -5  -2  237.30    9.73
   5   5   3 1142.28   19.75
   5   5   4   96.76    5.59
   5   5   5   19.38    4.42
   5   6 -11  405.92    9.00
   5   6 -11  392.40    7.94
   5   6 -10   40.94    3.66
   5   6 -10   39.63    5.92
   5   6  -9    3.20    2.65
   5   6  -9    0.79    1.17
   5   6  -8   94.86    4.11
   5   6  -8   85.73    3.53
   5   6  -7   15.08    2.72
   5   6  -7   22.03    4.99
   5   6  -6   25.23    2.82
   5   6  -6   25.15    4.27
   5   6  -5   73.61    3.46
   5   6  -5   72.98    4.77
   5   6  -4   94.64    3.67
   5   6  -4   92.14    4.55
   5   6  -3    9.63    3.14
   5   6  -3   11.45    4.20
   5   6  -2    3.37    2.39
   5   6  -2    3.30    3.54
   5   6  -1   38.89    3.20
   5   6  -1   40.97    4.78
   5   6   0   20.61    3.04
   5   6   0   13.97    5.20
   5   6   1    4.24    4.38
   5   6   2   32.81    5.98
   5   6   3    9.90    3.53
   5   7 -10   18.12    3.07
   5   7 -10   12.87    5.80
   5   7  -9    1.66    2.51
   5   7  -9    0.18    2.19
   5   7  -8   69.33    3.94
   5   7  -8   77.65    5.54
   5   7  -7  102.19    3.98
   5   7  -7   90.16    5.15
   5   7  -6   11.50    2.43
   5   7  -6    8.59    3.34
   5   7  -5    2.92    2.70
   5   7  -5    3.16    3.48
   5   7  -4   38.94    3.36
   5   7  -4   37.41    5.64
   5   7  -3   88.12    4.15
   5   7  -3   85.89    6.16
   5   7  -2  156.49    4.83
   5   7  -2  173.00    7.23
   5   7  -1    0.63    1.94
   5   7  -1    6.34    4.42
   5   7   0  137.95    5.47
   5   7   0  133.65    6.72
   5   7   1  462.49   11.70
   5   8  -9   21.55    3.48
   5   8  -9   16.81    3.11
   5   8  -8   20.96    3.71
   5   8  -8   21.01    4.70
   5   8  -7    3.01    2.78
   5   8  -7    0.47    2.77
   5   8  -6   99.07    5.40
   5   8  -6   97.68    5.00
   5   8  -5   47.26    4.39
   5   8  -5   41.40    4.43
   5   8  -4    1.72    2.66
   5   8  -4    4.17    3.66
   5   8  -3    4.44    2.51
   5   8  -3   -0.25    3.43
   5   8  -2   21.06    2.90
   5   8  -2   24.10    5.12
   6 -12   2   94.78    6.56
  -6  12  -2  115.79    5.86
   6 -12   3    7.65    3.54
  -6  12  -3    7.36    3.59
   6 -12   4  135.57    7.70
  -6  12  -4  146.73    6.90
   6 -12   5  134.41   11.33
  -6  12  -5  143.64    5.39
  -6  12  -6   32.61    3.80
  -6  12  -6   33.97    3.66
  -6  12  -7   88.81    4.76
  -6  12  -8   62.62    3.90
   6 -11  -1   14.63    5.87
  -6  11   1   15.70    4.35
   6 -11   0   83.52    3.99
  -6  11   0   91.72    6.23
   6 -11   1    4.89    2.49
  -6  11  -1    3.58    3.28
   6 -11   2   -0.16    2.89
  -6  11  -2    2.01    3.52
   6 -11   3  277.72    7.06
  -6  11  -3  302.24    8.23
   6 -11   4    3.18    2.08
  -6  11  -4    6.13    3.00
  -6  11  -5   40.14    3.25
  -6  11  -6  292.22    6.93
  -6  11  -6  273.49    6.68
  -6  11  -7    6.64    2.66
  -6  11  -7    8.71    2.00
  -6  11  -8   46.29    3.04
   6 -10  -3  187.03    9.87
  -6  10   3  204.25    7.98
   6 -10  -2    6.75    3.04
   6 -10  -1    5.62    3.20
  -6  10   1    5.38    3.98
   6 -10   0   -2.67    2.36
  -6  10   0    2.34    4.09
   6 -10   1  126.88    6.58
  -6  10  -1  119.14    9.42
   6 -10   2    0.36    2.58
  -6  10  -2   -3.37    3.95
   6 -10   3  399.39   10.40
  -6  10  -3  424.90   11.58
   6 -10   4 2153.71   46.39
  -6  10  -4 2217.29   13.99
  -6  10  -5  134.07    6.50
  -6  10  -5  123.64   10.38
  -6  10  -6    5.94    1.99
  -6  10  -6    3.69    2.24
  -6  10  -7   79.54    3.23
  -6  10  -7   76.18    3.08
  -6  10  -8    0.18    1.33
   6  -9  -5    7.69    2.44
  -6   9   5    8.61    5.55
   6  -9  -4   12.05    3.59
  -6   9   4    5.54    3.73
   6  -9  -3   66.44    3.58
  -6   9   3   63.32    5.78
   6  -9  -2   10.31    2.07
  -6   9   2    9.53    4.00
   6  -9  -1  134.71    6.36
  -6   9   1  131.11    8.07
   6  -9   0  325.41    9.42
  -6   9   0  344.33   10.02
   6  -9   1    7.66    3.38
  -6   9  -1    3.76    3.24
   6  -9   2  562.07   20.13
  -6   9  -2  513.26   18.35
   6  -9   3  680.59   23.55
  -6   9  -3  650.48   22.62
   6  -9   4  305.43   13.47
  -6   9  -4  280.59   10.90
  -6   9  -5  421.49   15.01
  -6   9  -5  400.24   14.27
  -6   9  -6   12.22    2.89
  -6   9  -6   12.52    2.34
  -6   9  -7  437.54   10.61
  -6   9  -7  423.54   10.35
   6  -8  -6    0.52    1.92
  -6   8   6   -0.52    4.48
   6  -8  -5   49.25    4.27
  -6   8   5   56.20    4.27
   6  -8  -4   43.11    3.59
  -6   8   4   42.62    4.81
   6  -8  -3   56.56    3.45
  -6   8   3   60.13    4.92
   6  -8  -2  414.49   10.56
  -6   8   2  409.19   11.28
   6  -8  -1  131.04    3.72
  -6   8   1  125.67    5.64
   6  -8   0    5.68    2.92
   6  -8   0    4.29    1.60
   6  -8   1  256.42    6.23
   6  -8   1  272.92    7.01
   6  -8   2   84.98    3.54
   6  -8   2   85.60    4.16
   6  -8   3    0.83    1.58
   6  -8   3    1.12    1.49
   6  -8   4  404.55    9.39
   6  -8   4  400.43   10.60
   6  -8   5  107.44    3.10
  -6   8  -5  112.03    3.70
   6  -8   6   50.15    2.26
  -6   8  -6   47.37    3.09
   6  -7  -7    4.41    2.44
  -6   7   7    3.50    2.70
   6  -7  -6  263.56    7.60
  -6   7   6  265.82    8.94
   6  -7  -5  360.86   14.22
  -6   7   5  365.15   15.02
   6  -7  -4  119.27    3.94
  -6   7   4  120.07    4.90
   6  -7  -3   39.15    2.80
   6  -7  -3   42.51    5.90
   6  -7  -2  110.04    3.23
   6  -7  -2  103.39    5.57
   6  -7  -1   84.84    3.25
   6  -7  -1   76.65    7.12
   6  -7   0    1.10    1.90
   6  -7   0    2.34    1.32
   6  -7   1   25.78    2.54
   6  -7   1   22.86    7.74
   6  -7   2 2959.07   20.15
   6  -7   2 2895.07   23.74
   6  -7   3 1241.71   22.68
   6  -7   3 1232.33   22.01
   6  -7   4  157.57    4.30
  -6   7  -4  151.84    4.93
   6  -7   5   -0.25    0.86
  -6   7  -5    0.22    1.39
   6  -7   6    9.14    3.44
   6  -7   7  235.80    8.64
   6  -6  -8   26.43    3.35
  -6   6   8   30.72    4.29
   6  -6  -7   17.59    6.01
  -6   6   7   27.60    4.02
   6  -6  -6   29.76    4.69
  -6   6   6   36.22    5.19
   6  -6  -5   26.82    3.08
   6  -6  -5   23.26    5.70
   6  -6  -4    1.36    1.67
   6  -6  -4    2.48    1.72
   6  -6  -3   18.52    6.42
   6  -6  -3   23.17    6.97
   6  -6  -2  276.00    6.32
   6  -6  -2  273.30    7.03
   6  -6  -1   30.23    2.10
   6  -6  -1   38.06   10.12
   6  -6   0  900.86    7.89
   6  -6   0  898.35    8.79
   6  -6   1 1654.41   16.08
   6  -6   1 1791.71   18.46
   6  -6   2  878.08    9.43
   6  -6   2  888.43   10.34
   6  -6   3 1191.39   11.19
   6  -6   3 1148.88   10.07
   6  -6   4  316.50    4.51
  -6   6  -4  323.64    3.67
   6  -6   5  139.70    2.61
   6  -6   6  236.62    4.92
   6  -6   7   33.90    1.53
   6  -5  -9  155.14    5.00
  -6   5   9  166.69    5.54
   6  -5  -8    8.72    3.81
  -6   5   8   18.94    3.74
   6  -5  -7   51.81    3.23
   6  -5  -7   50.07    6.03
   6  -5  -6  125.32    3.13
   6  -5  -6  138.16   14.00
   6  -5  -5   34.34    6.50
   6  -5  -5   37.00   11.94
   6  -5  -4  496.67    9.34
   6  -5  -4  481.55   10.02
   6  -5  -3  551.84   10.49
   6  -5  -3  494.96   10.45
   6  -5  -2    6.03    2.42
   6  -5  -2    4.52    1.98
   6  -5  -1   99.27    2.07
   6  -5  -1  111.55    3.59
   6  -5   0  130.81    2.66
   6  -5   0  137.20    3.77
   6  -5   1    9.90    1.86
   6  -5   1    8.40    3.60
  -6   5  -1    5.19    1.86
   6  -5   2  196.00    3.72
   6  -5   2  193.60    4.51
   6  -5   3  266.53    5.17
  -6   5  -3  245.47    3.13
   6  -5   4   17.35    4.12
   6  -5   5  382.95    4.49
   6  -5   6  346.95    7.84
   6  -5   7    2.20    0.94
   6  -4  -9   25.92   11.67
   6  -4  -9   29.02   11.55
   6  -4  -8  114.68    6.08
   6  -4  -8  120.87   14.56
   6  -4  -7  187.84    8.21
   6  -4  -7  211.82    6.92
   6  -4  -6  201.29    7.76
   6  -4  -6  191.45   13.75
   6  -4  -5    8.63    2.57
   6  -4  -5    5.49    1.96
   6  -4  -4  525.70   11.11
   6  -4  -4  512.35   13.78
   6  -4  -3    8.15    2.24
   6  -4  -3    5.06    2.97
   6  -4  -2    1.53    1.11
   6  -4  -2    0.16    2.67
   6  -4  -1  148.92    3.90
   6  -4  -1  161.37    8.31
   6  -4   0 1225.92   26.16
   6  -4   0 1203.28   26.92
  -6   4   0 1104.54   23.51
   6  -4   1 2744.59    6.09
   6  -4   1 2758.26   11.52
  -6   4  -1 2656.40   55.76
   6  -4   2   57.25    3.75
   6  -4   3  377.42    5.47
   6  -4   4   69.36    2.40
   6  -4   5  363.12    4.36
   6  -4   6  210.54    4.62
   6  -4   7   14.52    2.82
   6  -4   8    2.61    1.24
   6  -3 -10   20.94    3.16
   6  -3 -10   16.31    6.93
   6  -3  -9   55.52    3.41
   6  -3  -9   52.08    5.66
   6  -3  -8  269.86   13.43
   6  -3  -8  276.80   11.46
   6  -3  -7   -1.39    2.06
   6  -3  -7    2.96    1.51
   6  -3  -6    1.58    1.25
   6  -3  -6   -0.45    1.48
   6  -3  -5    1.15    0.96
   6  -3  -5    1.48    1.35
   6  -3  -4   29.06    1.94
   6  -3  -4   25.86    2.69
   6  -3  -3   61.77    1.86
   6  -3  -3   68.83   10.34
   6  -3  -2  419.24    9.33
   6  -3  -2  425.06   10.52
   6  -3  -1 2756.48    6.86
   6  -3  -1 2652.96   58.96
  -6   3   1 2764.78    7.14
   6  -3   0 1276.90   26.96
   6  -3   0 1277.11   27.73
  -6   3   0 1229.29   25.99
   6  -3   1 1681.05   36.42
   6  -3   2  927.63   20.54
   6  -3   3    7.98    2.19
   6  -3   4  109.15    5.05
   6  -3   5   -0.86    1.63
   6  -3   6  141.69    2.86
   6  -3   7    9.08    2.82
   6  -3   8  560.50   12.71
   6  -2 -11  167.09    5.15
   6  -2 -11  157.30    5.19
   6  -2 -10  105.37    4.38
   6  -2 -10  107.24    5.84
   6  -2  -9    8.30    2.26
   6  -2  -9   14.40    4.63
   6  -2  -8  220.29    6.30
   6  -2  -8  210.14    6.40
   6  -2  -7   39.65    2.62
   6  -2  -7   33.97    8.99
   6  -2  -6  141.66    3.03
   6  -2  -6  150.90    5.25
   6  -2  -5  600.99    5.87
   6  -2  -5  582.01    6.84
   6  -2  -4   17.03    5.18
   6  -2  -4   11.31    5.77
   6  -2  -3   53.13    1.68
   6  -2  -3   56.45   10.48
   6  -2  -2   39.20    2.11
   6  -2  -2   34.58    3.57
  -6   2   2   33.00    1.66
   6  -2  -1   53.60    2.26
   6  -2  -1   59.28    3.78
  -6   2   1   49.11    2.00
   6  -2   0  154.82    3.45
   6  -2   0  161.49    4.93
   6  -2   1  116.18    5.97
   6  -2   2    8.51    3.98
   6  -2   3   28.53    8.16
   6  -2   4  335.33    4.88
   6  -2   5    6.83    3.50
   6  -2   6  108.00    3.10
   6  -2   7  154.58    7.71
   6  -2   8   11.78    1.83
   6  -1 -11  178.94    5.19
   6  -1 -11  189.07    5.29
   6  -1 -10    0.06    2.20
   6  -1 -10   -1.20    1.97
   6  -1  -9   20.59    8.01
   6  -1  -9   18.28    8.01
   6  -1  -8   32.32    5.28
   6  -1  -8   35.16    3.10
   6  -1  -7   28.19    2.23
   6  -1  -7   26.61    8.90
   6  -1  -6  743.59   13.52
   6  -1  -6  742.21   13.96
   6  -1  -5   45.29    2.16
   6  -1  -5   44.92    6.33
   6  -1  -4   21.71    4.65
   6  -1  -4   20.76    2.67
   6  -1  -3  588.18    6.28
   6  -1  -3  583.49    9.11
   6  -1  -2    3.95    1.53
   6  -1  -2    1.73    1.36
  -6   1   2    2.04    1.23
   6  -1  -1 1727.71   36.96
   6  -1  -1 1701.23   35.78
   6  -1  -1 1752.37   37.82
   6  -1   0   36.02    1.09
   6  -1   0   39.27    3.53
   6  -1   1 1326.51   14.59
   6  -1   2   14.34    3.48
   6  -1   3   36.91    4.55
   6  -1   4  722.84   13.69
   6  -1   5    0.39    1.93
   6  -1   6   20.02    5.91
   6  -1   7   33.36    2.60
   6  -1   8  260.41    5.62
   6   0 -11    4.06    2.28
   6   0 -11    5.95    2.56
   6   0 -10  440.99    8.29
   6   0 -10  406.96    7.55
   6   0  -9   18.51    8.48
   6   0  -9   30.50    2.54
   6   0  -8    1.35    1.94
   6   0  -8    2.17    0.87
   6   0  -7   22.95    3.84
   6   0  -7   24.58    3.24
   6   0  -6    6.43    2.30
   6   0  -6    7.48    1.88
   6   0  -5    4.76    1.58
   6   0  -5    5.46    2.33
   6   0  -4   42.73    1.82
   6   0  -4   36.84    4.05
   6   0  -3 2019.71   18.99
   6   0  -3 1900.20   19.65
   6   0  -2 1193.92   11.89
   6   0  -2 1199.41   12.94
   6   0  -1 1217.98   11.41
   6   0  -1 1181.71   13.75
   6   0   0 1124.68   10.20
   6   0   0 1133.38   13.09
   6   0   1  142.26    4.40
   6   0   2   24.57    5.58
   6   0   3   17.70    3.85
   6   0   4   85.76    3.52
   6   0   5    0.81    2.02
   6   0   6   96.88    3.41
   6   0   7  157.89    6.99
   6   0   8   46.20    2.54
   6   1 -11   17.15    3.04
   6   1 -11   10.09    4.02
   6   1 -10   98.69    7.04
   6   1 -10  102.98    3.26
   6   1  -9  115.80    3.60
   6   1  -9  110.38    5.81
   6   1  -8    3.56    2.78
   6   1  -8    3.06    1.75
   6   1  -7  177.87    7.43
   6   1  -7  159.53    7.58
   6   1  -6    1.28    1.91
   6   1  -6   -1.55    2.04
   6   1  -5    2.54    1.24
   6   1  -5    3.60    1.84
   6   1  -4   -0.35    1.21
   6   1  -4   -0.15    2.76
   6   1  -3    4.85    1.22
   6   1  -3    1.57    3.57
   6   1  -2  376.03    3.89
   6   1  -2  381.54    7.52
   6   1  -1   25.30    1.49
   6   1  -1   32.78    3.86
   6   1   0    5.36    1.18
   6   1   0    2.74    2.54
   6   1   1   38.81    2.57
   6   1   2   34.22    4.73
   6   1   3   28.25    3.86
   6   1   4   16.83    3.43
   6   1   5  210.58    6.92
   6   1   6   14.21    3.09
   6   1   7    4.04    2.22
   6   1   8    4.54    2.49
   6   2 -11    2.37    1.64
   6   2 -11    0.39    1.95
   6   2 -10   45.39    4.32
   6   2 -10   45.59    2.95
   6   2  -9   14.42    7.24
   6   2  -9   22.99    2.93
   6   2  -8  304.40    7.60
   6   2  -8  287.79    8.58
   6   2  -7  284.99   12.07
   6   2  -7  280.16   10.30
   6   2  -6   62.48    4.50
   6   2  -6   64.76    3.86
   6   2  -5  392.58    7.81
   6   2  -5  380.03    8.31
   6   2  -4  425.09    8.14
   6   2  -4  416.83   10.74
   6   2  -3  139.42    2.76
   6   2  -3  150.31    5.98
   6   2  -2  125.93    2.43
   6   2  -2  129.76    6.12
   6   2  -1 1059.85   18.89
   6   2  -1 1055.63   20.02
   6   2   0  192.14    4.01
   6   2   0  182.04    5.83
   6   2   1   47.90    4.11
   6   2   2  485.20   10.70
   6   2   3   63.59    4.40
   6   2   4   32.65    4.09
   6   2   5  122.73    4.20
   6   2   6  241.51    7.79
   6   2   7  369.51    8.59
   6   3 -11  104.12    5.68
   6   3 -11   94.73    3.22
   6   3 -10    1.11    2.00
   6   3 -10    2.16    1.43
   6   3  -9   12.54    5.47
   6   3  -9   13.48    2.77
   6   3  -8    5.11    2.72
   6   3  -8    8.12    2.91
   6   3  -7  106.35    4.38
   6   3  -7  119.03    9.74
   6   3  -6    8.99    2.61
   6   3  -6    8.15    2.97
   6   3  -5  401.49    8.17
   6   3  -5  415.42    8.78
   6   3  -4  843.66   14.58
   6   3  -4  862.47   16.05
   6   3  -3  462.80    8.57
   6   3  -3  457.95   11.15
   6   3  -1  113.39    2.60
   6   3  -1  108.21    5.46
   6   3   0  119.51    2.75
   6   3   0  128.52    5.34
   6   3   1    5.55    5.63
   6   3   2   -1.86    3.31
   6   3   3    6.52    3.97
   6   3   4    6.90    3.17
   6   3   5   44.36    3.92
   6   3   6   30.18    3.75
   6   4 -11   89.82    3.72
   6   4 -11   84.22    3.12
   6   4 -10   11.25    4.73
   6   4 -10   15.33    4.54
   6   4  -9    2.23    1.32
   6   4  -9    0.80    1.63
   6   4  -8    6.11    3.31
   6   4  -8    4.14    2.09
   6   4  -7   34.71    2.78
   6   4  -7   31.79    4.49
   6   4  -6    3.16    2.06
   6   4  -6    3.61    2.60
   6   4  -5   39.56    3.14
   6   4  -5   34.35   10.16
   6   4  -4  198.59    7.49
   6   4  -4  182.33    8.33
   6   4  -3   61.15    2.80
   6   4  -3   59.51    4.69
   6   4  -2   45.62    2.63
   6   4  -2   41.77    4.50
   6   4  -1  105.04    2.94
   6   4  -1  107.05    4.79
   6   4   0   46.49    5.03
   6   4   1   42.21    5.94
   6   4   2  129.70    4.93
   6   4   4    2.85    4.62
   6   5 -10   36.54    3.18
   6   5 -10   22.23    8.84
   6   5  -9  346.01    9.71
   6   5  -9  339.11    9.09
   6   5  -8    3.78    2.40
   6   5  -8    2.34    2.77
   6   5  -7   62.95    3.42
   6   5  -7   66.57    4.26
   6   5  -6  558.80   21.46
   6   5  -6  517.01   21.31
   6   5  -5   45.53    4.98
   6   5  -5   44.18    3.78
   6   5  -4   17.34    2.52
   6   5  -4   23.64    5.14
   6   5  -3  319.57   12.78
   6   5  -3  311.40   14.03
   6   5  -2  531.35   20.21
   6   5  -2  533.46   21.17
   6   5  -1   18.37    3.26
   6   5   0   65.88    3.86
   6   5   1  125.79    7.04
   6   5   2    5.41    5.96
   6   5   3   78.24    4.93
   6   6  -9   60.61    3.82
   6   6  -9   56.54   10.54
   6   6  -8   32.21    3.07
   6   6  -8   32.21    3.65
   6   6  -7   26.63    3.67
   6   6  -7   15.26    4.97
   6   6  -6  280.80    7.91
   6   6  -6  292.81    8.52
   6   6  -5  173.92    5.01
   6   6  -5  148.93    5.62
   6   6  -4  188.73    4.67
   6   6  -4  200.70    6.78
   6   6  -3   38.98    2.57
   6   6  -3   45.37    4.86
   6   6  -2   33.47    5.13
   6   6  -1   28.22    4.96
   6   6   0   15.78    3.79
   6   6   1   12.77    6.29
   6   7  -7   56.26    3.44
   6   7  -7   66.48    4.56
   6   7  -6    4.10    2.04
   6   7  -6    4.25    2.68
   6   7  -5   53.33    3.51
   6   7  -5   64.06    4.80
   6   7  -4   17.75    3.32
   6   7  -4   22.48    4.16
   6   7  -3   92.22    4.54
   6   7  -2   98.43    5.63
   7 -11   0   48.46    4.54
  -7  11   0   59.16    5.74
   7 -11   1  104.56    5.85
  -7  11  -1  111.54    5.17
   7 -11   2   13.24    5.87
  -7  11  -2   21.79    4.98
   7 -11   3    7.57    2.42
  -7  11  -3    6.64    3.85
  -7  11  -4   30.55    5.35
  -7  11  -5   -0.24    1.46
  -7  11  -6   13.97    2.91
   7 -10  -2   96.07    8.02
  -7  10   2  117.71    5.82
   7 -10  -1   76.17    8.49
  -7  10   1   84.85   11.64
   7 -10   0   57.43    4.29
  -7  10   0   61.16    5.09
   7 -10   1   30.42    3.24
  -7  10  -1   27.54    2.84
   7 -10   2  143.34    4.19
  -7  10  -2  159.28    6.51
   7 -10   3    1.02    1.60
  -7  10  -3    9.01    4.53
  -7  10  -4    0.45    2.39
  -7  10  -5   89.29    3.50
  -7  10  -6    2.42    1.89
   7  -9  -4    1.66    2.60
  -7   9   4   -3.76    3.60
   7  -9  -3    4.39    2.55
  -7   9   3    2.13    3.76
   7  -9  -2  144.10    5.22
  -7   9   2  143.99    6.29
   7  -9  -1   50.46    4.06
  -7   9   1   46.26    9.05
   7  -9   0   21.64    3.60
  -7   9   0   25.97    4.47
   7  -9   1    4.63    2.83
  -7   9  -1    4.17    2.88
   7  -9   2   43.53    2.63
   7  -9   2   38.78    5.77
   7  -9   3    1.02    0.91
   7  -9   3    1.65    1.82
   7  -9   4  101.75    3.59
   7  -9   5   -1.09    1.85
  -7   9  -7    4.27    1.28
   7  -8  -5  167.16    5.25
  -7   8   5  169.31    6.83
   7  -8  -4    9.11    2.58
  -7   8   4    3.49    3.52
   7  -8  -3   56.12    3.53
  -7   8   3   57.13    5.06
   7  -8  -2  157.18    7.55
   7  -8  -2  155.11    8.22
   7  -8  -1  179.48    8.11
   7  -8  -1  163.50   14.51
   7  -8   0  265.88    7.47
   7  -8   0  256.90    8.72
   7  -8   1    5.54    2.55
   7  -8   1    4.95    2.16
   7  -8   2  127.61    3.20
   7  -8   2  139.53    6.57
   7  -8   3   89.07    3.75
   7  -8   4   -0.42    1.75
   7  -8   5  233.94    6.40
   7  -8   6  164.80    7.23
   7  -7  -6  416.33    8.87
  -7   7   6  410.49    9.60
   7  -7  -5    4.95    2.22
   7  -7  -4   99.00    3.61
   7  -7  -4   99.71    4.92
   7  -7  -3   88.81    3.47
   7  -7  -3   81.24   10.27
   7  -7  -2  191.28    5.68
   7  -7  -2  194.02   12.04
   7  -7  -1   39.56    2.82
   7  -7  -1   38.43   11.69
   7  -7   0   71.68    2.41
   7  -7   0   67.01    8.75
   7  -7   1    1.48    1.26
   7  -7   1    2.04    1.54
   7  -7   2  217.38    6.08
   7  -7   2  217.85    6.02
   7  -7   3    3.93    2.30
   7  -7   4    0.74    0.85
   7  -7   5   15.82    6.69
   7  -7   6   85.15    2.54
   7  -7   7   69.25    4.06
   7  -6  -7   16.77    8.04
   7  -6  -7   21.28    7.09
   7  -6  -6   15.39    2.06
   7  -6  -6   11.73    4.45
   7  -6  -5   44.57    5.59
   7  -6  -5   42.13   12.28
   7  -6  -4    4.06    2.64
   7  -6  -4    3.13    2.51
   7  -6  -3    1.88    2.28
   7  -6  -3    3.22    2.07
   7  -6  -2    6.09    2.10
   7  -6  -2    5.44    2.69
   7  -6  -1    0.79    1.30
   7  -6  -1    1.53    1.93
   7  -6   0  177.29    5.46
   7  -6   0  163.63    4.38
   7  -6   1   -0.11    0.97
   7  -6   1    0.50    1.73
   7  -6   2   81.68    2.75
   7  -6   3  135.02    4.01
   7  -6   4    6.95    2.35
   7  -6   5  205.20    7.57
   7  -6   6   56.24    2.70
   7  -6   7   81.93    2.58
   7  -5  -8  106.85    6.99
   7  -5  -8  109.12    7.93
   7  -5  -7  341.84    8.82
   7  -5  -7  375.93   10.41
   7  -5  -6  115.68    3.29
   7  -5  -6  114.00   12.94
   7  -5  -5   13.91    5.98
   7  -5  -5   14.91    3.82
   7  -5  -4  143.56    6.11
   7  -5  -4  125.91    3.27
   7  -5  -3   94.74    6.02
   7  -5  -3  100.77    3.89
   7  -5  -2  531.62    9.52
   7  -5  -2  513.00   11.95
   7  -5  -1    9.03    1.83
   7  -5  -1    9.49    2.87
   7  -5   0   55.07    1.74
   7  -5   0   56.82    3.14
   7  -5   1  854.89   18.14
   7  -5   2    2.38    2.21
   7  -5   3   53.46    5.18
   7  -5   4  208.46    6.44
   7  -5   5  112.24    2.76
   7  -5   6  134.45    5.47
   7  -5   7   40.78    1.91
   7  -4  -9  198.27    5.44
   7  -4  -9  176.81   12.64
   7  -4  -8  359.40   10.93
   7  -4  -8  387.22   10.43
   7  -4  -7    3.71    1.97
   7  -4  -7   -2.95    2.48
   7  -4  -6   38.19    2.85
   7  -4  -6   29.06   11.69
   7  -4  -5   61.53    2.61
   7  -4  -5   63.37    6.80
   7  -4  -4  189.56    7.16
   7  -4  -4  186.98    7.57
   7  -4  -3  171.98    4.70
   7  -4  -3  178.79    4.96
   7  -4  -2    6.46    1.87
   7  -4  -2    5.70    6.37
   7  -4  -1   15.51    3.63
   7  -4  -1   16.31    5.67
   7  -4   0  949.49   18.80
   7  -4   1  299.39    6.99
   7  -4   2   55.31    3.36
   7  -4   3    0.10    1.90
   7  -4   4  185.27    4.35
   7  -4   5   42.18    2.31
   7  -4   6   40.11    2.32
   7  -4   7   21.47    1.71
   7  -3  -9   39.77    3.07
   7  -3  -9   34.49    8.53
   7  -3  -8  104.44    3.45
   7  -3  -8  106.81    3.97
   7  -3  -7  104.92    3.26
   7  -3  -7  100.37    4.04
   7  -3  -6   57.25    2.62
   7  -3  -6   54.06    5.39
   7  -3  -5   33.82    2.35
   7  -3  -5   33.21    3.83
   7  -3  -4  208.48    4.42
   7  -3  -4  222.45    7.09
   7  -3  -3    5.31    1.71
   7  -3  -3    3.19    1.77
   7  -3  -2  116.74    2.00
   7  -3  -2  118.94    8.09
   7  -3  -1   13.76    1.95
   7  -3  -1   15.98    4.71
   7  -3   0    1.38    1.52
   7  -3   1  291.23    6.57
   7  -3   2    5.11    2.39
   7  -3   3  286.56    6.33
   7  -3   4  514.06    9.64
   7  -3   5  134.38    7.25
   7  -3   6   95.33    7.04
   7  -3   7   46.30    3.83
   7  -2 -10   83.16    3.61
   7  -2 -10   63.83    8.10
   7  -2  -9  349.77    8.94
   7  -2  -9  329.88    8.82
   7  -2  -8  304.10    6.42
   7  -2  -8  276.45    6.57
   7  -2  -7   34.86    2.94
   7  -2  -7   33.15    3.34
   7  -2  -6   26.38    2.75
   7  -2  -6   29.88    7.41
   7  -2  -5    2.81    1.53
   7  -2  -5    4.65    3.23
   7  -2  -4  345.62    6.44
   7  -2  -4  345.79    7.70
   7  -2  -3   97.10    3.75
   7  -2  -3   89.60    4.00
   7  -2  -2    9.00    3.07
   7  -2  -2   13.39    2.45
   7  -2  -1 1210.78   21.77
   7  -2   0  192.35    5.15
   7  -2   1   58.91    3.58
   7  -2   2  124.14    4.92
   7  -2   3   43.67    3.20
   7  -2   4    3.52    1.89
   7  -2   5   14.15    3.93
   7  -2   6   27.59    2.76
   7  -2   7   31.98    2.04
   7  -1 -10  102.38    4.04
   7  -1 -10   81.09    3.62
   7  -1  -9   10.31    3.86
   7  -1  -9   10.94    5.26
   7  -1  -8    2.33    1.38
   7  -1  -8    4.06    2.42
   7  -1  -7   16.14    6.29
   7  -1  -7   20.83    5.30
   7  -1  -6   59.45    5.34
   7  -1  -6   58.17    7.75
   7  -1  -5  261.23    9.15
   7  -1  -5  268.02   10.08
   7  -1  -4   11.30    3.46
   7  -1  -4    9.81    2.53
   7  -1  -3   73.48    2.23
   7  -1  -3   83.50    9.01
   7  -1  -2 1220.86   21.98
   7  -1  -1 1510.45   26.88
   7  -1   0  392.99    8.42
   7  -1   1  113.03    4.95
   7  -1   2   82.22    5.31
   7  -1   3  114.40    3.95
   7  -1   4    1.88    1.50
   7  -1   5   13.35    3.42
   7  -1   6  237.75    5.58
   7  -1   7  378.65    9.50
   7   0 -10  110.83    3.85
   7   0 -10  111.51    4.36
   7   0  -9  134.91    4.57
   7   0  -9  130.85    8.52
   7   0  -8  120.37    3.33
   7   0  -8  115.07    5.62
   7   0  -7  107.51    3.06
   7   0  -7  111.93    3.77
   7   0  -6  357.50    8.48
   7   0  -6  354.50    8.92
   7   0  -5  116.98    2.43
   7   0  -5  117.64    4.12
   7   0  -4   41.38    1.65
   7   0  -4   41.21    2.56
   7   0  -3   16.26    3.66
   7   0  -3   21.12    4.34
   7   0  -2    8.83    3.35
   7   0  -1  140.70    5.25
   7   0   0   20.07    3.54
   7   0   1   89.39    4.08
   7   0   2  860.13    8.27
   7   0   3  300.59    8.84
   7   0   4   52.83    3.45
   7   0   5   86.56    3.52
   7   0   6   51.55    4.04
   7   0   7  202.43    5.28
   7   1 -10  208.43    5.29
   7   1 -10  227.67    6.05
   7   1  -9   81.27    7.22
   7   1  -9   83.01    3.63
   7   1  -8    1.18    1.37
   7   1  -8   -0.51    1.21
   7   1  -7   69.28    6.29
   7   1  -7   73.09    3.67
   7   1  -6   85.14    2.86
   7   1  -6   77.58    8.80
   7   1  -5  177.38    6.58
   7   1  -5  173.87    7.43
   7   1  -4  144.30    5.80
   7   1  -4  150.91    6.78
   7   1  -3  320.81   11.01
   7   1  -3  337.58   12.74
   7   1  -2  789.89    8.63
   7   1  -1  158.43    6.94
   7   1   0   25.36    4.42
   7   1   1   79.14    4.23
   7   1   2   48.15    4.15
   7   1   3   25.82    3.83
   7   1   4    1.29    2.32
   7   1   5    0.44    2.27
   7   1   6   14.60    3.66
   7   2 -10   36.02    8.32
   7   2 -10   42.92    4.73
   7   2  -9    4.37    3.00
   7   2  -9   -0.10    2.23
   7   2  -8    6.76    2.76
   7   2  -8    4.87    2.67
   7   2  -7  117.19    8.27
   7   2  -7  117.38    8.60
   7   2  -6   37.61    2.21
   7   2  -6   33.80   10.57
   7   2  -5   48.76    2.19
   7   2  -5   53.96    6.44
   7   2  -4  934.94   21.29
   7   2  -3 1958.45   11.53
   7   2  -2 1027.17    9.62
   7   2  -1  241.65    7.31
   7   2   0    5.20    3.44
   7   2   1   98.48    7.04
   7   2   2   14.52    2.41
   7   2   3   21.44    2.96
   7   2   4  103.89    4.43
   7   2   5  514.19   11.20
   7   3 -10  127.01    4.68
   7   3 -10  116.09    4.00
   7   3  -9   80.01    5.79
   7   3  -9   88.55    4.20
   7   3  -8  245.47    6.89
   7   3  -8  229.48    7.13
   7   3  -7  184.49    4.91
   7   3  -7  203.45    5.60
   7   3  -6   49.27    2.34
   7   3  -6   44.09    7.10
   7   3  -5    0.15    1.64
   7   3  -5   -1.89    3.34
   7   3  -4    2.37    3.25
   7   3  -3   42.99    3.38
   7   3  -2    0.54    1.60
   7   3  -1    4.18    3.01
   7   3   0  391.63   15.86
   7   3   1  373.54    8.82
   7   3   2    4.04    2.87
   7   3   3   66.85    4.73
   7   4  -9  172.78    4.80
   7   4  -9  171.12    4.85
   7   4  -8    5.05    1.92
   7   4  -8    3.19    2.03
   7   4  -7  156.07    4.79
   7   4  -7  163.02    5.73
   7   4  -6  129.40    3.41
   7   4  -6  131.81    5.10
   7   4  -5   15.50    4.20
   7   4  -4  482.31   10.14
   7   4  -3   27.95    4.50
   7   4  -2  372.79    8.79
   7   4  -1   32.98    4.17
   7   4   0   10.52    3.78
   7   4   1  149.28    6.90
   7   4   2    6.33    2.96
   7   5  -8    9.00    2.11
   7   5  -8   11.55    2.57
   7   5  -7    9.03    2.49
   7   5  -7    5.61    2.31
   7   5  -6  378.31    8.89
   7   5  -5 1325.30   11.24
   7   5  -4 1244.18   11.74
   7   5  -3  268.05    8.82
   7   5  -2   41.64    4.68
   7   5  -1    2.77    4.89
  -8  10   0   50.13    5.02
  -8  10  -1    5.99    2.61
  -8  10  -2  133.91    5.05
  -8  10  -3   34.98    3.94
  -8  10  -4   56.47    3.58
  -8  10  -5   72.62    3.94
  -8  10  -6    0.90    1.89
  -8   9   2   -1.96    2.51
   8  -9  -1    3.20    2.06
   8  -9   0   66.01    3.92
   8  -9   1   14.86    4.64
   8  -9   2    9.26    2.85
   8  -9   3    2.48    1.52
   8  -9   4   -0.55    1.71
   8  -9   5   14.88    5.91
   8  -9   6    1.65    1.20
   8  -8  -3  181.34    5.51
   8  -8  -3  178.22    5.96
   8  -8  -2   54.50    4.16
   8  -8  -1    5.65    3.84
   8  -8   0   73.58    3.31
   8  -8   1  205.54    5.57
   8  -8   2  325.65    7.37
   8  -8   3  245.37    5.74
   8  -8   4  283.02    6.20
   8  -8   5   21.42    8.33
   8  -8   6   -2.08    1.33
   8  -7  -5   71.90    3.17
   8  -7  -5   68.94    3.85
   8  -7  -4    4.22    2.42
   8  -7  -4    4.15    3.14
   8  -7  -3  296.15    7.64
   8  -7  -3  309.10    9.17
   8  -7  -2  291.56   10.59
   8  -7  -1    3.19    2.91
   8  -7   0   15.98    6.45
   8  -7   1   32.49    4.24
   8  -7   2    1.88    1.33
   8  -7   3   27.27    2.49
   8  -7   4    3.62    2.11
   8  -7   5   39.34    6.34
   8  -7   6  238.78    5.03
   8  -6  -6   12.83    7.15
   8  -6  -6   17.73    7.92
   8  -6  -5   20.12    2.32
   8  -6  -5   17.09    6.66
   8  -6  -4  100.15    3.62
   8  -6  -4  105.48    9.30
   8  -6  -3   88.99    3.46
   8  -6  -2   -0.38    2.50
   8  -6  -1    1.27    2.28
   8  -6   0    0.83    2.42
   8  -6   1    2.29    2.06
   8  -6   2   -1.42    2.04
   8  -6   3    9.48    2.48
   8  -6   4   30.63    2.47
   8  -6   5   91.35    3.01
   8  -6   6  289.81    8.47
   8  -5  -6   10.85    5.90
   8  -5  -6   13.42    4.38
   8  -5  -5  137.45    4.22
   8  -5  -5  139.79    6.91
   8  -5  -4  166.81    4.23
   8  -5  -4  155.65    8.17
   8  -5  -3    9.62    3.92
   8  -5  -2   15.19    7.63
   8  -5  -1  320.12    9.46
   8  -5   0  365.31    9.65
   8  -5   1  252.35    6.92
   8  -5   2  403.98    9.98
   8  -5   3   53.79    4.44
   8  -5   4    4.72    1.71
   8  -5   5   33.86    3.74
   8  -5   6  208.47    4.57
   8  -4  -7   33.04    1.96
   8  -4  -7   34.43    2.82
   8  -4  -6   -0.25    1.56
   8  -4  -6    1.83    2.51
   8  -4  -5  104.97    2.66
   8  -4  -5   97.79    3.54
   8  -4  -4  266.98   10.85
   8  -4  -3   15.33    2.88
   8  -4  -2    6.40    2.85
   8  -4  -1   -0.39    2.77
   8  -4   0    0.23    2.01
   8  -4   1   10.63    2.90
   8  -4   2   -0.11    0.87
   8  -4   3    0.41    1.89
   8  -4   4   76.96    2.81
   8  -4   5    7.02    3.43
   8  -4   6   89.17    2.59
   8  -3  -8  136.52    4.03
   8  -3  -8  131.07    7.55
   8  -3  -7    2.13    1.35
   8  -3  -7    3.39    1.44
   8  -3  -6  156.10    3.81
   8  -3  -6  148.35    4.97
   8  -3  -5  395.92   16.96
   8  -3  -4  107.92    4.15
   8  -3  -3   62.29    4.54
   8  -3  -2   -0.17    2.17
   8  -3  -1   10.67    5.52
   8  -3   0    0.40    1.53
   8  -3   1    4.77    2.02
   8  -3   2  146.76    6.98
   8  -3   3   83.16    3.14
   8  -3   4  440.52   18.13
   8  -3   5  320.28    6.51
   8  -3   6   43.86    4.05
   8  -2  -8   15.20    7.08
   8  -2  -8   18.56    6.02
   8  -2  -7   73.39    2.70
   8  -2  -7   77.59    3.67
   8  -2  -6  145.56    4.23
   8  -2  -6  144.38    4.51
   8  -2  -5   54.50    5.84
   8  -2  -4    0.87    2.29
   8  -2  -3  131.66    3.88
   8  -2  -2  275.07    7.46
   8  -2  -1   23.76    8.39
   8  -2   0  279.43    8.25
   8  -2   1   68.95    3.18
   8  -2   2   10.01    2.48
   8  -2   3    1.39    1.18
   8  -2   4   56.71    6.64
   8  -2   5   49.29    3.07
   8  -2   6   -0.43    1.54
   8  -1  -8    1.01    1.53
   8  -1  -8    1.88    1.49
   8  -1  -7    0.97    1.37
   8  -1  -7    1.94    1.26
   8  -1  -6   56.27    4.60
   8  -1  -5    7.59    3.03
   8  -1  -4    7.39    2.29
   8  -1  -3   76.81    9.29
   8  -1  -2    1.80    1.66
   8  -1  -1   25.66    7.70
   8  -1   0   46.10    6.91
   8  -1   1    0.98    2.36
   8  -1   2    9.36    3.12
   8  -1   3    0.88    2.06
   8  -1   4  166.73    4.42
   8  -1   5   14.62    6.42
   8  -1   6   45.26    5.61
   8   0  -8   39.05    2.10
   8   0  -8   39.51    2.52
   8   0  -7  469.06   11.49
   8   0  -6  168.89    4.53
   8   0  -5  178.39    8.65
   8   0  -4   24.28    6.75
   8   0  -3   12.47    2.29
   8   0  -2   64.49    9.16
   8   0  -1    1.28    2.68
   8   0   0  159.70    8.12
   8   0   1   85.00    5.12
   8   0   2  180.03    5.47
   8   0   3  404.96   10.63
   8   0   4   66.82    3.56
   8   0   5   27.38    3.87
   8   1  -8   64.63    2.83
   8   1  -7   79.89    8.04
   8   1  -6   -0.45    2.50
   8   1  -5    3.44    2.46
   8   1  -4  130.57    5.54
   8   1  -3   16.96    5.00
   8   1  -2    6.26    2.57
   8   1  -1   34.90   11.23
   8   1   0   19.18    5.26
   8   1   1    1.22    2.78
   8   1   2    0.89    2.26
   8   1   3   24.31    3.31
   8   1   4    0.62    2.34
   8   2  -8    1.93    1.83
   8   2  -7   15.19    7.82
   8   2  -6    8.20    2.12
   8   2  -5  108.03    4.97
   8   2  -4    3.40    1.30
   8   2  -3    1.56    1.45
   8   2  -2   95.21    8.50
   8   2  -1    8.79    3.13
   8   2   0   77.25    4.92
   8   2   1   84.00    4.47
   8   2   2  140.97    5.19
   8   3  -6   84.69    4.66
   8   3  -5    4.66    2.31
   8   3  -4  143.00    5.97
   8   3  -3    2.02    2.00
   8   3  -2    3.44    3.35
   8   3  -1   97.91    5.00
   8   3   0   14.73    4.25
   9  -8  -1    1.95    1.09
   9  -8   0   46.61    9.51
   9  -8   1  285.15    6.99
   9  -8   2    4.49    2.03
   9  -8   3  170.40    5.14
   9  -8   4   16.40    8.07
   9  -7  -2  282.45    7.74
   9  -7  -1  448.22    9.83
   9  -7   0   50.21    3.51
   9  -7   1    2.72    1.95
   9  -7   2  167.59    5.53
   9  -7   3   35.74    6.89
   9  -7   4  506.37    9.66
   9  -7   5    9.44    4.75
   9  -6  -3  139.05    5.17
   9  -6  -2  333.33    9.32
   9  -6  -1    1.31    1.79
   9  -6   0   15.42    5.46
   9  -6   1  202.43    6.15
   9  -6   2   25.91    3.00
   9  -6   3  270.81    7.27
   9  -6   4  138.86    5.03
   9  -6   5  368.98    7.60
   9  -6   6  284.78    6.06
   9  -5  -4  241.90    6.79
   9  -5  -3  107.09    9.09
   9  -5  -2    1.38    2.64
   9  -5  -1  433.89   11.33
   9  -5   0    9.81    4.42
   9  -5   1   45.23    5.43
   9  -5   2  129.95    4.89
   9  -5   3    2.47    0.99
   9  -5   4  186.95    5.65
   9  -5   5  185.45    4.90
   9  -4  -5   95.30    4.23
   9  -4  -4   45.33    3.12
   9  -4  -3  330.86   11.55
   9  -4  -2   79.69    4.37
   9  -4  -1    3.43    2.46
   9  -4   0   87.77    6.08
   9  -4   1   56.94    7.46
   9  -4   2  243.08    6.94
   9  -4   3   18.88    7.24
   9  -4   4   13.25    2.44
   9  -4   5    1.05    1.50
   9  -3  -5  160.21    6.51
   9  -3  -4  248.73    7.46
   9  -3  -3  132.91    4.83
   9  -3  -2   48.86    2.86
   9  -3  -1  335.74    7.56
   9  -3   0  106.51    4.19
   9  -3   1  297.61    7.95
   9  -3   2  204.80    6.07
   9  -3   3  112.09    6.43
   9  -3   4  537.56   10.05
   9  -2  -6  122.45    4.50
   9  -2  -5  336.87    7.35
   9  -2  -4    1.97    1.74
   9  -2  -3  165.23    5.92
   9  -2  -2   39.71    7.71
   9  -2  -1    6.36    2.43
   9  -2   0   74.12    4.82
   9  -2   1    3.54    1.87
   9  -2   2   93.14    4.33
   9  -2   3  177.32    4.81
   9  -2   4   12.74    6.44
   9  -1  -5   52.58    3.21
   9  -1  -4   64.20    7.24
   9  -1  -3   10.42    3.67
   9  -1  -2   24.00    7.98
   9  -1  -1  124.37    5.18
   9  -1   0    1.91    2.69
   9  -1   1   17.74    2.96
   9  -1   2   70.67    8.85
   9  -1   3   86.48    3.93
   9   0  -5  139.21    4.71
   9   0  -4  119.35    4.70
   9   0  -3  281.77    7.12
   9   0  -2  221.46    6.62
   9   0  -1  254.18    6.94
   9   0   0  209.54    5.61
   9   0   1   13.28    7.64
   9   1  -3   20.81   10.20
   9   1  -2    0.45    1.65
   9   1  -1    0.42    2.02
;
_shelx_hkl_checksum              14697
_shelx_res_file
;
TITL DMDBT-F4TCNQ0926
    shelxl.res
    created by SHELXL-2016/6 at 13:12:03 on 22-Dec-2017
CELL  0.71075 7.57000 10.20600 11.54900 113.40000 90.01000 108.60700
ZERR  1 0.00200 0.00300 0.00400 0.00200 0.00300 0.00300
LATT 1
SFAC C H F N S
UNIT 40 24 4 4 2
SHEL 6.790236 0.776138
L.S. 10
FMAP 2
PLAN 5
WPDB -2
HTAB
BOND $H
CONF
LIST 4
TEMP -180.0
ACTA
SIZE 0.420 0.100 0.020
WGHT    0.047000    0.435200
FVAR       1.05472
S1    5    0.503719    0.197760    0.009855    11.00000    0.01041    0.01487 =
         0.01270    0.00553    0.00217    0.00466
F1    3    0.667939    0.465476   -0.119427    11.00000    0.01131    0.02170 =
         0.01360    0.00618   -0.00037    0.00727
F2    3    0.737038    0.601564    0.131002    11.00000    0.01267    0.02013 =
         0.01421    0.00478    0.00498    0.00914
N1    4    1.376603    0.697179    0.409393    11.00000    0.01902    0.02247 =
         0.01500    0.00637    0.00024    0.00633
N2    4    0.859442    0.757560    0.423868    11.00000    0.02340    0.02682 =
         0.01634    0.00450    0.00583    0.01008
C1    1    1.000515    0.245406    0.164205    11.00000    0.01284    0.01231 =
         0.01626    0.00717    0.00366    0.00441
AFIX  43
H1    2    1.106198    0.219533    0.132407    11.00000   -1.20000
AFIX   0
C2    1    1.001258    0.317826    0.294043    11.00000    0.01278    0.01550 =
         0.01580    0.00809    0.00012    0.00390
AFIX  43
H2    2    1.107384    0.340458    0.351784    11.00000   -1.20000
AFIX   0
C3    1    0.846576    0.358112    0.341129    11.00000    0.01729    0.01438 =
         0.01232    0.00588    0.00260    0.00412
AFIX  43
H3    2    0.850956    0.408757    0.430689    11.00000   -1.20000
AFIX   0
C4    1    0.686704    0.326263    0.260815    11.00000    0.01356    0.01233 =
         0.01505    0.00673    0.00399    0.00386
C5    1    0.687432    0.251060    0.129642    11.00000    0.01131    0.01145 =
         0.01445    0.00697    0.00143    0.00229
C6    1    0.632203    0.121005   -0.108723    11.00000    0.01159    0.00931 =
         0.01470    0.00569    0.00257    0.00235
C7    1    0.568365    0.051548   -0.240169    11.00000    0.01322    0.01072 =
         0.01529    0.00628    0.00120    0.00200
C8    1    0.691043   -0.003363   -0.319482    11.00000    0.01724    0.01269 =
         0.01257    0.00402    0.00106    0.00363
AFIX  43
H8    2    0.652923   -0.051750   -0.409160    11.00000   -1.20000
AFIX   0
C9    1    0.869450    0.010699   -0.270778    11.00000    0.01540    0.01294 =
         0.01629    0.00467    0.00461    0.00597
AFIX  43
H9    2    0.949518   -0.027864   -0.327803    11.00000   -1.20000
AFIX   0
C10   1    0.930030    0.080070   -0.140689    11.00000    0.01249    0.01194 =
         0.01664    0.00653    0.00258    0.00454
AFIX  43
H10   2    1.050959    0.089629   -0.108152    11.00000   -1.20000
AFIX   0
C11   1    0.810174    0.135921   -0.057840    11.00000    0.01230    0.00866 =
         0.01389    0.00541    0.00136    0.00167
C12   1    0.842166    0.210673    0.080178    11.00000    0.01340    0.00928 =
         0.01314    0.00610    0.00299    0.00342
C13   1    0.521350    0.369829    0.311358    11.00000    0.01564    0.02247 =
         0.01564    0.00760    0.00507    0.00894
AFIX 137
H13A  2    0.514343    0.452297    0.290378    11.00000   -1.50000
H13B  2    0.536587    0.404189    0.404152    11.00000   -1.50000
H13C  2    0.405198    0.281435    0.272533    11.00000   -1.50000
AFIX   0
C14   1    0.377267    0.037607   -0.290777    11.00000    0.01455    0.01744 =
         0.01560    0.00546   -0.00075    0.00420
AFIX 137
H14A  2    0.371282    0.139434   -0.266854    11.00000   -1.50000
H14B  2    0.280501   -0.018362   -0.254580    11.00000   -1.50000
H14C  2    0.355357   -0.017344   -0.383911    11.00000   -1.50000
AFIX   0
C15   1    0.830357    0.481663   -0.061069    11.00000    0.00892    0.01147 =
         0.01395    0.00586    0.00121    0.00316
C16   1    0.866121    0.551441    0.066964    11.00000    0.01009    0.01140 =
         0.01478    0.00599    0.00489    0.00452
C17   1    1.038404    0.575911    0.138829    11.00000    0.01186    0.00955 =
         0.01281    0.00561    0.00261    0.00280
C18   1    1.075221    0.648120    0.269966    11.00000    0.01384    0.01182 =
         0.01223    0.00472    0.00244    0.00325
C19   1    1.246446    0.673003    0.342791    11.00000    0.01827    0.01342 =
         0.00996    0.00395    0.00404    0.00401
C20   1    0.948415    0.706760    0.350438    11.00000    0.01657    0.01492 =
         0.01187    0.00406   -0.00072    0.00319
HKLF 4
REM  DMDBT-F4TCNQ0926
REM R1 =  0.0345 for    2887 Fo > 4sig(Fo)  and  0.0410 for all    3311 data
REM    228 parameters refined using      0 restraints
END
WGHT      0.0466      0.4388
REM No hydrogen bonds found for HTAB generation
REM Highest difference peak  0.396,  deepest hole -0.253,  1-sigma level  0.057
Q1    1   0.8319  0.1860  0.0119  11.00000  0.05    0.40
Q2    1   0.6008  0.3420  0.2826  11.00000  0.05    0.35
Q3    1   0.7643  0.2139  0.1065  11.00000  0.05    0.35
Q4    1   0.6822  0.2885  0.1943  11.00000  0.05    0.35
Q5    1   0.8971  0.4631 -0.1018  11.00000  0.05    0.32
;
_shelx_res_checksum              8016
loop_
_space_group_symop_id
_space_group_symop_operation_xyz
1 +X,+Y,+Z
2 -X,-Y,-Z
loop_
_atom_site_type_symbol
_atom_site_label
_atom_site_fract_x
_atom_site_fract_y
_atom_site_fract_z
_atom_site_U_iso_or_equiv
_atom_site_adp_type
_atom_site_calc_flag
_atom_site_occupancy
S S1 0.50372(5) 0.19776(4) 0.00985(3) 0.01267(11) Uani d 1
F F1 0.66794(11) 0.46548(10) -0.11943(8) 0.01555(19) Uani d 1
F F2 0.73704(12) 0.60156(10) 0.13100(8) 0.0156(2) Uani d 1
N N1 1.37660(19) 0.69718(16) 0.40939(13) 0.0196(3) Uani d 1
N N2 0.8594(2) 0.75756(17) 0.42387(13) 0.0234(3) Uani d 1
C C1 1.0005(2) 0.24541(16) 0.16420(14) 0.0134(3) Uani d 1
H H1 1.106198 0.219533 0.132407 0.016 Uiso calc 1
C C2 1.0013(2) 0.31783(17) 0.29404(14) 0.0144(3) Uani d 1
H H2 1.107384 0.340458 0.351784 0.017 Uiso calc 1
C C3 0.8466(2) 0.35811(16) 0.34113(14) 0.0149(3) Uani d 1
H H3 0.850956 0.408757 0.430689 0.018 Uiso calc 1
C C4 0.6867(2) 0.32626(16) 0.26081(14) 0.0135(3) Uani d 1
C C5 0.6874(2) 0.25106(16) 0.12964(14) 0.0123(3) Uani d 1
C C6 0.6322(2) 0.12100(16) -0.10872(14) 0.0120(3) Uani d 1
C C7 0.5684(2) 0.05155(16) -0.24017(14) 0.0134(3) Uani d 1
C C8 0.6910(2) -0.00336(16) -0.31948(14) 0.0150(3) Uani d 1
H H8 0.652923 -0.051750 -0.409160 0.018 Uiso calc 1
C C9 0.8694(2) 0.01070(17) -0.27078(14) 0.0151(3) Uani d 1
H H9 0.949518 -0.027864 -0.327803 0.018 Uiso calc 1
C C10 0.9300(2) 0.08007(16) -0.14069(14) 0.0134(3) Uani d 1
H H10 1.050959 0.089629 -0.108152 0.016 Uiso calc 1
C C11 0.8102(2) 0.13592(16) -0.05784(14) 0.0119(3) Uani d 1
C C12 0.8422(2) 0.21067(15) 0.08018(13) 0.0116(3) Uani d 1
C C13 0.5213(2) 0.36983(18) 0.31136(15) 0.0174(3) Uani d 1
H H13A 0.514343 0.452297 0.290378 0.026 Uiso calc 1
H H13B 0.536587 0.404189 0.404152 0.026 Uiso calc 1
H H13C 0.405198 0.281435 0.272533 0.026 Uiso calc 1
C C14 0.3773(2) 0.03761(17) -0.29078(15) 0.0167(3) Uani d 1
H H14A 0.371282 0.139434 -0.266854 0.025 Uiso calc 1
H H14B 0.280501 -0.018362 -0.254580 0.025 Uiso calc 1
H H14C 0.355357 -0.017344 -0.383911 0.025 Uiso calc 1
C C15 0.83036(19) 0.48166(16) -0.06107(14) 0.0114(3) Uani d 1
C C16 0.86612(19) 0.55144(16) 0.06696(14) 0.0117(3) Uani d 1
C C17 1.03840(19) 0.57591(15) 0.13883(13) 0.0113(3) Uani d 1
C C18 1.0752(2) 0.64812(16) 0.26997(14) 0.0131(3) Uani d 1
C C19 1.2464(2) 0.67300(16) 0.34279(14) 0.0146(3) Uani d 1
C C20 0.9484(2) 0.70676(17) 0.35044(14) 0.0156(3) Uani d 1
loop_
_atom_site_aniso_label
_atom_site_aniso_U_11
_atom_site_aniso_U_22
_atom_site_aniso_U_33
_atom_site_aniso_U_12
_atom_site_aniso_U_13
_atom_site_aniso_U_23
S1 0.01041(17) 0.01487(18) 0.01270(18) 0.00466(13) 0.00217(13) 0.00553(13)
F1 0.0113(4) 0.0217(5) 0.0136(4) 0.0073(3) -0.0004(3) 0.0062(4)
F2 0.0127(4) 0.0201(4) 0.0142(4) 0.0091(3) 0.0050(3) 0.0048(3)
N1 0.0190(7) 0.0225(7) 0.0150(6) 0.0063(5) 0.0002(5) 0.0064(5)
N2 0.0234(7) 0.0268(7) 0.0163(7) 0.0101(6) 0.0058(6) 0.0045(6)
C1 0.0128(7) 0.0123(7) 0.0163(7) 0.0044(5) 0.0037(6) 0.0072(6)
C2 0.0128(7) 0.0155(7) 0.0158(7) 0.0039(5) 0.0001(5) 0.0081(6)
C3 0.0173(7) 0.0144(7) 0.0123(7) 0.0041(6) 0.0026(6) 0.0059(6)
C4 0.0136(7) 0.0123(7) 0.0150(7) 0.0039(5) 0.0040(5) 0.0067(5)
C5 0.0113(6) 0.0114(6) 0.0145(7) 0.0023(5) 0.0014(5) 0.0070(5)
C6 0.0116(6) 0.0093(6) 0.0147(7) 0.0024(5) 0.0026(5) 0.0057(5)
C7 0.0132(7) 0.0107(7) 0.0153(7) 0.0020(5) 0.0012(5) 0.0063(5)
C8 0.0172(7) 0.0127(7) 0.0126(7) 0.0036(6) 0.0011(6) 0.0040(5)
C9 0.0154(7) 0.0129(7) 0.0163(7) 0.0060(6) 0.0046(6) 0.0047(6)
C10 0.0125(7) 0.0119(7) 0.0166(7) 0.0045(5) 0.0026(5) 0.0065(5)
C11 0.0123(7) 0.0087(6) 0.0139(7) 0.0017(5) 0.0014(5) 0.0054(5)
C12 0.0134(7) 0.0093(6) 0.0131(7) 0.0034(5) 0.0030(5) 0.0061(5)
C13 0.0156(7) 0.0225(8) 0.0156(7) 0.0089(6) 0.0051(6) 0.0076(6)
C14 0.0146(7) 0.0174(7) 0.0156(7) 0.0042(6) -0.0007(6) 0.0055(6)
C15 0.0089(6) 0.0115(6) 0.0140(7) 0.0032(5) 0.0012(5) 0.0059(5)
C16 0.0101(6) 0.0114(6) 0.0148(7) 0.0045(5) 0.0049(5) 0.0060(5)
C17 0.0119(7) 0.0096(6) 0.0128(7) 0.0028(5) 0.0026(5) 0.0056(5)
C18 0.0138(7) 0.0118(7) 0.0122(7) 0.0032(5) 0.0024(5) 0.0047(5)
C19 0.0183(7) 0.0134(7) 0.0100(7) 0.0040(6) 0.0040(6) 0.0040(5)
C20 0.0166(7) 0.0149(7) 0.0119(7) 0.0032(6) -0.0007(6) 0.0041(6)
loop_
_atom_type_symbol
_atom_type_description
_atom_type_scat_dispersion_real
_atom_type_scat_dispersion_imag
_atom_type_scat_source
C C 0.0033 0.0016
;
International Tables for Crystallography
(Vol. C, Tables 4.2.6.8 and 6.1.1.4)
;
H H 0.0000 0.0000
;
International Tables for Crystallography
(Vol. C, Table 6.1.1.4)
;
F F 0.0171 0.0103
;
International Tables for Crystallography
(Vol. C, Tables 4.2.6.8 and 6.1.1.4)
;
N N 0.0061 0.0033
;
International Tables for Crystallography
(Vol. C, Tables 4.2.6.8 and 6.1.1.4)
;
S S 0.1246 0.1234
;
International Tables for Crystallography
(Vol. C, Tables 4.2.6.8 and 6.1.1.4)
;
loop_
_geom_angle_atom_site_label_1
_geom_angle_atom_site_label_2
_geom_angle_atom_site_label_3
_geom_angle_site_symmetry_3
_geom_angle
_geom_angle_publ_flag
C5 S1 C6 . 91.18(7) n
C2 C1 C12 . 119.20(13) n
C2 C1 H1 . 120.4 n
C12 C1 H1 . 120.4 n
C1 C2 C3 . 120.50(14) n
C1 C2 H2 . 119.7 n
C3 C2 H2 . 119.7 n
C4 C3 C2 . 122.11(14) n
C4 C3 H3 . 118.9 n
C2 C3 H3 . 118.9 n
C3 C4 C5 . 116.59(13) n
C3 C4 C13 . 122.05(13) n
C5 C4 C13 . 121.35(13) n
C4 C5 C12 . 122.23(13) n
C4 C5 S1 . 125.29(11) n
C12 C5 S1 . 112.48(11) n
C7 C6 C11 . 122.66(13) n
C7 C6 S1 . 124.90(11) n
C11 C6 S1 . 112.45(11) n
C8 C7 C6 . 116.35(13) n
C8 C7 C14 . 122.58(14) n
C6 C7 C14 . 121.07(13) n
C7 C8 C9 . 121.94(14) n
C7 C8 H8 . 119.0 n
C9 C8 H8 . 119.0 n
C10 C9 C8 . 120.80(13) n
C10 C9 H9 . 119.6 n
C8 C9 H9 . 119.6 n
C9 C10 C11 . 118.93(13) n
C9 C10 H10 . 120.5 n
C11 C10 H10 . 120.5 n
C10 C11 C6 . 119.32(13) n
C10 C11 C12 . 128.65(13) n
C6 C11 C12 . 112.03(12) n
C1 C12 C5 . 119.36(13) n
C1 C12 C11 . 128.77(13) n
C5 C12 C11 . 111.87(13) n
C4 C13 H13A . 109.5 n
C4 C13 H13B . 109.5 n
H13A C13 H13B . 109.5 n
C4 C13 H13C . 109.5 n
H13A C13 H13C . 109.5 n
H13B C13 H13C . 109.5 n
C7 C14 H14A . 109.5 n
C7 C14 H14B . 109.5 n
H14A C14 H14B . 109.5 n
C7 C14 H14C . 109.5 n
H14A C14 H14C . 109.5 n
H14B C14 H14C . 109.5 n
F1 C15 C16 . 118.90(12) n
F1 C15 C17 2_765 118.30(12) n
C16 C15 C17 2_765 122.80(13) n
F2 C16 C15 . 118.70(13) n
F2 C16 C17 . 118.20(12) n
C15 C16 C17 . 123.10(13) n
C18 C17 C16 . 123.02(13) n
C18 C17 C15 2_765 122.88(13) n
C16 C17 C15 2_765 114.10(13) n
C17 C18 C20 . 124.50(13) n
C17 C18 C19 . 123.55(13) n
C20 C18 C19 . 111.96(13) n
N1 C19 C18 . 174.55(15) n
N2 C20 C18 . 173.74(16) n
loop_
_geom_bond_atom_site_label_1
_geom_bond_atom_site_label_2
_geom_bond_site_symmetry_2
_geom_bond_distance
_geom_bond_publ_flag
S1 C5 . 1.7500(15) n
S1 C6 . 1.7520(15) n
F1 C15 . 1.3322(17) n
F2 C16 . 1.3350(15) n
N1 C19 . 1.148(2) n
N2 C20 . 1.147(2) n
C1 C2 . 1.383(2) n
C1 C12 . 1.400(2) n
C1 H1 . 0.9500 n
C2 C3 . 1.402(2) n
C2 H2 . 0.9500 n
C3 C4 . 1.393(2) n
C3 H3 . 0.9500 n
C4 C5 . 1.401(2) n
C4 C13 . 1.5015(19) n
C5 C12 . 1.4105(19) n
C6 C7 . 1.402(2) n
C6 C11 . 1.408(2) n
C7 C8 . 1.393(2) n
C7 C14 . 1.502(2) n
C8 C9 . 1.405(2) n
C8 H8 . 0.9500 n
C9 C10 . 1.384(2) n
C9 H9 . 0.9500 n
C10 C11 . 1.4003(19) n
C10 H10 . 0.9500 n
C11 C12 . 1.448(2) n
C13 H13A . 0.9800 n
C13 H13B . 0.9800 n
C13 H13C . 0.9800 n
C14 H14A . 0.9800 n
C14 H14B . 0.9800 n
C14 H14C . 0.9800 n
C15 C16 . 1.344(2) n
C15 C17 2_765 1.4466(19) n
C16 C17 . 1.442(2) n
C17 C18 . 1.377(2) n
C18 C20 . 1.438(2) n
C18 C19 . 1.439(2) n
loop_
_geom_torsion_atom_site_label_1
_geom_torsion_atom_site_label_2
_geom_torsion_atom_site_label_3
_geom_torsion_atom_site_label_4
_geom_torsion_site_symmetry_1
_geom_torsion_site_symmetry_4
_geom_torsion
_geom_torsion_publ_flag
C12 C1 C2 C3 . . -0.9(2) n
C1 C2 C3 C4 . . 0.7(2) n
C2 C3 C4 C5 . . 0.2(2) n
C2 C3 C4 C13 . . -179.84(13) n
C3 C4 C5 C12 . . -0.7(2) n
C13 C4 C5 C12 . . 179.28(13) n
C3 C4 C5 S1 . . 179.65(11) n
C13 C4 C5 S1 . . -0.3(2) n
C6 S1 C5 C4 . . 179.43(13) n
C6 S1 C5 C12 . . -0.22(11) n
C5 S1 C6 C7 . . 179.85(13) n
C5 S1 C6 C11 . . 0.00(11) n
C11 C6 C7 C8 . . 0.2(2) n
S1 C6 C7 C8 . . -179.66(11) n
C11 C6 C7 C14 . . 179.91(13) n
S1 C6 C7 C14 . . 0.1(2) n
C6 C7 C8 C9 . . -0.4(2) n
C14 C7 C8 C9 . . 179.90(14) n
C7 C8 C9 C10 . . 0.2(2) n
C8 C9 C10 C11 . . 0.2(2) n
C9 C10 C11 C6 . . -0.4(2) n
C9 C10 C11 C12 . . 179.42(14) n
C7 C6 C11 C10 . . 0.2(2) n
S1 C6 C11 C10 . . -179.95(11) n
C7 C6 C11 C12 . . -179.64(12) n
S1 C6 C11 C12 . . 0.22(15) n
C2 C1 C12 C5 . . 0.4(2) n
C2 C1 C12 C11 . . -179.92(13) n
C4 C5 C12 C1 . . 0.5(2) n
S1 C5 C12 C1 . . -179.87(11) n
C4 C5 C12 C11 . . -179.28(13) n
S1 C5 C12 C11 . . 0.39(15) n
C10 C11 C12 C1 . . 0.1(2) n
C6 C11 C12 C1 . . 179.90(14) n
C10 C11 C12 C5 . . 179.81(14) n
C6 C11 C12 C5 . . -0.39(17) n
F1 C15 C16 F2 . . 0.2(2) n
C17 C15 C16 F2 2_765 . 179.72(12) n
F1 C15 C16 C17 . . -179.32(12) n
C17 C15 C16 C17 2_765 . 0.2(2) n
F2 C16 C17 C18 . . 0.1(2) n
C15 C16 C17 C18 . . 179.65(13) n
F2 C16 C17 C15 . 2_765 -179.71(11) n
C15 C16 C17 C15 . 2_765 -0.2(2) n
C16 C17 C18 C20 . . 0.2(2) n
C15 C17 C18 C20 2_765 . -179.97(13) n
C16 C17 C18 C19 . . 179.89(13) n
C15 C17 C18 C19 2_765 . -0.3(2) n

_cod_database_fobs_code 1548727
