#------------------------------------------------------------------------------
#$Date: 2018-01-26 11:05:19 +0200 (Fri, 26 Jan 2018) $
#$Revision: 205733 $
#$URL: file:///home/coder/svn-repositories/cod/cif/1/54/87/1548788.cif $
#------------------------------------------------------------------------------
#
# This file is available in the Crystallography Open Database (COD),
# http://www.crystallography.net/. The original data for this entry
# were provided by IUCr Journals, http://journals.iucr.org/.
#
# The file may be used within the scientific community so long as
# proper attribution is given to the journal article from which the
# data were obtained.
#
data_1548788
loop_
_publ_author_name
'Atalay, \,Sehriman'
'Ayg\"un, Seda Nur'
'Meral, Seher'
'A\(gar, Erbil'
_publ_section_title
;
 (<i>E</i>)-4-Bromo-5-methoxy-2-{[(2-methoxyphenyl)imino]methyl}phenol
 monohydrate
;
_journal_issue                   12
_journal_name_full               IUCrData
_journal_page_first              x171730
_journal_paper_doi               10.1107/S2414314617017308
_journal_volume                  2
_journal_year                    2017
_chemical_formula_iupac          'C15 H14 Br N O3, H2 O'
_chemical_formula_moiety         'C15 H14 Br N O3, H2 O'
_chemical_formula_sum            'C15 H16 Br N O4'
_chemical_formula_weight         354.20
_chemical_name_systematic
;
(<i>E</i>)-4-Bromo-5-methoxy-2-{[(2-methoxyphenyl)imino]methyl}phenol
monohydrate
;
_space_group_crystal_system      triclinic
_space_group_IT_number           2
_space_group_name_Hall           '-P 1'
_space_group_name_H-M_alt        'P -1'
_symmetry_space_group_name_Hall  '-P 1'
_symmetry_space_group_name_H-M   'P -1'
_atom_sites_solution_hydrogens   mixed
_atom_sites_solution_primary     direct
_audit_creation_method           SHELXL-2016/6
_cell_angle_alpha                78.30(3)
_cell_angle_beta                 85.51(3)
_cell_angle_gamma                69.10(3)
_cell_formula_units_Z            2
_cell_length_a                   6.922(3)
_cell_length_b                   8.498(3)
_cell_length_c                   14.064(5)
_cell_measurement_reflns_used    11116
_cell_measurement_temperature    293(2)
_cell_measurement_theta_max      27.60
_cell_measurement_theta_min      1.48
_cell_volume                     756.8(5)
_computing_cell_refinement
;
X-AREA (Stoe & Cie, 2002)
;
_computing_data_collection
;
X-AREA (Stoe & Cie, 2002)
;
_computing_data_reduction
;
X-AREA (Stoe & Cie, 2002)
;
_computing_molecular_graphics
;
Ortep-3 for Windows (Farrugia, 2012)
;
_computing_publication_material
;
WinGX (Farrugia, 2012) and PLATON (Spek, 2009)
;
_computing_structure_refinement
;
SHELXL2016 (Sheldrick, 2015b)
;
_computing_structure_solution
;
SHELXT2016 (Sheldrick, 2015a)
;
_diffrn_ambient_temperature      293(2)
_diffrn_detector_area_resol_mean 6.67
_diffrn_measured_fraction_theta_full 1.000
_diffrn_measured_fraction_theta_max 0.999
_diffrn_measurement_device_type  'Stoe IPDS 2'
_diffrn_measurement_method       'rotation method'
_diffrn_radiation_type           MoK\a
_diffrn_radiation_wavelength     0.71073
_diffrn_reflns_av_R_equivalents  0.1235
_diffrn_reflns_limit_h_max       8
_diffrn_reflns_limit_h_min       -8
_diffrn_reflns_limit_k_max       10
_diffrn_reflns_limit_k_min       -10
_diffrn_reflns_limit_l_max       17
_diffrn_reflns_limit_l_min       -17
_diffrn_reflns_number            11464
_diffrn_reflns_theta_full        25.242
_diffrn_reflns_theta_max         26.500
_diffrn_reflns_theta_min         1.479
_exptl_absorpt_coefficient_mu    2.730
_exptl_absorpt_correction_T_max  0.7547
_exptl_absorpt_correction_T_min  0.1153
_exptl_absorpt_correction_type   integration
_exptl_absorpt_process_details
;
(X-RED32; Stoe & Cie, 2002)
;
_exptl_crystal_colour            yellow
_exptl_crystal_density_diffrn    1.554
_exptl_crystal_description       prism
_exptl_crystal_F_000             360
_exptl_crystal_size_max          0.790
_exptl_crystal_size_mid          0.393
_exptl_crystal_size_min          0.070
_refine_diff_density_max         0.729
_refine_diff_density_min         -0.534
_refine_ls_extinction_method     none
_refine_ls_goodness_of_fit_ref   0.977
_refine_ls_hydrogen_treatment    constr
_refine_ls_matrix_type           full
_refine_ls_number_parameters     206
_refine_ls_number_reflns         3139
_refine_ls_number_restraints     0
_refine_ls_restrained_S_all      0.977
_refine_ls_R_factor_all          0.0795
_refine_ls_R_factor_gt           0.0512
_refine_ls_shift/su_max          0.000
_refine_ls_shift/su_mean         0.000
_refine_ls_structure_factor_coef Fsqd
_refine_ls_weighting_details
'w=1/[\s^2^(Fo^2^)+(0.0662P)^2^] where P=(Fo^2^+2Fc^2^)/3'
_refine_ls_weighting_scheme      calc
_refine_ls_wR_factor_gt          0.1185
_refine_ls_wR_factor_ref         0.1307
_reflns_number_gt                2179
_reflns_number_total             3139
_reflns_threshold_expression     'I > 2\s(I)'
_cod_data_source_file            hb4187sup1.cif
_cod_data_source_block           I
_cod_original_cell_volume        756.8(6)
_cod_database_code               1548788
_shelx_space_group_comment
;
The symmetry employed for this shelxl refinement is uniquely defined
by the following loop, which should always be used as a source of
symmetry information in preference to the above space-group names.
They are only intended as comments.
;
_shelx_hkl_file
;
   1   0   0  204.10   11.77   0
   1   0   0  215.92    9.88   0
  -1   0   0  194.30   11.71   0
  -1   0   0  212.48   11.65   0
   2   0   0 5966.05   28.42   0
   2   0   0 6060.34   28.86   0
  -2   0   0 5438.00   27.02   0
  -2   0   0 6568.28   29.32   0
  -3   0   0  375.44    8.77   0
  -3   0   0  304.47    6.90   0
   3   0   0  351.13    8.42   0
   3   0   0  342.25    8.69   0
  -4   0   0   75.70    6.60   0
   4   0   0   72.78    6.45   0
   4   0   0   64.67    5.06   0
   5   0   0   20.70    7.59   0
   5   0   0   35.11    6.21   0
   5   0   0   25.92    4.79   0
  -5   0   0   30.19    4.73   0
   6   0   0   45.95    7.29   0
   6   0   0   37.98    6.75   0
  -6   0   0   32.52    5.23   0
   6   0   0   43.27    8.24   0
  -7   0   0    8.95    7.79   0
   7   0   0    4.04    4.91   0
   7   0   0   -5.17    6.11   0
   7   0   0   -3.02    7.69   0
   8   0   0    5.04    7.84   0
  -8   0   0    4.74    8.32   0
   8   0   0   -4.90    6.00   0
   8   0   0   -1.64    6.80   0
  -7   1   0    9.26    5.49   0
   7  -1   0   -2.96    8.81   0
   7  -1   0    0.61    6.99   0
   7  -1   0    8.15    8.07   0
   6  -1   0   -0.92    4.58   0
   6  -1   0    4.85    7.17   0
  -6   1   0   -5.03    4.75   0
  -5   1   0   26.76    6.56   0
  -5   1   0   24.98    6.51   0
   5  -1   0   23.20    7.03   0
   5  -1   0   18.74    6.09   0
   4  -1   0  145.83    7.66   0
   4  -1   0  126.01    6.88   0
  -4   1   0  119.33    7.18   0
  -4   1   0  128.60    5.52   0
  -3   1   0  166.33    5.67   0
  -3   1   0  134.94    5.53   0
   3  -1   0  155.54    6.89   0
   3  -1   0  156.77    7.63   0
   2  -1   0 1937.89   15.71   0
  -2   1   0 2064.83   16.75   0
   2  -1   0 1961.50   16.19   0
  -2   1   0 1914.36   15.64   0
  -1   1   0  226.37   10.21   0
   1  -1   0  214.60    9.94   0
  -1   1   0  210.47   10.51   0
   1  -1   0  210.21   11.06   0
   0   1   0  895.68   20.56   0
   0  -1   0  667.23   18.50   0
   0  -1   0 1941.14   29.20   0
   0   1   0 1936.12   29.77   0
   1   1   0 1736.35   23.94   0
  -1  -1   0 1694.92   25.01   0
  -1  -1   0 1669.15   22.85   0
   1   1   0 1623.95   24.64   0
  -2  -1   0 9284.70   39.29   0
   2   1   0 9996.20   41.64   0
   2   1   0 9385.37   39.02   0
  -2  -1   0 9999.99   40.78   0
  -3  -1   0  154.95    6.41   0
   3   1   0  149.40    8.05   0
   3   1   0  169.00    6.90   0
   3   1   0  129.00    5.76   0
   4   1   0  614.71    9.57   0
   4   1   0  688.34    9.90   0
  -4  -1   0  738.84    9.97   0
   4   1   0  778.01   11.40   0
   5   1   0   21.53    6.61   0
   5   1   0   17.41    6.52   0
  -5  -1   0   16.92    6.95   0
   5   1   0   19.79    5.47   0
   6   1   0    6.31    6.87   0
  -6  -1   0    5.83    4.79   0
   6   1   0   16.00    5.57   0
   6   1   0   -5.88    5.02   0
   7   1   0   16.52    8.39   0
   7   1   0   13.30    7.71   0
  -7  -1   0   13.90    5.55   0
   7   1   0   28.60    5.16   0
   8   1   0    8.88    7.99   0
   8   1   0    1.86    5.62   0
   8   1   0   16.57    9.08   0
  -8  -1   0    5.68    8.17   0
  -7   2   0    1.45    5.58   0
   7  -2   0   -6.66    6.11   0
   7  -2   0   -2.00    5.30   0
   6  -2   0   -2.11    4.96   0
   6  -2   0   -1.06    5.61   0
  -6   2   0   -0.56    7.34   0
  -6   2   0    6.72    7.42   0
   5  -2   0   34.03    5.26   0
  -5   2   0   44.17    5.03   0
  -5   2   0   40.09    5.25   0
   5  -2   0   43.99    7.52   0
   4  -2   0  148.13    7.82   0
  -4   2   0  127.11    7.25   0
   4  -2   0  135.15    5.26   0
  -4   2   0  143.52    5.70   0
  -3   2   0    7.80    6.39   0
   3  -2   0    9.93    7.01   0
   3  -2   0    5.54    6.24   0
  -3   2   0    7.78    6.52   0
  -2   2   0  425.94    9.68   0
   2  -2   0  428.29    7.98   0
   2  -2   0  445.01    9.85   0
  -2   2   0  422.49    9.19   0
  -1   2   0 1316.49   14.75   0
   1  -2   0 1246.91   14.19   0
  -1   2   0 1199.46   14.31   0
   1  -2   0 1095.16   13.17   0
   0  -2   0    4.82    7.30   0
   0  -2   0    6.63    7.91   0
   0   2   0    8.05   10.76   0
   1   2   0  277.96   13.33   0
  -1  -2   0  424.27   13.46   0
   1   2   0  377.58   10.77   0
  -1  -2   0  412.07   10.72   0
   2   2   0  452.94   11.26   0
   2   2   0  490.25   10.07   0
  -2  -2   0  439.52   10.95   0
  -2  -2   0  473.11    9.96   0
   3   2   0  114.92    6.45   0
   3   2   0  110.13    7.36   0
  -3  -2   0  118.95    8.30   0
  -3  -2   0  107.84    5.87   0
   4   2   0   93.17    6.97   0
   4   2   0   98.40    7.98   0
  -4  -2   0   98.12    7.29   0
  -5  -2   0   75.10    5.24   0
   5   2   0   75.35    5.05   0
   5   2   0   82.79    5.83   0
   5   2   0   71.14    6.92   0
   6   2   0   -0.78    6.72   0
   6   2   0    9.00    4.94   0
  -6  -2   0   12.44    7.01   0
   6   2   0    6.95    5.61   0
   7   2   0    3.76    8.28   0
  -7  -2   0    5.70    6.93   0
   7   2   0    7.54    6.61   0
   7   2   0    4.76    5.21   0
   8   2   0   -1.29    5.76   0
   8   2   0   11.54    5.46   0
   8   2   0   -1.36    6.44   0
  -8  -2   0    4.84    7.82   0
  -7   3   0    7.12    6.01   0
   7  -3   0    5.18    8.28   0
  -7   3   0   20.14    8.64   0
   7  -3   0   17.71    9.49   0
   6  -3   0   20.26    8.45   0
   6  -3   0   22.52    7.40   0
  -6   3   0   39.25    7.62   0
  -6   3   0   15.24    7.74   0
   5  -3   0    2.38    7.16   0
  -5   3   0    6.59    5.22   0
  -5   3   0    7.62    7.35   0
   5  -3   0   12.98    8.03   0
  -4   3   0  126.91    7.51   0
  -4   3   0  131.00    6.00   0
   4  -3   0  115.95    7.17   0
   4  -3   0  127.74    5.94   0
   3  -3   0  162.20    6.50   0
   3  -3   0  167.11    7.55   0
  -3   3   0  190.03    7.99   0
  -3   3   0  144.43    5.93   0
   2  -3   0   18.39    6.55   0
  -2   3   0   23.10    6.70   0
  -2   3   0   15.40    4.92   0
   2  -3   0   19.05    7.54   0
  -1   3   0  774.28   11.60   0
   1  -3   0  792.86   10.93   0
   1  -3   0  611.21   11.19   0
   0  -3   0  122.50    8.10   0
   0   3   0   74.70    6.75   0
   0  -3   0  111.69    7.52   0
   0  -3   0   39.45    6.08   0
   1   3   0    0.29    6.96   0
  -1  -3   0    4.17    8.36   0
   1   3   0    8.39    8.84   0
  -1  -3   0    2.61    8.56   0
  -2  -3   0  394.17   10.66   0
  -2  -3   0  415.01   10.28   0
   2   3   0  389.45    8.58   0
   2   3   0  353.30   10.02   0
   3   3   0   86.03    5.57   0
   3   3   0  105.85    6.43   0
  -3  -3   0   85.28    6.98   0
  -3  -3   0   86.34    8.00   0
  -4  -3   0   23.59    4.94   0
  -4  -3   0   23.45    5.32   0
   4   3   0   23.98    6.74   0
   4   3   0   27.41    6.94   0
  -5  -3   0   37.28    4.95   0
   5   3   0   32.08    5.54   0
   5   3   0   41.53    6.46   0
  -6  -3   0   34.76    4.86   0
   6   3   0   34.65    6.69   0
   6   3   0   39.32    8.05   0
   6   3   0   34.08    6.82   0
   7   3   0    5.32    6.89   0
   7   3   0    2.89    5.06   0
  -7  -3   0    4.92    7.01   0
   7   3   0   -1.78    7.79   0
   8   3   0    7.57    7.50   0
  -8  -3   0   20.77    7.79   0
   8   3   0   11.67    8.95   0
   8   3   0   13.55    5.69   0
  -6   4   0    5.31    8.16   0
   6  -4   0   -0.23    8.83   0
   6  -4   0    0.63    7.84   0
   5  -4   0   61.92    7.67   0
  -5   4   0   54.13    5.82   0
  -5   4   0   55.22    5.76   0
   5  -4   0   52.18    8.73   0
  -4   4   0   14.09    7.39   0
  -4   4   0   14.69    7.57   0
   4  -4   0    5.39    5.15   0
   4  -4   0   13.66    8.33   0
  -3   4   0  459.95    8.94   0
   3  -4   0  407.21    9.65   0
   3  -4   0  401.57    8.70   0
   2  -4   0    0.31    5.70   0
  -2   4   0    1.24    7.03   0
   2  -4   0    7.96    6.40   0
   1  -4   0   57.42    6.80   0
  -1   4   0   58.23    5.61   0
   1  -4   0   60.92    6.18   0
   1  -4   0   35.34    5.67   0
   0  -4   0  210.56    8.07   0
   0   4   0  133.73    6.50   0
   0  -4   0  200.14    7.35   0
   0  -4   0   71.96    8.32   0
   1   4   0  142.18    8.92   0
  -1  -4   0  220.46    9.31   0
   1   4   0  449.47   10.22   0
  -1  -4   0  294.13    7.63   0
   2   4   0   48.67    8.43   0
   2   4   0   36.74    6.46   0
  -2  -4   0   60.22    6.71   0
  -2  -4   0   57.81    8.08   0
   3   4   0  338.76    8.74   0
  -3  -4   0  378.34    9.32   0
  -3  -4   0  330.98    8.77   0
   3   4   0  343.76    7.59   0
   4   4   0  151.25    8.21   0
  -4  -4   0  124.49    7.03   0
  -4  -4   0  142.83    8.20   0
   4   4   0  135.61    7.18   0
  -5  -4   0   41.45    7.76   0
  -5  -4   0   36.91    4.80   0
   5   4   0   38.55    4.77   0
   5   4   0   52.10    7.78   0
   6   4   0   30.06    5.82   0
   6   4   0   26.84    6.87   0
  -6  -4   0   30.22    7.02   0
  -7  -4   0    0.46    7.31   0
   7   4   0    7.38    7.15   0
   7   4   0   -5.77    7.27   0
   7   4   0   10.29    5.80   0
   8   4   0   -4.50    8.72   0
  -8  -4   0   -1.85    7.92   0
   8   4   0    0.95    5.33   0
   8   4   0   -1.21    5.27   0
  -5   5   0   18.28    8.08   0
   5  -5   0   24.28    6.98   0
   5  -5   0   18.93    7.82   0
   5  -5   0   23.56    9.03   0
   4  -5   0    2.46    6.68   0
  -4   5   0   10.82    5.24   0
   4  -5   0   13.37    5.92   0
   4  -5   0    5.35    6.75   0
   3  -5   0   12.70    6.44   0
  -3   5   0    6.93    7.45   0
   3  -5   0    5.44    6.02   0
   3  -5   0   10.01    6.79   0
   2  -5   0   65.93    8.34   0
   2  -5   0   93.52    7.04   0
  -2   5   0  108.31    7.43   0
   2  -5   0  103.54    6.48   0
   1  -5   0  157.27    5.34   0
   1  -5   0  136.39    7.41   0
   1  -5   0   78.31    8.42   0
  -1   5   0  133.36    6.24   0
   0  -5   0  419.30    9.69   0
   0  -5   0  177.45    8.53   0
   0  -5   0  410.08    8.83   0
   0   5   0  318.20    9.15   0
   1   5   0  226.03    8.15   0
   1   5   0  100.66    8.31   0
  -1  -5   0  131.97    8.25   0
  -1  -5   0  138.40    7.31   0
   2   5   0   29.74    7.77   0
  -2  -5   0   45.23    7.63   0
   2   5   0   53.17    6.68   0
  -2  -5   0   54.49    7.03   0
  -3  -5   0   32.59    6.77   0
  -3  -5   0   35.95    5.45   0
   3   5   0   29.76    5.60   0
   3   5   0   22.34    6.45   0
  -4  -5   0  225.60    8.76   0
   4   5   0  228.10    8.61   0
   4   5   0  194.90    8.24   0
  -4  -5   0  204.00    8.09   0
  -5  -5   0   28.26    5.57   0
  -5  -5   0   18.28    6.46   0
   5   5   0   19.35    7.52   0
   5   5   0   20.83    6.57   0
  -6  -5   0    2.71    6.99   0
   6   5   0    6.18    6.69   0
  -6  -5   0   19.78    5.81   0
   6   5   0   13.55    7.82   0
   7   5   0   -0.53    7.25   0
  -7  -5   0   11.23    7.07   0
   7   5   0   10.32    5.88   0
  -8  -5   0    5.10    8.14   0
   8   5   0   -2.99    5.57   0
   8   5   0   -0.45    5.40   0
   8   5   0    2.04    6.09   0
   5  -6   0   -0.51    8.25   0
   5  -6   0    8.04    7.52   0
  -5   6   0   -3.81    6.26   0
   5  -6   0   12.10    6.62   0
  -4   6   0   42.00    6.02   0
   4  -6   0   47.05    7.28   0
   4  -6   0   40.62    7.81   0
   4  -6   0   32.93    6.45   0
   3  -6   0    7.30    5.78   0
  -3   6   0   12.06    7.63   0
   3  -6   0    9.39    6.51   0
   3  -6   0   15.19    7.08   0
   2  -6   0  299.64    8.14   0
  -2   6   0  290.71    8.81   0
   2  -6   0  284.20    8.80   0
   2  -6   0  163.12    6.78   0
   1  -6   0   98.71    8.33   0
   1  -6   0  249.76    8.30   0
   1  -6   0  245.45    6.27   0
  -1   6   0  234.79    8.34   0
   0  -6   0   -0.82    7.03   0
   0   6   0   -0.52    7.99   0
   0  -6   0    3.08    6.38   0
   0  -6   0   -8.28    8.25   0
  -1  -6   0  195.81    8.77   0
   1   6   0  161.08    6.52   0
  -1  -6   0  172.69    7.37   0
  -1  -6   0  322.38    9.58   0
   2   6   0  441.76   10.71   0
  -2  -6   0  433.41   10.30   0
   2   6   0  178.66    8.80   0
  -2  -6   0  422.82    9.80   0
   3   6   0    2.21    5.43   0
   3   6   0    3.36    6.39   0
  -3  -6   0    0.45    6.10   0
  -3  -6   0   -2.23    5.06   0
   4   6   0   60.19    7.93   0
   4   6   0   80.50    8.08   0
  -4  -6   0   93.79    6.06   0
  -4  -6   0   72.92    7.38   0
  -5  -6   0    9.76    5.75   0
   5   6   0   15.75    6.46   0
   5   6   0   31.22    8.00   0
  -5  -6   0   18.49    7.27   0
   6   6   0   -2.02    5.82   0
  -6  -6   0    8.01    8.23   0
   6   6   0   -1.26    6.87   0
  -6  -6   0   -2.16    4.96   0
  -7  -6   0   -7.69    8.40   0
  -7  -6   0    6.67    7.38   0
   7   6   0    7.30    7.04   0
   7   6   0   -2.01    8.07   0
   8   6   0    3.26    8.84   0
   8   6   0    5.46    8.07   0
  -8  -6   0   -0.80    7.95   0
   8   6   0   -2.12    7.90   0
   4  -7   0    8.64    7.73   0
  -4   7   0   28.29    8.27   0
   4  -7   0   21.96    8.33   0
   4  -7   0   21.84    9.11   0
   3  -7   0    7.69    8.57   0
   3  -7   0   22.70    5.55   0
   3  -7   0   26.55    7.21   0
  -3   7   0   35.84    8.03   0
   2  -7   0    8.18    6.74   0
   2  -7   0    1.69    7.20   0
  -2   7   0   -0.49    5.61   0
   2  -7   0   15.89    8.31   0
  -1   7   0   58.62    8.01   0
   1  -7   0   49.64    7.02   0
   1  -7   0   45.64    7.47   0
   1  -7   0   16.29    8.08   0
   0  -7   0  446.95    9.75   0
   0  -7   0  261.26    9.18   0
   0   7   0  389.96    9.42   0
   0  -7   0  418.69    9.31   0
  -1  -7   0   77.38    8.48   0
  -1  -7   0   52.66    6.99   0
   1   7   0   71.96    6.12   0
  -1  -7   0  109.47    8.07   0
   2   7   0  283.30    9.99   0
  -2  -7   0  248.41    6.88   0
  -2  -7   0  256.68    8.95   0
   2   7   0  131.86    6.27   0
   3   7   0  267.43    9.96   0
   3   7   0  123.56    6.16   0
  -3  -7   0  271.35    9.29   0
  -3  -7   0  279.97    9.01   0
   4   7   0    4.50    8.38   0
   4   7   0    1.50    6.02   0
  -4  -7   0    6.11    8.07   0
  -4  -7   0   -0.56    6.76   0
   5   7   0   12.28    5.90   0
   5   7   0   13.40    6.72   0
  -5  -7   0   17.65    5.67   0
  -5  -7   0    2.44    8.98   0
   6   7   0   -6.88    5.87   0
  -6  -7   0    3.03    6.02   0
  -6  -7   0   -1.87    7.21   0
   6   7   0    0.79    7.05   0
   7   7   0    2.24    7.61   0
   7   7   0   -6.55    8.78   0
  -7  -7   0    1.73    7.63   0
  -7  -7   0   -6.10    8.90   0
  -8  -7   0    0.08    8.11   0
   8   7   0   -8.86    7.81   0
   8   7   0    7.89    9.67   0
  -3   8   0   32.15    6.65   0
   3  -8   0   33.79    8.67   0
   3  -8   0   41.54    7.74   0
   3  -8   0    6.34    7.09   0
  -2   8   0   85.15    8.74   0
   2  -8   0   41.43    8.86   0
   2  -8   0   77.97    7.74   0
   2  -8   0   75.61    8.14   0
   1  -8   0   13.22    6.78   0
  -1   8   0    3.89    8.15   0
   1  -8   0    6.98    5.97   0
   1  -8   0    3.56    7.78   0
   0   8   0  110.87    8.48   0
   0  -8   0   63.96    6.15   0
   0  -8   0  113.44    7.71   0
   0  -8   0  113.96    8.32   0
  -1  -8   0   26.34    7.42   0
  -1  -8   0   12.91    6.69   0
  -1  -8   0   18.54    8.33   0
   1   8   0   19.42    6.07   0
   2   8   0    2.28    8.31   0
  -2  -8   0    1.33    8.49   0
  -2  -8   0    5.96    8.94   0
  -2  -8   0   -6.38    5.86   0
  -3  -8   0   12.43    8.20   0
   3   8   0    5.34    5.79   0
  -3  -8   0    2.64    6.77   0
   3   8   0   -2.03    6.21   0
   4   8   0   20.16    6.93   0
   4   8   0   -1.31    8.06   0
  -4  -8   0   18.43    9.07   0
  -4  -8   0   24.70    8.13   0
  -5  -8   0   12.80    5.95   0
  -5  -8   0    3.83    7.26   0
   5   8   0    4.97    8.76   0
   5   8   0   10.39    8.36   0
   6   8   0    3.47    6.12   0
   6   8   0    0.33    7.16   0
  -6  -8   0    8.00    7.86   0
  -6  -8   0    0.66    8.73   0
  -7  -8   0    5.56    6.43   0
   7   8   0    1.83    6.11   0
  -7  -8   0    1.77    8.26   0
   7   8   0    2.14    7.56   0
  -1   9   0   53.89    6.24   0
   1  -9   0   33.70    9.00   0
   1  -9   0   59.71    8.05   0
   1  -9   0   49.77    8.57   0
   0  -9   0   -4.93    7.35   0
   0  -9   0   -3.74    7.99   0
   0  -9   0    7.96    6.20   0
   0   9   0   19.71    8.45   0
  -1  -9   0  102.55   10.20   0
  -1  -9   0   80.98    9.08   0
   1   9   0   94.62    8.72   0
  -1  -9   0   63.41    9.06   0
  -2  -9   0   20.45    8.64   0
   2   9   0   30.79    8.47   0
  -2  -9   0    9.98    8.00   0
  -2  -9   0   15.46    7.55   0
  -3  -9   0   22.17    9.21   0
   3   9   0   10.64    6.08   0
  -3  -9   0   32.85    6.13   0
  -4  -9   0   14.24    9.22   0
  -4  -9   0   12.49    9.08   0
   4   9   0    6.14    8.36   0
   4   9   0   10.29    5.94   0
  -5  -9   0    4.13    9.45   0
  -5  -9   0   -3.68    9.00   0
   5   9   0    1.90    7.26   0
   5   9   0   11.18    8.64   0
  -6  -9   0    4.06    6.39   0
   6   9   0    0.58    7.63   0
  -6  -9   0    1.43    9.86   0
   6   9   0   -5.73    9.14   0
   7   9   0   -7.12    8.14   0
   7   9   0   11.18    9.39   0
  -1 -10   0   12.17    6.82   0
  -1 -10   0   -1.36    9.58   0
  -1 -10   0    0.79    8.26   0
   1  10   0    2.77    6.11   0
   2  10   0    3.08    9.24   0
  -2 -10   0    0.24    9.67   0
  -2 -10   0    6.05    9.45   0
  -2 -10   0    1.83   10.13   0
  -3 -10   0   21.70   10.53   0
   3  10   0   20.30    9.01   0
  -3 -10   0   31.62    9.24   0
  -3 -10   0   20.57   10.06   0
   4  10   0   10.39    8.88   0
  -4 -10   0    2.94    9.94   0
  -4 -10   0    6.80    9.47   0
   5  10   0    8.71    8.92   0
  -5 -10   0    6.12   10.50   0
  -5 -10   0   12.91    9.67   0
   5  10   0    7.55    9.66   0
  -5 -10   1   -2.65    6.92   0
   5  10  -1    3.57    7.92   0
  -5 -10   1    5.84    8.65   0
   5  10  -1   -1.01    6.68   0
   4  10  -1   -4.72    6.52   0
  -4 -10   1    4.50    9.93   0
  -4 -10   1    1.49    6.72   0
   4  10  -1   -3.76    7.78   0
  -3 -10   1    2.97    9.78   0
   3  10  -1    2.63    8.90   0
  -3 -10   1    3.16    6.41   0
  -3 -10   1    4.61    8.58   0
  -2 -10   1    9.91   10.48   0
  -2 -10   1    9.51    9.57   0
   2  10  -1   15.17    6.62   0
  -2 -10   1   12.90    8.93   0
  -1 -10   1    4.41    8.48   0
   1  10  -1    9.31    6.42   0
  -1 -10   1   12.14    6.73   0
  -1 -10   1    9.85    9.75   0
  -6  -9   1   18.79    9.30   0
   6   9  -1   18.81    7.94   0
  -6  -9   1   22.85    8.38   0
   6   9  -1   24.29    6.50   0
   5   9  -1    8.97    6.15   0
   5   9  -1    5.52    8.95   0
  -5  -9   1   10.34    9.87   0
  -5  -9   1    9.20    6.49   0
   4   9  -1    1.25    8.61   0
  -4  -9   1    2.27    8.54   0
   4   9  -1   10.49    8.43   0
  -4  -9   1    2.00    7.50   0
   3   9  -1   11.13    8.41   0
  -3  -9   1    0.95    5.66   0
  -3  -9   1    3.30    7.46   0
  -2  -9   1   50.82    8.76   0
  -2  -9   1   67.05    9.46   0
   2   9  -1   49.20    6.36   0
  -2  -9   1   77.90    8.46   0
  -1  -9   1    3.94    7.58   0
  -1  -9   1    2.53    7.62   0
   1   9  -1   -3.80    8.41   0
  -1  -9   1   -2.32    8.55   0
   0   9  -1   -9.30    8.88   0
   0  -9   1    4.02    7.47   0
   0  -9   1    4.41    8.00   0
   0  -9   1   10.71    8.93   0
  -1   9  -1    6.45    6.05   0
   1  -9   1    5.25    7.76   0
   1  -9   1    9.10    8.05   0
   1  -9   1   -2.73    9.08   0
  -7  -8   1    9.29    8.19   0
  -7  -8   1   26.84    9.28   0
   7   8  -1    8.18    7.59   0
   7   8  -1    5.33    6.36   0
   6   8  -1   29.95    6.30   0
  -6  -8   1   28.99    8.14   0
   6   8  -1   15.70    7.32   0
  -6  -8   1   24.56    6.38   0
  -5  -8   1   54.09    9.37   0
   5   8  -1   58.65    7.46   0
   5   8  -1   62.08    8.65   0
  -5  -8   1   71.55    8.84   0
   4   8  -1  115.31    8.64   0
  -4  -8   1  185.73    8.92   0
  -4  -8   1  193.85    8.74   0
   4   8  -1  184.51    9.75   0
   3   8  -1    6.17    6.64   0
  -3  -8   1    5.82    6.99   0
  -3  -8   1    1.61    5.53   0
   3   8  -1   11.24    7.72   0
  -2  -8   1   59.62    5.96   0
  -2  -8   1   75.13    7.52   0
   2   8  -1   54.09    8.23   0
  -1  -8   1   87.68    7.27   0
  -1  -8   1  150.52    8.56   0
  -1  -8   1   92.07    8.53   0
   1   8  -1   98.87    6.19   0
   0   8  -1   36.08    8.34   0
   0  -8   1   22.26    8.78   0
   0  -8   1   38.13    7.06   0
   0  -8   1   34.13    7.56   0
  -1   8  -1   46.39    8.51   0
   1  -8   1   55.80    7.80   0
   1  -8   1   43.93    6.39   0
   1  -8   1   66.85    7.87   0
   2  -8   1   18.09    6.31   0
   2  -8   1   21.31    8.14   0
  -2   8  -1   17.95    6.24   0
   2  -8   1   23.06    7.44   0
  -3   8  -1    8.91    8.65   0
  -8  -7   1    1.45    8.27   0
  -8  -7   1    1.72    6.94   0
   8   7  -1    6.97    9.31   0
   8   7  -1    4.89    7.94   0
   7   7  -1   -2.17    8.58   0
   7   7  -1    6.40    7.26   0
  -7  -7   1   -3.21    6.34   0
  -7  -7   1    2.47    7.76   0
  -6  -7   1   17.89    8.40   0
   6   7  -1   11.35    5.85   0
  -6  -7   1    3.13    7.27   0
   6   7  -1    4.94    6.90   0
   5   7  -1   46.84    5.82   0
   5   7  -1   25.73    6.69   0
  -5  -7   1   48.13    7.35   0
  -5  -7   1   46.35    8.09   0
  -4  -7   1   12.69    7.95   0
  -4  -7   1   14.44    6.86   0
   4   7  -1   15.42    6.54   0
   4   7  -1    1.64    7.98   0
   3   7  -1  120.44    8.64   0
  -3  -7   1  224.91    6.95   0
   3   7  -1  265.60    8.65   0
  -3  -7   1  241.48    8.53   0
  -2  -7   1   33.38    7.03   0
   2   7  -1   42.51    6.94   0
   2   7  -1   27.39    5.76   0
  -2  -7   1   23.50    5.75   0
  -1  -7   1   34.74    6.92   0
   1   7  -1   16.23    8.11   0
  -1  -7   1   15.84    8.18   0
  -1  -7   1   16.15    6.67   0
   0  -7   1  100.65    8.57   0
   0  -7   1  154.81    6.69   0
   0  -7   1  149.51    7.57   0
   0   7  -1  121.31    8.48   0
   1  -7   1   93.06    7.41   0
   1  -7   1   61.01    8.23   0
  -1   7  -1   95.50    6.05   0
   1  -7   1  113.13    7.15   0
   2  -7   1    5.03    5.94   0
   2  -7   1   28.51    7.08   0
  -2   7  -1   32.21    7.87   0
   2  -7   1   17.03    5.45   0
  -3   7  -1   98.27    6.19   0
   3  -7   1   94.68    8.36   0
   3  -7   1  108.71    5.84   0
   3  -7   1   54.41    6.41   0
   4  -7   1   -1.33    5.97   0
  -4   7  -1   -0.74    6.35   0
   4  -7   1    2.74    9.70   0
   4  -7   1    8.87    7.81   0
   8   6  -1    4.56    5.58   0
   8   6  -1   -0.28    8.85   0
   8   6  -1   -2.47    5.39   0
  -8  -6   1   13.37    8.23   0
   7   6  -1    3.94    5.73   0
  -7  -6   1    4.35    6.28   0
  -7  -6   1   -0.36    7.54   0
   7   6  -1    7.23    7.56   0
  -6  -6   1   16.37    7.04   0
   6   6  -1   19.14    7.91   0
   6   6  -1   22.90    6.69   0
  -6  -6   1   27.75    8.10   0
   5   6  -1   23.35    7.99   0
  -5  -6   1   23.31    5.36   0
  -5  -6   1   26.18    6.58   0
   5   6  -1   30.54    6.78   0
   4   6  -1   -3.47    7.72   0
   4   6  -1    2.16    6.40   0
  -4  -6   1   -0.84    5.09   0
  -4  -6   1    3.50    6.52   0
   3   6  -1   14.67    6.48   0
   3   6  -1    8.23    5.43   0
  -3  -6   1    7.12    6.48   0
  -3  -6   1   18.60    7.31   0
   2   6  -1   76.64    8.26   0
  -2  -6   1  161.28    7.81   0
  -2  -6   1  132.24    8.01   0
   2   6  -1  198.04    7.50   0
   1   6  -1   10.13    7.98   0
   1   6  -1    6.27    6.21   0
  -1  -6   1   -4.83    7.75   0
  -1  -6   1    2.73    6.36   0
   0   6  -1  161.85    8.13   0
   0  -6   1  239.31    8.36   0
   0  -6   1  129.62    8.82   0
   0  -6   1  218.60    7.60   0
   1  -6   1   21.72    4.57   0
  -1   6  -1   22.34    5.43   0
   1  -6   1   15.57    5.73   0
   1  -6   1   17.14    6.84   0
   2  -6   1   -7.80    8.00   0
   2  -6   1   -1.84    5.07   0
  -2   6  -1   -1.99    5.23   0
   2  -6   1    3.33    6.60   0
   3  -6   1   -0.64    8.33   0
   3  -6   1    4.71    7.29   0
   3  -6   1   11.53    6.64   0
  -3   6  -1   10.72    5.61   0
   4  -6   1   22.51    7.94   0
  -4   6  -1   35.16    8.14   0
   4  -6   1   28.20    5.28   0
   4  -6   1   18.95    8.97   0
  -5   6  -1    3.72    8.87   0
  -8  -5   1    0.69    8.06   0
   8   5  -1    0.65    7.36   0
   8   5  -1    2.93    6.47   0
   8   5  -1   -9.59    7.78   0
  -7  -5   1    4.49    7.51   0
   7   5  -1    4.84    5.24   0
   7   5  -1   10.58    5.97   0
  -6  -5   1    4.25    4.70   0
   6   5  -1    5.89    5.57   0
  -6  -5   1    1.96    5.72   0
   6   5  -1    2.77    5.01   0
   5   5  -1   22.97    5.45   0
   5   5  -1   24.32    6.49   0
  -5  -5   1   19.40    6.59   0
  -5  -5   1   25.84    5.36   0
   4   5  -1   66.07    8.02   0
  -4  -5   1   59.37    6.89   0
  -4  -5   1   56.72    7.74   0
   4   5  -1   50.66    6.94   0
   3   5  -1   -1.60    6.25   0
  -3  -5   1    1.16    6.27   0
   3   5  -1   -6.27    7.98   0
  -3  -5   1    2.47    5.15   0
   2   5  -1  205.31    7.83   0
   2   5  -1  120.04    8.21   0
  -2  -5   1  200.34    7.96   0
  -2  -5   1  169.70    8.19   0
   1   5  -1   96.08    6.04   0
   1   5  -1  215.22    7.63   0
  -1  -5   1   92.81    7.78   0
  -1  -5   1  124.81    6.99   0
   0  -5   1   20.47    7.97   0
   0   5  -1   15.14    7.55   0
   0  -5   1   23.84    6.07   0
   0  -5   1   22.73    5.04   0
   1  -5   1  699.43   10.13   0
   1  -5   1  329.19    7.61   0
   1  -5   1  728.00    9.51   0
  -1   5  -1  612.75    9.92   0
   2  -5   1  471.07    8.53   0
  -2   5  -1  421.59    7.06   0
   2  -5   1  318.90    7.24   0
   2  -5   1  460.27    9.05   0
   3  -5   1   62.70    8.25   0
   3  -5   1   87.65    7.12   0
  -3   5  -1   77.44    7.81   0
   3  -5   1   87.53    7.00   0
  -4   5  -1  147.08    6.20   0
   4  -5   1  154.41    7.75   0
   4  -5   1  143.05    7.29   0
   4  -5   1  164.30    8.85   0
   5  -5   1    2.67    4.98   0
   5  -5   1    2.34    8.84   0
  -5   5  -1   -0.81    5.70   0
   5  -5   1    6.03    7.47   0
  -8  -4   1   14.08    8.05   0
   8   4  -1   -0.37    5.62   0
   8   4  -1    6.74    6.37   0
   8   4  -1    5.43    7.53   0
   7   4  -1   -5.08    7.15   0
   7   4  -1   11.20    8.35   0
   7   4  -1    3.94    7.45   0
  -7  -4   1    2.61    7.32   0
   6   4  -1    4.21    7.75   0
   6   4  -1   -3.25    6.39   0
  -6  -4   1    3.03    6.64   0
  -5  -4   1   -1.71    7.34   0
   5   4  -1    5.41    6.24   0
  -5  -4   1    4.56    4.44   0
   5   4  -1    3.10    5.28   0
   4   4  -1   38.33    5.81   0
  -4  -4   1   48.37    6.64   0
   4   4  -1   42.40    6.67   0
  -4  -4   1   42.65    7.88   0
  -3  -4   1   35.97    7.10   0
  -3  -4   1   44.26    6.34   0
   3   4  -1   45.29    6.46   0
   3   4  -1   54.06    7.49   0
  -2  -4   1   11.08    6.16   0
   2   4  -1    7.61    5.74   0
   2   4  -1   10.65    7.90   0
  -2  -4   1    9.97    7.22   0
   1   4  -1  505.37    9.70   0
  -1  -4   1  227.83    6.88   0
   1   4  -1  192.88    6.80   0
  -1  -4   1  269.14    8.01   0
   0  -4   1  293.53    7.34   0
   0   4  -1  432.57    9.47   0
   0  -4   1  748.09   10.28   0
   1  -4   1    6.64    6.21   0
   1  -4   1    2.08    7.71   0
  -1   4  -1   -2.02    4.97   0
   1  -4   1    5.04    6.62   0
   2  -4   1  674.70    8.99   0
   2  -4   1  645.71    9.77   0
   2  -4   1  529.70    8.38   0
  -2   4  -1  595.17    9.50   0
   3  -4   1  269.18    7.82   0
   3  -4   1  291.18    5.92   0
  -3   4  -1  278.95    7.98   0
   3  -4   1  259.63    9.03   0
  -4   4  -1    8.87    7.21   0
   4  -4   1    5.59    5.12   0
   4  -4   1    6.55    5.74   0
   5  -4   1   61.73    8.40   0
  -5   4  -1   40.83    5.74   0
   5  -4   1   47.51    5.40   0
   6  -4   1   24.11    8.13   0
  -6   4  -1   27.56    7.82   0
   6  -4   1   25.57    5.20   0
   6  -4   1   25.95    6.03   0
  -8  -3   1   -2.07    5.28   0
   8   3  -1   -1.61    5.15   0
   8   3  -1    7.21    5.84   0
   8   3  -1   -1.23    6.45   0
  -7  -3   1    6.97    7.06   0
   7   3  -1   -1.21    5.12   0
   7   3  -1    1.52    6.69   0
   7   3  -1   -6.70    8.35   0
   6   3  -1    3.08    5.77   0
   6   3  -1    1.45    6.49   0
  -6  -3   1    2.66    6.68   0
   6   3  -1   13.02    6.81   0
  -5  -3   1   -0.42    4.71   0
  -5  -3   1    5.94    5.37   0
   5   3  -1    8.86    7.50   0
   5   3  -1    4.97    6.35   0
   4   3  -1   12.26    7.05   0
  -4  -3   1   10.50    7.23   0
   4   3  -1    4.96    4.47   0
  -4  -3   1   -0.60    6.39   0
  -3  -3   1  324.45    8.58   0
   3   3  -1  366.98    9.48   0
  -3  -3   1  350.40    9.13   0
   3   3  -1  321.83    8.79   0
  -2  -3   1  474.80   10.25   0
   2   3  -1  395.79    8.34   0
   2   3  -1  468.25    8.98   0
  -2  -3   1  464.02    9.00   0
  -1  -3   1  161.45    8.10   0
   1   3  -1  202.73    9.76   0
   1   3  -1  359.36    9.65   0
  -1  -3   1  230.15    7.62   0
   0   3  -1 2405.52   17.82   0
   0  -3   1 2583.58   18.24   0
   0   3  -1 1219.39   12.53   0
   0  -3   1  918.96   12.78   0
   1  -3   1  125.26    6.91   0
  -1   3  -1   97.03    8.00   0
   1  -3   1  120.07    5.99   0
   1  -3   1   94.28    8.65   0
   2  -3   1  112.09    5.90   0
  -2   3  -1  118.54    7.20   0
   2  -3   1  117.16    5.80   0
   3  -3   1  126.65    7.19   0
  -3   3  -1  148.70    5.87   0
  -3   3  -1  112.80    7.30   0
   3  -3   1  128.10    6.16   0
   4  -3   1   93.91    7.99   0
  -4   3  -1   92.27    5.66   0
  -4   3  -1   84.41    7.24   0
   4  -3   1   82.14    5.36   0
  -5   3  -1    5.57    5.03   0
   5  -3   1    2.21    4.82   0
  -5   3  -1   -0.40    4.88   0
   5  -3   1   14.40    7.89   0
  -6   3  -1    8.50    7.94   0
  -6   3  -1   14.08    7.55   0
   6  -3   1   22.94    8.16   0
   6  -3   1    5.82    7.44   0
   7  -3   1   -7.06    9.20   0
  -7   3  -1   -0.06    6.05   0
   7  -3   1    9.20    8.28   0
   8   2  -1    8.93    6.61   0
  -8  -2   1    2.27    5.85   0
   8   2  -1   -1.15    8.12   0
   8   2  -1   -0.82    7.70   0
   7   2  -1    1.01    5.79   0
   7   2  -1    6.76    5.14   0
  -7  -2   1    2.31    7.72   0
   7   2  -1    5.97    5.20   0
   6   2  -1   31.43    4.97   0
   6   2  -1   41.65    8.48   0
  -6  -2   1   39.64    7.35   0
   6   2  -1   34.15    7.06   0
   5   2  -1   68.42    5.73   0
  -5  -2   1   61.77    7.00   0
   5   2  -1   52.90    6.66   0
   5   2  -1   55.29    6.86   0
   4   2  -1   35.08    6.57   0
   4   2  -1   36.24    7.19   0
  -4  -2   1   38.51    6.75   0
  -3  -2   1  285.71    7.67   0
  -3  -2   1  269.37    8.44   0
   3   2  -1  306.72    9.37   0
   3   2  -1  265.55    8.51   0
  -2  -2   1  704.37   12.30   0
   2   2  -1  718.94   11.25   0
  -2  -2   1  672.80   11.57   0
   2   2  -1  691.79   11.72   0
  -1  -2   1  600.77   13.41   0
   1   2  -1  595.97   14.09   0
   1   2  -1  405.14   11.27   0
  -1  -2   1  627.43   12.94   0
   0  -2   1  603.90   14.22   0
   0  -2   1 1607.61   16.96   0
   0   2  -1  642.29   11.94   0
   0   2  -1 1526.43   16.66   0
   1  -2   1 1283.16   14.48   0
  -1   2  -1 1085.65   12.13   0
   1  -2   1 1191.39   12.82   0
   1  -2   1 1074.02   12.46   0
  -2   2  -1  155.84    7.71   0
   2  -2   1  177.74    7.70   0
  -2   2  -1  179.50    7.99   0
   2  -2   1  171.30    8.59   0
   3  -2   1  111.35    5.27   0
   3  -2   1  125.76    5.74   0
  -3   2  -1  131.69    5.59   0
  -3   2  -1  109.80    5.25   0
   4  -2   1   89.21    6.75   0
  -4   2  -1  100.59    7.28   0
  -4   2  -1   76.38    6.83   0
   4  -2   1   84.05    7.47   0
   5  -2   1   15.08    7.42   0
   5  -2   1   17.34    6.83   0
  -5   2  -1    6.52    6.74   0
  -5   2  -1    6.40    5.00   0
   6  -2   1    4.11    7.13   0
  -6   2  -1    3.01    7.02   0
  -6   2  -1   10.71    7.28   0
   6  -2   1   -0.63    5.51   0
   7  -2   1   10.31    6.07   0
  -7   2  -1    7.37    5.78   0
   7  -2   1    7.58    7.29   0
  -8  -1   1    1.17    5.83   0
   8   1  -1   -4.72    9.41   0
   8   1  -1    1.84    8.43   0
   8   1  -1    5.64    5.47   0
  -7  -1   1    3.81    7.28   0
   7   1  -1   -5.44    5.91   0
   7   1  -1   -7.24    7.35   0
   7   1  -1    5.43    7.06   0
   6   1  -1   14.10    8.22   0
   6   1  -1    3.33    4.69   0
  -6  -1   1   12.92    7.03   0
   6   1  -1    2.65    7.20   0
   5   1  -1   41.91    4.83   0
   5   1  -1   35.49    4.86   0
  -5  -1   1   52.41    5.06   0
   5   1  -1   56.28    7.78   0
  -4  -1   1  527.08    7.84   0
   4   1  -1  442.41    7.53   0
   4   1  -1  603.50   10.50   0
   4   1  -1  496.23    7.59   0
   3   1  -1   98.14    6.35   0
  -3  -1   1   84.63    5.40   0
   3   1  -1   79.73    7.00   0
   3   1  -1   80.00    5.59   0
   2   1  -1 3971.81   25.93   0
  -2  -1   1 3510.71   22.63   0
   2   1  -1 3491.52   23.07   0
  -2  -1   1 3762.84   25.18   0
   1   1  -1 1817.22   23.22   0
  -1  -1   1 1679.54   21.38   0
  -1  -1   1 1810.22   21.39   0
   1   1  -1 1714.74   21.12   0
   0  -1   1    1.69    6.61   0
   0  -1   1    9.18   11.36   0
   0   1  -1   -0.86    8.05   0
   0   1  -1    4.08    6.14   0
   1  -1   1  134.05    7.23   0
  -1   1  -1  112.24    7.53   0
   1  -1   1  120.81    8.07   0
  -1   1  -1  136.61    7.35   0
  -2   1  -1  657.85    9.65   0
  -2   1  -1  776.68   11.40   0
   2  -1   1  732.07   11.46   0
   2  -1   1  724.96    9.91   0
  -3   1  -1   54.26    4.75   0
   3  -1   1   35.47    6.22   0
   3  -1   1   47.59    6.81   0
  -3   1  -1   45.89    4.58   0
  -4   1  -1   21.13    4.83   0
   4  -1   1   17.50    5.01   0
  -4   1  -1   16.07    6.38   0
   4  -1   1   23.09    4.66   0
   5  -1   1   59.78    7.17   0
  -5   1  -1   55.83    6.80   0
   5  -1   1   59.15    6.44   0
  -5   1  -1   29.03    6.73   0
   6  -1   1    3.96    6.47   0
  -6   1  -1   -0.88    4.81   0
   6  -1   1   -4.52    5.12   0
   7  -1   1    8.02    7.80   0
   7  -1   1    5.80    7.21   0
  -7   1  -1    0.43    7.48   0
   7  -1   1   12.27    8.86   0
  -8   0   1   -6.31    8.14   0
   8   0  -1   -2.02    7.86   0
   8   0  -1   -3.63    6.29   0
   8   0  -1    0.01    9.82   0
   7   0  -1   46.26    7.26   0
   7   0  -1   38.57    7.86   0
  -7   0   1   38.80    5.64   0
   7   0  -1   32.26    6.49   0
   6   0  -1   14.49    6.65   0
   6   0  -1   18.06    5.92   0
  -6   0   1   24.14    6.96   0
   6   0  -1   20.36    7.17   0
   5   0  -1   29.71    4.49   0
   5   0  -1   22.17    6.92   0
   5   0  -1   33.50    5.57   0
  -5   0   1   28.53    6.51   0
   4   0  -1  274.23    9.08   0
   4   0  -1  273.24    7.56   0
   4   0  -1  231.94    7.83   0
  -4   0   1  275.30    7.55   0
   3   0  -1  480.53    7.86   0
  -3   0   1  508.41    8.08   0
   3   0  -1  484.69    9.34   0
   2   0  -1   45.89    5.86   0
   2   0  -1   56.10    7.31   0
  -2   0   1   53.33    7.56   0
   1   0  -1  858.46   18.42   0
   1   0  -1 1094.24   22.27   0
  -1   0   1 1026.69   17.45   0
   1   0  -1 1027.38   16.45   0
   0   0   1    7.66    7.08   0
   1   0   1   33.22    7.46   0
  -1   0  -1   37.06    7.34   0
   1   0   1   39.67    7.23   0
  -1   0  -1   27.91    7.61   0
  -2   0  -1  492.26    9.44   0
   2   0   1  455.87   10.53   0
   2   0   1  445.19    8.93   0
  -2   0  -1  424.33   10.36   0
   3   0   1  163.23    7.43   0
   3   0   1  162.55    7.55   0
  -3   0  -1  183.24    7.59   0
  -3   0  -1  147.97    7.34   0
   4   0   1   54.03    4.93   0
  -4   0  -1   43.32    6.34   0
   4   0   1   51.59    6.37   0
  -4   0  -1   71.16    4.99   0
   5   0   1   52.00    6.75   0
   5   0   1   58.21    6.85   0
  -5   0  -1   61.74    6.94   0
   6   0   1   -1.71    7.16   0
   6   0   1   16.49    4.61   0
   6   0   1   21.55    8.01   0
  -6   0  -1   18.88    4.95   0
   7   0   1   -6.34    7.31   0
   7   0   1   -1.44    8.44   0
   7   0   1   -2.26    7.53   0
  -7   0  -1    9.75    5.48   0
   8   0   1   -1.32    6.69   0
  -8   0  -1    1.74    5.87   0
   8   0   1    8.23    6.20   0
   8   0   1    1.36    7.83   0
   7  -1  -1   11.85    8.11   0
   7  -1  -1    8.34    5.26   0
  -7   1   1    6.53    7.48   0
   7  -1  -1   14.14    6.33   0
  -6   1   1   55.68    7.06   0
   6  -1  -1   56.44    7.64   0
   6  -1  -1   47.11    4.87   0
   6  -1  -1   50.74    6.12   0
  -5   1   1  297.72    8.02   0
   5  -1  -1  280.20    8.25   0
   5  -1  -1  283.39    7.48   0
  -4   1   1   92.39    5.30   0
   4  -1  -1   84.09    5.51   0
   4  -1  -1   84.58    6.57   0
  -4   1   1   78.48    5.13   0
  -3   1   1 1084.04   10.67   0
   3  -1  -1 1090.79   11.88   0
  -3   1   1  993.28   11.36   0
   3  -1  -1 1075.42   11.38   0
  -2   1   1   41.01    7.32   0
   2  -1  -1   43.08    5.19   0
   2  -1  -1   39.84    7.62   0
  -2   1   1   49.28    7.11   0
  -1   1   1   86.56    8.71   0
   1  -1  -1   84.17    9.60   0
   1  -1  -1   81.38    6.77   0
  -1   1   1   83.59    7.25   0
   0  -1  -1  688.98   20.53   0
   0   1   1 1748.06   29.23   0
   0  -1  -1 2325.76   42.82   0
   0   1   1 2693.84   43.13   0
  -1  -1  -1 1332.17   25.48   0
   1   1   1 1255.14   24.90   0
   1   1   1 1258.03   23.43   0
  -1  -1  -1 1311.31   22.31   0
   2   1   1 6341.38   33.48   0
  -2  -1  -1 5990.09   32.09   0
   2   1   1 5816.46   31.74   0
  -3  -1  -1  841.51   11.78   0
   3   1   1  822.03   11.59   0
   3   1   1  745.03   10.75   0
   3   1   1  860.82   12.51   0
  -4  -1  -1  421.91    9.03   0
   4   1   1  443.02    9.73   0
   4   1   1  367.21    6.94   0
   4   1   1  408.35    8.54   0
   5   1   1   42.23    4.68   0
  -5  -1  -1   35.75    5.07   0
   5   1   1   29.91    4.83   0
   5   1   1   30.23    7.66   0
   6   1   1    8.67    4.96   0
   6   1   1   10.04    4.77   0
   6   1   1   12.69    7.80   0
  -6  -1  -1   21.08    7.22   0
   7   1   1   -9.82    7.23   0
   7   1   1    3.26    5.36   0
   7   1   1   11.92    8.50   0
  -7  -1  -1    6.30    7.31   0
  -8  -1  -1    0.20    8.29   0
   8   1   1    9.29    8.02   0
   8   1   1   13.55    9.27   0
   8   1   1   10.21    7.82   0
   7  -2  -1    4.71    5.59   0
   7  -2  -1    0.27    8.75   0
   7  -2  -1    4.14    6.74   0
  -7   2   1    6.40    8.09   0
   6  -2  -1   -0.99    5.61   0
  -6   2   1   -1.84    7.38   0
  -6   2   1   -0.62    5.19   0
   6  -2  -1   -3.46    7.09   0
  -5   2   1    4.39    4.73   0
  -5   2   1    9.23    7.02   0
   5  -2  -1   -4.39    7.52   0
   5  -2  -1    1.70    4.87   0
   4  -2  -1   82.45    6.69   0
  -4   2   1   76.95    7.07   0
   4  -2  -1   65.62    5.48   0
  -4   2   1   66.83    7.00   0
   3  -2  -1   49.74    5.30   0
   3  -2  -1   41.24    4.77   0
  -3   2   1   41.72    6.73   0
  -3   2   1   51.61    6.69   0
  -2   2   1  894.05   10.45   0
  -2   2   1  940.81   11.14   0
   2  -2  -1  876.07   10.63   0
   2  -2  -1  943.09   12.45   0
  -1   2   1  945.69   12.39   0
  -1   2   1  952.89   13.91   0
   1  -2  -1  908.24   13.37   0
   1  -2  -1  805.42   12.15   0
   0  -2  -1  262.97   13.13   0
   0   2   1  676.22   15.39   0
   0   2   1 1154.92   22.08   0
   0  -2  -1 1080.69   20.49   0
  -1  -2  -1 1242.23   29.47   0
   1   2   1 1021.26   27.13   0
  -1  -2  -1 1241.96   16.91   0
   1   2   1 1026.61   17.33   0
  -2  -2  -1 2848.15   25.16   0
   2   2   1 2839.07   24.71   0
  -2  -2  -1 3173.58   22.80   0
   2   2   1 3043.21   22.33   0
   3   2   1   42.19    5.21   0
   3   2   1   48.79    8.14   0
  -3  -2  -1   53.80    5.92   0
  -3  -2  -1   52.75    7.05   0
   4   2   1 4616.11   22.45   0
   4   2   1 3962.20   18.56   0
   4   2   1 4081.98   20.25   0
  -4  -2  -1 4434.06   21.27   0
   5   2   1   27.76    6.70   0
   5   2   1   33.27    6.64   0
  -5  -2  -1   38.05    5.02   0
   5   2   1   43.50    7.83   0
   6   2   1  379.00    8.55   0
   6   2   1  315.75    6.74   0
   6   2   1  390.91    9.83   0
  -6  -2  -1  359.02    9.01   0
   7   2   1   15.58    5.33   0
   7   2   1   11.01    8.07   0
   7   2   1   10.20    4.77   0
  -7  -2  -1   13.47    5.36   0
   8   2   1   -2.55    5.57   0
  -8  -2  -1    5.33    7.98   0
   8   2   1   15.76    8.99   0
   8   2   1   -3.19    5.32   0
  -7   3   1    5.18    8.89   0
   7  -3  -1    5.36    6.35   0
   7  -3  -1    4.08    8.19   0
  -6   3   1    5.04    5.71   0
   6  -3  -1    3.41    5.21   0
   6  -3  -1    2.40    5.92   0
  -6   3   1   13.34    7.69   0
   5  -3  -1   64.09    7.17   0
  -5   3   1   74.51    7.50   0
  -5   3   1   74.84    7.80   0
   5  -3  -1   77.82    8.19   0
  -4   3   1   32.05    6.91   0
   4  -3  -1   43.67    5.63   0
  -4   3   1   31.88    5.16   0
   4  -3  -1   25.77    6.85   0
  -3   3   1   58.59    6.98   0
   3  -3  -1   58.30    8.03   0
  -3   3   1   66.53    7.15   0
   3  -3  -1   61.17    6.78   0
  -2   3   1   37.38    7.04   0
  -2   3   1   23.69    5.11   0
   2  -3  -1   37.10    7.85   0
   2  -3  -1   26.36    4.87   0
   1  -3  -1  209.57    8.26   0
  -1   3   1  212.94    9.09   0
  -1   3   1  235.65    8.70   0
   1  -3  -1  164.06    9.37   0
   0  -3  -1  611.97   14.57   0
   0  -3  -1  615.19   12.49   0
   0  -3  -1  170.16    9.69   0
   0   3   1  462.32    9.68   0
   1   3   1  175.31   12.21   0
   1   3   1   83.07    9.59   0
  -1  -3  -1  145.17    7.62   0
  -1  -3  -1  136.90   11.08   0
  -2  -3  -1 2449.42   18.62   0
   2   3   1 2225.68   23.69   0
  -2  -3  -1 2099.68   24.22   0
   2   3   1 2142.56   17.02   0
   3   3   1   34.28    5.60   0
  -3  -3  -1   30.69    7.89   0
   3   3   1   34.32    6.53   0
  -3  -3  -1   33.42    6.56   0
  -4  -3  -1   62.29    5.57   0
   4   3   1   68.92    5.59   0
  -4  -3  -1   56.85    6.84   0
   4   3   1   63.10    6.88   0
  -5  -3  -1   60.76    6.91   0
   5   3   1   52.16    4.91   0
   5   3   1   60.62    4.94   0
   5   3   1   69.08    7.81   0
  -6  -3  -1  365.32    8.77   0
   6   3   1  322.51    6.84   0
   6   3   1  359.16    7.83   0
   6   3   1  296.44    6.64   0
   7   3   1    8.48    5.12   0
   7   3   1   -0.07    4.70   0
  -7  -3  -1   -0.72    4.78   0
   7   3   1   -2.49    5.81   0
   8   3   1   27.43    7.60   0
   8   3   1   29.03    8.98   0
   8   3   1   28.01    5.82   0
  -8  -3  -1   22.98    5.75   0
   6  -4  -1    0.64    7.93   0
  -6   4   1    3.33    8.35   0
   6  -4  -1    5.92    8.53   0
  -6   4   1   -2.88    8.35   0
   5  -4  -1    8.46    5.13   0
   5  -4  -1   -2.19    8.34   0
  -5   4   1   -1.02    7.44   0
  -5   4   1    3.68    5.40   0
   4  -4  -1   37.50    5.28   0
  -4   4   1   41.87    7.50   0
  -4   4   1   43.06    5.65   0
   4  -4  -1   49.78    8.07   0
   3  -4  -1  167.14    8.89   0
  -3   4   1  214.47    6.56   0
  -3   4   1  198.92    8.07   0
   3  -4  -1  176.55    5.89   0
   2  -4  -1   11.37    5.79   0
  -2   4   1    5.83    5.17   0
   2  -4  -1    7.28    6.41   0
  -2   4   1    9.14    6.67   0
   1  -4  -1  337.83    7.63   0
  -1   4   1  563.54    8.42   0
   1  -4  -1  560.23    9.92   0
   0  -4  -1  209.89    9.20   0
   0  -4  -1  619.68   10.69   0
   0  -4  -1  575.50   11.43   0
   0   4   1  460.24   10.25   0
   1   4   1    1.50    6.20   0
  -1  -4  -1    3.28    7.29   0
  -1  -4  -1    8.66    8.40   0
   2   4   1  201.18   10.20   0
  -2  -4  -1  309.04    7.98   0
  -2  -4  -1  307.79   10.66   0
   2   4   1  233.64    9.44   0
   3   4   1  320.21    9.41   0
   3   4   1  299.15    9.06   0
  -3  -4  -1  286.71    8.87   0
  -3  -4  -1  326.66    9.35   0
   4   4   1    9.60    5.38   0
  -4  -4  -1    2.28    5.38   0
   4   4   1    3.45    6.16   0
  -4  -4  -1    4.91    6.23   0
  -5  -4  -1   13.85    6.02   0
   5   4   1    3.54    6.26   0
   5   4   1   11.55    5.37   0
  -5  -4  -1   17.62    5.74   0
   6   4   1   28.41    5.94   0
   6   4   1   22.30    5.02   0
  -6  -4  -1   34.27    6.98   0
   6   4   1   21.18    4.80   0
  -7  -4  -1   10.29    7.15   0
   7   4   1    7.77    5.64   0
   7   4   1    9.04    4.83   0
   7   4   1    9.93    7.07   0
  -8  -4  -1   24.80    7.98   0
   8   4   1   25.84    8.85   0
   8   4   1   11.73    5.81   0
   8   4   1   18.72    7.62   0
   5  -5  -1    5.45    7.66   0
  -5   5   1    5.58    7.79   0
   5  -5  -1    2.70    5.96   0
   4  -5  -1    7.63    8.15   0
  -4   5   1    9.95    4.99   0
   4  -5  -1    6.49    7.23   0
   3  -5  -1  153.40    8.99   0
   3  -5  -1  206.03    5.88   0
  -3   5   1  206.35    8.36   0
   2  -5  -1  154.24    8.79   0
   2  -5  -1  218.76    7.95   0
  -2   5   1  245.81    8.29   0
   2  -5  -1  232.92    7.29   0
   1  -5  -1   51.41    7.01   0
   1  -5  -1   57.57    4.61   0
   1  -5  -1   21.84    6.07   0
  -1   5   1   53.00    7.96   0
   0  -5  -1  642.37   10.47   0
   0   5   1  568.61   10.14   0
   0  -5  -1  620.52   11.42   0
   0  -5  -1  267.46    8.99   0
  -1  -5  -1  208.55    6.80   0
   1   5   1  113.48    8.41   0
  -1  -5  -1  314.11   11.71   0
  -1  -5  -1  157.34    7.89   0
  -2  -5  -1   11.84    8.21   0
  -2  -5  -1   11.25    7.51   0
   2   5   1    9.29    5.48   0
   2   5   1   12.05    7.85   0
  -3  -5  -1  139.76    7.96   0
  -3  -5  -1  171.42    8.56   0
   3   5   1  132.91    6.38   0
   3   5   1   97.74    7.36   0
  -4  -5  -1   13.20    6.73   0
   4   5   1    9.77    8.02   0
   4   5   1    6.98    8.10   0
  -4  -5  -1   10.30    5.53   0
   5   5   1    5.74    7.62   0
   5   5   1    0.65    6.58   0
  -5  -5  -1    6.70    6.69   0
  -5  -5  -1    2.31    5.46   0
  -6  -5  -1   -1.67    5.82   0
   6   5   1   13.46    8.04   0
  -6  -5  -1    2.82    6.95   0
   6   5   1    4.41    6.81   0
   7   5   1    5.08    5.79   0
   7   5   1   -1.30    4.81   0
   7   5   1    0.02    7.16   0
  -7  -5  -1    1.10    7.23   0
  -8  -5  -1    2.84    5.97   0
   8   5   1    8.19    7.71   0
   8   5   1    3.79    5.41   0
   8   5   1    6.96    6.29   0
   5  -6  -1   17.00    8.09   0
   5  -6  -1   15.11    5.52   0
  -5   6   1   26.40    8.92   0
   5  -6  -1   13.17    9.41   0
   4  -6  -1    9.43    5.50   0
  -4   6   1    9.89    5.77   0
   4  -6  -1    3.54    5.15   0
   4  -6  -1   17.57    8.75   0
   3  -6  -1   -1.70    8.38   0
  -3   6   1   13.33    7.32   0
   3  -6  -1   15.56    6.96   0
   3  -6  -1   10.15    4.92   0
   2  -6  -1   66.22    8.29   0
   2  -6  -1  111.26    7.09   0
   2  -6  -1  103.10    7.68   0
  -2   6   1  108.30    8.23   0
   1  -6  -1  141.40    6.26   0
  -1   6   1  339.48    7.13   0
   1  -6  -1  316.75    8.72   0
   1  -6  -1  387.75    8.34   0
   0  -6  -1   10.41    8.35   0
   0  -6  -1    6.11    6.46   0
   0  -6  -1   -0.52    6.30   0
   0   6   1   -2.00    5.90   0
  -1  -6  -1  414.15   10.69   0
  -1  -6  -1  846.50   14.49   0
   1   6   1  491.56   10.30   0
  -1  -6  -1  606.05    8.86   0
  -2  -6  -1   17.92    7.90   0
   2   6   1   19.16    7.53   0
  -2  -6  -1   25.55    6.71   0
   2   6   1    3.09    8.00   0
   3   6   1   19.51    7.72   0
   3   6   1   17.97    8.22   0
  -3  -6  -1   18.12    7.78   0
  -3  -6  -1   19.72    5.56   0
   4   6   1    5.96    6.17   0
  -4  -6  -1   10.66    7.83   0
  -4  -6  -1    7.54    5.29   0
   4   6   1   -0.58    8.14   0
   5   6   1   15.06    7.87   0
  -5  -6  -1   12.04    6.62   0
   5   6   1   12.63    6.95   0
  -5  -6  -1   18.45    5.89   0
  -6  -6  -1  -10.85    8.24   0
  -6  -6  -1    4.88    4.80   0
   6   6   1    1.42    5.64   0
   6   6   1    0.64    6.88   0
   7   6   1   -1.16    7.06   0
  -7  -6  -1   12.85    7.28   0
   7   6   1    2.94    8.37   0
  -7  -6  -1    7.89    8.46   0
  -8  -6  -1    7.00    8.39   0
   8   6   1   13.97    8.99   0
   8   6   1    3.77    8.25   0
   8   6   1    4.33    7.63   0
   4  -7  -1   28.25    6.13   0
   4  -7  -1   31.94    7.98   0
  -4   7   1   40.97    8.22   0
   4  -7  -1   37.60    9.50   0
   3  -7  -1    0.56    9.00   0
   3  -7  -1   24.17    7.93   0
   3  -7  -1   30.31    7.41   0
  -3   7   1   46.79    8.10   0
   2  -7  -1   30.73    5.95   0
   2  -7  -1   40.90    7.27   0
   2  -7  -1   58.70    7.03   0
  -2   7   1   50.71    8.19   0
  -1   7   1  199.19    6.58   0
   1  -7  -1  218.42    8.00   0
   1  -7  -1   92.23    6.05   0
   1  -7  -1  182.87    8.37   0
   0  -7  -1    1.36    8.13   0
   0  -7  -1   11.78    6.90   0
   0   7   1    9.92    5.79   0
   0  -7  -1   16.06    7.13   0
  -1  -7  -1    4.24    8.04   0
  -1  -7  -1    0.31    7.12   0
   1   7   1    8.01    7.97   0
  -1  -7  -1    4.83    6.42   0
  -2  -7  -1   11.25    7.87   0
   2   7   1    2.39    7.97   0
  -2  -7  -1   13.71    8.80   0
  -2  -7  -1    6.62    6.67   0
   3   7   1   58.25    8.39   0
   3   7   1   20.45    8.19   0
  -3  -7  -1   58.40    6.01   0
  -3  -7  -1   60.61    8.85   0
   4   7   1    4.42    5.71   0
  -4  -7  -1   11.17    8.45   0
  -4  -7  -1   14.54    5.58   0
   4   7   1    9.46    6.87   0
  -5  -7  -1    8.28    7.40   0
  -5  -7  -1    7.44    5.72   0
   5   7   1   10.11    5.90   0
   5   7   1    8.46    7.01   0
  -6  -7  -1    1.79    7.54   0
  -6  -7  -1   -4.47    6.02   0
   6   7   1   -8.59    8.23   0
   6   7   1    4.35    7.00   0
  -7  -7  -1   13.20    8.93   0
  -7  -7  -1    0.26    7.98   0
   7   7   1    6.54    7.48   0
   7   7   1    1.05    8.78   0
  -8  -7  -1   -0.89    8.39   0
   8   7   1    4.28    7.72   0
   8   7   1    6.19    6.57   0
   3  -8  -1   24.03    9.10   0
  -3   8   1   34.20    8.95   0
   3  -8  -1   25.32    8.50   0
   3  -8  -1   22.50    7.79   0
   2  -8  -1    8.82    8.83   0
  -2   8   1    8.38    5.79   0
   2  -8  -1   -0.59    7.26   0
   2  -8  -1   -3.08    7.67   0
   1  -8  -1   20.85    7.01   0
  -1   8   1   21.74    6.00   0
   1  -8  -1   25.08    8.58   0
   1  -8  -1   12.92    7.33   0
   0  -8  -1   79.11    9.30   0
   0  -8  -1   51.24    6.13   0
   0  -8  -1   81.22    8.81   0
   0   8   1   91.48    8.37   0
  -1  -8  -1    9.97    7.97   0
  -1  -8  -1   20.18    8.27   0
  -1  -8  -1   17.99    8.93   0
   1   8   1   19.57    5.75   0
  -2  -8  -1  141.96    8.90   0
   2   8   1   71.02    8.58   0
  -2  -8  -1  152.80   10.53   0
  -2  -8  -1  134.21    8.31   0
   3   8   1   15.36    5.93   0
  -3  -8  -1   38.62    8.89   0
  -3  -8  -1   49.26    6.01   0
  -4  -8  -1    1.03    8.62   0
   4   8   1    2.39    8.23   0
  -4  -8  -1    6.42    8.20   0
   4   8   1    3.73    5.96   0
   5   8   1   17.56    7.01   0
  -5  -8  -1   38.20    8.70   0
   5   8   1   16.86    6.19   0
  -5  -8  -1   24.18    8.90   0
  -6  -8  -1   28.35    9.09   0
   6   8   1    8.68    6.13   0
   6   8   1    6.30    6.85   0
  -6  -8  -1    5.69    7.63   0
   7   8   1    9.57    9.17   0
   7   8   1   -1.85    7.88   0
  -7  -8  -1    6.68    6.76   0
  -7  -8  -1    5.99    8.20   0
   1  -9  -1   -2.60    7.69   0
  -1   9   1    6.78    8.58   0
   1  -9  -1   -5.35    8.98   0
   1  -9  -1    3.72    8.18   0
   0  -9  -1   28.15    8.13   0
   0  -9  -1   25.25    6.46   0
   0   9   1   51.16    8.43   0
   0  -9  -1   35.04    9.23   0
   1   9   1   16.60    8.41   0
  -1  -9  -1   15.13    8.71   0
  -1  -9  -1   18.60    9.29   0
  -1  -9  -1    5.91    8.44   0
  -2  -9  -1    5.79    8.98   0
  -2  -9  -1   -9.24    6.19   0
  -2  -9  -1    1.16    8.54   0
   2   9   1   -7.10    8.64   0
   3   9   1   16.94    8.35   0
  -3  -9  -1   18.88    8.72   0
  -3  -9  -1    9.57    9.47   0
  -3  -9  -1   10.48   10.38   0
  -4  -9  -1   52.25   10.02   0
  -4  -9  -1   66.58    8.92   0
   4   9   1   28.20    8.58   0
  -5  -9  -1    8.18    9.47   0
   5   9   1   12.71    8.59   0
  -5  -9  -1    4.02    6.25   0
   5   9   1    7.20    8.82   0
  -6  -9  -1   16.65    8.47   0
  -6  -9  -1   -2.74    9.65   0
   6   9   1   23.38    9.07   0
   6   9   1   11.81    9.27   0
  -7  -9  -1    7.21    8.68   0
  -7  -9  -1    3.94   10.01   0
   7   9   1   18.59    9.48   0
   7   9   1    3.50    9.43   0
   0 -10  -1    0.49   10.54   0
   0 -10  -1   -0.91    6.57   0
   0 -10  -1    5.11    7.95   0
   0  10   1    8.48    8.93   0
   1  10   1   21.37    6.63   0
  -1 -10  -1   28.50    7.13   0
  -1 -10  -1   18.83    9.90   0
  -1 -10  -1   19.87   10.63   0
   2  10   1   27.41    9.06   0
  -2 -10  -1   43.90   10.01   0
  -2 -10  -1   55.72    9.41   0
  -2 -10  -1   30.93   11.72   0
   3  10   1   19.73    8.93   0
  -3 -10  -1    1.28   12.97   0
  -3 -10  -1    8.19    9.13   0
  -3 -10  -1    6.45   10.90   0
  -4 -10  -1   10.34   13.61   0
  -4 -10  -1   30.61    9.55   0
  -4 -10  -1   11.25   13.31   0
   4  10   1    9.87    9.00   0
  -5 -10  -1   -1.37    6.74   0
   5  10   1    2.12    6.37   0
  -5 -10  -1   -0.16   13.32   0
   6  10   1    0.16    9.48   0
   4  10  -2    5.12    7.45   0
  -4 -10   2    4.44    6.42   0
   4  10  -2    8.81    8.75   0
  -4 -10   2    2.95    8.16   0
  -3 -10   2   23.54    6.78   0
  -3 -10   2   19.01   10.21   0
   3  10  -2   29.97    6.22   0
   2  10  -2   23.39    6.58   0
  -2 -10   2   27.43    9.40   0
  -2 -10   2   27.91    8.77   0
  -2 -10   2   21.04    8.32   0
   1  10  -2   20.49    6.48   0
  -1 -10   2   20.61    8.84   0
  -1 -10   2    9.93    9.77   0
  -1 -10   2   11.86    8.45   0
  -6  -9   2    1.68    6.42   0
   6   9  -2   -1.87    7.91   0
   6   9  -2    3.29    6.26   0
  -6  -9   2    4.71    8.23   0
   5   9  -2   10.77    7.57   0
   5   9  -2    5.83    8.86   0
  -5  -9   2   16.50    7.92   0
  -5  -9   2   27.41    8.94   0
   4   9  -2   17.04    8.88   0
   4   9  -2    7.91    6.26   0
  -4  -9   2    5.55    6.32   0
  -4  -9   2   21.71    7.81   0
   3   9  -2   18.52    8.72   0
   3   9  -2    4.97    5.78   0
  -3  -9   2   17.09    7.64   0
  -3  -9   2    8.63    8.26   0
  -2  -9   2   21.10    7.68   0
  -2  -9   2   25.01    9.84   0
   2   9  -2   12.31    6.02   0
  -2  -9   2   23.81    8.54   0
  -1  -9   2   21.83    8.07   0
   1   9  -2   16.68    8.36   0
  -1  -9   2   16.22    8.93   0
  -1  -9   2   16.41    7.34   0
   0   9  -2   -1.53    8.69   0
   0  -9   2    1.73    9.16   0
   0  -9   2    2.09    8.08   0
   0  -9   2    2.59    7.34   0
   1  -9   2   54.30    8.90   0
  -1   9  -2   61.04    8.95   0
   1  -9   2   59.65    8.18   0
   1  -9   2   44.79    7.02   0
   7   8  -2    8.66    6.41   0
  -7  -8   2    8.53    8.08   0
  -7  -8   2    1.37    6.63   0
   7   8  -2   -0.71    5.48   0
   6   8  -2   11.06    7.45   0
  -6  -8   2   22.17    8.94   0
   6   8  -2   18.16    8.79   0
  -6  -8   2   30.76    7.94   0
  -5  -8   2   -2.30    5.77   0
   5   8  -2    1.03    7.20   0
   5   8  -2    9.62    8.15   0
  -5  -8   2    3.53    7.64   0
   4   8  -2   50.42    7.30   0
  -4  -8   2   35.01    5.67   0
   4   8  -2   27.56    5.73   0
  -4  -8   2   51.10    7.61   0
  -3  -8   2   27.55    5.41   0
  -3  -8   2   51.86    7.37   0
   3   8  -2   51.76    8.32   0
   3   8  -2   22.64    8.19   0
  -2  -8   2    3.65    5.56   0
   2   8  -2    7.69    6.54   0
  -2  -8   2    5.45    6.83   0
   2   8  -2    1.66    5.51   0
  -1  -8   2   86.56    7.47   0
   1   8  -2   96.71    6.29   0
  -1  -8   2  154.12    8.23   0
  -1  -8   2  122.73    8.53   0
   0   8  -2   -7.30    8.24   0
   0  -8   2   -0.46    7.50   0
   0  -8   2   -2.87    6.98   0
   0  -8   2   13.54    8.37   0
   1  -8   2   22.07    5.55   0
  -1   8  -2   23.86    8.28   0
   1  -8   2   14.32    8.42   0
   1  -8   2   16.54    7.55   0
   2  -8   2   30.43    7.96   0
   2  -8   2   16.77    8.62   0
  -2   8  -2   18.37    5.78   0
   2  -8   2   13.89    8.01   0
   8   7  -2    3.50    5.49   0
   8   7  -2   12.87    9.41   0
   7   7  -2    6.32    8.92   0
   7   7  -2    2.90    7.37   0
  -7  -7   2    6.24    7.93   0
  -7  -7   2   -5.02    8.92   0
   6   7  -2    2.42    7.00   0
  -6  -7   2    5.67    7.28   0
  -6  -7   2    8.40    5.86   0
   6   7  -2  -16.68    8.46   0
   5   7  -2    3.84    6.60   0
  -5  -7   2    5.43    5.77   0
   5   7  -2    4.81    5.96   0
  -5  -7   2    6.85    7.00   0
  -4  -7   2  167.23    7.76   0
   4   7  -2  137.03    7.81   0
   4   7  -2  128.01    8.36   0
  -4  -7   2  142.68    8.50   0
   3   7  -2    5.03    7.73   0
   3   7  -2    1.37    6.70   0
  -3  -7   2   -0.40    7.53   0
  -3  -7   2    4.60    6.32   0
  -2  -7   2  201.65    6.46   0
  -2  -7   2  278.22    8.38   0
   2   7  -2  205.83    8.97   0
   2   7  -2  385.16    9.01   0
   1   7  -2   -2.53    7.82   0
  -1  -7   2    3.08    6.37   0
  -1  -7   2    5.18    7.77   0
   0   7  -2    3.34    7.43   0
   0  -7   2   -2.78    7.03   0
   0  -7   2   -2.92    5.47   0
   0  -7   2   -0.70    4.59   0
   1  -7   2    0.90    5.24   0
   1  -7   2    5.25    6.98   0
   1  -7   2   -0.73    5.76   0
  -1   7  -2    8.92    5.42   0
   2  -7   2  115.65    5.64   0
   2  -7   2  101.14    8.02   0
  -2   7  -2  108.24    6.30   0
   2  -7   2   48.69    8.38   0
   3  -7   2   -0.60    7.73   0
   3  -7   2   10.34    8.76   0
  -3   7  -2   10.28    8.35   0
   3  -7   2    4.02    7.17   0
   8   6  -2    9.63    5.57   0
   8   6  -2    5.41    9.14   0
  -8  -6   2   12.24    8.35   0
   7   6  -2    9.05    7.23   0
  -7  -6   2   -4.90    8.21   0
  -7  -6   2    4.02    7.75   0
   7   6  -2   -0.32    5.82   0
   6   6  -2    8.09    7.04   0
  -6  -6   2    8.50    8.19   0
  -6  -6   2   13.07    7.09   0
   6   6  -2   -3.99    8.27   0
   5   6  -2   15.81    6.70   0
  -5  -6   2   30.51    7.77   0
  -5  -6   2   17.29    6.83   0
   5   6  -2   20.02    5.68   0
   4   6  -2    2.99    7.84   0
   4   6  -2    9.56    6.18   0
  -4  -6   2    7.59    6.50   0
  -4  -6   2    6.18    7.39   0
  -3  -6   2  155.66    6.04   0
   3   6  -2  164.57    7.52   0
   3   6  -2  135.79    8.25   0
  -3  -6   2  198.08    7.87   0
  -2  -6   2  298.85    8.35   0
  -2  -6   2  226.13    8.20   0
   2   6  -2  382.49    8.83   0
   2   6  -2  179.40    6.45   0
   1   6  -2  291.75    8.81   0
  -1  -6   2  316.45    8.91   0
  -1  -6   2  288.00    7.83   0
   1   6  -2  435.33    8.79   0
   0   6  -2  745.30   10.28   0
   0  -6   2 1216.58   11.59   0
   0  -6   2 1329.89   11.95   0
   0  -6   2  814.94    9.19   0
   1  -6   2   13.00    6.42   0
   1  -6   2    7.72    8.07   0
   1  -6   2    4.02    7.19   0
  -1   6  -2    4.01    5.40   0
  -2   6  -2  159.37    7.78   0
   2  -6   2  175.01    7.23   0
   2  -6   2   78.56    8.08   0
   2  -6   2  151.46    7.73   0
  -3   6  -2   83.86    7.97   0
   3  -6   2   84.33    5.94   0
   3  -6   2   48.98    8.61   0
   3  -6   2   78.63    5.05   0
   4  -6   2   10.24    7.77   0
   4  -6   2   10.57    7.12   0
   4  -6   2    6.64    8.90   0
  -4   6  -2   14.57    5.52   0
  -8  -5   2   -5.81    7.85   0
   8   5  -2   -7.66    7.65   0
   8   5  -2    4.15    7.72   0
   8   5  -2   -9.48    8.93   0
   7   5  -2   13.12    8.26   0
   7   5  -2    0.67    7.29   0
  -7  -5   2    8.43    5.20   0
  -6  -5   2  -11.14    8.17   0
   6   5  -2   12.62    6.69   0
   6   5  -2    4.66    7.88   0
  -6  -5   2    6.36    4.84   0
  -5  -5   2   24.32    4.92   0
   5   5  -2   23.13    7.96   0
   5   5  -2   18.99    6.66   0
  -5  -5   2   20.67    5.50   0
  -4  -5   2   18.85    7.32   0
  -4  -5   2    9.02    6.29   0
   4   5  -2   13.58    6.16   0
   4   5  -2   13.93    5.65   0
  -3  -5   2   72.07    7.88   0
   3   5  -2   65.77    8.46   0
   3   5  -2   45.09    6.47   0
  -3  -5   2   69.77    5.17   0
   2   5  -2  272.72    8.98   0
   2   5  -2  431.21    8.84   0
  -2  -5   2  302.72    8.70   0
  -2  -5   2  398.37    8.80   0
  -1  -5   2  155.37    7.09   0
  -1  -5   2  170.07    8.56   0
   1   5  -2  266.50    7.86   0
   1   5  -2  131.30    8.33   0
   0  -5   2   96.18    8.23   0
   0  -5   2  173.28    7.24   0
   0   5  -2  110.08    8.06   0
   1  -5   2 1056.66   11.45   0
   1  -5   2 1047.98   10.25   0
   1  -5   2  507.72    9.92   0
  -1   5  -2  722.83    8.56   0
   2  -5   2   91.12    6.82   0
   2  -5   2   96.61    7.34   0
   2  -5   2   69.91    5.79   0
  -2   5  -2   77.90    7.20   0
   3  -5   2   49.22    7.17   0
  -3   5  -2   48.71    7.22   0
   3  -5   2   57.56    6.50   0
   3  -5   2   56.93    8.12   0
  -4   5  -2   56.05    7.74   0
   4  -5   2   53.87    7.75   0
   4  -5   2   55.16    5.15   0
   4  -5   2   61.82    8.40   0
   5  -5   2   12.38    7.76   0
   5  -5   2   33.75    7.22   0
  -5   5  -2   30.45    7.81   0
   5  -5   2   30.90    9.03   0
   8   4  -2   -7.52    8.05   0
   8   4  -2   -0.77    7.62   0
   8   4  -2   -2.26    6.53   0
  -8  -4   2   -4.30    5.55   0
   7   4  -2   -7.66    8.47   0
  -7  -4   2    2.93    5.05   0
   7   4  -2   -0.93    4.91   0
   7   4  -2    0.94    7.22   0
   6   4  -2   23.48    5.55   0
  -6  -4   2   30.36    7.91   0
  -6  -4   2   13.98    7.34   0
   6   4  -2   12.14    5.04   0
   5   4  -2   45.42    6.75   0
   5   4  -2   26.70    7.59   0
  -5  -4   2   37.17    6.81   0
  -5  -4   2   60.58    7.84   0
  -4  -4   2  451.58    8.78   0
   4   4  -2  489.28    8.39   0
   4   4  -2  451.68    8.81   0
  -4  -4   2  430.19    9.82   0
  -3  -4   2   16.28    6.13   0
   3   4  -2   11.28    6.17   0
  -3  -4   2    2.98    7.00   0
   3   4  -2   11.27    5.31   0
   2   4  -2  588.59    8.62   0
  -2  -4   2  811.41   11.14   0
  -2  -4   2  647.40    8.87   0
   2   4  -2  690.98    9.36   0
   1   4  -2  323.17    9.37   0
  -1  -4   2  439.86    8.00   0
  -1  -4   2  429.59    8.53   0
   1   4  -2  679.44    9.08   0
   0   4  -2    4.99    5.90   0
   0  -4   2    3.27    6.30   0
   0   4  -2    3.78    7.23   0
   0  -4   2    0.96    7.30   0
   1  -4   2   53.09    6.96   0
   1  -4   2   50.06    4.69   0
  -1   4  -2   26.65    7.16   0
   1  -4   2   34.12    8.05   0
   2  -4   2  252.62    6.96   0
  -2   4  -2  261.59    6.43   0
   2  -4   2  321.76    7.81   0
   2  -4   2  318.34    6.88   0
   3  -4   2   67.04    8.12   0
   3  -4   2   71.43    6.60   0
  -3   4  -2   60.79    7.05   0
   3  -4   2   72.43    7.06   0
   4  -4   2   66.75    7.30   0
   4  -4   2   65.84    6.83   0
   4  -4   2   52.40    8.04   0
  -4   4  -2   44.17    7.31   0
   5  -4   2    4.56    4.80   0
  -5   4  -2    7.55    7.39   0
   5  -4   2    0.91    5.66   0
   5  -4   2   11.77    7.58   0
  -6   4  -2    4.03    5.48   0
   6  -4   2    0.02    7.98   0
   6  -4   2    5.64    7.38   0
   6  -4   2   -7.72    6.52   0
   8   3  -2    8.93    7.66   0
  -8  -3   2    6.95    7.83   0
   8   3  -2    3.43    6.38   0
   8   3  -2    4.27    8.24   0
  -7  -3   2   10.76    4.70   0
   7   3  -2    8.27    5.18   0
   7   3  -2   15.34    6.12   0
   7   3  -2    6.38    4.91   0
  -6  -3   2    9.00    6.74   0
   6   3  -2   13.04    7.02   0
   6   3  -2    9.34    8.42   0
   6   3  -2    9.99    6.43   0
   5   3  -2   17.55    7.49   0
  -5  -3   2    6.43    6.77   0
   5   3  -2   16.50    4.96   0
  -5  -3   2    1.73    5.69   0
  -4  -3   2   19.62    5.40   0
   4   3  -2   18.24    7.55   0
   4   3  -2   12.84    4.53   0
  -4  -3   2   18.23    4.49   0
  -3  -3   2  435.59    8.20   0
   3   3  -2  522.47   10.68   0
   3   3  -2  447.49    9.20   0
  -3  -3   2  436.80    7.97   0
   2   3  -2   83.24    6.39   0
   2   3  -2   62.58    5.15   0
  -2  -3   2   78.09    5.54   0
  -2  -3   2   79.97    8.06   0
   1   3  -2  453.19    8.26   0
  -1  -3   2  297.75    8.35   0
   1   3  -2  261.46    7.83   0
  -1  -3   2  299.25    9.50   0
   0   3  -2  477.55    8.67   0
   0  -3   2  983.31   10.87   0
   0   3  -2  941.26   10.67   0
   0  -3   2  415.38    8.42   0
   1  -3   2   19.85    5.69   0
  -1   3  -2   15.29    5.30   0
   1  -3   2   25.91    6.85   0
   1  -3   2   17.73    6.34   0
   2  -3   2  363.14    6.84   0
  -2   3  -2  308.50    8.09   0
   2  -3   2  349.13    6.54   0
   2  -3   2  341.81    9.34   0
   3  -3   2  118.13    4.99   0
  -3   3  -2  113.28    7.19   0
   3  -3   2  131.36    5.43   0
   3  -3   2  116.76    8.14   0
  -4   3  -2    7.50    6.96   0
   4  -3   2    9.81    7.84   0
   4  -3   2    9.80    4.71   0
   5  -3   2   52.44    7.92   0
  -5   3  -2   49.57    5.27   0
   5  -3   2   59.10    7.28   0
  -6   3  -2   39.99    7.70   0
   6  -3   2   22.88    8.53   0
   6  -3   2   44.85    5.52   0
  -8  -2   2    4.06    5.52   0
   8   2  -2    8.61    8.42   0
   8   2  -2    8.28    7.67   0
   8   2  -2   -2.12    9.45   0
   7   2  -2    2.46    5.24   0
   7   2  -2    2.11    7.32   0
  -7  -2   2   -0.91    7.62   0
   7   2  -2    3.43    8.62   0
  -6  -2   2   18.36    6.99   0
   6   2  -2   16.05    7.02   0
   6   2  -2   20.80    8.20   0
   6   2  -2   12.28    4.93   0
   5   2  -2  134.84    6.23   0
  -5  -2   2  126.32    5.68   0
   5   2  -2  105.71    5.20   0
   5   2  -2  125.21    5.62   0
  -4  -2   2   83.12    6.63   0
  -4  -2   2   81.15    5.87   0
   4   2  -2   69.80    6.62   0
   4   2  -2   81.93    5.94   0
  -3  -2   2  885.72   12.58   0
   3   2  -2 1001.12   12.96   0
  -3  -2   2  868.95   11.23   0
   3   2  -2  848.03   10.30   0
   2   2  -2    9.48    5.84   0
  -2  -2   2   13.60    6.74   0
   2   2  -2   10.73    4.90   0
  -2  -2   2   13.84    7.82   0
  -1  -2   2    7.05    8.85   0
   1   2  -2    3.00    9.60   0
  -1  -2   2    6.29    7.06   0
   1   2  -2    6.87    6.83   0
   0  -2   2  439.25    9.85   0
   0   2  -2  435.36    9.63   0
   0   2  -2  197.65    8.52   0
   0  -2   2  180.74    8.30   0
   1  -2   2  343.14    8.53   0
   1  -2   2  419.15    9.64   0
   1  -2   2  393.35    7.47   0
  -1   2  -2  313.06    7.68   0
   2  -2   2    0.17    6.20   0
   2  -2   2   -0.34    7.25   0
  -2   2  -2   -1.26    6.70   0
   2  -2   2    2.86    6.70   0
   3  -2   2  213.07    7.57   0
   3  -2   2  236.23    8.27   0
  -3   2  -2  201.89    7.62   0
   4  -2   2  137.21    6.94   0
  -4   2  -2  131.99    5.41   0
  -4   2  -2  161.35    5.65   0
   4  -2   2  147.57    5.91   0
   5  -2   2   12.09    7.44   0
  -5   2  -2    8.66    4.79   0
   5  -2   2    4.70    6.59   0
  -5   2  -2    9.07    6.74   0
   6  -2   2   25.29    7.22   0
  -6   2  -2   28.69    7.48   0
   6  -2   2   14.81    5.74   0
  -6   2  -2   24.83    7.46   0
   7  -2   2    4.87    6.11   0
   7  -2   2    2.52    7.75   0
   8   1  -2   11.25    7.92   0
   8   1  -2    3.67    9.49   0
   8   1  -2   -1.56    5.84   0
  -8  -1   2    7.82    5.77   0
  -7  -1   2   10.05    5.46   0
   7   1  -2    5.81    5.25   0
   7   1  -2    8.59    8.66   0
   7   1  -2   17.54    5.46   0
  -6  -1   2   14.75    6.94   0
   6   1  -2   17.43    5.00   0
   6   1  -2   18.28    8.09   0
   6   1  -2    9.21    7.08   0
   5   1  -2  152.04    8.61   0
   5   1  -2  115.59    5.53   0
   5   1  -2  140.67    7.08   0
  -5  -1   2  151.48    7.42   0
  -4  -1   2    3.68    4.38   0
   4   1  -2    3.76    6.39   0
   4   1  -2    6.93    5.94   0
   4   1  -2   13.36    5.18   0
  -3  -1   2   29.10    6.68   0
   3   1  -2   28.85    6.56   0
   3   1  -2   29.61    5.74   0
   2   1  -2  312.15    9.10   0
  -2  -1   2  271.38    8.70   0
  -2  -1   2  272.91    7.37   0
   2   1  -2  272.09    9.06   0
   1   1  -2  371.00   13.37   0
   1   1  -2  329.95   10.59   0
  -1  -1   2  331.03   12.52   0
  -1  -1   2  337.24   10.63   0
   0  -1   2   16.06   11.12   0
   0  -1   2   17.72    5.91   0
   0   1  -2   15.36    5.91   0
   0   1  -2    9.83    8.18   0
  -1   1  -2  884.75   13.91   0
   1  -1   2 1002.79   15.03   0
   1  -1   2 1005.25   12.56   0
   2  -1   2  693.77   10.95   0
  -2   1  -2  713.22    9.98   0
   2  -1   2  683.94    9.49   0
  -2   1  -2  590.44    9.09   0
   3  -1   2  157.42    7.11   0
  -3   1  -2  138.91    7.02   0
  -3   1  -2  165.07    7.21   0
   3  -1   2  167.54    7.49   0
  -4   1  -2  382.55    8.67   0
   4  -1   2  358.57    7.17   0
  -4   1  -2  304.69    8.00   0
   4  -1   2  337.11    8.05   0
  -5   1  -2    4.31    4.65   0
  -5   1  -2   12.27    4.75   0
   5  -1   2   18.25    7.03   0
   5  -1   2   23.19    6.49   0
  -6   1  -2   11.89    7.03   0
   6  -1   2    7.97    5.48   0
   6  -1   2    9.31    4.85   0
  -6   1  -2   11.88    7.13   0
  -7   1  -2   -2.07    5.64   0
   7  -1   2   16.31    8.12   0
   7  -1   2   14.41    7.45   0
  -8   0   2    4.77    8.20   0
   8   0  -2    4.32    7.95   0
   8   0  -2   -2.37    9.23   0
   8   0  -2  -14.71    8.61   0
   7   0  -2   15.41    5.63   0
   7   0  -2    9.09    4.99   0
  -7   0   2   12.52    7.55   0
   7   0  -2   25.03    8.88   0
   6   0  -2    4.02    8.26   0
   6   0  -2   -3.97    6.54   0
  -6   0   2    3.60    6.80   0
   6   0  -2   -4.00    7.37   0
   5   0  -2   10.23    6.26   0
   5   0  -2   -0.85    5.58   0
  -5   0   2    9.59    6.45   0
   5   0  -2    1.13    6.73   0
   4   0  -2   90.28    7.03   0
   4   0  -2  116.38    8.19   0
  -4   0   2  102.46    6.86   0
   4   0  -2   95.63    5.10   0
  -3   0   2   37.36    4.69   0
   3   0  -2   50.89    6.08   0
   3   0  -2   35.25    7.13   0
   3   0  -2   40.81    6.24   0
  -2   0   2  319.48    7.69   0
   2   0  -2  344.10    9.67   0
   2   0  -2  337.08    9.14   0
   2   0  -2  275.32    8.11   0
   1   0  -2 1298.91   16.26   0
   1   0  -2 1330.46   23.03   0
  -1   0   2 1298.61   22.57   0
  -1   0   2 1292.58   16.22   0
   0   0   2  146.37   15.19   0
   0   0  -2  153.88   11.40   0
   0   0   2  165.33    8.94   0
   0   0  -2  117.57   17.00   0
   1   0   2 1492.73   16.48   0
  -1   0  -2 1306.05   18.85   0
   1   0   2 1419.82   20.20   0
  -2   0  -2  362.99    9.59   0
  -2   0  -2  434.83   10.33   0
   2   0   2  411.10   10.08   0
   2   0   2  429.86   10.06   0
   3   0   2   73.87    6.99   0
  -3   0  -2   71.19    7.04   0
  -3   0  -2   75.20    5.37   0
   3   0   2   72.11    5.38   0
  -4   0  -2  106.97    7.12   0
   4   0   2   98.94    6.72   0
  -4   0  -2   94.43    6.88   0
   4   0   2   85.57    5.27   0
  -5   0  -2  118.69    5.45   0
   5   0   2   94.38    5.38   0
   5   0   2  104.46    7.27   0
   6   0   2    4.53    5.49   0
   6   0   2    6.98    6.64   0
   6   0   2   10.27    4.88   0
  -6   0  -2   14.77    4.86   0
   7   0   2    4.48    7.33   0
  -7   0  -2    0.09    7.71   0
   7   0   2    3.86    8.60   0
   7   0   2    6.67    5.42   0
   8   0   2    4.32    9.43   0
   8   0   2    1.36    8.08   0
   8   0   2    3.15    6.07   0
  -8   0  -2   -1.01    6.05   0
   7  -1  -2    1.54    5.74   0
   7  -1  -2    9.73    9.00   0
   7  -1  -2    1.49    7.10   0
  -7   1   2   -1.53    7.51   0
  -6   1   2   16.28    4.89   0
   6  -1  -2   19.70    8.64   0
   6  -1  -2    4.33    5.44   0
   6  -1  -2   13.39    6.55   0
   5  -1  -2    3.46    4.52   0
   5  -1  -2    1.03    4.98   0
  -5   1   2    9.23    6.60   0
  -4   1   2  113.38    7.12   0
   4  -1  -2  105.89    6.69   0
  -4   1   2  103.45    7.23   0
   4  -1  -2  116.08    7.62   0
   3  -1  -2   54.84    4.69   0
   3  -1  -2   43.49    7.45   0
  -3   1   2   59.10    4.91   0
  -3   1   2   59.26    7.03   0
  -2   1   2    2.06    4.64   0
   2  -1  -2    3.97    5.24   0
  -2   1   2    2.50    6.69   0
   2  -1  -2    2.37    6.61   0
   1  -1  -2 1108.08   15.70   0
  -1   1   2 1076.50   14.65   0
   1  -1  -2 1081.85   17.16   0
  -1   1   2 1122.72   17.34   0
   0   1   2 2381.33   41.08   0
   0  -1  -2 1070.57   29.36   0
   0  -1  -2 2458.46   30.88   0
   0   1   2 2546.30   31.05   0
   1   1   2  392.99   12.75   0
   1   1   2  348.85   15.06   0
   1   1   2  401.28   14.44   0
  -1  -1  -2  373.55   15.32   0
   2   1   2 3251.99   21.98   0
  -2  -1  -2 3867.81   26.09   0
   2   1   2 3452.16   25.38   0
   2   1   2 3534.12   24.60   0
   3   1   2  763.21   11.22   0
   3   1   2  802.43   11.11   0
  -3  -1  -2  845.24   12.01   0
   3   1   2  735.26    9.92   0
   4   1   2    8.42    6.41   0
   4   1   2    1.93    4.67   0
   4   1   2   19.17    7.32   0
  -4  -1  -2    6.34    4.51   0
   5   1   2   10.53    5.27   0
  -5  -1  -2   15.00    5.06   0
   5   1   2   21.58    6.64   0
   5   1   2    4.84    4.78   0
   6   1   2   35.13    7.03   0
   6   1   2   48.46    8.08   0
  -6  -1  -2   28.80    7.40   0
   6   1   2   17.97    6.90   0
  -7  -1  -2    6.02    5.45   0
   7   1   2    9.60    8.35   0
   7   1   2    0.21    5.38   0
   7   1   2    2.78    4.96   0
   8   1   2   -3.48    9.02   0
   8   1   2    1.34    8.35   0
  -8  -1  -2    0.38    5.88   0
   8   1   2   23.85    7.55   0
   7  -2  -2    2.11    9.86   0
  -7   2   2    3.60    8.20   0
   7  -2  -2    4.30    7.89   0
   7  -2  -2   20.63    8.45   0
  -6   2   2   12.36    7.51   0
   6  -2  -2   22.12    7.17   0
   6  -2  -2    9.93    8.11   0
   5  -2  -2   36.23    6.94   0
  -5   2   2   38.49    5.18   0
   5  -2  -2   38.08    7.93   0
  -5   2   2   33.62    5.30   0
  -4   2   2   -0.79    4.77   0
   4  -2  -2    1.89    5.20   0
   4  -2  -2    0.05    6.50   0
  -4   2   2    5.53    6.86   0
  -3   2   2 1081.20   10.60   0
  -3   2   2 1007.00   11.38   0
   3  -2  -2  990.76   10.13   0
   3  -2  -2 1087.45   11.64   0
  -2   2   2  535.90    9.02   0
  -2   2   2  555.62   10.32   0
   2  -2  -2  548.23   10.78   0
   2  -2  -2  534.58    9.96   0
   1  -2  -2  394.30   11.01   0
   1  -2  -2  407.83   10.26   0
  -1   2   2  399.09    9.25   0
  -1   2   2  463.00   10.78   0
   0   2   2 2492.35   31.95   0
   0   2   2 2109.17   23.57   0
   0  -2  -2 1000.20   18.08   0
   0  -2  -2 2423.35   31.08   0
   1   2   2 1432.75   20.11   0
  -1  -2  -2 1787.36   21.60   0
  -2  -2  -2   81.04    9.01   0
   2   2   2   71.53    8.03   0
  -2  -2  -2   71.32    8.22   0
   2   2   2   70.93    6.69   0
  -3  -2  -2  265.36    7.38   0
   3   2   2  257.09    7.34   0
   3   2   2  268.01    8.11   0
   4   2   2   21.05    4.92   0
   4   2   2   29.18    7.83   0
   4   2   2   24.41    4.52   0
  -4  -2  -2   27.78    5.25   0
   5   2   2    8.32    4.46   0
  -5  -2  -2    3.22    6.73   0
   5   2   2   -3.61    6.54   0
   5   2   2   -0.55    5.42   0
   6   2   2   19.04    4.76   0
   6   2   2   30.31    7.97   0
   6   2   2   31.34    5.32   0
  -6  -2  -2   31.31    4.88   0
   7   2   2    7.89    7.08   0
  -7  -2  -2   -2.06    5.13   0
   7   2   2   11.07    8.35   0
   7   2   2    0.60    5.26   0
   8   2   2    4.99    7.83   0
   8   2   2   18.69    8.06   0
  -8  -2  -2    2.44    5.63   0
   8   2   2    1.42    6.49   0
   7  -3  -2    4.56    8.10   0
  -7   3   2    1.25    8.60   0
   7  -3  -2   -8.82    9.00   0
  -6   3   2   -0.96    5.49   0
   6  -3  -2    5.52    7.53   0
  -6   3   2   -1.90    7.92   0
   6  -3  -2    3.00    8.51   0
   5  -3  -2   61.21    7.16   0
  -5   3   2   72.32    5.50   0
  -5   3   2   46.77    5.59   0
   5  -3  -2   53.28    5.72   0
  -4   3   2   64.13    7.05   0
  -4   3   2   73.36    6.93   0
   4  -3  -2   56.62    4.95   0
   4  -3  -2   62.61    7.90   0
  -3   3   2   29.60    6.93   0
   3  -3  -2   23.65    4.94   0
  -3   3   2   27.23    6.72   0
   3  -3  -2   28.61    7.58   0
   2  -3  -2  621.58   10.90   0
   2  -3  -2  636.75   10.39   0
  -2   3   2  686.99    9.57   0
  -2   3   2  720.20   10.45   0
  -1   3   2 3871.71   24.35   0
  -1   3   2 3755.77   21.32   0
   1  -3  -2 3423.53   23.04   0
   1  -3  -2 2569.62   18.72   0
   0   3   2  605.65   14.09   0
   0  -3  -2  512.47   14.24   0
   0  -3  -2  220.71   10.02   0
   0   3   2  488.04   11.63   0
   1   3   2 1481.62   17.07   0
  -1  -3  -2 2911.47   21.55   0
  -2  -3  -2   67.81    9.56   0
   2   3   2   74.01    8.59   0
  -2  -3  -2   76.65    8.57   0
   2   3   2   70.83    9.46   0
   3   3   2    9.08    6.09   0
  -3  -3  -2   12.06    6.47   0
   3   3   2    4.77    7.89   0
  -3  -3  -2   14.54    5.69   0
   4   3   2  106.55    8.11   0
  -4  -3  -2   97.20    7.15   0
   4   3   2  100.78    6.87   0
  -4  -3  -2  114.88    6.33   0
   5   3   2   66.50    5.85   0
   5   3   2   54.68    5.20   0
   5   3   2   55.73    4.72   0
  -5  -3  -2   60.29    6.59   0
   6   3   2   87.60    5.65   0
   6   3   2   88.50    6.31   0
  -6  -3  -2  104.06    6.05   0
   6   3   2   88.38    7.46   0
   7   3   2   30.40    7.18   0
  -7  -3  -2   12.38    5.10   0
   7   3   2   17.20    6.00   0
   7   3   2   16.45    7.08   0
   8   3   2   29.66    7.67   0
   8   3   2   33.63    9.18   0
   8   3   2   20.46    5.87   0
  -8  -3  -2   21.84    8.21   0
   6  -4  -2    8.34    6.23   0
  -6   4   2    3.55    8.28   0
  -6   4   2   14.96    8.27   0
   6  -4  -2   13.36    5.62   0
  -5   4   2   12.52    7.38   0
   5  -4  -2    9.35    5.99   0
  -5   4   2    9.06    5.32   0
   5  -4  -2   13.89    7.23   0
   4  -4  -2  104.87    6.52   0
  -4   4   2  113.76    5.97   0
  -4   4   2  126.46    5.92   0
   4  -4  -2  114.37    7.20   0
   3  -4  -2   26.50    4.89   0
  -3   4   2   36.66    7.07   0
  -3   4   2   30.28    7.27   0
   3  -4  -2   32.86    8.10   0
   2  -4  -2  131.65    8.45   0
  -2   4   2  151.54    7.67   0
   2  -4  -2  128.88    7.24   0
  -2   4   2  159.61    7.74   0
  -1   4   2   13.42    7.55   0
   1  -4  -2   14.17    6.02   0
  -1   4   2   16.70    6.63   0
   1  -4  -2    3.47    8.25   0
   0  -4  -2  237.89    9.26   0
   0  -4  -2  117.75    9.26   0
   0  -4  -2  269.86    8.64   0
   0   4   2  223.62    9.28   0
   1   4   2  168.65    9.70   0
  -1  -4  -2  371.34   15.05   0
  -1  -4  -2  390.30    9.01   0
  -1  -4  -2  216.62   12.44   0
  -2  -4  -2  600.67   11.53   0
   2   4   2  451.06   15.66   0
  -2  -4  -2  503.87   16.79   0
   2   4   2  432.14   10.58   0
  -3  -4  -2  488.76   12.50   0
  -3  -4  -2  532.65   10.75   0
   3   4   2  500.85   12.33   0
   3   4   2  485.49    8.71   0
  -4  -4  -2   49.43    5.73   0
   4   4   2   43.37    6.53   0
  -4  -4  -2   49.88    6.92   0
   4   4   2   45.08    7.69   0
  -5  -4  -2   70.90    6.81   0
   5   4   2   69.26    8.17   0
  -5  -4  -2   77.85    5.89   0
   5   4   2   63.19    6.67   0
  -6  -4  -2   50.81    5.51   0
   6   4   2   45.91    7.21   0
   6   4   2   52.03    5.27   0
   6   4   2   64.35    8.29   0
  -7  -4  -2   -0.19    7.67   0
   7   4   2   -1.00    5.13   0
   7   4   2   -1.22    5.87   0
   7   4   2    6.33    7.44   0
  -8  -4  -2   60.86    6.10   0
   8   4   2   53.47    6.22   0
   8   4   2   61.86    9.28   0
   8   4   2   55.50    7.93   0
   5  -5  -2    9.78    7.61   0
  -5   5   2    8.20    5.68   0
   5  -5  -2   -7.14    8.46   0
  -5   5   2   14.62    5.61   0
   4  -5  -2   26.16    7.02   0
  -4   5   2   22.90    5.35   0
  -4   5   2   41.10    7.32   0
   4  -5  -2   32.00    8.76   0
  -3   5   2  147.31    7.78   0
   3  -5  -2  121.32    7.30   0
   3  -5  -2  122.87    8.08   0
  -3   5   2  129.36    7.78   0
  -2   5   2   69.28    5.49   0
  -2   5   2   64.83    5.42   0
   2  -5  -2   54.11    4.87   0
   2  -5  -2   41.43    8.59   0
   1  -5  -2  173.56    8.95   0
  -1   5   2  391.78    7.61   0
   1  -5  -2  356.63    9.52   0
   1  -5  -2  387.17    8.64   0
   0   5   2  278.04    7.04   0
   0  -5  -2  259.62    9.32   0
   0  -5  -2  142.38    8.11   0
   0  -5  -2  304.76    8.79   0
  -1  -5  -2   78.43    8.59   0
   1   5   2   84.69    6.39   0
  -1  -5  -2  162.14   10.47   0
  -1  -5  -2  133.32    8.71   0
  -2  -5  -2    2.96    9.35   0
  -2  -5  -2    8.27    7.74   0
   2   5   2    3.41    8.07   0
   2   5   2    3.62    8.68   0
  -3  -5  -2    5.78    8.05   0
  -3  -5  -2    5.89    7.12   0
   3   5   2    2.94    7.74   0
   3   5   2    0.18    5.34   0
  -4  -5  -2  108.04    8.41   0
   4   5   2  103.51    9.01   0
  -4  -5  -2   99.19    8.99   0
   4   5   2  103.96    6.21   0
   5   5   2    4.40    7.71   0
  -5  -5  -2    5.78    6.77   0
   5   5   2    1.78    6.57   0
  -5  -5  -2   13.51    7.68   0
  -6  -5  -2   42.97    7.41   0
   6   5   2   51.40    8.18   0
   6   5   2   48.34    6.78   0
  -6  -5  -2   57.07    8.59   0
   7   5   2    5.41    5.95   0
  -7  -5  -2    6.18    7.66   0
   7   5   2   -0.55    7.25   0
   7   5   2   -7.12    6.71   0
  -8  -5  -2   -1.93    5.82   0
   8   5   2    2.66    5.45   0
   8   5   2   -2.16    6.50   0
   8   5   2    2.79    7.63   0
   5  -6  -2   -1.40    5.07   0
   5  -6  -2    0.26    6.63   0
   5  -6  -2    6.24    8.07   0
  -5   6   2    8.30    8.58   0
   4  -6  -2   11.62    7.55   0
  -4   6   2    5.26    5.59   0
   4  -6  -2   -9.13    5.82   0
   3  -6  -2   52.89    7.10   0
   3  -6  -2   49.39    5.30   0
  -3   6   2   56.59    7.47   0
   3  -6  -2   27.36    6.29   0
  -2   6   2   84.21    7.46   0
   2  -6  -2   68.19    6.75   0
   2  -6  -2   62.44    7.32   0
   2  -6  -2   43.36    8.12   0
   1  -6  -2    0.96    6.80   0
   1  -6  -2   -1.20    5.74   0
  -1   6   2    4.02    5.37   0
   1  -6  -2    3.92    6.25   0
   0  -6  -2   45.25    6.43   0
   0   6   2   28.50    8.49   0
   0  -6  -2   38.28    6.65   0
   0  -6  -2   30.65    8.47   0
  -1  -6  -2  260.79    9.30   0
  -1  -6  -2  288.35   11.41   0
   1   6   2  211.83    9.07   0
  -1  -6  -2  133.59    7.66   0
  -2  -6  -2    2.11    7.79   0
  -2  -6  -2    6.79    7.69   0
  -2  -6  -2    0.91    9.38   0
   2   6   2    1.61    5.57   0
   3   6   2  124.26    8.71   0
  -3  -6  -2  158.22   10.18   0
  -3  -6  -2  193.16    6.79   0
   3   6   2  182.92   11.03   0
  -4  -6  -2   58.96    8.04   0
   4   6   2   47.01    5.85   0
   4   6   2   39.26    7.77   0
  -4  -6  -2   53.40    8.37   0
  -5  -6  -2   -7.77    8.05   0
  -5  -6  -2    0.73    6.89   0
   5   6   2    1.15    8.43   0
   5   6   2    1.81    7.98   0
  -6  -6  -2    6.42    7.25   0
   6   6   2    7.84    5.96   0
   6   6   2    7.72    6.92   0
  -6  -6  -2    9.17    8.35   0
  -7  -6  -2    9.62    7.44   0
   7   6   2   -0.98    6.19   0
   7   6   2   -4.68    7.11   0
  -8  -6  -2   10.24    8.38   0
   8   6   2   -2.98    8.02   0
   8   6   2    6.51    8.90   0
   8   6   2    3.12    7.89   0
   4  -7  -2    5.11    5.28   0
   4  -7  -2    6.62    6.70   0
  -4   7   2    1.30    8.65   0
   4  -7  -2   17.00    8.25   0
   3  -7  -2   11.57    5.08   0
   3  -7  -2   17.89    6.23   0
  -3   7   2   21.03    7.78   0
   3  -7  -2    9.40    5.09   0
   2  -7  -2   26.55    6.81   0
   2  -7  -2    6.86    5.78   0
   2  -7  -2   27.88    7.28   0
  -2   7   2   30.12    7.65   0
   1  -7  -2   60.62    7.40   0
  -1   7   2   71.23    8.10   0
   1  -7  -2   32.44    5.78   0
   1  -7  -2   84.04    7.35   0
   0   7   2   13.79    7.97   0
   0  -7  -2    8.59    8.08   0
   0  -7  -2    1.51    7.13   0
   0  -7  -2    2.71    6.60   0
   1   7   2  205.87    9.24   0
  -1  -7  -2  228.14   10.95   0
  -1  -7  -2   91.21    7.38   0
  -1  -7  -2  220.41    6.92   0
  -2  -7  -2  124.01   11.63   0
   2   7   2   47.79    8.20   0
  -2  -7  -2  115.47    8.30   0
  -2  -7  -2  109.01   11.07   0
  -3  -7  -2   16.55    9.70   0
  -3  -7  -2   13.82    5.76   0
   3   7   2    8.17    5.63   0
   3   7   2   13.44    9.06   0
  -4  -7  -2   79.42    9.30   0
   4   7   2   47.27    8.52   0
  -4  -7  -2  103.62    8.51   0
   4   7   2   85.39    8.96   0
   5   7   2    9.50    7.74   0
  -5  -7  -2   12.21    7.11   0
  -5  -7  -2    7.44    5.96   0
   5   7   2   13.58    8.27   0
   6   7   2    7.83    8.54   0
  -6  -7  -2    3.18    5.84   0
   6   7   2    1.37    8.53   0
  -6  -7  -2    4.09    7.39   0
  -7  -7  -2   10.66    9.10   0
   7   7   2    7.40    6.33   0
   7   7   2   -0.27    7.41   0
  -7  -7  -2   -0.79    8.06   0
   8   7   2   -0.99    6.69   0
  -8  -7  -2    4.03    5.80   0
   8   7   2    1.93    7.99   0
   3  -8  -2   11.76    8.16   0
  -3   8   2   28.24    8.81   0
   3  -8  -2    2.92    7.57   0
   3  -8  -2   14.46    9.12   0
   2  -8  -2   12.39    7.63   0
   2  -8  -2   -0.82    5.96   0
   2  -8  -2   12.57    5.02   0
  -2   8   2    8.70    5.82   0
   1  -8  -2  141.06    7.92   0
   1  -8  -2   81.60    8.83   0
  -1   8   2  161.08    6.26   0
   1  -8  -2  113.58    8.56   0
   0  -8  -2   15.57    7.19   0
   0  -8  -2   16.35    6.81   0
   0  -8  -2   10.19    8.16   0
   0   8   2   11.92    7.95   0
  -1  -8  -2    6.96    7.97   0
   1   8   2   13.98    8.08   0
  -1  -8  -2   19.92    8.56   0
  -1  -8  -2   14.57    8.28   0
   2   8   2   44.81    8.32   0
  -2  -8  -2   42.47    6.07   0
  -2  -8  -2   48.14   10.43   0
  -2  -8  -2   54.33   10.53   0
  -3  -8  -2   89.51   13.51   0
  -3  -8  -2   71.59   12.95   0
   3   8   2   36.84    8.13   0
  -3  -8  -2   97.66    8.37   0
  -4  -8  -2    1.83   10.27   0
   4   8   2   -4.61    8.17   0
   4   8   2    0.32    9.57   0
  -4  -8  -2   -1.17    8.22   0
   5   8   2   38.81    8.73   0
  -5  -8  -2   39.39    9.43   0
  -5  -8  -2   44.26    8.92   0
   5   8   2   31.78    8.43   0
  -6  -8  -2   22.86    8.89   0
  -6  -8  -2   -2.70    7.71   0
   6   8   2    7.03    8.62   0
   6   8   2    9.69    8.67   0
  -7  -8  -2    7.45    6.41   0
  -7  -8  -2    3.61    8.20   0
   7   8   2   -2.32    7.43   0
   7   8   2   -4.20    9.10   0
   2  -9  -2    5.67    8.88   0
  -2   9   2   15.70    8.82   0
   1  -9  -2    9.40    8.01   0
   1  -9  -2    0.82    7.78   0
   1  -9  -2   -3.81    9.30   0
  -1   9   2   17.55    6.23   0
   0  -9  -2   59.49    7.47   0
   0  -9  -2   71.19    8.97   0
   0   9   2   80.93    6.34   0
   0  -9  -2   64.90    8.47   0
   1   9   2   43.88    6.14   0
  -1  -9  -2   44.33    6.08   0
  -1  -9  -2   36.38    9.65   0
  -1  -9  -2   36.01    9.05   0
  -2  -9  -2   32.72    8.47   0
   2   9   2   33.22    8.47   0
  -2  -9  -2   25.31   10.86   0
  -2  -9  -2   23.83   12.27   0
  -3  -9  -2   71.09    6.59   0
   3   9   2   20.53    8.29   0
  -4  -9  -2    6.21    6.15   0
   4   9   2    5.37    6.04   0
  -5  -9  -2    4.10    5.91   0
   5   9   2    1.42    8.46   0
   5   9   2   -1.28   10.27   0
  -5  -9  -2    0.52   10.96   0
  -6  -9  -2   -4.26    9.53   0
   6   9   2    5.06    9.31   0
   6   9   2   -4.69    9.00   0
  -6  -9  -2    9.69   10.07   0
  -7  -9  -2    1.55    8.91   0
   7   9   2    2.37    7.84   0
   7   9   2    9.55    6.79   0
  -7  -9  -2    1.07    9.91   0
   0 -10  -2    9.11    8.04   0
   0 -10  -2    8.61   10.53   0
   0  10   2   12.37    6.53   0
   0 -10  -2  -12.84    9.61   0
  -1 -10  -2   26.14   10.27   0
  -1 -10  -2   33.90    9.83   0
  -1 -10  -2   34.02    9.36   0
   1  10   2   41.13    8.84   0
  -2 -10  -2    0.97   13.02   0
  -2 -10  -2    8.50    6.49   0
   2  10   2   -2.38    6.15   0
  -2 -10  -2    4.68   13.86   0
   3  10   2   14.57    8.84   0
  -3 -10  -2   -1.98    6.19   0
   4  10   2   10.27    8.98   0
  -4 -10  -2   -0.89    8.89   0
  -5 -10  -2   10.94    9.48   0
   5  10   2    7.65    8.88   0
   6  10   2    3.62   16.99   0
   6  10   2   -6.25    9.24   0
   4  10  -3   -2.92    9.17   0
   4  10  -3    7.98    7.78   0
  -4 -10   3   -4.72    6.46   0
  -3 -10   3    8.00    6.81   0
   3  10  -3    8.13    9.39   0
  -3 -10   3   -0.00    8.20   0
   2  10  -3   14.98    9.40   0
  -2 -10   3   12.06    9.37   0
  -2 -10   3    8.99    9.16   0
  -2 -10   3    6.25    8.63   0
   6   9  -3   -1.24    6.26   0
  -6  -9   3   -4.99    9.10   0
   6   9  -3    1.02    7.82   0
  -6  -9   3    3.23    8.33   0
   5   9  -3    4.91    7.65   0
   5   9  -3   19.75    8.64   0
  -5  -9   3    5.75    8.49   0
  -5  -9   3    2.96    8.10   0
   4   9  -3   -0.15    8.40   0
  -4  -9   3   -6.39    5.89   0
   4   9  -3    7.54    7.39   0
  -4  -9   3    9.01    7.80   0
  -3  -9   3   45.17    8.05   0
  -3  -9   3   37.57    6.10   0
   3   9  -3   32.71    7.50   0
   3   9  -3   38.59    8.66   0
   2   9  -3   18.08    8.48   0
  -2  -9   3    4.79    7.60   0
  -2  -9   3    8.26    8.70   0
   1   9  -3   22.30    6.35   0
  -1  -9   3   21.87    8.19   0
  -1  -9   3   16.06    6.29   0
  -1  -9   3   15.60    5.46   0
   0  -9   3  117.25    9.02   0
   0   9  -3   95.29    8.45   0
   0  -9   3   75.14    7.99   0
   0  -9   3   88.65    6.64   0
   1  -9   3    7.45    8.23   0
   1  -9   3   11.57    8.61   0
   1  -9   3   13.64   10.03   0
  -1   9  -3   15.98    9.03   0
   7   8  -3    1.63    6.56   0
  -7  -8   3   -9.97    8.21   0
   7   8  -3    2.86    7.79   0
  -7  -8   3   -3.55    9.46   0
  -6  -8   3   -1.76    7.69   0
  -6  -8   3   -2.36    8.79   0
   6   8  -3    3.68    7.30   0
   6   8  -3   10.08    8.93   0
   5   8  -3    5.55    6.84   0
   5   8  -3   23.58    8.28   0
  -5  -8   3    5.40    7.30   0
  -5  -8   3    4.57    8.16   0
   4   8  -3   21.58    5.80   0
  -4  -8   3   16.46    5.77   0
   4   8  -3   24.35    7.08   0
  -4  -8   3   21.99    7.20   0
   3   8  -3    5.24    6.78   0
  -3  -8   3    5.28    7.02   0
   3   8  -3   -1.97    5.41   0
  -3  -8   3   11.44    5.71   0
   2   8  -3  120.08    8.48   0
  -2  -8   3  103.54    7.52   0
  -2  -8   3  121.60    6.62   0
   2   8  -3  147.85    7.70   0
  -1  -8   3   36.74    7.89   0
   1   8  -3   22.08    8.11   0
  -1  -8   3   31.06    5.97   0
  -1  -8   3   26.15    5.02   0
   0  -8   3   37.86    5.94   0
   0  -8   3   47.66    7.88   0
   0   8  -3   37.74    8.28   0
   0  -8   3   40.70    7.33   0
   1  -8   3   80.18    6.26   0
   1  -8   3  107.50    7.61   0
  -1   8  -3   77.67    6.24   0
   1  -8   3  110.81    8.35   0
   2  -8   3   41.73    7.83   0
   2  -8   3   43.21    8.45   0
   2  -8   3   17.69    6.09   0
  -2   8  -3   50.13    8.32   0
  -7  -7   3    9.55    7.97   0
   7   7  -3    2.32    9.14   0
   7   7  -3    0.15    7.33   0
  -7  -7   3    9.09    6.55   0
  -6  -7   3    3.59    7.30   0
   6   7  -3    7.75    6.68   0
  -6  -7   3    5.67    8.45   0
   6   7  -3    7.33    8.50   0
  -5  -7   3   19.32    6.96   0
   5   7  -3   17.45    6.55   0
   5   7  -3   12.23    6.02   0
  -5  -7   3   11.72    8.17   0
  -4  -7   3    5.98    5.40   0
   4   7  -3   -5.56    7.81   0
   4   7  -3    5.46    6.51   0
  -4  -7   3    2.94    6.91   0
  -3  -7   3    6.66    7.20   0
   3   7  -3    5.26    6.48   0
  -3  -7   3    8.26    7.51   0
   3   7  -3    2.16    5.40   0
  -2  -7   3   -5.05    5.45   0
   2   7  -3    6.36    7.62   0
  -2  -7   3    3.95    6.50   0
   2   7  -3    6.40    6.52   0
   1   7  -3  141.45    6.17   0
   1   7  -3  165.05    5.82   0
  -1  -7   3  120.77    7.15   0
  -1  -7   3  166.44    8.52   0
   0   7  -3   67.88    7.84   0
   0  -7   3   85.75    7.12   0
   0  -7   3  112.64    8.04   0
   0  -7   3   78.08    8.18   0
   1  -7   3   58.05    8.45   0
  -1   7  -3   56.12    5.73   0
   1  -7   3   95.71    7.72   0
   1  -7   3   83.80    7.61   0
   2  -7   3   78.70    6.03   0
   2  -7   3   77.14    7.36   0
   2  -7   3   34.88    5.92   0
  -2   7  -3   59.35    5.56   0
   3  -7   3   28.29    8.09   0
  -3   7  -3    4.64    8.03   0
   3  -7   3   20.22    7.51   0
   3  -7   3   11.70    8.46   0
  -8  -6   3    7.92    5.65   0
   8   6  -3    8.60    9.28   0
   8   6  -3    7.88    5.69   0
  -7  -6   3   11.10    7.79   0
  -7  -6   3   20.28    8.86   0
   7   6  -3   28.01    9.12   0
   7   6  -3    6.91    7.51   0
  -6  -6   3   -1.59    5.86   0
  -6  -6   3   -0.91    7.03   0
   6   6  -3   16.61    8.31   0
   6   6  -3   -2.61    6.82   0
  -5  -6   3   -0.27    5.53   0
   5   6  -3   10.21    7.89   0
  -5  -6   3    9.15    6.89   0
   5   6  -3    7.98    6.63   0
   4   6  -3   53.11    6.53   0
   4   6  -3   74.27    6.07   0
  -4  -6   3   60.12    5.86   0
  -4  -6   3   89.84    7.13   0
   3   6  -3  113.03    6.01   0
  -3  -6   3  118.24    5.72   0
   3   6  -3  132.84    7.20   0
  -3  -6   3  175.94    7.70   0
  -2  -6   3  128.61    8.05   0
   2   6  -3   82.14    8.04   0
  -2  -6   3  101.40    6.94   0
   2   6  -3  157.92    7.18   0
   1   6  -3  170.85    6.51   0
   1   6  -3  221.08    6.01   0
  -1  -6   3  148.97    7.02   0
  -1  -6   3  193.94    6.33   0
   0  -6   3   36.06    6.43   0
   0   6  -3   41.74    7.70   0
   0  -6   3   23.19    8.06   0
   1  -6   3   49.43    8.02   0
   1  -6   3   73.09    7.41   0
   1  -6   3   81.53    4.91   0
  -1   6  -3   49.54    7.44   0
   2  -6   3   11.35    5.54   0
   2  -6   3    8.13    6.67   0
   2  -6   3   15.68    7.30   0
  -2   6  -3    7.52    7.16   0
   3  -6   3  135.76    7.97   0
   3  -6   3   88.65    6.60   0
   3  -6   3  145.28    7.35   0
  -3   6  -3  106.80    5.96   0
   4  -6   3   10.72    7.22   0
   4  -6   3    9.80    7.66   0
  -4   6  -3   -5.06    8.05   0
   4  -6   3    5.35    6.22   0
   8   5  -3   19.03    9.16   0
   8   5  -3    0.45    5.86   0
   8   5  -3   10.74    8.04   0
  -8  -5   3   21.88    8.57   0
   7   5  -3    5.69    5.88   0
  -7  -5   3    2.01    7.57   0
  -7  -5   3    6.91    6.33   0
   7   5  -3    4.26    7.25   0
   6   5  -3   93.30    6.63   0
  -6  -5   3  100.18    7.34   0
  -6  -5   3   83.99    8.43   0
   6   5  -3   81.05    5.50   0
   5   5  -3  131.78    6.45   0
  -5  -5   3  108.13    5.48   0
   5   5  -3  118.32    7.25   0
  -5  -5   3  115.42    8.77   0
  -4  -5   3  108.23    7.76   0
   4   5  -3  108.84    6.93   0
  -4  -5   3  126.05    7.24   0
   4   5  -3  143.06    8.39   0
  -3  -5   3  380.10    8.22   0
   3   5  -3  259.09    6.31   0
   3   5  -3  314.65    7.48   0
  -3  -5   3  283.82    6.94   0
   2   5  -3   53.64    6.40   0
   2   5  -3   45.34    7.89   0
  -2  -5   3   48.73    7.67   0
  -2  -5   3   44.80    6.33   0
   1   5  -3    3.94    5.80   0
   1   5  -3    4.07    5.87   0
  -1  -5   3  -12.15    7.94   0
  -1  -5   3    3.15    5.99   0
   0  -5   3  884.53   10.02   0
   0   5  -3  888.41   10.07   0
   0   5  -3  610.83    8.51   0
   0  -5   3  577.02    8.51   0
   1  -5   3   54.37    7.88   0
  -1   5  -3   53.06    5.29   0
   1  -5   3  123.28    7.37   0
   1  -5   3  114.73    6.47   0
  -2   5  -3  325.51    6.66   0
   2  -5   3  442.13    8.82   0
   2  -5   3  286.09    7.08   0
   2  -5   3  446.49    8.15   0
   3  -5   3    4.08    6.89   0
  -3   5  -3    6.19    6.99   0
   3  -5   3  -10.40    7.79   0
   3  -5   3   -1.44    6.34   0
  -4   5  -3    4.30    5.38   0
   4  -5   3   14.70    6.80   0
   4  -5   3    1.77    8.32   0
   4  -5   3    7.15    5.09   0
   5  -5   3   -0.91    7.20   0
   5  -5   3   10.01    8.67   0
   5  -5   3   -3.03    5.52   0
  -5   5  -3    3.32    5.67   0
  -8  -4   3    8.36    5.63   0
   8   4  -3    6.91    8.11   0
   8   4  -3    6.30    5.52   0
   8   4  -3    9.88    9.12   0
   7   4  -3   17.00    7.04   0
   7   4  -3    4.88    5.14   0
  -7  -4   3    8.07    7.05   0
   7   4  -3    3.40    5.83   0
  -6  -4   3    0.63    6.62   0
  -6  -4   3   11.43    7.91   0
   6   4  -3    5.08    7.94   0
   6   4  -3   -2.92    4.60   0
  -5  -4   3   33.92    6.60   0
   5   4  -3   25.39    8.05   0
  -5  -4   3   16.80    7.84   0
   5   4  -3   24.96    6.62   0
   4   4  -3  158.33    7.40   0
  -4  -4   3  158.28    8.28   0
   4   4  -3  183.65    8.60   0
  -4  -4   3  164.53    7.39   0
  -3  -4   3   -4.72    6.56   0
   3   4  -3   -3.48    4.57   0
   3   4  -3    8.32    5.53   0
  -3  -4   3    2.71    7.34   0
  -2  -4   3  404.42    9.21   0
   2   4  -3  422.02    7.36   0
   2   4  -3  446.44    9.85   0
  -2  -4   3  490.19    8.91   0
  -1  -4   3  253.28    7.73   0
  -1  -4   3  319.20    7.31   0
   1   4  -3  381.92    8.36   0
   1   4  -3  198.60    8.58   0
   0   4  -3  131.69    6.84   0
   0   4  -3   84.56    5.93   0
   0  -4   3  135.34    7.19   0
   0  -4   3   70.20    7.82   0
   1  -4   3  277.73    9.16   0
   1  -4   3  495.16    8.46   0
  -1   4  -3  229.03    8.11   0
   1  -4   3  527.98    9.27   0
   2  -4   3  384.13    7.47   0
   2  -4   3  482.06    7.68   0
  -2   4  -3  349.65    8.38   0
   2  -4   3  480.37    8.38   0
   3  -4   3  207.98    8.68   0
   3  -4   3  192.23    5.96   0
  -3   4  -3  159.23    5.69   0
   3  -4   3  189.21    7.17   0
   4  -4   3  381.72    9.55   0
  -4   4  -3  338.55    6.85   0
   4  -4   3  446.09    8.35   0
   4  -4   3  398.37    7.22   0
  -5   4  -3   14.37    5.44   0
   5  -4   3   22.64    7.33   0
   5  -4   3   23.48    8.19   0
   5  -4   3   13.28    6.80   0
   6  -4   3   19.84    6.46   0
   6  -4   3   25.60    8.20   0
  -6   4  -3   20.17    8.28   0
   6  -4   3   33.77    7.54   0
  -8  -3   3   15.09    8.02   0
   8   3  -3    4.58    8.20   0
   8   3  -3    0.36    7.62   0
   8   3  -3    3.52    9.35   0
   7   3  -3   12.20    7.79   0
   7   3  -3   13.43    7.10   0
   7   3  -3    8.54    8.90   0
  -7  -3   3    9.67    7.42   0
   6   3  -3   12.34    6.97   0
  -6  -3   3    0.90    4.55   0
   6   3  -3   -3.58    6.54   0
   6   3  -3   11.74    7.98   0
  -5  -3   3   37.78    6.71   0
   5   3  -3   44.92    8.21   0
  -5  -3   3   37.74    5.61   0
   5   3  -3   31.97    5.10   0
  -4  -3   3   57.59    5.76   0
   4   3  -3   49.96    5.68   0
   4   3  -3   53.11    6.69   0
  -4  -3   3   48.86    6.55   0
  -3  -3   3   19.99    5.31   0
   3   3  -3   24.93    5.67   0
   3   3  -3   20.03    4.89   0
  -3  -3   3   25.58    6.59   0
   2   3  -3  142.30    6.80   0
   2   3  -3  103.52    7.15   0
  -2  -3   3  133.75    7.50   0
  -2  -3   3  116.40    6.29   0
   1   3  -3  417.36    8.93   0
  -1  -3   3  430.49   10.36   0
  -1  -3   3  366.79    8.74   0
   1   3  -3  274.91    9.56   0
   0   3  -3  104.04    5.36   0
   0  -3   3  109.84    5.60   0
   0  -3   3   55.95    6.17   0
   0   3  -3   74.15    8.60   0
   1  -3   3  146.88    8.39   0
   1  -3   3  237.19    7.23   0
  -1   3  -3  105.38    7.81   0
   2  -3   3  599.74    8.51   0
   2  -3   3  636.55    7.69   0
   2  -3   3  701.71    9.62   0
  -2   3  -3  491.88    9.00   0
   3  -3   3  119.88    5.30   0
   3  -3   3  132.17    6.47   0
  -3   3  -3  114.12    5.45   0
   3  -3   3  127.73    6.14   0
   4  -3   3   26.75    5.71   0
  -4   3  -3   12.87    7.03   0
   4  -3   3   23.42    6.30   0
   4  -3   3   16.87    6.89   0
   5  -3   3  180.13    6.42   0
   5  -3   3  156.81    6.01   0
  -5   3  -3  166.75    7.91   0
   5  -3   3  196.98    7.30   0
   6  -3   3    9.06    8.03   0
  -6   3  -3   14.11    7.63   0
   6  -3   3   16.87    5.63   0
   6  -3   3    3.36    5.21   0
   8   2  -3   13.60    9.35   0
  -8  -2   3    5.86    5.63   0
   8   2  -3    0.78    5.83   0
   8   2  -3    3.68    5.35   0
   7   2  -3   11.37    6.25   0
  -7  -2   3    5.78    5.19   0
   7   2  -3    7.96    7.35   0
   7   2  -3    4.82    7.72   0
  -6  -2   3   25.18    5.09   0
   6   2  -3   22.94    6.08   0
   6   2  -3   17.17    5.17   0
   6   2  -3   27.36    7.04   0
  -5  -2   3    5.04    4.59   0
   5   2  -3    1.85    4.69   0
   5   2  -3    3.66    6.49   0
   5   2  -3   -0.23    5.53   0
  -4  -2   3   71.12    5.06   0
   4   2  -3   90.15    6.71   0
  -4  -2   3   73.72    6.01   0
   4   2  -3   88.70    7.94   0
   3   2  -3  151.70    7.48   0
  -3  -2   3  144.64    7.36   0
  -3  -2   3  144.56    8.57   0
   3   2  -3  174.41    8.69   0
  -2  -2   3  288.00    7.03   0
   2   2  -3  264.61    8.33   0
   2   2  -3  329.51   10.42   0
  -2  -2   3  262.80    8.13   0
   1   2  -3  400.78    9.71   0
  -1  -2   3  300.42    8.70   0
  -1  -2   3  357.87    9.03   0
   1   2  -3  339.76    7.67   0
   0   2  -3 2148.98   18.24   0
   0   2  -3 3467.13   19.79   0
   0  -2   3 3349.40   18.96   0
   0  -2   3 1599.61   16.48   0
   1  -2   3   80.66    6.47   0
  -1   2  -3   99.84    6.80   0
  -1   2  -3   66.83    5.94   0
   1  -2   3   99.32    5.36   0
   2  -2   3 1236.54   13.07   0
   2  -2   3 1199.67   10.95   0
   2  -2   3 1334.21   12.11   0
  -2   2  -3  993.58   11.28   0
  -3   2  -3  392.42    8.58   0
   3  -2   3  447.21    8.03   0
   3  -2   3  460.54    7.39   0
   3  -2   3  465.84    9.43   0
  -4   2  -3    5.00    6.51   0
   4  -2   3   -3.52    7.25   0
   4  -2   3   -0.87    6.29   0
  -5   2  -3    3.09    4.88   0
   5  -2   3    5.45    4.53   0
   5  -2   3    5.15    5.41   0
   6  -2   3    9.84    5.08   0
   6  -2   3   13.71    7.84   0
  -6   2  -3    1.51    5.26   0
   7  -2   3   11.77    5.15   0
  -7   2  -3   11.22    8.01   0
   7  -2   3    2.92    6.31   0
   7  -2   3   12.18    7.69   0
  -8  -1   3    3.98    5.69   0
   8   1  -3    2.53    6.66   0
   8   1  -3    0.47    7.64   0
   8   1  -3   12.66    8.37   0
  -7  -1   3   -5.65    7.35   0
   7   1  -3   -1.72    5.48   0
   7   1  -3    8.72    6.22   0
   7   1  -3   -6.89    7.08   0
  -6  -1   3   -3.52    4.78   0
   6   1  -3    9.45    5.73   0
   6   1  -3   -1.71    7.59   0
   6   1  -3   -1.62    4.62   0
  -5  -1   3   20.14    6.58   0
   5   1  -3   25.75    7.16   0
   5   1  -3   24.78    4.58   0
   5   1  -3   22.78    5.74   0
   4   1  -3   43.05    7.63   0
  -4  -1   3   42.97    6.31   0
   4   1  -3   35.33    4.65   0
   4   1  -3   41.36    6.28   0
  -3  -1   3  541.35    9.28   0
   3   1  -3  620.92   11.45   0
   3   1  -3  566.42    9.36   0
  -3  -1   3  559.19   11.07   0
  -2  -1   3  685.53    9.50   0
  -2  -1   3  655.30   12.75   0
   2   1  -3  710.78   10.72   0
   2   1  -3  770.47   13.18   0
   1   1  -3  409.25   13.05   0
   1   1  -3  343.28    8.36   0
  -1  -1   3  363.43    8.48   0
  -1  -1   3  348.20   11.67   0
   0   1  -3  159.13    6.55   0
   0   1  -3   96.38    8.55   0
   0  -1   3   81.80   11.58   0
   0  -1   3  154.90    8.58   0
   1  -1   3 1367.41   15.07   0
  -1   1  -3 1396.33   12.55   0
   1  -1   3 1457.18   13.74   0
  -1   1  -3 1154.72   14.72   0
   2  -1   3  223.67    5.84   0
   2  -1   3  248.08    8.11   0
  -2   1  -3  190.83    8.50   0
   2  -1   3  234.30    9.03   0
  -3   1  -3  228.59    6.29   0
   3  -1   3  261.34    7.51   0
   3  -1   3  258.21    6.63   0
   4  -1   3  200.55    5.80   0
  -4   1  -3  234.49    7.97   0
  -4   1  -3  176.25    6.04   0
   4  -1   3  222.01    6.25   0
  -5   1  -3   14.26    5.00   0
   5  -1   3   16.89    6.68   0
   5  -1   3   23.61    5.35   0
  -5   1  -3   19.48    4.85   0
   6  -1   3   15.27    7.53   0
  -6   1  -3   11.87    6.99   0
   6  -1   3   17.76    6.98   0
  -6   1  -3   20.40    7.23   0
   7  -1   3    0.14    8.21   0
   7  -1   3    1.96    5.41   0
   8   0  -3   -4.38    6.25   0
   8   0  -3    2.49    7.04   0
  -8   0   3    6.81    8.22   0
   8   0  -3    3.59    5.57   0
   7   0  -3    4.72    7.72   0
  -7   0   3    7.25    7.28   0
   7   0  -3   -4.91    6.76   0
   7   0  -3   15.07    7.20   0
  -6   0   3    4.54    4.69   0
   6   0  -3    5.82    8.23   0
   6   0  -3    7.38    6.49   0
   6   0  -3   -1.01    7.38   0
   5   0  -3   94.83    5.19   0
   5   0  -3  111.76    6.30   0
  -5   0   3  121.80    6.88   0
   5   0  -3   87.47    7.34   0
   4   0  -3   32.15    6.60   0
   4   0  -3   41.35    8.06   0
   4   0  -3   38.35    4.81   0
  -4   0   3   33.82    4.87   0
   3   0  -3  201.17    9.13   0
  -3   0   3  176.07    6.93   0
   3   0  -3  139.73    7.96   0
   3   0  -3  190.36    6.99   0
  -2   0   3  381.48    8.95   0
   2   0  -3  400.31    9.98   0
   2   0  -3  386.86    7.86   0
   2   0  -3  288.32    8.09   0
   1   0  -3 2644.00   29.09   0
  -1   0   3 2396.80   27.84   0
  -1   0   3 2553.36   19.83   0
   1   0  -3 2459.09   18.99   0
   0   0  -3  425.06   11.48   0
   0   0  -3  407.51   17.54   0
   0   0   3  426.39   10.03   0
   0   0   3  473.15   18.27   0
   1   0   3 3983.36   29.26   0
  -1   0  -3 3917.07   22.80   0
   1   0   3 4143.44   23.89   0
  -1   0  -3 3236.50   26.37   0
   2   0   3   10.76    5.00   0
   2   0   3   10.85    7.21   0
   2   0   3    7.40    4.32   0
  -2   0  -3    7.47    4.83   0
   3   0   3    1.72    4.86   0
   3   0   3    4.61    6.38   0
  -3   0  -3    2.41    6.71   0
  -3   0  -3    0.53    6.70   0
   4   0   3   13.30    6.44   0
   4   0   3   16.96    4.81   0
  -4   0  -3   14.16    4.78   0
  -4   0  -3   14.86    6.34   0
   5   0   3   46.03    4.84   0
  -5   0  -3   54.13    7.01   0
   5   0   3   44.03    4.96   0
  -5   0  -3   39.68    6.64   0
   6   0   3    7.78    7.43   0
  -6   0  -3    8.20    4.99   0
   6   0   3   10.05    6.83   0
   7   0   3    1.48    5.17   0
  -7   0  -3   -1.54    5.50   0
   7   0   3    3.52    5.32   0
   7   0   3   -0.52    5.96   0
   8   0   3    1.42    8.18   0
  -8   0  -3    9.98    8.53   0
   8   0   3    1.06    6.36   0
   8   0   3  -12.74    9.91   0
  -7   1   3   12.68    7.85   0
   7  -1  -3    8.81    8.36   0
   7  -1  -3    4.66    9.20   0
   7  -1  -3    6.57    5.28   0
  -6   1   3    7.23    6.62   0
   6  -1  -3   16.02    8.49   0
   6  -1  -3   -0.83    7.52   0
   6  -1  -3   12.27    6.57   0
   5  -1  -3   46.85    6.02   0
  -5   1   3   38.98    6.89   0
   5  -1  -3   34.36    7.32   0
   5  -1  -3   40.16    6.87   0
  -4   1   3  202.61    5.94   0
   4  -1  -3  212.06    7.99   0
   4  -1  -3  209.29    7.52   0
   3  -1  -3  317.74    6.70   0
  -3   1   3  298.30    8.58   0
   3  -1  -3  272.96    8.79   0
  -3   1   3  317.36    7.93   0
  -2   1   3  343.44    8.21   0
   2  -1  -3  372.62    9.10   0
   2  -1  -3  353.71    9.89   0
  -2   1   3  362.98    7.57   0
   1  -1  -3 2909.20   28.04   0
   1  -1  -3 3520.95   23.98   0
  -1   1   3 3186.92   28.28   0
  -1   1   3 3330.48   23.51   0
   0   1   3    5.70    8.38   0
   0  -1  -3    6.90    8.51   0
   1   1   3    6.21    7.35   0
   1   1   3    3.23    9.62   0
   1   1   3    4.00    8.47   0
  -1  -1  -3    1.66    7.25   0
   2   1   3  315.48    9.72   0
   2   1   3  350.50    8.55   0
   3   1   3  310.62    8.63   0
  -3  -1  -3  348.95    9.28   0
   3   1   3  295.96    8.81   0
   4   1   3    4.41    4.44   0
  -4  -1  -3   -0.14    4.54   0
   4   1   3   -4.83    6.45   0
   4   1   3    6.60    5.10   0
   5   1   3   37.51    7.40   0
  -5  -1  -3   46.89    5.17   0
   5   1   3   44.13    5.27   0
   5   1   3   42.97    4.96   0
   6   1   3   16.47    6.80   0
  -6  -1  -3   35.73    7.24   0
   6   1   3   19.55    5.17   0
   6   1   3    7.06    8.06   0
   7   1   3   10.85    8.63   0
   7   1   3    8.22    7.65   0
   7   1   3    2.24    7.26   0
  -7  -1  -3   -0.47    5.43   0
   8   1   3   10.83    7.66   0
   8   1   3    0.32    9.16   0
   8   1   3   10.28    8.39   0
  -8  -1  -3    2.98    8.66   0
  -7   2   3   16.42    7.62   0
   7  -2  -3    8.48    5.98   0
   7  -2  -3   -4.43    6.60   0
   7  -2  -3    0.69    7.80   0
  -6   2   3   18.36    5.31   0
   6  -2  -3   19.52    6.48   0
   6  -2  -3   20.96    8.10   0
   6  -2  -3   21.40    5.11   0
   5  -2  -3   40.40    7.62   0
  -5   2   3   46.18    6.92   0
  -5   2   3   30.42    5.36   0
   5  -2  -3   39.35    6.80   0
   4  -2  -3   55.43    6.76   0
  -4   2   3   61.99    7.23   0
  -4   2   3   64.25    6.95   0
   4  -2  -3   61.42    5.69   0
  -3   2   3  595.67    9.45   0
  -3   2   3  584.54    9.67   0
   3  -2  -3  573.49    9.99   0
   3  -2  -3  570.56    9.26   0
  -2   2   3   25.34    6.81   0
  -2   2   3   17.41    5.09   0
   2  -2  -3   21.23    6.65   0
   2  -2  -3   16.11    7.35   0
   1  -2  -3  146.86    9.38   0
  -1   2   3  171.03    8.68   0
  -1   2   3  157.17    8.34   0
   1  -2  -3  161.70    8.10   0
   0   2   3  581.42   17.33   0
   0  -2  -3  277.70   13.50   0
   0  -2  -3  584.75   14.75   0
   0   2   3  592.07   14.55   0
   1   2   3  363.50   13.47   0
  -1  -2  -3  445.08   15.36   0
   1   2   3  380.56   15.18   0
  -1  -2  -3  432.76   14.27   0
   2   2   3   53.50    7.66   0
   2   2   3   51.85    8.11   0
  -2  -2  -3   63.29    8.01   0
  -2  -2  -3   57.40    8.42   0
   3   2   3  333.39    8.55   0
   3   2   3  322.36    9.16   0
  -3  -2  -3  351.34    8.20   0
   3   2   3  319.42    8.79   0
   4   2   3    1.52    5.34   0
   4   2   3    4.67    6.59   0
  -4  -2  -3    5.77    6.74   0
   4   2   3    1.03    6.46   0
   5   2   3   54.51    6.82   0
  -5  -2  -3   68.37    7.01   0
   5   2   3   55.87    7.19   0
   5   2   3   53.95    8.02   0
   6   2   3    4.04    7.10   0
   6   2   3    7.87    6.74   0
   6   2   3    1.89    8.04   0
  -6  -2  -3   -2.95    6.84   0
  -7  -2  -3    3.45    5.35   0
   7   2   3   -1.00    4.75   0
   7   2   3    6.21    7.42   0
   7   2   3    9.17    8.61   0
   8   2   3   -9.87    8.29   0
  -8  -2  -3   16.44    8.01   0
   8   2   3   -0.33    6.42   0
   8   2   3    7.30    7.50   0
   7  -3  -3   10.02   10.14   0
   7  -3  -3    1.94    9.14   0
   7  -3  -3   -4.00    5.96   0
  -6   3   3   11.76    7.84   0
  -6   3   3   -2.17    5.35   0
   6  -3  -3    5.24    5.24   0
   6  -3  -3   22.59    8.47   0
   5  -3  -3   28.02    6.98   0
  -5   3   3   16.54    7.19   0
  -5   3   3   20.61    7.31   0
   5  -3  -3   15.77    7.56   0
  -4   3   3   -2.15    6.86   0
  -4   3   3   -2.22    6.78   0
   4  -3  -3    9.51    6.43   0
   4  -3  -3    6.21    7.52   0
  -3   3   3   32.26    6.64   0
   3  -3  -3   30.81    6.63   0
   3  -3  -3   31.81    5.46   0
  -3   3   3   40.01    6.82   0
   2  -3  -3  244.50    9.19   0
  -2   3   3  274.22    7.09   0
  -2   3   3  295.72    7.22   0
   2  -3  -3  262.36    8.52   0
   1  -3  -3    1.68    6.29   0
   1  -3  -3    6.62    5.94   0
  -1   3   3    5.12    6.65   0
  -1   3   3    6.77    7.13   0
   0   3   3  381.59   11.79   0
   0   3   3  360.98   10.89   0
   0  -3  -3  348.38   11.55   0
   0  -3  -3  174.92    9.41   0
  -1  -3  -3  152.58    9.48   0
   1   3   3   85.79    9.34   0
   2   3   3   19.97    8.18   0
  -2  -3  -3   20.42    5.80   0
   2   3   3   14.11    7.96   0
   3   3   3  170.56    7.92   0
  -3  -3  -3  205.44    8.43   0
   3   3   3  195.14    9.01   0
  -3  -3  -3  210.72    9.39   0
   4   3   3  180.86    7.44   0
  -4  -3  -3  193.28    6.30   0
   4   3   3  178.74    8.37   0
  -5  -3  -3   13.09    6.20   0
   5   3   3   12.36    7.70   0
   5   3   3    6.11    4.25   0
   5   3   3    6.23    4.92   0
   6   3   3   60.47    4.95   0
   6   3   3   57.25    5.38   0
  -6  -3  -3   59.84    7.11   0
   6   3   3   76.02    6.15   0
  -7  -3  -3   13.69    8.17   0
   7   3   3   17.43    5.89   0
   7   3   3    9.07    5.55   0
   7   3   3   14.35    5.15   0
   8   3   3    1.85    8.20   0
   8   3   3    4.18    6.41   0
  -8  -3  -3   -1.38    7.86   0
   8   3   3    3.44    5.19   0
   6  -4  -3    3.24    7.68   0
  -6   4   3    3.05    8.16   0
  -6   4   3    6.87    5.79   0
   6  -4  -3    9.75    8.82   0
  -5   4   3   15.48    5.62   0
   5  -4  -3    7.68    7.92   0
   5  -4  -3   15.73    7.20   0
  -5   4   3   17.46    7.60   0
   4  -4  -3   68.53    8.15   0
  -4   4   3   86.11    7.32   0
  -4   4   3   70.74    5.59   0
   4  -4  -3   76.05    7.13   0
   3  -4  -3   24.46    5.06   0
   3  -4  -3   40.15    7.97   0
  -3   4   3   43.77    7.09   0
  -3   4   3   35.68    5.15   0
  -2   4   3  360.31    8.69   0
  -2   4   3  350.13    7.37   0
   2  -4  -3  275.68    7.27   0
   2  -4  -3  310.38    8.28   0
   1  -4  -3  112.50    6.90   0
   1  -4  -3   75.26    8.76   0
  -1   4   3  137.95    7.50   0
  -1   4   3  140.85    8.33   0
   0  -4  -3    6.68    6.62   0
   0   4   3    7.19    5.82   0
   0   4   3    7.47    6.62   0
   0  -4  -3    6.54    7.96   0
   1   4   3  721.35   12.36   0
  -1  -4  -3 1655.29   16.27   0
  -2  -4  -3  493.13   11.00   0
   2   4   3  344.62   10.16   0
   3   4   3  198.22    7.31   0
  -3  -4  -3  221.22    9.86   0
  -3  -4  -3  242.83    9.58   0
   3   4   3  205.51   10.44   0
  -4  -4  -3  258.21    8.91   0
   4   4   3  226.10    8.71   0
   4   4   3  204.92    8.20   0
  -4  -4  -3  247.34    8.62   0
  -5  -4  -3   29.36    6.89   0
   5   4   3   28.72    6.63   0
   5   4   3   28.79    7.84   0
   6   4   3    4.71    5.03   0
  -6  -4  -3    3.79    7.02   0
   6   4   3    2.11    6.93   0
   6   4   3    7.68    8.00   0
  -7  -4  -3    5.68    5.05   0
   7   4   3    3.64    7.32   0
   7   4   3    1.92    7.18   0
   7   4   3   -0.26    6.17   0
  -8  -4  -3    9.47    5.82   0
   8   4   3    2.03    5.51   0
   8   4   3   -4.61    7.42   0
   8   4   3   -0.43    6.43   0
   5  -5  -3   18.58    7.40   0
   5  -5  -3   28.37    8.62   0
  -5   5   3   13.86    8.06   0
  -5   5   3   21.34    5.72   0
   4  -5  -3   56.54    8.29   0
  -4   5   3   77.09    7.37   0
   4  -5  -3   64.76    7.32   0
  -4   5   3   65.16    7.31   0
   3  -5  -3   23.51    6.75   0
   3  -5  -3   16.57    7.91   0
  -3   5   3   32.51    6.66   0
  -3   5   3   21.13    5.29   0
   2  -5  -3    6.89    6.35   0
   2  -5  -3   -2.70    5.86   0
  -2   5   3   -0.05    6.76   0
  -2   5   3   -5.36    7.10   0
   1  -5  -3  271.72    9.25   0
  -1   5   3  557.11   10.65   0
   1  -5  -3  468.17   10.16   0
  -1   5   3  548.20    9.79   0
   0   5   3  283.82    9.23   0
   0  -5  -3  286.77    8.62   0
   0  -5  -3  251.31   10.22   0
   0  -5  -3  162.50    6.79   0
   1   5   3    1.02    8.22   0
  -1  -5  -3    2.47    9.12   0
  -1  -5  -3    5.49    7.90   0
  -1  -5  -3    0.81    9.67   0
   2   5   3  226.29    9.40   0
  -2  -5  -3  426.44   10.32   0
  -3  -5  -3 1009.52   19.99   0
  -3  -5  -3 1066.37   13.01   0
   3   5   3  725.58   16.98   0
   3   5   3  837.92   11.77   0
  -4  -5  -3   39.05    8.07   0
   4   5   3   41.87    7.95   0
   4   5   3   37.74    6.89   0
  -4  -5  -3   37.30    7.14   0
  -5  -5  -3  227.84    8.82   0
   5   5   3  204.79    8.29   0
   5   5   3  222.69    9.00   0
  -5  -5  -3  253.62    9.19   0
  -6  -5  -3    3.43    4.92   0
   6   5   3    0.96    8.33   0
   6   5   3    3.39    6.52   0
   7   5   3    8.73    5.29   0
  -7  -5  -3   -1.45    5.11   0
   7   5   3   -0.05    6.07   0
   7   5   3    8.95    7.26   0
  -8  -5  -3    0.59    5.65   0
   8   5   3  -11.16    9.25   0
   8   5   3   -2.32    8.23   0
   8   5   3   -2.32    7.73   0
   5  -6  -3    5.47    5.92   0
  -5   6   3    9.38    5.89   0
   5  -6  -3   14.94    9.02   0
   4  -6  -3    4.25    7.46   0
   4  -6  -3   -1.35    6.26   0
  -4   6   3    0.71    7.71   0
   3  -6  -3  133.90    8.29   0
   3  -6  -3  103.90    6.02   0
  -3   6   3  142.48    5.83   0
   2  -6  -3   40.97    6.90   0
   2  -6  -3   21.22    8.05   0
  -2   6   3   49.21    7.68   0
   1  -6  -3   67.24    7.06   0
   1  -6  -3   76.98    6.71   0
   1  -6  -3   41.91    5.97   0
  -1   6   3   86.91    8.08   0
   0   6   3  285.71    9.31   0
   0  -6  -3  245.64   10.02   0
   0  -6  -3  294.20    9.62   0
   0  -6  -3  176.38    9.22   0
  -1  -6  -3  105.91   10.53   0
   1   6   3   87.94    6.04   0
  -1  -6  -3   53.01    9.08   0
  -1  -6  -3  109.34    8.34   0
   2   6   3   41.93    8.10   0
  -2  -6  -3  106.97    8.17   0
  -3  -6  -3    6.26   14.04   0
  -3  -6  -3   11.26    7.63   0
   3   6   3    6.69    7.68   0
  -4  -6  -3   29.47    8.72   0
   4   6   3   19.71    8.21   0
  -4  -6  -3   26.40    5.65   0
   4   6   3   17.97    5.86   0
  -5  -6  -3   68.84    6.13   0
  -5  -6  -3   78.52    9.85   0
   5   6   3   66.84    6.12   0
   5   6   3   63.22    7.36   0
  -6  -6  -3    3.42    7.13   0
   6   6   3    4.74    8.39   0
  -6  -6  -3    5.32    5.82   0
   6   6   3   11.08    6.57   0
   7   6   3   23.07    6.24   0
  -7  -6  -3   32.15    7.61   0
   7   6   3   16.41    7.18   0
  -8  -6  -3    2.65    8.04   0
   8   6   3   -0.55    8.14   0
   8   6   3   -3.85    6.59   0
   8   6   3    0.96    7.66   0
   4  -7  -3    6.75    8.24   0
   4  -7  -3    3.23    6.29   0
   4  -7  -3   -0.09    5.40   0
  -4   7   3   -2.15    8.92   0
   3  -7  -3   -0.22    7.59   0
   3  -7  -3    8.03    5.93   0
  -3   7   3    9.98    7.91   0
   3  -7  -3   -1.44    7.01   0
   2  -7  -3   74.90    7.78   0
   2  -7  -3   79.70    7.24   0
   2  -7  -3   40.82    5.76   0
  -2   7   3   87.30    7.79   0
   1  -7  -3   31.18    7.34   0
   1  -7  -3   34.78    6.58   0
  -1   7   3   40.18    8.14   0
   1  -7  -3   19.72    5.60   0
   0  -7  -3   69.81    7.57   0
   0  -7  -3   64.14    8.35   0
   0   7   3   85.04    8.21   0
   0  -7  -3   82.85    8.47   0
  -1  -7  -3  139.02   11.29   0
   1   7   3  136.23    6.62   0
  -1  -7  -3  155.87    8.78   0
  -1  -7  -3   82.00    9.13   0
  -2  -7  -3   51.04    8.12   0
   2   7   3   18.34    8.30   0
   3   7   3   36.43    5.95   0
  -3  -7  -3   59.63    6.17   0
   4   7   3   19.28    5.65   0
   4   7   3   25.88    9.75   0
  -4  -7  -3   31.42    8.28   0
  -4  -7  -3   24.15   10.48   0
   5   7   3    6.51    8.06   0
   5   7   3   20.37    5.72   0
  -5  -7  -3   14.08    7.23   0
  -5  -7  -3   16.58    7.95   0
   6   7   3   -0.50    6.02   0
  -6  -7  -3    8.47    7.32   0
  -6  -7  -3    6.64    8.59   0
   6   7   3    4.01    7.25   0
  -7  -7  -3    7.42    9.09   0
   7   7   3    2.92    7.60   0
  -7  -7  -3    4.41    8.30   0
   7   7   3   -1.30    6.43   0
   8   7   3   13.42    9.24   0
  -8  -7  -3    6.83    8.48   0
   8   7   3   -0.31    8.31   0
   8   7   3   -3.13    8.02   0
   3  -8  -3    0.40    8.22   0
   3  -8  -3    5.55    8.06   0
  -3   8   3   -5.12    8.55   0
   3  -8  -3   19.07    9.31   0
   2  -8  -3   19.93    7.97   0
   2  -8  -3   30.13    7.54   0
   2  -8  -3   16.15    8.59   0
  -2   8   3   30.31    5.95   0
   1  -8  -3   32.31    9.27   0
   1  -8  -3   34.11    7.19   0
   1  -8  -3   11.22    6.05   0
  -1   8   3   24.46    8.00   0
   0  -8  -3    9.76    8.68   0
   0  -8  -3   17.68    8.63   0
   0  -8  -3   10.95    6.83   0
   0   8   3   14.10    5.58   0
  -1  -8  -3   46.83    9.51   0
   1   8   3   47.80    6.23   0
  -1  -8  -3   31.25    8.55   0
  -1  -8  -3   55.27    8.48   0
  -2  -8  -3   65.49    8.10   0
   2   8   3   38.69    8.10   0
   3   8   3    4.48    7.87   0
  -3  -8  -3    0.33    8.00   0
  -4  -8  -3   -0.52    7.93   0
   4   8   3    5.68    8.06   0
   5   8   3   10.21    8.30   0
  -5  -8  -3   -4.67    8.40   0
  -5  -8  -3    9.81   10.77   0
   5   8   3   10.90    5.46   0
  -6  -8  -3   -4.39    8.79   0
  -6  -8  -3   -3.46    7.86   0
   6   8   3    2.16    5.89   0
   6   8   3    3.18    8.45   0
   7   8   3    0.86    6.52   0
  -7  -8  -3    0.53    8.34   0
   7   8   3    5.17    7.70   0
  -7  -8  -3    8.53    6.80   0
   2  -9  -3    1.53    8.60   0
  -2   9   3   17.06    9.02   0
   2  -9  -3   -2.92    8.05   0
   1  -9  -3   11.71    9.13   0
   1  -9  -3   24.75    7.91   0
   1  -9  -3   30.56    8.27   0
  -1   9   3   34.46    6.26   0
   0  -9  -3   23.33    8.22   0
   0  -9  -3   22.50    7.53   0
   0  -9  -3   16.31    8.86   0
   0   9   3   30.67    8.49   0
  -1  -9  -3   16.97   10.48   0
   1   9   3   24.96    8.76   0
  -1  -9  -3   11.69    8.94   0
  -1  -9  -3   16.77   10.26   0
  -2  -9  -3   -2.44    6.04   0
   2   9   3   10.17    5.88   0
   3   9   3   12.42    8.57   0
  -3  -9  -3   10.45    6.27   0
   4   9   3    8.28    5.76   0
  -4  -9  -3    3.08    5.99   0
  -5  -9  -3    5.18    8.93   0
   5   9   3   14.23    5.91   0
  -6  -9  -3    4.38   10.46   0
  -6  -9  -3   11.86    9.28   0
   6   9   3    4.19    6.31   0
   6   9   3    5.16   10.39   0
  -7  -9  -3    1.78   10.58   0
  -7  -9  -3    5.70    9.51   0
   7   9   3   -1.77    7.88   0
   7   9   3    3.44    9.21   0
   0 -10  -3    5.98    8.46   0
   0  10   3   18.24    9.10   0
   0 -10  -3    4.54    9.88   0
   0 -10  -3    9.74    9.40   0
  -1 -10  -3    0.62   12.82   0
   1  10   3   11.28    6.10   0
  -1 -10  -3    4.23   11.25   0
  -1 -10  -3   -6.00    6.61   0
  -2 -10  -3   11.61    8.86   0
   2  10   3   -0.11    6.22   0
  -3 -10  -3   32.10    9.16   0
   3  10   3   15.98    8.75   0
  -4 -10  -3    7.32    6.51   0
   4  10   3    2.42    6.35   0
  -5 -10  -3   11.91    9.44   0
   5  10   3   10.33    8.91   0
   6  10   3   -1.57    9.30   0
  -6 -10  -3    2.81    6.86   0
   5   9  -4   -8.14    9.08   0
   5   9  -4    2.92    7.61   0
  -5  -9   4    9.68    8.06   0
  -5  -9   4    0.31    9.20   0
  -4  -9   4    8.99    8.03   0
   4   9  -4   -2.41    8.82   0
   4   9  -4    7.67    7.55   0
  -4  -9   4    6.09    6.15   0
   3   9  -4   20.76    6.29   0
  -3  -9   4   32.79    6.32   0
  -3  -9   4   42.35    7.91   0
   3   9  -4   27.08    7.53   0
  -2  -9   4    2.16    6.32   0
   2   9  -4   10.05    5.95   0
  -2  -9   4   -6.04    7.61   0
  -1  -9   4   31.82    9.04   0
   1   9  -4   31.98    8.73   0
  -1  -9   4   26.31    6.17   0
  -1  -9   4   19.83    7.77   0
   0   9  -4   29.05    9.00   0
   0  -9   4   47.94    8.90   0
   0  -9   4   32.08    7.94   0
   0  -9   4   41.67    9.58   0
  -6  -8   4    0.87    7.84   0
   6   8  -4    9.92    7.28   0
   6   8  -4   -2.23    6.25   0
  -6  -8   4    6.97    6.47   0
   5   8  -4   11.03    7.61   0
  -5  -8   4   14.57    8.53   0
   5   8  -4   22.73    8.58   0
  -5  -8   4   13.47    7.61   0
   4   8  -4   -0.02    6.87   0
  -4  -8   4    6.64    5.87   0
   4   8  -4   12.51    5.61   0
  -4  -8   4    7.66    7.40   0
  -3  -8   4   44.92    7.41   0
  -3  -8   4   44.97    6.16   0
   3   8  -4   22.60    8.25   0
   3   8  -4   43.37    7.14   0
   2   8  -4   37.43    8.47   0
   2   8  -4   27.45    5.03   0
  -2  -8   4    7.00    6.95   0
  -2  -8   4   24.48    8.29   0
   1   8  -4    9.82    5.68   0
  -1  -8   4    5.45    6.87   0
  -1  -8   4    5.41    8.31   0
   0   8  -4   69.33    8.28   0
   0  -8   4   69.64    8.23   0
   0  -8   4   58.27    8.72   0
   0  -8   4   56.24    7.25   0
   1  -8   4   18.95    5.26   0
   1  -8   4   35.07    8.29   0
   1  -8   4   27.08    8.88   0
  -1   8  -4   17.41    8.23   0
   2  -8   4    8.38    8.48   0
   2  -8   4    2.69    8.94   0
  -2   8  -4    0.57    8.61   0
   2  -8   4    4.37    7.82   0
  -7  -7   4    4.00    5.47   0
   7   7  -4    3.26    5.33   0
  -7  -7   4    5.48    9.46   0
   7   7  -4   -8.89    6.57   0
  -6  -7   4   -0.81    7.46   0
  -6  -7   4    6.53    5.95   0
   6   7  -4   -1.81    7.11   0
   6   7  -4    0.92    8.71   0
   5   7  -4   25.75    8.32   0
  -5  -7   4   24.05    7.33   0
   5   7  -4    7.66    6.75   0
  -5  -7   4    2.35    8.34   0
  -4  -7   4   25.40    6.68   0
   4   7  -4   15.86    4.82   0
   4   7  -4   11.24    8.14   0
  -4  -7   4   16.77    5.74   0
  -3  -7   4    8.09    7.79   0
   3   7  -4    1.21    6.37   0
  -3  -7   4    9.66    6.53   0
   3   7  -4    7.41    5.36   0
  -2  -7   4  115.36    8.23   0
   2   7  -4   74.32    5.84   0
  -2  -7   4   51.87    6.72   0
   2   7  -4  116.47    6.89   0
   1   7  -4   70.78    8.28   0
   1   7  -4   92.55    6.71   0
  -1  -7   4   99.19    8.41   0
  -1  -7   4   64.43    6.99   0
   0   7  -4    9.22    5.49   0
   0  -7   4   10.21    5.41   0
   0  -7   4   23.18    6.64   0
   0  -7   4   18.98    5.83   0
   1  -7   4  181.80    8.11   0
   1  -7   4  182.66    8.57   0
   1  -7   4  120.16    8.82   0
  -1   7  -4  117.43    6.20   0
   2  -7   4   47.86    5.75   0
   2  -7   4   16.38    6.14   0
   2  -7   4   46.41    7.37   0
  -2   7  -4   18.65    5.84   0
   3  -7   4    3.93    8.04   0
   3  -7   4   12.61    7.81   0
   3  -7   4    6.95    8.77   0
  -3   7  -4    7.80    5.62   0
   8   6  -4    4.30    6.96   0
   8   6  -4    5.82    5.53   0
  -7  -6   4   17.88    9.14   0
  -7  -6   4    4.44    5.33   0
   7   6  -4   -2.02    9.06   0
   7   6  -4   -1.22    7.54   0
   6   6  -4    2.25    5.90   0
  -6  -6   4   -2.87    7.21   0
  -6  -6   4    4.13    6.24   0
   6   6  -4   11.38    7.34   0
   5   6  -4    8.96    6.70   0
  -5  -6   4    7.84    4.71   0
  -5  -6   4    6.01    8.24   0
   5   6  -4    5.74    8.06   0
   4   6  -4   30.80    7.03   0
  -4  -6   4   31.72    6.88   0
   4   6  -4   38.32    8.25   0
  -4  -6   4   20.35    5.57   0
   3   6  -4    8.04    5.56   0
  -3  -6   4   11.96    5.56   0
   3   6  -4    7.42    4.29   0
  -3  -6   4   11.85    7.06   0
  -2  -6   4    8.67    7.75   0
   2   6  -4   -4.81    7.84   0
   2   6  -4    1.91    6.21   0
  -2  -6   4    5.35    4.18   0
   1   6  -4  153.38    6.55   0
   1   6  -4  178.24    7.18   0
  -1  -6   4  131.14    7.02   0
  -1  -6   4  170.50    8.42   0
   0   6  -4   96.21    6.06   0
   0  -6   4  100.60    8.76   0
   0  -6   4  119.67    6.76   0
   1  -6   4   15.35    5.42   0
   1  -6   4   28.98    7.34   0
   1  -6   4   30.52    6.52   0
  -1   6  -4   14.27    5.26   0
   2  -6   4  109.98    6.27   0
   2  -6   4  225.66    7.85   0
   2  -6   4  227.54    8.84   0
  -2   6  -4  100.22    5.62   0
   3  -6   4   40.93    7.89   0
   3  -6   4   17.66    5.88   0
   3  -6   4   41.27    7.16   0
  -3   6  -4   22.26    5.70   0
   4  -6   4   11.67    6.01   0
   4  -6   4   11.54    7.47   0
  -4   6  -4   13.99    5.60   0
   4  -6   4   11.24    8.05   0
  -8  -5   4   -8.27    7.89   0
   8   5  -4    4.87    8.32   0
   8   5  -4   -0.94    6.89   0
   8   5  -4   -9.35    7.64   0
  -7  -5   4    8.76    7.65   0
   7   5  -4   12.27    9.03   0
  -7  -5   4   16.10    8.95   0
   7   5  -4    5.89    5.00   0
  -6  -5   4    1.52    4.91   0
   6   5  -4   -9.67    8.46   0
  -6  -5   4    9.08    6.19   0
   6   5  -4    1.76    6.88   0
   5   5  -4    5.17    8.46   0
  -5  -5   4   14.56    5.75   0
   5   5  -4   19.83    6.56   0
  -5  -5   4   20.21    6.72   0
  -4  -5   4    0.91    5.36   0
   4   5  -4    4.16    6.33   0
   4   5  -4   -8.24    8.04   0
  -4  -5   4    8.41    6.40   0
  -3  -5   4   51.18    5.55   0
   3   5  -4   54.61    6.17   0
   3   5  -4   68.37    8.10   0
  -3  -5   4   57.66    4.81   0
   2   5  -4   12.55    8.26   0
   2   5  -4   20.18    6.23   0
  -2  -5   4   19.71    6.09   0
  -2  -5   4   29.29    7.68   0
   1   5  -4  287.83    7.46   0
   1   5  -4  200.70    6.79   0
  -1  -5   4  243.03    8.84   0
  -1  -5   4  198.63    7.07   0
   0   5  -4   98.39    8.20   0
   0  -5   4  121.33    6.52   0
   0  -5   4   87.82    8.25   0
   0   5  -4  119.53    6.48   0
   1  -5   4    2.40    7.69   0
   1  -5   4    3.00    6.33   0
   1  -5   4   -1.81    7.02   0
  -1   5  -4    2.66    5.23   0
   2  -5   4   12.15    5.47   0
   2  -5   4   10.10    6.22   0
   2  -5   4   16.93    6.80   0
  -2   5  -4    7.01    4.89   0
   3  -5   4   88.13    5.65   0
   3  -5   4   90.33    8.19   0
  -3   5  -4   54.74    5.31   0
   3  -5   4   84.43    5.03   0
   4  -5   4   49.24    8.18   0
   4  -5   4   36.37    4.81   0
   4  -5   4   46.51    5.52   0
  -4   5  -4   47.15    7.67   0
   5  -5   4   23.54    8.93   0
  -5   5  -4   17.47    8.13   0
   5  -5   4   10.08    7.89   0
   5  -5   4   11.51    7.26   0
  -8  -4   4    0.36    5.85   0
   8   4  -4    5.40    6.57   0
   8   4  -4   -0.63    8.21   0
   8   4  -4    5.09    5.50   0
  -7  -4   4    2.24    7.06   0
   7   4  -4   12.83    8.79   0
   7   4  -4    2.04    6.74   0
   7   4  -4    4.95    7.55   0
  -6  -4   4    5.29    6.95   0
  -6  -4   4    3.27    8.24   0
   6   4  -4   12.18    8.49   0
   6   4  -4    6.49    6.93   0
   5   4  -4   89.76    7.00   0
  -5  -4   4   76.99    6.23   0
   5   4  -4  111.16    8.53   0
  -5  -4   4   94.52    5.23   0
   4   4  -4   48.40    8.32   0
  -4  -4   4   27.14    5.80   0
   4   4  -4   32.43    6.90   0
  -4  -4   4   40.04    6.85   0
  -3  -4   4  794.58   10.04   0
   3   4  -4  631.12    9.32   0
  -3  -4   4  628.95   10.45   0
   3   4  -4  804.78    9.95   0
  -2  -4   4    4.84    7.36   0
   2   4  -4   -5.23    5.49   0
   2   4  -4    4.53    6.27   0
  -2  -4   4    1.86    6.22   0
   1   4  -4  103.43    6.73   0
  -1  -4   4   86.57    6.61   0
  -1  -4   4   93.65    8.29   0
   1   4  -4   57.15    8.24   0
   0   4  -4  292.99    8.87   0
   0   4  -4  365.20    7.65   0
   0  -4   4  350.76    7.84   0
   0  -4   4  219.16    8.75   0
   1  -4   4  650.42    9.15   0
   1  -4   4  333.30    7.43   0
  -1   4  -4  385.77    9.01   0
   2  -4   4   62.95    8.66   0
   2  -4   4  108.99    7.32   0
   2  -4   4   91.86    5.09   0
  -2   4  -4   40.02    6.92   0
   3  -4   4  191.01    7.95   0
   3  -4   4  173.39    6.70   0
   3  -4   4  226.05    7.57   0
  -3   4  -4  139.75    5.78   0
   4  -4   4   18.35    5.10   0
   4  -4   4    7.05    8.13   0
   4  -4   4   13.71    4.63   0
  -4   4  -4   11.58    7.05   0
   5  -4   4   12.11    8.16   0
   5  -4   4   14.12    7.48   0
   5  -4   4   -1.16    5.02   0
  -5   4  -4    7.47    7.51   0
   6  -4   4    5.84    6.42   0
   6  -4   4   13.19    8.49   0
   6  -4   4   12.87    5.27   0
  -6   4  -4    8.85    5.83   0
   8   3  -4    3.81    6.83   0
  -8  -3   4   -0.10    5.61   0
   8   3  -4   -3.21    5.53   0
   8   3  -4   14.72    8.21   0
  -7  -3   4    4.49    7.43   0
   7   3  -4   -4.02    5.25   0
   7   3  -4   17.33    8.87   0
   7   3  -4    5.50    5.16   0
   6   3  -4    2.44    5.15   0
   6   3  -4    7.03    4.91   0
   6   3  -4    3.01    8.43   0
  -6  -3   4    6.73    6.85   0
  -5  -3   4   51.15    4.98   0
  -5  -3   4   57.77    7.94   0
   5   3  -4   57.71    8.25   0
   5   3  -4   52.86    5.00   0
  -4  -3   4  140.20    8.42   0
   4   3  -4  175.92    8.78   0
   4   3  -4  165.49    5.79   0
  -4  -3   4  145.32    5.66   0
  -3  -3   4   36.90    6.51   0
   3   3  -4   47.54    8.01   0
  -3  -3   4   44.78    7.65   0
   3   3  -4   50.57    6.71   0
  -2  -3   4 1729.88   12.66   0
   2   3  -4 1874.46   15.91   0
  -2  -3   4 1608.43   14.63   0
   2   3  -4 1295.31   12.09   0
   1   3  -4 1135.87   13.17   0
   1   3  -4 1637.46   13.27   0
  -1  -3   4 1662.13   12.53   0
  -1  -3   4 2117.00   16.70   0
   0  -3   4  609.16   10.99   0
   0   3  -4  787.02    9.95   0
   0   3  -4 1024.30    9.80   0
   0  -3   4 1000.37   10.83   0
   1  -3   4 1684.50   11.61   0
   1  -3   4 1069.57   10.69   0
  -1   3  -4 1507.85   10.95   0
  -1   3  -4  967.68   11.30   0
   2  -3   4   78.86    8.34   0
   2  -3   4   81.81    6.99   0
   2  -3   4   95.29    6.45   0
  -2   3  -4   55.33    7.09   0
  -3   3  -4   -5.18    6.68   0
   3  -3   4   -5.59    6.88   0
   3  -3   4   -2.95    6.31   0
   3  -3   4    3.76    7.73   0
   4  -3   4  158.89    7.00   0
   4  -3   4  166.66    8.50   0
   4  -3   4  175.30    5.74   0
  -4   3  -4  127.20    5.57   0
   5  -3   4   25.81    5.47   0
   5  -3   4   19.57    5.11   0
  -5   3  -4    9.43    5.24   0
   5  -3   4   19.10    6.57   0
   6  -3   4   38.53    5.50   0
   6  -3   4   38.78    7.14   0
   6  -3   4   54.20    6.32   0
  -6   3  -4   37.54    8.15   0
  -8  -2   4   -1.38    5.73   0
   8   2  -4   13.99    8.34   0
   8   2  -4   -6.36    9.39   0
   8   2  -4   -1.17    5.44   0
   7   2  -4    3.90    5.20   0
   7   2  -4    4.11    7.47   0
   7   2  -4   10.09    6.13   0
  -7  -2   4   11.67    5.41   0
   6   2  -4   19.84    5.85   0
  -6  -2   4   20.91    6.92   0
   6   2  -4   15.40    7.18   0
   6   2  -4   15.69    5.01   0
  -5  -2   4   -0.78    6.44   0
   5   2  -4   -3.28    6.37   0
   5   2  -4    0.72    6.51   0
   5   2  -4    8.28    7.41   0
  -4  -2   4  295.89    6.29   0
  -4  -2   4  290.75    7.60   0
   4   2  -4  341.97    7.82   0
   4   2  -4  320.76    8.12   0
   3   2  -4   85.04    6.96   0
   3   2  -4  105.89    8.56   0
  -3  -2   4   83.40    8.39   0
  -3  -2   4  101.82    6.71   0
   2   2  -4   40.42    8.58   0
   2   2  -4   30.68    4.83   0
  -2  -2   4   33.95    7.95   0
  -2  -2   4   39.61    6.81   0
  -1  -2   4  473.81    9.56   0
   1   2  -4  397.05    9.02   0
   1   2  -4  368.67   10.93   0
  -1  -2   4  361.44    8.61   0
   0   2  -4 1012.54   13.65   0
   0  -2   4  753.11   12.60   0
   0   2  -4 1305.46   11.61   0
   0  -2   4 1262.88   11.28   0
  -1   2  -4   30.98    5.75   0
   1  -2   4   32.74    8.80   0
  -1   2  -4   41.74    4.50   0
   1  -2   4   44.52    6.42   0
   2  -2   4  875.65   11.45   0
   2  -2   4  978.56   10.57   0
   2  -2   4  926.72    9.76   0
  -2   2  -4  672.57    9.96   0
   3  -2   4  326.72    6.61   0
   3  -2   4  358.18    9.33   0
   3  -2   4  344.28    7.62   0
  -3   2  -4  270.07    6.47   0
   4  -2   4   14.04    7.49   0
   4  -2   4   10.39    4.63   0
  -4   2  -4    8.97    6.66   0
   4  -2   4   12.06    4.08   0
  -5   2  -4   49.97    7.31   0
   5  -2   4   60.31    7.06   0
   5  -2   4   63.51    4.82   0
   5  -2   4   72.65    8.38   0
  -6   2  -4   37.91    7.49   0
   6  -2   4   37.89    5.19   0
   6  -2   4   18.76    4.69   0
   6  -2   4   41.94    8.44   0
   7  -2   4    9.55    5.82   0
  -7   2  -4    9.73    5.98   0
   7  -2   4   16.61    7.35   0
   7  -2   4   10.45    6.34   0
  -8  -1   4   -2.15    8.29   0
   8   1  -4   12.80    9.76   0
   8   1  -4    2.83    6.06   0
   8   1  -4    7.29    5.48   0
   7   1  -4    1.45    5.20   0
  -7  -1   4   -1.52    7.49   0
   7   1  -4    3.38    8.55   0
   7   1  -4    4.60    7.40   0
  -6  -1   4   37.89    6.95   0
   6   1  -4   42.21    4.89   0
   6   1  -4   30.59    5.15   0
   6   1  -4   44.01    6.19   0
   5   1  -4    5.63    6.48   0
  -5  -1   4   -1.39    4.58   0
   5   1  -4   11.84    7.85   0
   5   1  -4    1.64    5.02   0
  -4  -1   4   91.21    5.12   0
   4   1  -4  120.33    8.23   0
   4   1  -4   73.11    5.19   0
   4   1  -4  108.73    6.78   0
   3   1  -4  263.94    8.17   0
  -3  -1   4  235.90    7.54   0
  -3  -1   4  249.21    6.25   0
   3   1  -4  247.93    6.27   0
  -2  -1   4  119.77    6.93   0
   2   1  -4  143.19    7.43   0
   2   1  -4  155.14    7.43   0
  -2  -1   4  133.97    7.24   0
  -1  -1   4  673.69   13.06   0
  -1  -1   4  663.79   10.67   0
   1   1  -4  789.89   13.06   0
   1   1  -4  637.06   10.49   0
   0   1  -4  266.51   11.06   0
   0  -1   4  222.95   10.80   0
   0  -1   4  319.40    7.47   0
   0   1  -4  317.00    8.76   0
   1  -1   4  165.20    7.15   0
  -1   1  -4  117.21    8.48   0
   1  -1   4  149.10    9.83   0
  -1   1  -4  165.31    7.07   0
   2  -1   4   21.74    4.41   0
  -2   1  -4   19.89    4.96   0
   2  -1   4   32.43    6.68   0
   2  -1   4   22.57    8.12   0
  -3   1  -4  203.65    6.19   0
   3  -1   4  273.16    6.31   0
   3  -1   4  260.90    5.69   0
   3  -1   4  284.52    8.52   0
  -4   1  -4   37.78    6.92   0
   4  -1   4   36.81    4.97   0
   4  -1   4   43.74    5.35   0
   4  -1   4   44.26    6.02   0
   5  -1   4   19.88    7.69   0
   5  -1   4   12.00    4.88   0
  -5   1  -4   22.89    6.84   0
   6  -1   4   22.12    5.74   0
   6  -1   4   13.28    7.20   0
  -6   1  -4   15.58    5.12   0
   7  -1   4    5.28    4.72   0
   7  -1   4   10.29    7.52   0
   7  -1   4    3.66    6.20   0
  -8   0   4    6.15    5.96   0
   8   0  -4    1.81    9.88   0
   8   0  -4    2.83    8.75   0
   8   0  -4   -0.84    5.39   0
   7   0  -4   10.92    7.75   0
  -7   0   4    3.19    7.25   0
   7   0  -4    4.44    9.00   0
   7   0  -4    4.88    5.03   0
   6   0  -4   17.56    8.17   0
  -6   0   4   12.64    4.96   0
   6   0  -4   15.84    6.50   0
   6   0  -4   11.57    5.23   0
  -5   0   4   27.78    6.41   0
   5   0  -4   41.42    8.01   0
   5   0  -4   25.03    6.94   0
   5   0  -4   22.03    6.31   0
   4   0  -4   30.28    4.61   0
  -4   0   4   43.51    4.73   0
   4   0  -4   28.89    6.87   0
   4   0  -4   41.46    8.10   0
   3   0  -4  445.35   10.91   0
   3   0  -4  320.97    7.65   0
  -3   0   4  422.60    8.16   0
   3   0  -4  416.29    8.22   0
   2   0  -4 1040.16   10.85   0
   2   0  -4 1075.03   15.57   0
  -2   0   4 1016.80   10.57   0
   1   0  -4    1.67    5.08   0
   1   0  -4    4.55    8.91   0
  -1   0   4    9.05    6.89   0
  -1   0   4    4.72    8.62   0
   0   0  -4  377.39    9.75   0
   0   0   4  449.79   18.10   0
   0   0  -4  415.26   15.75   0
   0   0   4  385.98    8.56   0
   1   0   4  835.14   15.01   0
   1   0   4  837.61   10.60   0
  -1   0  -4  666.27   13.13   0
  -1   0  -4  823.34   11.42   0
   2   0   4  258.85    8.63   0
  -2   0  -4  190.32    6.77   0
   2   0   4  250.19    9.24   0
   2   0   4  245.15    6.57   0
  -3   0  -4  100.66    7.30   0
   3   0   4  128.80    7.27   0
   3   0   4  131.43    5.91   0
   3   0   4  134.23    5.05   0
   4   0   4  432.99    7.32   0
  -4   0  -4  341.37    8.50   0
   4   0   4  452.86    9.43   0
   5   0   4   10.28    4.68   0
  -5   0  -4    4.62    5.03   0
  -5   0  -4    6.35    6.44   0
   5   0   4    6.35    5.13   0
   6   0   4   43.93    7.09   0
  -6   0  -4   47.11    5.41   0
   6   0   4   30.56    5.59   0
   7   0   4    9.09    5.34   0
   7   0   4   -1.34    6.39   0
   7   0   4   18.60    8.14   0
   8   0   4    3.74    6.47   0
   8   0   4   17.96    8.43   0
   8   0   4    4.69    7.16   0
  -7   1   4   -0.75    7.56   0
   7  -1  -4    4.28    9.10   0
   7  -1  -4    1.72    8.06   0
   7  -1  -4    2.96    7.46   0
  -6   1   4    9.32    7.05   0
   6  -1  -4   -7.98    8.08   0
   6  -1  -4    8.11    6.46   0
   6  -1  -4   -1.77    7.12   0
  -5   1   4   99.75    7.05   0
   5  -1  -4  107.98    8.67   0
   5  -1  -4   86.62    7.45   0
   5  -1  -4   94.10    7.15   0
   4  -1  -4  110.15    7.50   0
   4  -1  -4  137.44    6.80   0
  -4   1   4  135.13    7.22   0
   4  -1  -4  152.60    8.77   0
  -3   1   4   90.27    6.81   0
   3  -1  -4   72.31    5.60   0
   3  -1  -4   98.35    6.71   0
   3  -1  -4   83.95    5.10   0
  -2   1   4  118.56    5.64   0
   2  -1  -4  100.52    7.72   0
   2  -1  -4  124.77    7.53   0
   1  -1  -4  372.67    8.39   0
   1  -1  -4  368.85   13.73   0
   1  -1  -4  305.16   11.55   0
  -1   1   4  356.42    9.30   0
   0  -1  -4  516.43   11.38   0
   0   1   4  614.42   10.96   0
  -1  -1  -4 1161.90   13.49   0
   1   1   4 1191.30   14.70   0
   1   1   4 1134.36   19.91   0
   2   1   4 1138.30   14.98   0
   2   1   4 1313.42   14.58   0
  -2  -1  -4  882.81   12.57   0
   2   1   4 1298.72   13.33   0
  -3  -1  -4   83.17    5.40   0
   3   1   4  112.86    7.54   0
   3   1   4  109.41    6.04   0
   4   1   4   61.41    6.57   0
  -4  -1  -4   71.69    5.51   0
   4   1   4   64.98    7.21   0
   5   1   4   32.74    4.80   0
   5   1   4   32.72    8.01   0
  -5  -1  -4   22.15    5.21   0
   5   1   4   22.82    5.06   0
   6   1   4    7.61    5.06   0
  -6  -1  -4   14.65    5.33   0
   6   1   4    7.46    5.53   0
   6   1   4    7.02    8.15   0
   7   1   4    5.29    7.40   0
  -7  -1  -4    6.01    7.73   0
   7   1   4   -4.88    8.83   0
   7   1   4   -4.03    5.52   0
   8   1   4   -1.00    6.68   0
   8   1   4   -0.64    6.12   0
  -8  -1  -4   -1.32    6.18   0
   8   1   4    9.66    7.99   0
  -7   2   4    1.39    8.12   0
   7  -2  -4   14.01    8.62   0
   7  -2  -4    3.77    5.51   0
   7  -2  -4    4.33    9.50   0
   6  -2  -4   11.81    8.52   0
  -6   2   4   10.87    5.41   0
   6  -2  -4    4.86    5.78   0
   6  -2  -4    4.29    7.37   0
  -5   2   4    5.28    5.06   0
   5  -2  -4    1.37    5.34   0
   5  -2  -4    5.57    6.86   0
  -4   2   4   39.48    6.69   0
   4  -2  -4   36.82    7.35   0
   4  -2  -4   34.34    4.94   0
  -4   2   4   38.61    4.95   0
  -3   2   4  155.12    5.73   0
  -3   2   4  157.02    7.45   0
   3  -2  -4  156.44    7.81   0
   3  -2  -4  161.14    7.31   0
  -2   2   4   -0.90    6.48   0
  -2   2   4    4.01    6.38   0
   2  -2  -4    2.01    7.10   0
   2  -2  -4    5.67    6.61   0
  -1   2   4 1274.97   14.71   0
   1  -2  -4 1332.91   14.10   0
  -1   2   4 1337.06   17.30   0
   1  -2  -4 1114.50   17.17   0
   0  -2  -4  521.44   12.20   0
   0  -2  -4  282.62   13.65   0
   0   2   4  532.10   13.49   0
   0   2   4  590.32   16.53   0
   1   2   4  557.87   15.77   0
  -1  -2  -4  663.89   13.62   0
   1   2   4  463.37   12.07   0
  -1  -2  -4  682.15   17.76   0
   2   2   4  293.25    9.64   0
   2   2   4  285.10    8.81   0
   2   2   4  241.41   10.34   0
   3   2   4  313.97    9.99   0
   3   2   4  276.29    7.38   0
   3   2   4  288.84    8.86   0
   4   2   4    9.31    6.53   0
   4   2   4   14.36    6.40   0
  -4  -2  -4   11.43    4.83   0
   4   2   4   14.08    7.40   0
  -5  -2  -4  179.12    6.29   0
   5   2   4  150.24    7.74   0
   5   2   4  151.97    5.84   0
   5   2   4  169.02    8.74   0
   6   2   4    6.06    6.53   0
   6   2   4    2.95    8.41   0
  -6  -2  -4   13.16    6.95   0
   6   2   4   -4.04    7.28   0
   7   2   4   -1.48    7.01   0
   7   2   4   -6.64    8.65   0
   7   2   4    5.47    5.62   0
  -7  -2  -4    6.69    5.34   0
   8   2   4    3.32    7.68   0
   8   2   4    7.56    9.38   0
  -8  -2  -4    5.31    8.30   0
   8   2   4    9.73    6.05   0
   6  -3  -4    5.88    8.40   0
  -6   3   4    2.41    7.64   0
   6  -3  -4   16.68    7.35   0
  -5   3   4   13.03    5.09   0
  -5   3   4   12.77    7.28   0
   5  -3  -4   12.44    5.76   0
   5  -3  -4   14.87    6.92   0
  -4   3   4   38.25    6.76   0
   4  -3  -4   39.13    6.65   0
  -4   3   4   37.95    6.96   0
   4  -3  -4   35.04    5.80   0
  -3   3   4  268.38    6.60   0
   3  -3  -4  240.27    8.81   0
  -3   3   4  257.76    6.69   0
   3  -3  -4  247.18    6.54   0
  -2   3   4   80.29    7.06   0
   2  -3  -4   68.14    5.90   0
   2  -3  -4   76.28    6.84   0
  -2   3   4   71.91    5.59   0
  -1   3   4  308.28    8.91   0
   1  -3  -4  254.23    9.92   0
  -1   3   4  340.43    8.41   0
   1  -3  -4  290.48    8.89   0
   0   3   4  923.81   14.79   0
   0   3   4  843.67   14.96   0
   0  -3  -4  456.58   11.90   0
   0  -3  -4  894.55   15.65   0
  -1  -3  -4  548.03   17.38   0
  -1  -3  -4  610.90   13.38   0
   1   3   4  348.53   11.46   0
   1   3   4  551.47   18.19   0
   2   3   4  242.39   11.49   0
   2   3   4  222.18    9.49   0
   2   3   4  275.18   11.06   0
  -2  -3  -4  275.04   10.07   0
  -3  -3  -4  848.57   13.25   0
   3   3   4  743.10   12.17   0
  -3  -3  -4  893.97   13.14   0
   3   3   4  752.03   12.36   0
   4   3   4   10.54    6.12   0
   4   3   4   13.38    7.29   0
  -4  -3  -4   17.51    6.64   0
   4   3   4   11.37    6.39   0
   5   3   4    5.74    5.06   0
  -5  -3  -4    5.38    6.52   0
   5   3   4    3.52    7.84   0
   5   3   4   -1.39    5.97   0
   6   3   4    8.16    6.55   0
  -6  -3  -4   -8.81    7.19   0
   6   3   4    8.88    4.87   0
   6   3   4    1.52    6.08   0
   7   3   4   16.88    7.45   0
   7   3   4    0.94    7.83   0
  -7  -3  -4    2.41    7.80   0
   7   3   4   10.98    8.52   0
   8   3   4   -1.67    6.55   0
  -8  -3  -4    8.26    5.61   0
   8   3   4    3.55    5.43   0
   8   3   4   11.08    8.18   0
  -6   4   4   12.83    8.06   0
   6  -4  -4    6.81    8.71   0
  -6   4   4    3.65    8.41   0
   6  -4  -4    9.15    7.97   0
   5  -4  -4   21.26    7.78   0
  -5   4   4   23.79    7.28   0
  -5   4   4   21.59    7.54   0
   5  -4  -4   20.26    7.12   0
   4  -4  -4   15.73    6.92   0
  -4   4   4    2.41    7.06   0
   4  -4  -4   10.87    5.49   0
  -4   4   4   19.23    7.18   0
   3  -4  -4   53.21    6.87   0
   3  -4  -4   45.80    8.16   0
  -3   4   4   58.34    7.10   0
  -3   4   4   56.26    7.37   0
  -2   4   4  373.48    8.91   0
   2  -4  -4  309.28    9.41   0
  -2   4   4  380.39    8.76   0
   2  -4  -4  349.12    8.55   0
   1  -4  -4  207.78    7.88   0
  -1   4   4  223.36    7.99   0
   1  -4  -4  154.39    8.64   0
  -1   4   4  233.09    6.79   0
   0   4   4  203.35    9.13   0
   0   4   4  203.23    9.28   0
   0  -4  -4  120.55    8.30   0
   0  -4  -4  192.01    8.95   0
  -1  -4  -4 1554.01   15.19   0
   1   4   4  718.87   12.12   0
  -2  -4  -4   52.10    7.71   0
   2   4   4   35.48    7.70   0
   3   4   4   42.42    8.57   0
   3   4   4   41.67    5.70   0
  -3  -4  -4   47.69    8.39   0
   4   4   4   73.77    7.23   0
  -4  -4  -4   79.29    7.55   0
  -4  -4  -4   72.98    6.09   0
   4   4   4   61.36    7.94   0
   5   4   4   38.25    6.64   0
  -5  -4  -4   38.09    7.15   0
   5   4   4   23.92    5.16   0
   5   4   4   36.53    7.99   0
   6   4   4   -4.83    6.73   0
  -6  -4  -4    4.31    6.95   0
   6   4   4   -2.23    7.19   0
   6   4   4    5.86    5.45   0
   7   4   4   -2.58    6.32   0
   7   4   4   -0.98    5.18   0
  -7  -4  -4   -0.70    7.50   0
   7   4   4   -2.00    5.69   0
   8   4   4   10.61    9.16   0
  -8  -4  -4    0.68    5.78   0
   8   4   4   13.98    8.11   0
   8   4   4   -5.20    5.50   0
   5  -5  -4   13.52    6.05   0
  -5   5   4    4.09    7.99   0
  -5   5   4    4.28    7.82   0
   5  -5  -4    5.50    7.69   0
   4  -5  -4   27.42    6.24   0
  -4   5   4   32.37    8.07   0
  -4   5   4   29.18    5.56   0
   4  -5  -4   20.85    7.36   0
   3  -5  -4    9.97    6.82   0
   3  -5  -4   12.12    8.27   0
  -3   5   4    9.30    7.34   0
  -3   5   4    4.89    6.94   0
   2  -5  -4  144.68    7.43   0
  -2   5   4  174.98    7.96   0
   2  -5  -4  122.69    6.41   0
  -2   5   4  174.66    7.98   0
  -1   5   4  298.97    9.23   0
   1  -5  -4  157.52    6.72   0
   1  -5  -4  242.53    8.72   0
  -1   5   4  312.25    8.72   0
   0   5   4    6.61    7.89   0
   0  -5  -4    2.71    7.70   0
   0  -5  -4    2.65    7.84   0
  -1  -5  -4   56.34    8.29   0
   1   5   4   30.91    8.02   0
  -2  -5  -4  137.32    8.30   0
   2   5   4   92.32    8.51   0
  -3  -5  -4   23.82    5.64   0
   3   5   4   10.39    5.64   0
   3   5   4   21.89    9.91   0
   3   5   4   17.23   10.40   0
  -4  -5  -4   18.78    7.61   0
   4   5   4    2.65    7.81   0
  -4  -5  -4   16.37    8.29   0
   4   5   4    6.28    6.44   0
   5   5   4   -0.76    7.74   0
  -5  -5  -4    2.94    7.93   0
  -5  -5  -4    0.53    7.11   0
   5   5   4    2.41    6.60   0
  -6  -5  -4    2.83    6.70   0
   6   5   4    6.13    5.26   0
   6   5   4    0.48    5.70   0
   6   5   4    7.21    6.94   0
  -7  -5  -4   -2.98    7.63   0
   7   5   4    0.13    7.49   0
   7   5   4    2.25    8.75   0
   7   5   4    0.04    5.04   0
  -8  -5  -4    0.26    8.48   0
   8   5   4    2.02    8.11   0
   8   5   4   -4.55    9.18   0
   8   5   4    4.47    5.75   0
   5  -6  -4   11.93    9.48   0
  -5   6   4   -3.64    8.84   0
  -5   6   4    2.81    8.78   0
   5  -6  -4    5.29    8.26   0
   4  -6  -4   60.57    8.08   0
   4  -6  -4   54.46    8.98   0
  -4   6   4   73.59    6.23   0
  -4   6   4   68.36    8.42   0
   3  -6  -4   12.14    7.07   0
   3  -6  -4   13.78    7.66   0
  -3   6   4    6.63    7.56   0
  -3   6   4   14.93    8.02   0
   2  -6  -4   21.58    8.64   0
  -2   6   4   20.99    7.11   0
   2  -6  -4   18.53    6.92   0
  -2   6   4   28.74    7.33   0
   1  -6  -4   38.61    8.32   0
   1  -6  -4   68.16    7.37   0
  -1   6   4   79.22    7.91   0
   0  -6  -4  239.92   10.11   0
   0   6   4  267.05    6.82   0
   0  -6  -4  189.05    8.45   0
   0  -6  -4  266.46    9.48   0
   1   6   4   11.30    5.69   0
  -1  -6  -4   10.38   11.62   0
  -1  -6  -4   21.63    7.60   0
  -1  -6  -4   14.73   12.13   0
  -2  -6  -4  237.45    7.17   0
   2   6   4  107.06    8.18   0
  -3  -6  -4   15.95    7.58   0
   3   6   4   15.25    5.81   0
   4   6   4  -11.82    7.85   0
  -4  -6  -4    9.55    7.77   0
  -4  -6  -4    3.59    8.65   0
   4   6   4    0.88    8.35   0
   5   6   4   64.87    8.70   0
   5   6   4   58.83    8.30   0
  -5  -6  -4   74.44    8.23   0
  -5  -6  -4   79.45    8.34   0
  -6  -6  -4   10.10    8.14   0
  -6  -6  -4   13.17    7.47   0
   6   6   4   11.25    8.12   0
   6   6   4    4.95    7.21   0
  -7  -6  -4   18.00    7.72   0
   7   6   4   17.31    8.84   0
   7   6   4   12.28    7.16   0
   7   6   4   17.02    7.10   0
  -8  -6  -4    2.71    5.72   0
   8   6   4    2.08    9.28   0
   8   6   4    4.18    5.76   0
   8   6   4   -0.35    7.99   0
   4  -7  -4   10.63    6.72   0
  -4   7   4    5.63    5.74   0
   4  -7  -4   10.19    7.97   0
   3  -7  -4   32.86    6.45   0
   3  -7  -4   59.53    8.07   0
  -3   7   4   65.15    8.34   0
   3  -7  -4   61.31    5.62   0
   2  -7  -4  119.76    8.05   0
   2  -7  -4   81.50    6.35   0
   2  -7  -4  128.70    7.56   0
  -2   7   4  147.86    8.20   0
   1  -7  -4   64.06    7.79   0
   1  -7  -4   42.51    8.51   0
   1  -7  -4   76.51    7.10   0
  -1   7   4   77.35    6.18   0
   0  -7  -4  199.93    9.15   0
   0   7   4  253.49    9.13   0
   0  -7  -4  228.85    8.73   0
   0  -7  -4  196.76    8.98   0
   1   7   4    5.40    5.95   0
  -1  -7  -4    6.23   10.87   0
  -1  -7  -4   20.32    8.17   0
  -1  -7  -4    4.96   10.46   0
  -2  -7  -4    5.18    7.87   0
   2   7   4   -3.90    8.04   0
   3   7   4   45.54    6.08   0
  -3  -7  -4  104.26    8.51   0
  -4  -7  -4   48.06    6.05   0
   4   7   4   38.13    5.80   0
  -5  -7  -4   -5.32    9.08   0
  -5  -7  -4    8.06    5.78   0
   5   7   4    0.79    8.40   0
   5   7   4    1.24    7.95   0
   6   7   4   19.85    8.29   0
  -6  -7  -4   20.96    9.86   0
  -6  -7  -4   10.02    6.18   0
   6   7   4   14.05    7.42   0
   7   7   4   34.63    8.62   0
  -7  -7  -4   27.78    8.65   0
   7   7   4   20.71    7.59   0
  -7  -7  -4   18.83    6.54   0
   8   7   4    4.08    6.63   0
  -8  -7  -4    6.61    8.47   0
   8   7   4    8.39    8.25   0
   8   7   4   -5.27    8.07   0
   3  -8  -4    3.87    5.67   0
   3  -8  -4    9.41    7.52   0
   3  -8  -4   -2.96    9.09   0
  -3   8   4   -1.26    8.26   0
   2  -8  -4   34.96    8.14   0
   2  -8  -4   15.96    9.00   0
   2  -8  -4   35.90    7.45   0
  -2   8   4   44.19    6.11   0
   1  -8  -4   31.79    7.71   0
   1  -8  -4   34.04    7.40   0
   1  -8  -4   30.48    9.10   0
  -1   8   4   34.61    8.06   0
   0  -8  -4    0.94    8.68   0
   0   8   4   -0.27    6.00   0
   0  -8  -4   -4.40    8.51   0
   0  -8  -4    2.77    8.12   0
   1   8   4  156.05    8.77   0
  -1  -8  -4  121.07   12.76   0
  -1  -8  -4  150.94    7.04   0
  -1  -8  -4  141.43   13.69   0
   2   8   4   30.94    6.14   0
  -2  -8  -4   54.64    8.31   0
   3   8   4   16.82    7.91   0
  -3  -8  -4   23.77    8.46   0
   4   8   4   21.25    7.86   0
  -4  -8  -4   31.81    8.55   0
  -5  -8  -4   -1.16    5.55   0
   5   8   4    6.63    5.84   0
  -6  -8  -4    7.67    6.29   0
  -6  -8  -4    4.82    9.61   0
   6   8   4    1.91    8.26   0
   6   8   4    2.66    9.92   0
   7   8   4    4.54    9.47   0
   7   8   4    7.22    9.16   0
  -7  -8  -4   -7.03   10.29   0
  -7  -8  -4    6.18    6.46   0
  -2   9   4    1.89    8.91   0
   1  -9  -4   20.56   10.08   0
   1  -9  -4   20.10    7.85   0
   1  -9  -4   10.99    6.58   0
  -1   9   4   29.69    6.81   0
   0  -9  -4    9.30    9.44   0
   0  -9  -4    6.31    6.35   0
   0  -9  -4    7.22    9.13   0
   0   9   4   13.30    8.39   0
  -1  -9  -4    8.60    6.12   0
   1   9   4    4.71    5.79   0
  -1  -9  -4    2.78   13.00   0
  -1  -9  -4    2.41   13.02   0
   2   9   4   28.80    8.90   0
  -2  -9  -4   38.84    8.43   0
  -3  -9  -4   15.55    6.34   0
   3   9   4   11.60    6.01   0
   4   9   4    3.17    5.92   0
  -4  -9  -4   -0.86    6.05   0
  -5  -9  -4   11.47    6.12   0
   5   9   4    8.45    5.95   0
   6   9   4   -2.27    8.85   0
  -6  -9  -4   -6.46    9.34   0
   7   9   4    2.66    9.38   0
   7   9   4    3.45    9.34   0
  -7  -9  -4   -7.31    9.83   0
   0 -10  -4    4.68    9.75   0
   0 -10  -4    8.61    6.75   0
   0  10   4   13.48    9.21   0
   0 -10  -4   10.52   10.17   0
   1  10   4   11.86    9.44   0
  -1 -10  -4    8.45    9.31   0
   2  10   4   17.11    9.24   0
  -2 -10  -4    9.45    9.09   0
   3  10   4   11.68    8.62   0
  -3 -10  -4    5.27    9.19   0
   4  10   4   -2.73    8.72   0
  -4 -10  -4    6.49    6.29   0
  -5 -10  -4   15.65    9.27   0
   5  10   4   10.82    8.96   0
  -6 -10  -4    6.63    6.89   0
   6  10   4   -1.77    9.33   0
   5   9  -5   -8.49    9.14   0
   5   9  -5   -3.00    7.76   0
  -5  -9   5   -5.78    8.13   0
  -5  -9   5    5.97    9.40   0
   4   9  -5    8.15    8.95   0
  -4  -9   5   15.30    8.10   0
   4   9  -5    7.84    7.75   0
  -4  -9   5   10.86    9.33   0
   3   9  -5    7.79    6.01   0
  -3  -9   5   20.85    9.03   0
  -3  -9   5    4.71    7.79   0
   3   9  -5    4.72    7.39   0
   2   9  -5   18.95    6.27   0
  -2  -9   5   22.41    7.60   0
  -2  -9   5   13.85    8.81   0
   2   9  -5   17.64    7.44   0
   1   9  -5   48.49    6.36   0
  -1  -9   5   39.75    8.77   0
  -1  -9   5   26.21    6.75   0
  -1  -9   5   26.60    7.65   0
   0  -9   5    2.67    5.92   0
   0  -9   5    4.16    7.84   0
   0  -9   5   -0.49    6.51   0
   0   9  -5    7.46    6.21   0
  -6  -8   5    3.25    5.70   0
  -6  -8   5    2.56    6.80   0
   6   8  -5    3.52    5.48   0
   6   8  -5   14.89    6.66   0
  -5  -8   5   -4.24    8.95   0
   5   8  -5    3.27    7.15   0
   5   8  -5   -6.19    8.81   0
  -5  -8   5    2.46    7.61   0
   4   8  -5    4.68    6.06   0
   4   8  -5   -3.40    7.04   0
  -4  -8   5    9.13    5.88   0
  -4  -8   5   11.14    7.69   0
   3   8  -5   15.89    8.42   0
  -3  -8   5   38.14    8.78   0
   3   8  -5   24.29    6.78   0
  -3  -8   5   16.99    5.30   0
  -2  -8   5   21.48    6.07   0
   2   8  -5   14.97    6.08   0
  -2  -8   5   20.98    7.08   0
   2   8  -5   17.93    6.82   0
   1   8  -5   59.34    8.42   0
  -1  -8   5   49.00    8.75   0
  -1  -8   5   58.27    7.34   0
   0   8  -5  117.71    6.24   0
   0  -8   5  148.75    8.89   0
   0  -8   5  123.06    9.34   0
   0  -8   5  101.85    7.60   0
   1  -8   5    0.04    7.60   0
   1  -8   5   -5.24    8.47   0
   1  -8   5    8.00    8.84   0
  -1   8  -5    4.34    8.20   0
  -7  -7   5   10.19    8.52   0
   7   7  -5   -3.98    7.88   0
  -7  -7   5    3.56    9.74   0
   7   7  -5   11.46    9.70   0
   6   7  -5   -0.32    7.25   0
  -6  -7   5   -3.62    7.71   0
  -6  -7   5    2.52    6.52   0
   6   7  -5    4.91    6.26   0
  -5  -7   5   11.52    8.61   0
   5   7  -5    6.46    8.51   0
   5   7  -5    7.59    6.87   0
  -5  -7   5   16.17    7.41   0
   4   7  -5    5.51    6.57   0
   4   7  -5   10.64    6.19   0
  -4  -7   5    1.09    5.90   0
  -4  -7   5   10.31    5.30   0
   3   7  -5   75.39    6.90   0
  -3  -7   5   76.61    6.29   0
   3   7  -5   58.89    5.96   0
  -3  -7   5   72.44    5.22   0
  -2  -7   5  104.52    8.48   0
   2   7  -5   70.75    5.82   0
   2   7  -5   88.74    6.96   0
  -2  -7   5   65.02    5.17   0
   1   7  -5   -6.90    5.60   0
   1   7  -5    1.79    4.77   0
  -1  -7   5    0.56    6.39   0
  -1  -7   5   -2.80    5.79   0
   0   7  -5   62.56    8.26   0
   0  -7   5   54.69    6.89   0
   0  -7   5   72.31    8.19   0
   1  -7   5  188.78    8.41   0
   1  -7   5  118.93    8.78   0
  -1   7  -5  121.56    8.49   0
   1  -7   5  177.83    7.71   0
   2  -7   5   -3.20    6.34   0
   2  -7   5   -2.16    5.75   0
  -2   7  -5   -3.87    5.77   0
   2  -7   5   11.52    7.42   0
   3  -7   5   36.11    6.28   0
   3  -7   5   11.96    9.13   0
   3  -7   5   18.73    7.48   0
  -3   7  -5    9.86    6.09   0
   7   6  -5    1.79    6.59   0
  -7  -6   5    0.43    7.89   0
  -7  -6   5    0.12    6.75   0
   7   6  -5   -2.58    7.44   0
  -6  -6   5   16.69    8.83   0
  -6  -6   5   -1.27    7.26   0
   6   6  -5    5.12    7.18   0
   6   6  -5    4.57    8.64   0
  -5  -6   5   39.04    8.36   0
   5   6  -5   23.88    6.32   0
   5   6  -5   22.68    4.54   0
  -5  -6   5   29.09    6.92   0
   4   6  -5   32.16    6.82   0
  -4  -6   5   32.07    5.09   0
  -4  -6   5   29.90    5.96   0
   4   6  -5   25.67    8.46   0
  -3  -6   5    6.72    6.76   0
   3   6  -5   12.16    8.12   0
   3   6  -5    5.66    6.35   0
  -3  -6   5    9.45    5.88   0
  -2  -6   5  137.58    6.57   0
   2   6  -5  123.72    7.01   0
   2   6  -5   85.86    8.54   0
  -2  -6   5   90.06    5.18   0
   1   6  -5  158.67    8.89   0
   1   6  -5  174.58    7.08   0
  -1  -6   5  143.43    7.05   0
  -1  -6   5  179.85    6.68   0
   0   6  -5   25.72    7.97   0
   0   6  -5   23.85    4.67   0
   0  -6   5   18.58    5.81   0
   0  -6   5   24.68    6.77   0
   1  -6   5  103.17    6.41   0
   1  -6   5  172.64    7.89   0
   1  -6   5  168.10    7.41   0
  -1   6  -5  135.95    6.40   0
   2  -6   5   57.71    5.42   0
   2  -6   5   58.94    7.69   0
  -2   6  -5   48.02    7.57   0
   2  -6   5   30.61    6.03   0
   3  -6   5   -1.32    5.36   0
   3  -6   5   -7.52    6.06   0
  -3   6  -5    5.93    5.32   0
   3  -6   5   -1.83    5.07   0
   4  -6   5   16.16    5.34   0
   4  -6   5   15.08    8.07   0
   4  -6   5   10.02    6.39   0
  -4   6  -5   10.43    5.93   0
  -8  -5   5    6.68    8.20   0
   8   5  -5    4.11    9.75   0
   8   5  -5   -1.98    5.52   0
   8   5  -5    4.62    8.57   0
  -7  -5   5   11.98    7.47   0
   7   5  -5   -2.93    6.39   0
  -7  -5   5   19.00    8.89   0
   7   5  -5   10.91    7.12   0
  -6  -5   5   15.67    7.01   0
   6   5  -5    6.07    6.12   0
  -6  -5   5   10.45    5.90   0
   6   5  -5    5.29    6.83   0
   5   5  -5   17.20    8.42   0
  -5  -5   5    0.98    8.27   0
   5   5  -5    6.04    6.52   0
  -5  -5   5    3.64    4.73   0
  -4  -5   5   67.82    7.96   0
   4   5  -5   47.64    6.96   0
   4   5  -5   63.29    6.26   0
  -4  -5   5   72.77    6.76   0
   3   5  -5   56.91    6.66   0
  -3  -5   5   65.02    5.83   0
   3   5  -5   57.29    5.87   0
  -3  -5   5   63.97    5.17   0
   2   5  -5   43.75    6.48   0
  -2  -5   5   53.18    5.88   0
  -2  -5   5   36.00    6.40   0
   2   5  -5   19.32    5.55   0
   1   5  -5  266.91    7.33   0
   1   5  -5  348.10    7.76   0
  -1  -5   5  282.75    7.71   0
  -1  -5   5  362.53    7.70   0
   0   5  -5  154.40    6.30   0
   0   5  -5  168.65    5.41   0
   0  -5   5  166.65    7.13   0
   0  -5   5  135.08    8.82   0
   1  -5   5   23.21    7.93   0
   1  -5   5   40.35    6.53   0
  -1   5  -5   25.41    7.67   0
   2  -5   5  209.73    8.33   0
   2  -5   5  114.65    6.53   0
   2  -5   5  210.98    7.26   0
  -2   5  -5  121.53    5.60   0
   3  -5   5   51.43    5.19   0
   3  -5   5   43.02    5.98   0
   3  -5   5   68.47    7.19   0
  -3   5  -5   25.59    5.36   0
   4  -5   5    0.67    5.46   0
   4  -5   5   13.12    8.49   0
   4  -5   5    0.01    7.04   0
  -4   5  -5   14.59    7.79   0
   5  -5   5   20.42    8.45   0
   5  -5   5   22.06    9.60   0
   5  -5   5   27.85    5.46   0
  -5   5  -5   20.27    8.39   0
   8   4  -5   -3.28    9.54   0
   8   4  -5   -2.74    7.91   0
   8   4  -5    1.46    6.01   0
  -8  -4   5    9.63    8.17   0
   7   4  -5   14.18    7.75   0
  -7  -4   5    6.76    7.47   0
   7   4  -5    9.48    8.83   0
   7   4  -5    0.97    5.42   0
  -6  -4   5   13.41    7.13   0
   6   4  -5   15.64    4.74   0
  -6  -4   5   19.16    5.88   0
   6   4  -5   14.32    8.71   0
   5   4  -5   -1.18    8.44   0
  -5  -4   5    0.89    8.31   0
  -5  -4   5    9.67    4.75   0
   5   4  -5    6.70    4.84   0
   4   4  -5   83.97    8.48   0
  -4  -4   5   57.66    7.98   0
  -4  -4   5   76.59    5.05   0
   4   4  -5   74.75    6.73   0
   3   4  -5  116.03    6.71   0
  -3  -4   5  154.38    7.24   0
   3   4  -5  152.02    6.82   0
  -3  -4   5  131.27    8.36   0
  -2  -4   5   84.11    6.13   0
  -2  -4   5   43.06    6.51   0
   2   4  -5   45.94    8.19   0
   2   4  -5   74.65    6.44   0
  -1  -4   5  133.74    5.27   0
   1   4  -5  105.18    6.41   0
   1   4  -5  144.74    6.95   0
  -1  -4   5  177.74    8.56   0
   0   4  -5  385.15    6.58   0
   0  -4   5  289.51    9.51   0
   0   4  -5  367.05    9.87   0
   0  -4   5  380.83    7.99   0
  -1   4  -5   64.32    7.77   0
  -1   4  -5   67.32    6.28   0
   1  -4   5   35.32    8.37   0
   1  -4   5   79.84    6.75   0
   2  -4   5    8.75    5.83   0
   2  -4   5    8.86    6.82   0
   2  -4   5    8.86    6.23   0
  -2   4  -5   17.58    6.98   0
   3  -4   5  117.29    8.77   0
   3  -4   5  148.28    7.71   0
   3  -4   5  136.96    5.56   0
  -3   4  -5   68.85    7.45   0
   4  -4   5   50.77    6.16   0
   4  -4   5   59.23    5.59   0
   4  -4   5   67.69    6.96   0
  -4   4  -5   48.77    7.47   0
   5  -4   5    2.31    8.56   0
   5  -4   5    0.22    7.65   0
   5  -4   5   13.15    6.93   0
  -5   4  -5   -4.00    5.62   0
   8   3  -5   -4.54    5.71   0
  -8  -3   5   -3.69    5.72   0
   8   3  -5    0.94    9.19   0
   8   3  -5   -1.55    5.63   0
  -7  -3   5   24.27    7.73   0
   7   3  -5    2.06    7.38   0
   7   3  -5   16.03    7.30   0
   7   3  -5    5.50    6.42   0
  -6  -3   5   19.04    6.92   0
   6   3  -5   19.50    8.52   0
   6   3  -5    4.10    6.89   0
  -5  -3   5   43.14    4.89   0
   5   3  -5   54.50    7.89   0
  -5  -3   5   48.53    7.74   0
   5   3  -5   43.67    4.89   0
   4   3  -5   10.98    8.09   0
   4   3  -5    8.33    4.72   0
  -4  -3   5    9.42    4.70   0
  -4  -3   5   12.44    7.80   0
  -3  -3   5  224.96    6.85   0
   3   3  -5  290.07    8.98   0
   3   3  -5  232.60    6.04   0
  -3  -3   5  264.76    7.75   0
  -2  -3   5  304.27    6.21   0
   2   3  -5  274.24    7.44   0
  -2  -3   5  380.92    9.66   0
   2   3  -5  339.46    9.69   0
  -1  -3   5   75.24    6.88   0
  -1  -3   5   78.14    6.59   0
   1   3  -5   56.14    4.85   0
   1   3  -5   46.38    8.43   0
   0   3  -5    4.01    7.90   0
   0  -3   5   10.37    4.49   0
   0  -3   5    8.50    7.90   0
   0   3  -5   10.79    4.29   0
   1  -3   5  176.17    8.47   0
   1  -3   5  295.89    7.50   0
  -1   3  -5  267.48    5.80   0
  -1   3  -5  212.40    6.44   0
   2  -3   5   94.09    8.60   0
   2  -3   5  128.77    7.54   0
   2  -3   5  122.26    5.22   0
  -2   3  -5   78.59    7.23   0
   3  -3   5  112.57    8.52   0
   3  -3   5  119.02    7.07   0
   3  -3   5  114.05    5.11   0
  -3   3  -5   69.00    5.04   0
   4  -3   5   30.66    8.36   0
   4  -3   5   32.23    4.95   0
   4  -3   5   29.62    6.42   0
  -4   3  -5   19.81    6.76   0
   5  -3   5    4.39    5.16   0
   5  -3   5   -2.45    4.73   0
  -5   3  -5    0.81    7.34   0
   5  -3   5    3.04    8.32   0
   6  -3   5    5.51    6.45   0
   6  -3   5   -5.15    7.00   0
   6  -3   5   -3.33    7.56   0
  -6   3  -5   10.88    5.37   0
  -8  -2   5   13.05    8.33   0
   8   2  -5   -0.40    7.84   0
   8   2  -5    0.96    5.79   0
   8   2  -5   12.67    6.88   0
  -7  -2   5    6.27    5.27   0
   7   2  -5    8.73    7.78   0
   7   2  -5    4.37    7.35   0
   7   2  -5    1.98    8.84   0
  -6  -2   5   13.75    6.63   0
   6   2  -5    4.61    4.81   0
   6   2  -5    2.76    4.53   0
   6   2  -5    4.17    7.98   0
  -5  -2   5   10.26    4.81   0
   5   2  -5   22.36    6.63   0
   5   2  -5   20.48    7.82   0
  -4  -2   5   87.20    8.12   0
  -4  -2   5   92.17    6.90   0
   4   2  -5   96.91    6.35   0
   4   2  -5   92.55    7.05   0
   3   2  -5   50.74    8.19   0
  -3  -2   5   32.92    5.60   0
   3   2  -5   42.97    4.50   0
  -3  -2   5   38.04    6.33   0
   2   2  -5  152.23    5.63   0
  -2  -2   5  153.38    8.71   0
  -2  -2   5  162.78    5.61   0
   2   2  -5  205.08    9.46   0
  -1  -2   5 1259.19   14.30   0
   1   2  -5  730.62   10.96   0
  -1  -2   5  961.30   10.98   0
   1   2  -5  988.86   10.93   0
   0  -2   5   10.41    6.34   0
   0   2  -5   13.89    8.48   0
   0  -2   5    9.89    8.62   0
   0   2  -5   16.29    6.16   0
   1  -2   5 1705.00   15.06   0
  -1   2  -5 2221.38   13.18   0
   1  -2   5 2425.09   13.68   0
  -1   2  -5 1817.32   14.07   0
   2  -2   5   24.03    5.67   0
  -2   2  -5   19.05    6.61   0
   2  -2   5   26.17    6.35   0
   2  -2   5   18.28    5.94   0
   3  -2   5   82.73    8.39   0
   3  -2   5   85.42    7.02   0
   3  -2   5   86.79    4.72   0
  -3   2  -5   63.24    7.18   0
   4  -2   5   53.98    5.84   0
   4  -2   5   47.28    6.80   0
   4  -2   5   64.02    6.29   0
  -4   2  -5   38.27    5.04   0
   5  -2   5   31.06    4.45   0
   5  -2   5   29.32    6.72   0
  -5   2  -5   20.61    7.01   0
   5  -2   5   38.13    5.79   0
   6  -2   5    6.04    6.63   0
   6  -2   5    5.14    5.26   0
  -6   2  -5    6.23    5.31   0
   6  -2   5   18.72    5.86   0
   7  -2   5   -0.51    7.97   0
   7  -2   5    7.10    7.44   0
  -7   2  -5    4.56    8.42   0
   7  -2   5    8.47    9.16   0
   8   1  -5    0.51    9.58   0
  -8  -1   5    0.37    8.58   0
   8   1  -5    5.65    8.56   0
   8   1  -5    8.26    5.58   0
  -7  -1   5   26.22    7.27   0
   7   1  -5   52.14    9.29   0
   7   1  -5   28.89    7.89   0
   7   1  -5   25.69    7.27   0
   6   1  -5   14.05    7.15   0
  -6  -1   5   12.21    6.90   0
   6   1  -5   20.97    8.48   0
   6   1  -5    8.59    4.60   0
  -5  -1   5   79.38    6.60   0
   5   1  -5   69.29    7.19   0
   5   1  -5   88.32    8.52   0
   5   1  -5   87.04    6.70   0
  -4  -1   5  191.87    7.21   0
   4   1  -5  218.99    8.88   0
   4   1  -5  141.16    5.75   0
   4   1  -5  208.77    5.87   0
  -3  -1   5  211.16    7.47   0
   3   1  -5  232.66    5.89   0
   3   1  -5  256.43    9.66   0
  -3  -1   5  216.11    5.68   0
   2   1  -5  117.94    8.56   0
  -2  -1   5   95.25    8.36   0
  -2  -1   5  109.04    5.26   0
   2   1  -5  107.59    5.29   0
  -1  -1   5  954.67   10.97   0
  -1  -1   5 1188.89   15.76   0
   1   1  -5  924.16    9.97   0
   1   1  -5 1188.49   15.87   0
   0   1  -5  467.02   11.63   0
   0  -1   5  419.74    7.47   0
   0   1  -5  410.74    7.47   0
   0  -1   5  406.48   11.32   0
   1  -1   5   91.05    8.78   0
   1  -1   5  105.96    6.82   0
  -1   1  -5   98.53    4.94   0
  -1   1  -5   77.93    7.90   0
   2  -1   5 1772.97   15.37   0
  -2   1  -5 1218.65   12.78   0
   2  -1   5 1804.17   12.50   0
  -3   1  -5  786.13   10.25   0
   3  -1   5 1085.24    9.72   0
   3  -1   5 1070.27   10.13   0
   3  -1   5 1108.37   10.88   0
   4  -1   5  202.44    7.35   0
   4  -1   5  195.64    6.84   0
   4  -1   5  203.25    6.63   0
  -4   1  -5  160.34    7.65   0
   5  -1   5  171.79    5.82   0
   5  -1   5  186.62    6.96   0
  -5   1  -5  122.55    7.68   0
   5  -1   5  189.37    8.85   0
   6  -1   5   -1.97    7.09   0
   6  -1   5   -0.75    6.48   0
  -6   1  -5    1.54    7.34   0
   6  -1   5    7.87    8.14   0
   7  -1   5    9.28    7.77   0
   7  -1   5    3.98    7.16   0
   7  -1   5    8.37    8.58   0
  -7   0   5    2.29    7.48   0
   7   0  -5   -3.98    8.22   0
   7   0  -5   -5.49    7.10   0
   7   0  -5    5.05    8.90   0
   6   0  -5   31.03    7.21   0
  -6   0   5   48.13    6.91   0
   6   0  -5   51.52    8.26   0
   6   0  -5   32.41    5.17   0
  -5   0   5   98.14    7.07   0
   5   0  -5  109.55    6.35   0
   5   0  -5   67.56    5.42   0
   5   0  -5   97.79    6.99   0
  -4   0   5   61.83    4.68   0
   4   0  -5   75.94    8.17   0
   4   0  -5   65.55    4.78   0
   4   0  -5   44.10    7.01   0
   3   0  -5  473.25   10.95   0
   3   0  -5  316.44    8.73   0
   3   0  -5  444.65    7.16   0
  -3   0   5  430.91    8.03   0
   2   0  -5  397.80    9.92   0
   2   0  -5  365.61    8.60   0
  -2   0   5  356.14    8.47   0
   1   0  -5   24.32    8.77   0
  -1   0   5   23.44    4.98   0
   1   0  -5   19.88    4.82   0
  -1   0   5   21.18    8.41   0
   0   0  -5 2002.09   15.52   0
   0   0  -5 2309.68   27.40   0
   0   0   5 2475.35   27.44   0
   0   0   5 2019.48   14.98   0
   1   0   5  556.79   12.60   0
  -1   0  -5  563.54    8.50   0
   1   0   5  573.13    9.61   0
  -1   0  -5  426.19   11.02   0
  -2   0  -5   97.35    7.60   0
   2   0   5  145.93    7.18   0
   2   0   5  137.53    6.65   0
   3   0   5  140.62    7.15   0
  -3   0  -5  103.72    7.23   0
   3   0   5  112.27    5.02   0
   3   0   5  127.09    6.18   0
   4   0   5  277.65    6.40   0
   4   0   5  286.91    7.46   0
  -4   0  -5  207.57    7.86   0
   4   0   5  289.47    7.16   0
   5   0   5    2.14    6.62   0
   5   0   5    9.77    4.33   0
  -5   0  -5   -0.26    6.69   0
   5   0   5   20.23    5.35   0
   6   0   5   32.34    5.01   0
   6   0   5   36.18    6.54   0
   6   0   5   49.71    7.93   0
   7   0   5    6.41    5.43   0
   7   0   5   -2.66    9.13   0
   7   0   5    7.40    6.01   0
   7   0   5   17.98    6.85   0
   7  -1  -5   10.29    6.56   0
   7  -1  -5   -0.27    5.29   0
  -7   1   5    4.47    7.57   0
   7  -1  -5   -4.06    8.43   0
  -6   1   5    5.67    4.98   0
   6  -1  -5   15.46    8.46   0
   6  -1  -5    1.74    5.05   0
   6  -1  -5   15.19    4.81   0
  -5   1   5   24.31    6.94   0
   5  -1  -5   19.34    5.21   0
   5  -1  -5   23.09    8.07   0
   5  -1  -5   18.44    4.69   0
   4  -1  -5   86.04    8.16   0
  -4   1   5   68.87    5.21   0
   4  -1  -5   50.19    5.39   0
   4  -1  -5   78.22    6.48   0
   3  -1  -5    1.26    5.19   0
  -3   1   5    0.04    6.06   0
   3  -1  -5    7.30    6.43   0
   3  -1  -5    5.21    6.05   0
  -2   1   5 1313.88   11.65   0
   2  -1  -5 1064.57   14.69   0
   2  -1  -5 1417.07   17.88   0
   2  -1  -5 1395.53   12.15   0
   1  -1  -5   46.79   10.40   0
   1  -1  -5   32.61    8.97   0
   1  -1  -5   40.84    5.31   0
  -1   1   5   39.13    5.17   0
   0  -1  -5  466.58    9.90   0
   0   1   5  493.15   10.22   0
   1   1   5  313.43    8.83   0
  -1  -1  -5  328.93    8.73   0
  -1  -1  -5  239.04   10.83   0
   1   1   5  343.47   13.95   0
  -2  -1  -5  148.08    6.58   0
   2   1   5  231.33    6.56   0
   2   1   5  210.72    8.78   0
  -3  -1  -5   87.67    7.28   0
   3   1   5  140.46    7.65   0
   3   1   5  131.26    8.06   0
   3   1   5  120.05    5.32   0
   4   1   5   71.92    6.84   0
   4   1   5   73.14    4.80   0
   4   1   5   80.16    5.31   0
   5   1   5    2.08    4.57   0
   5   1   5    8.35    5.06   0
   6   1   5   11.38    6.89   0
   6   1   5   -3.60    7.76   0
   6   1   5   -3.45    5.92   0
   7   1   5    3.06    7.35   0
   7   1   5    4.42    7.89   0
   7   1   5    5.90    6.34   0
   8   1   5    4.57    5.78   0
   8   1   5    1.75    9.68   0
   8   1   5    4.62    8.87   0
   8   1   5    6.81    5.09   0
  -7   2   5   -0.52    6.01   0
   7  -2  -5   10.74    8.81   0
   7  -2  -5    4.76    8.10   0
   7  -2  -5    2.62    6.86   0
  -6   2   5    4.65    7.56   0
   6  -2  -5   -4.56    7.36   0
   6  -2  -5   -7.92    8.88   0
   6  -2  -5   -2.31    7.92   0
  -5   2   5    9.91    6.82   0
   5  -2  -5    8.10    8.32   0
   5  -2  -5    6.24    7.57   0
   5  -2  -5    5.00    4.83   0
  -4   2   5  154.14    7.34   0
   4  -2  -5  152.92    7.99   0
   4  -2  -5  148.22    5.75   0
   3  -2  -5    3.29    6.71   0
  -3   2   5    4.17    6.39   0
  -3   2   5    3.51    4.66   0
   3  -2  -5    1.06    4.49   0
  -2   2   5  360.67    8.78   0
  -2   2   5  331.27    7.77   0
   2  -2  -5  324.56    9.27   0
   2  -2  -5  367.94    7.48   0
  -1   2   5  145.94    9.83   0
   1  -2  -5  160.22    6.39   0
   1  -2  -5  135.10    9.13   0
  -1   2   5  157.10    7.69   0
   0   2   5  360.62    9.86   0
   0  -2  -5  335.10    9.33   0
   0   2   5  398.01   17.51   0
   0  -2  -5  339.63   17.78   0
   1   2   5  775.38   19.55   0
  -1  -2  -5  823.33   12.67   0
   1   2   5  587.23   11.58   0
   2   2   5 1041.18   12.74   0
   2   2   5  982.15   13.52   0
   2   2   5  842.55   14.68   0
   2   2   5  822.10   13.47   0
   3   2   5   -1.22    6.38   0
   3   2   5    6.00    6.10   0
   3   2   5    4.98    6.77   0
   3   2   5    3.84    7.68   0
   4   2   5   54.54    6.91   0
   4   2   5   53.61    7.91   0
   4   2   5   44.12    7.06   0
   5   2   5   36.72    6.49   0
   5   2   5   33.62    8.15   0
   5   2   5   40.97    5.43   0
   6   2   5    5.66    6.63   0
  -6  -2  -5   13.08    7.25   0
   6   2   5   12.07    8.23   0
   6   2   5    6.34    7.45   0
   7   2   5    1.27    5.47   0
   7   2   5   -1.72    6.98   0
   7   2   5    4.63    6.15   0
  -7  -2  -5   -0.32    4.99   0
   8   2   5   11.25    9.34   0
   8   2   5   -4.33    7.96   0
   8   2   5    2.36    8.54   0
  -6   3   5   14.03    8.04   0
   6  -3  -5   12.09    9.42   0
   6  -3  -5   14.97    6.22   0
   6  -3  -5   12.12    7.71   0
  -5   3   5    2.99    6.98   0
   5  -3  -5    6.45    7.71   0
   5  -3  -5   12.29    6.80   0
  -4   3   5   79.67    7.20   0
  -4   3   5   74.89    5.15   0
   4  -3  -5   67.79    7.61   0
   4  -3  -5   69.14    5.12   0
  -3   3   5   86.33    6.91   0
  -3   3   5   78.03    5.18   0
   3  -3  -5   75.37    5.74   0
   3  -3  -5   78.60    7.04   0
   2  -3  -5   59.41    7.62   0
  -2   3   5   63.00    6.80   0
   2  -3  -5   54.59    6.83   0
  -2   3   5   60.59    6.83   0
  -1   3   5  969.21   11.95   0
   1  -3  -5  863.87   13.45   0
   1  -3  -5  996.05   12.72   0
  -1   3   5 1053.24   13.88   0
   0   3   5  839.48   13.69   0
   0  -3  -5  887.09   13.48   0
   0  -3  -5  583.31   14.90   0
   0   3   5  958.81   16.89   0
  -1  -3  -5  221.46    9.42   0
   1   3   5  164.47   10.21   0
  -1  -3  -5  287.39   11.47   0
   1   3   5  242.41   10.97   0
   2   3   5   97.47    7.99   0
   2   3   5   76.64    8.26   0
  -2  -3  -5   93.84    8.58   0
   2   3   5   89.58    8.65   0
   3   3   5  100.25    6.41   0
   3   3   5  109.14    7.30   0
   3   3   5  124.29    6.82   0
   4   3   5   89.86    8.23   0
   4   3   5   92.19    7.15   0
   4   3   5  101.09    7.24   0
   5   3   5   33.49    6.80   0
  -5  -3  -5   45.64    7.12   0
   5   3   5   32.71    8.25   0
   5   3   5   29.00    6.94   0
   6   3   5   25.23    5.34   0
  -6  -3  -5   40.23    7.60   0
   6   3   5   31.43    5.19   0
   6   3   5   31.39    5.91   0
   7   3   5   -4.86    5.32   0
  -7  -3  -5    5.39    5.64   0
   7   3   5   -1.79    8.58   0
   7   3   5    3.73    5.03   0
   8   3   5   10.51    7.61   0
  -8  -3  -5   12.41    5.86   0
   8   3   5  -10.35    9.27   0
   8   3   5   -1.03    6.06   0
   6  -4  -5   -3.97    6.14   0
  -6   4   5    0.66    8.47   0
   6  -4  -5    4.73    5.51   0
   5  -4  -5    5.58    5.94   0
  -5   4   5   22.64    5.42   0
  -5   4   5   18.03    7.64   0
   5  -4  -5   11.32    7.21   0
   4  -4  -5   -1.18    8.00   0
  -4   4   5    4.30    6.94   0
  -4   4   5    7.22    7.13   0
   4  -4  -5   11.36    6.79   0
   3  -4  -5  206.61    8.94   0
  -3   4   5  226.97    8.07   0
  -3   4   5  230.46    8.27   0
   3  -4  -5  211.30    7.92   0
   2  -4  -5   76.64    8.29   0
  -2   4   5   95.33    6.83   0
  -2   4   5  103.07    7.09   0
   2  -4  -5   97.79    6.65   0
  -1   4   5   90.92    7.23   0
   1  -4  -5   69.46    8.35   0
  -1   4   5  107.19    7.45   0
   1  -4  -5   86.42    6.81   0
   0   4   5   57.58    7.52   0
   0   4   5   50.35    7.10   0
   0  -4  -5   59.16    8.53   0
   0  -4  -5   37.31    7.91   0
   1   4   5  374.66   17.31   0
  -1  -4  -5  408.53   10.74   0
   1   4   5  212.31    9.34   0
  -1  -4  -5  304.24   14.33   0
  -2  -4  -5   32.43    7.20   0
   2   4   5   24.49   12.06   0
   2   4   5   24.03   10.96   0
   2   4   5   24.83    7.63   0
   3   4   5  292.99   11.46   0
   3   4   5  279.26    9.46   0
  -3  -4  -5  337.24   10.14   0
   3   4   5  333.95   10.00   0
   4   4   5   61.16    7.21   0
   4   4   5   67.17    7.94   0
  -4  -4  -5   68.27    6.07   0
   5   4   5   13.37    4.86   0
  -5  -4  -5   13.93    7.25   0
   5   4   5    6.21    6.96   0
   5   4   5   17.78    5.49   0
   6   4   5    5.06    6.68   0
   6   4   5   13.63    5.61   0
  -6  -4  -5   11.20    6.95   0
   6   4   5    0.32    6.86   0
   7   4   5    0.64    7.07   0
   7   4   5   -4.66    8.69   0
  -7  -4  -5   -1.70    5.34   0
   7   4   5   -0.78    7.61   0
  -8  -4  -5   -0.48    6.23   0
   8   4   5   -2.72    9.30   0
   8   4   5   -1.28    7.93   0
   8   4   5    5.48    5.47   0
   5  -5  -5   12.10    6.64   0
  -5   5   5    5.52    8.12   0
   5  -5  -5    6.22    7.50   0
  -5   5   5   16.21    7.99   0
   4  -5  -5    0.90    5.92   0
  -4   5   5    6.11    7.57   0
  -4   5   5    3.10    5.24   0
   4  -5  -5    8.07    5.28   0
   3  -5  -5   12.70    8.52   0
  -3   5   5   25.95    7.16   0
  -3   5   5   12.19    5.31   0
   3  -5  -5    6.36    7.08   0
   2  -5  -5   73.65    8.76   0
   2  -5  -5   82.71    7.29   0
  -2   5   5   93.04    7.55   0
  -2   5   5   95.75    7.52   0
   1  -5  -5  143.07    7.85   0
  -1   5   5  166.18    8.36   0
   1  -5  -5   99.49    8.81   0
  -1   5   5  183.45    7.86   0
   0   5   5  128.11    6.62   0
   0   5   5  126.90    9.42   0
   0  -5  -5  116.66    9.05   0
   0  -5  -5   90.42    8.33   0
  -1  -5  -5  389.34   10.45   0
   1   5   5  268.38    9.64   0
   2   5   5   28.54    5.63   0
  -2  -5  -5   43.82    7.54   0
   3   5   5   41.48    7.86   0
   3   5   5   52.32   12.95   0
  -3  -5  -5   60.84    5.78   0
   3   5   5   48.16   12.32   0
  -4  -5  -5   90.02    8.54   0
   4   5   5   82.37    5.73   0
   4   5   5   85.17    6.89   0
   4   5   5   69.85    7.21   0
  -5  -5  -5   22.49    8.19   0
  -5  -5  -5   15.96    7.22   0
   5   5   5   13.06    5.58   0
   5   5   5   18.89    6.71   0
  -6  -5  -5    7.86    7.42   0
   6   5   5   10.61    6.62   0
   6   5   5    4.56    7.99   0
   6   5   5    2.91    6.69   0
   7   5   5   -1.27    7.51   0
  -7  -5  -5   11.85    7.66   0
   7   5   5   12.00    8.57   0
   7   5   5    7.96    7.15   0
   8   5   5   -2.38    6.48   0
  -8  -5  -5   11.93    8.20   0
   8   5   5    1.93    5.70   0
   8   5   5   11.86    7.57   0
   4  -6  -5   39.18    9.10   0
  -4   6   5   49.34    8.42   0
  -4   6   5   49.87    8.43   0
   4  -6  -5   38.76    5.64   0
   3  -6  -5    4.69    6.16   0
  -3   6   5    7.61    7.65   0
  -3   6   5   11.44    7.64   0
   3  -6  -5    5.20    7.11   0
   2  -6  -5   90.37    8.71   0
  -2   6   5  123.78    7.80   0
  -2   6   5  127.96    6.00   0
   2  -6  -5  103.58    7.29   0
   1  -6  -5  123.93    7.81   0
  -1   6   5  152.05    8.17   0
   1  -6  -5   68.50    6.01   0
  -1   6   5  145.82    8.16   0
   0   6   5   19.38    7.62   0
   0  -6  -5   10.80    8.11   0
   0  -6  -5   19.14    7.89   0
   1   6   5   37.63    8.30   0
  -1  -6  -5   41.87    5.69   0
   2   6   5  116.62    8.56   0
  -2  -6  -5  279.72    8.93   0
   3   6   5   36.60    7.89   0
  -3  -6  -5   60.05    7.80   0
   4   6   5   26.84    7.91   0
   4   6   5   27.55    9.57   0
  -4  -6  -5   26.95    5.95   0
   4   6   5   24.53    9.98   0
   5   6   5   53.20    6.00   0
   5   6   5   61.70    8.89   0
  -5  -6  -5   73.99    8.10   0
   6   6   5    2.50    7.96   0
  -6  -6  -5    0.05    7.48   0
   6   6   5    1.00    7.06   0
   7   6   5   -4.88    5.77   0
  -7  -6  -5   -0.24    7.91   0
   7   6   5   -2.51    7.49   0
   7   6   5   -5.39    7.49   0
  -8  -6  -5    5.16    8.31   0
   8   6   5   -9.62    7.94   0
   8   6   5   -0.64    7.88   0
   8   6   5    2.43    9.18   0
   4  -7  -5   15.64    6.69   0
  -4   7   5   17.47    8.53   0
   4  -7  -5    2.80    8.30   0
   3  -7  -5   15.23    6.30   0
  -3   7   5   39.85    8.38   0
   3  -7  -5   32.90    7.75   0
  -2   7   5    0.12    8.14   0
   2  -7  -5    2.11    8.84   0
   2  -7  -5    1.35    7.16   0
   1  -7  -5   15.04    6.11   0
   1  -7  -5   29.69    6.81   0
  -1   7   5   29.71    7.84   0
   1  -7  -5   24.26    7.07   0
   0   7   5  127.55    8.33   0
   0  -7  -5  102.17    8.60   0
   0  -7  -5  120.45    8.73   0
   0  -7  -5  105.26    9.41   0
   1   7   5   15.06    5.95   0
  -1  -7  -5   21.50    8.06   0
  -2  -7  -5   79.39    6.24   0
   2   7   5   42.52    8.34   0
   3   7   5   51.27    8.25   0
  -3  -7  -5   83.14    8.51   0
  -4  -7  -5   -1.22    5.73   0
   4   7   5   -5.43    8.05   0
  -5  -7  -5    3.88    8.11   0
   5   7   5    2.63    5.85   0
   5   7   5    1.04    9.25   0
   5   7   5    1.73    9.67   0
   6   7   5    0.62    6.23   0
  -6  -7  -5   15.08    8.98   0
   6   7   5    1.65    7.26   0
   7   7   5   -0.07    8.79   0
  -7  -7  -5    1.28    8.34   0
   7   7   5   -1.05    7.43   0
   8   7   5    3.83    8.49   0
   8   7   5    5.58    9.59   0
  -8  -7  -5    0.44    8.66   0
   8   7   5    0.64    7.84   0
   3  -8  -5    5.61    6.68   0
   3  -8  -5   10.84    7.74   0
  -3   8   5   15.62    6.32   0
   3  -8  -5    5.97    8.31   0
  -2   8   5   48.93    8.54   0
   2  -8  -5   34.72    7.53   0
   2  -8  -5   18.63    8.93   0
   2  -8  -5   33.24    9.92   0
  -1   8   5    6.09    7.99   0
   1  -8  -5   -0.44    8.66   0
   1  -8  -5    1.74    8.69   0
   1  -8  -5    1.57    7.41   0
   0  -8  -5  155.03    9.77   0
   0  -8  -5  158.34    6.93   0
   0  -8  -5  145.50   10.36   0
   0   8   5  178.90    8.96   0
  -1  -8  -5   16.02    8.32   0
   1   8   5   13.58    8.04   0
  -2  -8  -5   29.74    6.10   0
   2   8   5   24.30    8.26   0
   3   8   5    4.44    8.12   0
  -3  -8  -5   21.51    8.27   0
   4   8   5   12.84    8.19   0
  -4  -8  -5   16.39    8.21   0
  -5  -8  -5    8.14    9.07   0
   5   8   5    0.77    8.24   0
  -6  -8  -5    7.47    8.86   0
   6   8   5    2.70   10.22   0
   6   8   5    1.01    8.67   0
   6   8   5    1.14    8.73   0
   7   8   5   -6.98    9.00   0
   7   8   5   -3.38    9.45   0
  -7  -8  -5   -0.58    9.40   0
   1  -9  -5    9.82    8.82   0
  -1   9   5   13.24    6.08   0
   1  -9  -5    6.56    7.60   0
   1  -9  -5   16.85    7.96   0
   0  -9  -5    4.72   10.24   0
   0  -9  -5    1.51    8.73   0
   0  -9  -5   -0.60    8.86   0
   0   9   5   -0.61    8.38   0
  -1  -9  -5   59.10    6.81   0
   1   9   5   63.04    6.58   0
   2   9   5   80.27    8.90   0
  -2  -9  -5   93.04    6.66   0
   3   9   5   21.20    8.52   0
  -3  -9  -5   21.14    8.89   0
   4   9   5   23.01    8.38   0
  -4  -9  -5   41.17    8.88   0
  -5  -9  -5   -1.28    8.85   0
   5   9   5   -3.00    6.04   0
  -6  -9  -5   -3.85    6.56   0
   6   9   5    8.03    8.84   0
   7   9   5   -0.33   12.49   0
  -7  -9  -5    4.41    7.00   0
   7   9   5    0.07   12.35   0
   7   9   5    1.80    6.93   0
   0 -10  -5   26.57   12.37   0
   0  10   5   36.95    9.21   0
   0 -10  -5   17.31   11.39   0
   0 -10  -5   25.87    9.85   0
   1  10   5   10.74    9.08   0
  -1 -10  -5   -7.62    9.99   0
   2  10   5    6.53    9.02   0
  -2 -10  -5   22.24    9.50   0
  -3 -10  -5    7.80    9.08   0
   3  10   5    2.44    8.92   0
   4  10   5   -0.15    8.88   0
  -4 -10  -5    9.34    9.36   0
  -5 -10  -5    2.63    6.53   0
   5  10   5    1.24    8.86   0
   6  10   5    6.05    6.95   0
  -6 -10  -5    7.34    7.16   0
   4   9  -6   11.35    9.51   0
   4   9  -6   12.78    7.77   0
  -4  -9   6   -1.14    9.69   0
  -4  -9   6    7.43    6.18   0
   3   9  -6   -5.76    6.67   0
  -3  -9   6   18.07    9.64   0
   3   9  -6    3.20    7.45   0
  -3  -9   6   -1.83    7.53   0
   2   9  -6   48.24    9.37   0
  -2  -9   6   51.91    6.83   0
   2   9  -6   36.60    7.65   0
  -2  -9   6   34.35    5.80   0
  -1  -9   6   30.81    9.78   0
   1   9  -6   31.87    9.31   0
  -1  -9   6   16.20    8.72   0
  -1  -9   6   19.18    8.10   0
  -6  -8   6   10.50    8.28   0
   6   8  -6   20.34    9.32   0
   6   8  -6    4.61    5.33   0
  -6  -8   6   10.30    7.11   0
  -5  -8   6   -2.71    9.20   0
   5   8  -6    2.70    7.46   0
   5   8  -6    2.20    6.42   0
  -5  -8   6   -2.61    7.70   0
   4   8  -6   12.13    6.33   0
  -4  -8   6   37.08    9.26   0
   4   8  -6   33.24    7.49   0
  -4  -8   6   32.51    7.85   0
   3   8  -6   36.66    8.81   0
  -3  -8   6   31.68    9.03   0
   3   8  -6   28.74    7.31   0
  -3  -8   6   33.11    7.39   0
  -2  -8   6   12.80    8.98   0
   2   8  -6    8.74    6.21   0
   2   8  -6    9.27    4.69   0
  -2  -8   6    1.98    5.27   0
  -1  -8   6  126.27    9.65   0
   1   8  -6  118.96    6.69   0
   1   8  -6   98.69    7.68   0
  -1  -8   6  107.00    7.91   0
   0   8  -6   36.66    8.64   0
   0  -8   6   27.22    8.69   0
   0  -8   6   17.77    5.23   0
   0  -8   6   17.82    6.66   0
   1  -8   6   20.29    8.37   0
   1  -8   6    7.63    7.82   0
   1  -8   6   23.28    9.08   0
  -1   8  -6    5.38    6.12   0
  -6  -7   6   15.77    7.76   0
  -6  -7   6    2.86    6.63   0
   6   7  -6   -1.09    7.45   0
   6   7  -6   20.91    9.11   0
  -5  -7   6    3.89    8.93   0
   5   7  -6    8.66    5.98   0
   5   7  -6   -2.82    5.04   0
  -5  -7   6    4.71    5.25   0
   4   7  -6   13.99    8.52   0
   4   7  -6    9.65    6.92   0
  -4  -7   6   13.95    5.12   0
  -4  -7   6   20.26    8.56   0
  -3  -7   6   27.54    6.35   0
   3   7  -6   12.28    8.31   0
   3   7  -6   18.72    6.68   0
  -3  -7   6   17.30    6.87   0
  -2  -7   6   33.44    6.40   0
   2   7  -6   21.28    6.15   0
  -2  -7   6   21.91    6.77   0
   2   7  -6   30.26    6.97   0
   1   7  -6   14.76    6.44   0
   1   7  -6   15.96    4.89   0
  -1  -7   6    4.58    6.96   0
  -1  -7   6   -0.73    8.40   0
   0   7  -6  139.12    6.69   0
   0  -7   6   83.18    7.36   0
   0  -7   6  137.95    9.10   0
   1  -7   6   22.08    8.86   0
   1  -7   6   38.20    7.90   0
   1  -7   6   32.43    7.37   0
  -1   7  -6   27.82    8.25   0
   2  -7   6   23.91    8.35   0
   2  -7   6   25.12    7.58   0
   2  -7   6   16.46    6.58   0
  -2   7  -6   29.35    5.77   0
  -7  -6   6   -6.66    6.97   0
  -7  -6   6    1.94    7.88   0
   7   6  -6    2.77    9.22   0
   7   6  -6    1.01    7.63   0
  -6  -6   6    1.60    7.48   0
  -6  -6   6   10.97    8.58   0
   6   6  -6   11.54    8.89   0
   6   6  -6   -6.83    7.09   0
   5   6  -6  -11.57    8.89   0
  -5  -6   6   20.10    8.63   0
   5   6  -6    5.18    6.91   0
  -5  -6   6    5.38    4.96   0
   4   6  -6   -2.92    8.13   0
   4   6  -6    7.90    6.66   0
  -4  -6   6    1.29    5.89   0
  -4  -6   6    2.67    4.72   0
   3   6  -6   32.71    8.19   0
  -3  -6   6   43.90    8.47   0
  -3  -6   6   40.49    6.43   0
   3   6  -6   35.97    4.96   0
  -2  -6   6  229.93    9.25   0
   2   6  -6  131.42    6.69   0
   2   6  -6  160.76    7.45   0
  -2  -6   6  167.66    7.25   0
  -1  -6   6    9.61    6.39   0
   1   6  -6   -6.75    8.38   0
   1   6  -6    1.46    6.20   0
  -1  -6   6    3.48    5.85   0
   0   6  -6  100.18    6.26   0
   0   6  -6   91.49    6.63   0
   0  -6   6   84.59    6.41   0
   0  -6   6   73.86    4.94   0
   1  -6   6  124.12    5.64   0
   1  -6   6   64.87    6.23   0
   1  -6   6   98.89    6.91   0
  -1   6  -6   79.89    8.55   0
   2  -6   6   24.33    6.17   0
   2  -6   6   40.28    5.88   0
   2  -6   6   44.08    5.14   0
  -2   6  -6   43.94    8.14   0
   3  -6   6   35.25    5.25   0
   3  -6   6   43.98    7.88   0
   3  -6   6   20.02    8.73   0
  -3   6  -6   33.97    5.89   0
   4  -6   6   50.61    5.98   0
   4  -6   6   37.74    8.66   0
   4  -6   6   47.82    9.33   0
  -4   6  -6   19.55    5.98   0
  -7  -5   6    6.17    5.37   0
   7   5  -6   -2.26    9.08   0
  -7  -5   6    8.96    6.44   0
   7   5  -6   -2.37    7.54   0
  -6  -5   6   -4.09    7.21   0
   6   5  -6   -4.35    6.30   0
   6   5  -6    1.68    7.14   0
  -6  -5   6   16.17    8.84   0
   5   5  -6   29.74    8.33   0
  -5  -5   6   40.34    8.82   0
   5   5  -6   35.36    6.91   0
  -5  -5   6   29.89    6.83   0
  -4  -5   6   68.39    8.48   0
   4   5  -6   43.03    6.31   0
  -4  -5   6   67.85    6.85   0
   4   5  -6   75.83    8.77   0
   3   5  -6   10.44    8.27   0
   3   5  -6   17.20    6.49   0
  -3  -5   6   10.04    6.58   0
  -3  -5   6   27.20    7.77   0
  -2  -5   6  128.55    8.33   0
  -2  -5   6  100.63    5.12   0
   2   5  -6   65.35    8.40   0
   2   5  -6   96.09    5.07   0
   1   5  -6  139.10    6.47   0
   1   5  -6  141.81    5.31   0
  -1  -5   6  132.41    6.95   0
  -1  -5   6  170.80    8.66   0
   0   5  -6   62.78    8.28   0
   0   5  -6   48.92    4.69   0
   0  -5   6   44.95    4.91   0
   0  -5   6   46.03    8.52   0
   1  -5   6  157.39    6.72   0
   1  -5   6  260.47    5.96   0
  -1   5  -6  242.11    8.80   0
   2  -5   6  193.71    5.76   0
   2  -5   6  208.06    7.95   0
   2  -5   6  107.92    8.51   0
  -2   5  -6  173.37    8.25   0
   3  -5   6   13.03    7.64   0
   3  -5   6   -2.61    5.95   0
  -3   5  -6    9.21    5.28   0
   3  -5   6    4.18    7.02   0
   4  -5   6    6.69    7.91   0
   4  -5   6    7.76    6.34   0
  -4   5  -6    3.61    7.97   0
   4  -5   6    6.91    7.45   0
   8   4  -6   -1.18    9.97   0
   8   4  -6    8.11    8.02   0
  -7  -4   6    9.05    5.33   0
   7   4  -6    5.81    8.85   0
   7   4  -6    4.06    5.57   0
   7   4  -6   11.27    7.26   0
  -6  -4   6    8.93    6.88   0
  -6  -4   6    4.77    9.11   0
   6   4  -6    6.16    7.91   0
   6   4  -6    4.32    7.09   0
   5   4  -6    0.16    8.12   0
  -5  -4   6    3.43    8.30   0
   5   4  -6    6.18    6.98   0
  -5  -4   6    4.89    6.93   0
  -4  -4   6   77.17    8.09   0
   4   4  -6   69.07    5.07   0
  -4  -4   6   71.93    7.00   0
   4   4  -6   94.89    8.58   0
   3   4  -6   71.43    4.98   0
   3   4  -6  105.09    6.49   0
  -3  -4   6  117.81    8.26   0
  -3  -4   6  105.97    6.96   0
  -2  -4   6    4.23    7.76   0
   2   4  -6    9.61    8.27   0
   2   4  -6   12.23    6.51   0
  -2  -4   6    4.80    6.28   0
   1   4  -6  376.20    9.84   0
   1   4  -6  387.20    7.89   0
  -1  -4   6  387.01    6.77   0
  -1  -4   6  497.32   10.21   0
   0   4  -6  310.82    7.37   0
   0   4  -6  298.48    6.11   0
   0  -4   6  283.06    7.57   0
   0  -4   6  248.64    9.28   0
  -1   4  -6    8.91    6.20   0
   1  -4   6   21.57    6.42   0
   1  -4   6    3.19    8.18   0
  -1   4  -6   16.63    7.69   0
   2  -4   6  116.26    8.63   0
   2  -4   6  191.72    7.90   0
   2  -4   6  185.08    7.12   0
  -2   4  -6  142.33    7.64   0
   3  -4   6  101.92    8.64   0
   3  -4   6  136.34    7.64   0
   3  -4   6  150.22    7.12   0
  -3   4  -6   82.41    7.63   0
   4  -4   6    1.61    8.47   0
   4  -4   6    5.02    7.64   0
   4  -4   6   12.01    6.85   0
  -4   4  -6    4.12    5.36   0
   5  -4   6   11.26    5.17   0
   5  -4   6   21.28    6.51   0
   5  -4   6   18.13    5.61   0
  -5   4  -6   18.13    5.53   0
  -8  -3   6    9.99    8.10   0
   8   3  -6    1.39    9.52   0
   8   3  -6  -12.17    8.49   0
   8   3  -6   10.48    7.80   0
  -7  -3   6   -4.85    5.29   0
   7   3  -6    4.57    7.83   0
   7   3  -6    1.06    6.44   0
   7   3  -6    6.95    5.08   0
  -6  -3   6   16.41    5.03   0
   6   3  -6   10.34    8.17   0
   6   3  -6   12.00    7.18   0
  -5  -3   6    7.45    4.74   0
  -5  -3   6   14.17    7.61   0
   5   3  -6   14.20    5.71   0
   5   3  -6   -1.53    7.02   0
   4   3  -6   11.35    5.59   0
   4   3  -6   20.47    6.66   0
  -4  -3   6    5.26    4.48   0
  -4  -3   6    8.05    7.37   0
  -3  -3   6  182.73    6.79   0
   3   3  -6  158.68    7.23   0
  -3  -3   6  192.59    5.76   0
   3   3  -6  216.41    9.08   0
  -2  -3   6  128.50    6.58   0
  -2  -3   6  199.59    6.90   0
   2   3  -6  147.05    9.01   0
   2   3  -6  149.85    5.31   0
   1   3  -6   51.73    6.14   0
   1   3  -6   74.26    6.36   0
  -1  -3   6   85.39    6.55   0
  -1  -3   6   98.40    8.54   0
   0  -3   6  386.11    6.60   0
   0   3  -6  413.63    9.83   0
   0   3  -6  446.92    6.76   0
   0  -3   6  351.61    7.90   0
   1  -3   6  120.11    8.78   0
  -1   3  -6  196.41    6.82   0
   1  -3   6  211.15    5.76   0
  -1   3  -6  195.07    8.35   0
   2  -3   6   35.80    6.20   0
   2  -3   6   45.53    6.74   0
  -2   3  -6   30.74    7.40   0
   2  -3   6   43.15    4.69   0
   3  -3   6  181.33    6.57   0
  -3   3  -6  115.71    5.66   0
   3  -3   6  198.21    7.76   0
   3  -3   6  182.10    5.43   0
   4  -3   6   44.80    8.05   0
   4  -3   6   33.37    4.96   0
   4  -3   6   48.81    6.65   0
  -4   3  -6   21.35    7.28   0
   5  -3   6    8.16    6.03   0
   5  -3   6    0.48    7.24   0
   5  -3   6    2.29    6.72   0
  -5   3  -6    0.28    7.59   0
   6  -3   6    6.64    9.02   0
   6  -3   6    7.02    5.47   0
   6  -3   6   11.34    5.31   0
  -6   3  -6    6.61    8.31   0
  -8  -2   6    3.07    8.26   0
   8   2  -6   -0.21    6.10   0
   8   2  -6    9.25    9.71   0
   8   2  -6    1.81    8.21   0
   7   2  -6   10.70    5.70   0
  -7  -2   6   13.16    7.55   0
   7   2  -6    7.38    8.60   0
   7   2  -6    8.06    5.21   0
   6   2  -6   -5.56    6.82   0
  -6  -2   6   -3.16    6.79   0
   6   2  -6    5.88    6.82   0
   6   2  -6   11.17    8.07   0
  -5  -2   6  142.30    5.63   0
   5   2  -6  159.11    8.66   0
   5   2  -6  131.31    7.34   0
  -4  -2   6   32.92    8.28   0
   4   2  -6   28.00    8.06   0
   4   2  -6   25.76    6.72   0
  -4  -2   6   30.12    6.41   0
   3   2  -6  182.06    8.91   0
  -3  -2   6  151.77    8.57   0
   3   2  -6  150.85    5.58   0
  -3  -2   6  161.43    7.10   0
   2   2  -6  432.89   10.48   0
  -2  -2   6  422.88   10.13   0
   2   2  -6  343.47    7.79   0
  -2  -2   6  349.91    6.49   0
  -1  -2   6  102.30    8.68   0
   1   2  -6   50.71    8.46   0
  -1  -2   6   76.53    4.85   0
   1   2  -6   77.47    5.00   0
   0   2  -6  329.78   10.11   0
   0   2  -6  306.35    6.30   0
   0  -2   6  262.19    7.89   0
   0  -2   6  290.06    7.36   0
   1  -2   6  387.69   10.13   0
  -1   2  -6  567.22    8.20   0
   1  -2   6  604.21    7.34   0
  -1   2  -6  530.22   10.12   0
   2  -2   6  102.56    8.48   0
   2  -2   6  116.99    4.91   0
  -2   2  -6   82.13    7.21   0
   3  -2   6   40.96    8.51   0
   3  -2   6   61.12    4.78   0
   3  -2   6   54.83    6.08   0
  -3   2  -6   38.08    7.19   0
   4  -2   6  133.60    6.51   0
  -4   2  -6   67.41    5.57   0
   4  -2   6  124.69    7.32   0
   4  -2   6  122.46    6.58   0
   5  -2   6   15.46    5.87   0
   5  -2   6    6.74    4.73   0
   5  -2   6   13.37    6.38   0
  -5   2  -6   18.18    7.27   0
   6  -2   6    4.72    8.64   0
   6  -2   6    2.08    4.77   0
   6  -2   6   -2.28    7.35   0
  -6   2  -6    3.43    7.79   0
   7   1  -6   13.70    8.63   0
  -7  -1   6   -1.74    5.28   0
   7   1  -6   -0.97    5.77   0
   7   1  -6    0.85    5.10   0
   6   1  -6   -1.42    5.00   0
   6   1  -6    1.80    8.64   0
  -6  -1   6    2.57    6.92   0
   6   1  -6   -5.52    7.02   0
   5   1  -6   -1.81    7.90   0
  -5  -1   6    2.04    6.55   0
   5   1  -6   19.65    7.02   0
   5   1  -6    9.07    4.67   0
  -4  -1   6   86.18    6.63   0
   4   1  -6   76.01    7.03   0
   4   1  -6   92.62    6.75   0
   4   1  -6  107.86    8.46   0
   3   1  -6  398.74   10.11   0
  -3  -1   6  329.84    9.39   0
   3   1  -6  366.02    7.93   0
  -3  -1   6  342.96    6.48   0
   2   1  -6  433.25    8.23   0
   2   1  -6  502.99   11.44   0
  -2  -1   6  406.15    9.03   0
  -2  -1   6  421.59    8.08   0
  -1  -1   6  795.05   13.18   0
   1   1  -6  566.66   11.82   0
   1   1  -6  552.81    8.84   0
  -1  -1   6  517.89    7.73   0
   0  -1   6   38.74    4.64   0
   0   1  -6   53.19    8.46   0
   0   1  -6   36.58    6.20   0
   0  -1   6   41.33    8.12   0
   1  -1   6  462.20   10.86   0
  -1   1  -6  574.99    8.60   0
   1  -1   6  578.32    8.88   0
  -1   1  -6  497.44   10.27   0
   2  -1   6  622.48   11.21   0
   2  -1   6  644.72    8.81   0
  -2   1  -6  435.30    9.37   0
  -2   1  -6  570.80    7.26   0
   3  -1   6   12.34    7.80   0
   3  -1   6    6.87    6.75   0
   3  -1   6   13.38    4.37   0
  -3   1  -6    7.29    4.77   0
   4  -1   6   10.57    6.44   0
  -4   1  -6    9.53    4.79   0
   4  -1   6    9.31    5.98   0
   4  -1   6   -1.59    5.26   0
   5  -1   6    8.01    4.97   0
   5  -1   6    3.63    4.66   0
  -5   1  -6   -4.97    7.22   0
   5  -1   6   19.07    8.01   0
   6  -1   6   19.11    7.33   0
   6  -1   6   15.95    4.77   0
  -6   1  -6   18.52    5.35   0
   6  -1   6   11.19    5.88   0
   7  -1   6   -4.88    5.47   0
   7  -1   6    0.74    5.04   0
   7  -1   6   14.85    8.69   0
  -7   0   6   13.16    5.54   0
   7   0  -6    4.41    9.11   0
   7   0  -6    8.33    5.64   0
   7   0  -6   10.59    5.35   0
  -6   0   6   24.53    7.10   0
   6   0  -6   26.90    5.81   0
   6   0  -6   12.24    5.11   0
   6   0  -6   15.57    5.06   0
  -5   0   6   17.19    4.64   0
   5   0  -6   32.20    8.36   0
   5   0  -6   19.92    6.71   0
   5   0  -6   25.46    6.62   0
  -4   0   6  189.21    7.13   0
   4   0  -6  188.09    8.55   0
   4   0  -6  180.05    7.16   0
   4   0  -6  147.47    7.38   0
   3   0  -6   28.96    7.75   0
   3   0  -6   24.04    4.80   0
   3   0  -6   20.16    4.77   0
  -3   0   6   30.31    4.58   0
  -2   0   6   33.29    7.43   0
   2   0  -6   30.50    7.43   0
   2   0  -6   27.04    4.63   0
  -2   0   6   31.39    4.54   0
   1   0  -6   76.44    6.68   0
  -1   0   6   71.02    8.58   0
  -1   0   6   67.47    5.01   0
   1   0  -6   85.15    9.15   0
   0   0  -6  651.39   14.77   0
   0   0  -6  557.14    9.22   0
   0   0   6  568.17    8.49   0
   0   0   6  704.23   16.50   0
   1   0   6   71.91    8.85   0
  -1   0  -6   75.80    6.90   0
   1   0   6   75.25    5.24   0
  -1   0  -6   63.72    7.42   0
   2   0   6  174.92    7.22   0
  -2   0  -6  119.26    5.96   0
  -2   0  -6  158.41    6.88   0
   2   0   6  181.28    8.76   0
   3   0   6  340.41    8.20   0
   3   0   6  314.82    6.26   0
  -3   0  -6  229.92    7.77   0
   3   0   6  334.16    9.10   0
  -4   0  -6    2.86    6.71   0
   4   0   6   12.45    6.84   0
   4   0   6   10.23    6.27   0
   4   0   6   -2.65    7.68   0
   5   0   6  149.52    7.56   0
  -5   0  -6  111.66    7.59   0
   5   0   6  162.05    6.56   0
   5   0   6  166.78    7.34   0
   6   0   6    1.64    5.09   0
   6   0   6    1.14    7.82   0
   6   0   6    0.53    6.73   0
   7   0   6    6.56    8.03   0
   7   0   6   10.10    9.42   0
   7   0   6   15.14    7.07   0
   7   0   6   21.04    8.44   0
  -7   1   6    1.06    5.56   0
   7  -1  -6    6.20    6.86   0
   7  -1  -6   -1.35    8.37   0
   7  -1  -6    9.91    7.79   0
   6  -1  -6   19.70    9.27   0
  -6   1   6   30.49    7.48   0
   6  -1  -6   20.44    5.52   0
   6  -1  -6   20.22    5.00   0
  -5   1   6   36.03    4.97   0
   5  -1  -6   51.93    8.44   0
   5  -1  -6   35.37    7.84   0
   5  -1  -6   34.90    4.95   0
  -4   1   6   29.12    6.60   0
   4  -1  -6   32.95    8.14   0
   4  -1  -6   24.22    7.15   0
   4  -1  -6   31.89    4.97   0
  -3   1   6  692.89    9.52   0
   3  -1  -6  752.17   12.75   0
   3  -1  -6  537.81   10.32   0
   3  -1  -6  715.74    9.74   0
   2  -1  -6  225.12    7.71   0
   2  -1  -6  156.54    8.01   0
   2  -1  -6  222.59    9.61   0
  -2   1   6  193.10    6.01   0
   1  -1  -6  854.13   17.64   0
   1  -1  -6 1115.42   12.17   0
   1  -1  -6 1305.85   22.75   0
  -1   1   6 1138.36   12.28   0
   0  -1  -6  668.22    9.31   0
   0   1   6  625.59    9.30   0
   1   1   6  353.51    7.43   0
   1   1   6  413.47   14.41   0
  -1  -1  -6  284.22   11.95   0
  -1  -1  -6  361.59    8.69   0
   2   1   6   35.21    4.63   0
  -2  -1  -6   27.91    6.27   0
   2   1   6   32.79    7.22   0
  -2  -1  -6   32.75    6.08   0
   3   1   6  577.18    9.96   0
   3   1   6  559.10    8.20   0
  -3  -1  -6  360.88    9.10   0
   3   1   6  492.22    7.29   0
   4   1   6   87.56    7.05   0
  -4  -1  -6   64.79    5.17   0
   4   1   6   84.29    6.59   0
   4   1   6   88.52    5.77   0
   5   1   6    6.99    6.77   0
   5   1   6   -1.80    4.41   0
   5   1   6   10.22    7.03   0
   6   1   6   61.76    7.26   0
   6   1   6   62.31    8.58   0
   6   1   6   68.55    7.95   0
   6   1   6   57.74    4.86   0
   7   1   6   18.90    7.48   0
   7   1   6   18.36    9.38   0
   7   1   6   21.18    4.66   0
   7   1   6   21.40    6.22   0
   8   1   6    7.88    5.67   0
   8   1   6   -0.78    7.08   0
   8   1   6    5.37    6.48   0
   8   1   6   -5.52    7.39   0
   7  -2  -6    7.12    5.84   0
   7  -2  -6    4.30    7.22   0
  -7   2   6    8.51    5.87   0
   7  -2  -6   22.21    9.13   0
  -6   2   6   -6.45    5.42   0
   6  -2  -6    2.64    7.47   0
   6  -2  -6   -7.82    9.13   0
   6  -2  -6    1.82    8.09   0
  -5   2   6   29.47    7.30   0
   5  -2  -6   34.96    8.90   0
   5  -2  -6   50.34    5.28   0
   5  -2  -6   41.98    7.81   0
  -4   2   6   40.60    6.90   0
   4  -2  -6   50.59    8.43   0
   4  -2  -6   34.89    7.44   0
   4  -2  -6   54.34    6.83   0
   3  -2  -6   21.11    5.63   0
  -3   2   6   16.94    6.61   0
   3  -2  -6   23.64    6.98   0
   3  -2  -6   21.31    6.70   0
  -2   2   6  744.53   10.27   0
   2  -2  -6  700.41   11.85   0
   2  -2  -6  811.37    9.52   0
   1  -2  -6  816.93   11.35   0
  -1   2   6  788.93   11.11   0
   1  -2  -6  783.42   16.56   0
   0  -2  -6  285.97    8.44   0
   0   2   6  363.15    8.00   0
   1   2   6 1424.26   28.00   0
  -1  -2  -6 1294.23   13.68   0
   1   2   6 1531.19   27.07   0
   1   2   6 1146.00   13.18   0
   2   2   6  225.56   11.33   0
  -2  -2  -6  259.73    7.90   0
   2   2   6  250.65    9.22   0
   2   2   6  293.21    8.00   0
   3   2   6    8.30    6.56   0
   3   2   6    9.12    6.53   0
   3   2   6   11.06    5.93   0
   3   2   6    6.12    7.48   0
   4   2   6  254.44    9.00   0
   4   2   6  267.46    6.55   0
   4   2   6  307.78    7.55   0
   4   2   6  265.05    8.23   0
   5   2   6   52.32    6.90   0
   5   2   6   65.34    4.75   0
   5   2   6   66.13    7.21   0
   5   2   6   54.48    5.98   0
   6   2   6    2.56    6.97   0
   6   2   6    5.86    5.83   0
   6   2   6   -0.44    7.40   0
   6   2   6    0.44    6.28   0
   7   2   6    2.61    5.26   0
   7   2   6    9.90    8.60   0
   7   2   6    7.07    6.63   0
   7   2   6    2.90    7.93   0
   8   2   6    5.79    9.28   0
   8   2   6   11.60    8.34   0
   8   2   6    9.73    5.06   0
   8   2   6    7.57    6.12   0
  -6   3   6    3.55    7.86   0
   6  -3  -6    9.79    9.37   0
   6  -3  -6   -2.74    5.87   0
   6  -3  -6    5.09    5.26   0
  -5   3   6   -7.66    7.48   0
   5  -3  -6   11.41    7.88   0
   5  -3  -6    3.64    6.81   0
  -4   3   6  106.70    7.42   0
  -4   3   6   96.38    7.73   0
   4  -3  -6   95.11    8.24   0
   4  -3  -6  106.51    7.14   0
  -3   3   6   57.29    6.94   0
  -3   3   6   44.83    7.04   0
   3  -3  -6   56.38    6.72   0
   3  -3  -6   52.75    7.81   0
   2  -3  -6   87.88    8.20   0
  -2   3   6   91.18    6.95   0
  -2   3   6   87.66    7.21   0
   2  -3  -6   92.02    6.95   0
  -1   3   6  348.92    8.56   0
   1  -3  -6  328.29   12.15   0
   1  -3  -6  349.94    8.67   0
  -1   3   6  342.00   10.07   0
   0  -3  -6  311.64   13.92   0
   0  -3  -6  309.21    8.82   0
   0   3   6  373.66   13.59   0
   0   3   6  316.01    9.11   0
  -1  -3  -6   11.02    6.07   0
  -1  -3  -6   14.69    9.50   0
   1   3   6   12.60   10.18   0
   1   3   6   13.31    8.17   0
   2   3   6 1071.44   16.83   0
   2   3   6 1168.61   14.79   0
   3   3   6   99.22    6.16   0
   3   3   6  108.64    7.17   0
   3   3   6  126.64    6.85   0
   3   3   6   99.81    7.06   0
   4   3   6   97.83    7.24   0
   4   3   6  106.30    6.84   0
   4   3   6   94.48    8.04   0
   4   3   6  108.18    7.07   0
   5   3   6    3.29    4.60   0
   5   3   6    3.90    5.42   0
   5   3   6    7.93    6.06   0
   5   3   6    6.61    6.77   0
   6   3   6    2.10    5.08   0
   6   3   6    2.31    4.22   0
   6   3   6    5.88    7.02   0
   6   3   6    5.40    7.91   0
   7   3   6    3.33    7.65   0
   7   3   6    8.15    5.92   0
   7   3   6    4.67    5.25   0
   8   3   6   -3.68    5.33   0
   8   3   6   -0.33    4.88   0
   8   3   6   -3.07    6.54   0
   8   3   6   -7.28    8.36   0
   6  -4  -6    5.35    6.50   0
  -6   4   6    5.76    8.34   0
   6  -4  -6    3.20    7.14   0
   6  -4  -6    4.14    7.68   0
   5  -4  -6    4.37    5.94   0
  -5   4   6   -0.27    5.28   0
  -5   4   6    4.28    7.83   0
   5  -4  -6    6.50    7.19   0
   4  -4  -6   28.18    7.98   0
  -4   4   6   30.21    7.43   0
  -4   4   6   25.14    5.06   0
   4  -4  -6   21.30    7.05   0
   3  -4  -6   69.01    8.57   0
  -3   4   6   77.28    7.22   0
  -3   4   6   71.76    7.61   0
   3  -4  -6   87.45    7.14   0
   2  -4  -6    4.49    5.82   0
  -2   4   6    7.96    6.39   0
  -2   4   6    6.97    6.89   0
   2  -4  -6    5.28    5.99   0
  -1   4   6   57.52    5.33   0
   1  -4  -6   44.74    8.57   0
  -1   4   6   72.80    7.57   0
   1  -4  -6   68.57    6.79   0
   0   4   6  574.13   12.41   0
   0  -4  -6  499.68   12.10   0
   0  -4  -6  584.82   11.55   0
   0   4   6  685.74   12.74   0
   1   4   6    6.86    7.81   0
   1   4   6    2.98    9.61   0
  -1  -4  -6    4.93    7.76   0
  -1  -4  -6    2.18    7.43   0
   2   4   6  262.37   13.58   0
  -2  -4  -6  299.80    9.98   0
   2   4   6  197.64   11.77   0
   2   4   6  254.23    9.84   0
   3   4   6   19.65    8.24   0
   3   4   6   19.39    6.64   0
   3   4   6   17.33    7.33   0
  -3  -4  -6   22.88    7.79   0
   4   4   6   29.50    7.00   0
   4   4   6   25.74    6.56   0
   4   4   6   33.20    6.36   0
   4   4   6   26.54    7.30   0
   5   4   6   19.30    7.95   0
   5   4   6   12.34    4.90   0
   5   4   6   14.24    6.69   0
   5   4   6   20.54    6.19   0
   6   4   6   18.87    7.26   0
   6   4   6   23.71    8.21   0
   6   4   6   22.23    5.24   0
   7   4   6    3.01    5.16   0
   7   4   6    2.52    5.94   0
   7   4   6   13.60    7.49   0
   8   4   6   15.21    7.90   0
   8   4   6    1.73    9.20   0
   8   4   6    4.35    8.40   0
   5  -5  -6   22.90    6.47   0
  -5   5   6   24.32    8.37   0
  -5   5   6   26.96    8.16   0
   5  -5  -6   19.25    5.50   0
   4  -5  -6   -1.09    5.94   0
  -4   5   6    3.71    7.48   0
  -4   5   6   -9.71    7.50   0
   4  -5  -6    2.98    7.20   0
  -3   5   6   67.23    7.51   0
   3  -5  -6   59.88    8.27   0
  -3   5   6   81.06    7.37   0
   3  -5  -6   60.60    7.22   0
   2  -5  -6  161.37    8.96   0
  -2   5   6  191.92    6.52   0
  -2   5   6  205.00    8.31   0
   2  -5  -6  179.69    7.84   0
  -1   5   6    9.13    6.77   0
   1  -5  -6    2.48    8.29   0
  -1   5   6   13.66    7.18   0
   1  -5  -6    9.56    6.40   0
   0   5   6  362.09   11.49   0
   0  -5  -6  293.83   10.53   0
   0  -5  -6  363.86   11.16   0
   0   5   6  408.88   10.82   0
  -1  -5  -6   71.61    8.50   0
   1   5   6   54.17    8.37   0
   1   5   6   70.86   13.93   0
  -1  -5  -6   34.53   11.12   0
   2   5   6   30.17    8.16   0
  -2  -5  -6   46.18    7.93   0
   3   5   6  153.62   12.79   0
   3   5   6  175.16    8.72   0
  -3  -5  -6  190.09    9.03   0
   3   5   6  130.19   10.85   0
   4   5   6   86.43    7.50   0
   4   5   6  101.14    8.20   0
   4   5   6  107.27    8.83   0
  -4  -5  -6  114.78    8.42   0
   5   5   6    8.51    6.90   0
   5   5   6   14.65    7.78   0
   5   5   6   11.53    6.59   0
   6   5   6    3.08    6.92   0
   6   5   6    1.58    7.83   0
   6   5   6   -3.95    6.49   0
   6   5   6    2.63    4.89   0
   7   5   6    4.27    7.05   0
   7   5   6    8.66    5.47   0
   7   5   6    6.03    8.75   0
   8   5   6   -5.81    5.90   0
   8   5   6    3.33    9.18   0
   8   5   6    5.80    7.67   0
   4  -6  -6    2.95    6.66   0
  -4   6   6    2.62    8.05   0
  -4   6   6   10.36    7.97   0
   4  -6  -6    8.69    7.68   0
   3  -6  -6    9.03    8.55   0
  -3   6   6    5.99    7.49   0
  -3   6   6   -0.28    7.68   0
   3  -6  -6    0.62    4.90   0
  -2   6   6   31.63    7.29   0
   2  -6  -6   20.00    5.89   0
  -2   6   6   35.85    7.82   0
   2  -6  -6   25.30    6.75   0
  -1   6   6   69.94    7.86   0
   1  -6  -6   37.26    8.24   0
  -1   6   6   82.79    5.93   0
   1  -6  -6   66.92    7.23   0
   0   6   6   20.04    8.84   0
   0  -6  -6    9.71    6.04   0
   0  -6  -6   16.45    6.91   0
   0   6   6   18.78    7.79   0
  -1  -6  -6  333.42   10.05   0
   1   6   6  286.12    9.85   0
   2   6   6   62.66    8.56   0
  -2  -6  -6  123.43    8.47   0
  -3  -6  -6   36.21    8.10   0
   3   6   6   26.97    8.11   0
   4   6   6    5.89    8.09   0
  -4  -6  -6    3.50    7.86   0
   4   6   6    3.97   10.37   0
   4   6   6    2.95   10.69   0
   5   6   6   12.52    7.49   0
  -5  -6  -6   14.79    6.17   0
   5   6   6   15.68    7.94   0
   5   6   6    6.14    6.65   0
   6   6   6   11.88    5.94   0
   6   6   6    5.86    6.62   0
   6   6   6    7.07    6.99   0
   7   6   6    7.37    5.33   0
   7   6   6    1.13    7.11   0
   7   6   6   -4.43    8.81   0
   7   6   6    9.07    7.85   0
   8   6   6   -0.08    6.09   0
   8   6   6    4.50    9.79   0
   8   6   6   -5.03    8.13   0
   4  -7  -6   14.47    9.80   0
  -4   7   6   22.47    8.61   0
  -4   7   6   13.82    8.93   0
   4  -7  -6   22.77    8.28   0
  -3   7   6    2.57    5.67   0
   3  -7  -6    2.66    8.74   0
  -3   7   6   16.79    8.01   0
   3  -7  -6    4.27    7.76   0
  -2   7   6   47.54    7.82   0
   2  -7  -6   24.77    6.20   0
  -2   7   6   52.44    8.14   0
   2  -7  -6   34.31    7.44   0
   1  -7  -6   42.45    8.41   0
  -1   7   6   91.96    7.73   0
   1  -7  -6   77.75    9.23   0
   0  -7  -6    2.63    7.59   0
   0  -7  -6    2.91    8.35   0
   0  -7  -6    5.15    8.16   0
   0   7   6   -1.29    7.85   0
  -1  -7  -6   29.33    7.79   0
   1   7   6   23.66    8.02   0
   2   7   6    4.34    7.95   0
  -2  -7  -6   14.60    5.63   0
   3   7   6   27.58    8.03   0
  -3  -7  -6   45.72    8.33   0
  -4  -7  -6    8.17    8.50   0
   4   7   6   13.57    5.83   0
   5   7   6   14.87    9.83   0
  -5  -7  -6   20.09    8.34   0
   5   7   6   10.47    9.88   0
   5   7   6   16.35    5.76   0
  -6  -7  -6    7.61    8.95   0
   6   7   6   -1.12    8.88   0
   6   7   6    2.24    6.74   0
   6   7   6    2.70    6.99   0
   7   7   6    2.39    6.22   0
   7   7   6   -0.85    8.81   0
   7   7   6    5.54    7.71   0
   7   7   6    1.72    7.65   0
   8   7   6   -0.95    6.82   0
   8   7   6   10.26    9.66   0
   8   7   6   -1.47    8.25   0
   8   7   6   -0.96    8.73   0
   3  -8  -6    7.77    7.74   0
   3  -8  -6   -1.09    9.47   0
  -3   8   6    8.46    8.88   0
   3  -8  -6   11.42    6.06   0
   2  -8  -6    2.58    7.36   0
   2  -8  -6    7.93    9.01   0
  -2   8   6    2.78    5.91   0
   2  -8  -6   -2.94    7.85   0
   1  -8  -6   40.89    8.58   0
   1  -8  -6   35.68    8.93   0
  -1   8   6   54.69    8.40   0
   1  -8  -6   36.06    7.72   0
   0  -8  -6   90.28    9.24   0
   0  -8  -6   92.34    6.71   0
   0  -8  -6   83.08    9.74   0
   0   8   6  111.02    8.42   0
  -1  -8  -6   18.07    8.55   0
   1   8   6   15.36    5.51   0
   2   8   6   66.45    8.50   0
  -2  -8  -6   93.93    9.01   0
   3   8   6   17.68    7.86   0
  -3  -8  -6   30.52    8.25   0
  -4  -8  -6    7.08    8.65   0
   4   8   6    6.79    7.76   0
   5   8   6    1.62    8.66   0
  -5  -8  -6   -0.86    8.91   0
  -6  -8  -6    2.39    8.98   0
   6   8   6    8.58   11.56   0
   6   8   6    5.49   11.65   0
   6   8   6   11.40    8.71   0
   7   8   6   -4.14    6.37   0
   7   8   6    2.34    8.84   0
   7   8   6   -2.29    9.49   0
   1  -9  -6    2.99    9.85   0
   1  -9  -6    5.69    7.61   0
   1  -9  -6   -6.95    6.70   0
  -1   9   6   10.05    8.76   0
   0  -9  -6   25.26   10.62   0
   0  -9  -6   27.53   11.31   0
   0  -9  -6   27.63    9.14   0
   0   9   6   38.27    6.12   0
   1   9   6   55.45    8.73   0
  -1  -9  -6   64.56    9.26   0
   2   9   6    2.03    6.32   0
  -2  -9  -6    6.35    8.63   0
   3   9   6    7.45    5.89   0
  -3  -9  -6    9.26    8.71   0
  -4  -9  -6   13.15    6.58   0
   4   9   6   16.18    8.47   0
   5   9   6    3.94    6.13   0
  -5  -9  -6    5.95    6.33   0
  -6  -9  -6   -5.84    9.52   0
   6   9   6    4.15    9.20   0
  -7  -9  -6    9.54    9.99   0
   7   9   6    7.12    6.79   0
   0 -10  -6   10.61   14.36   0
   0 -10  -6    9.75   14.98   0
   0  10   6   18.52    9.49   0
   0 -10  -6   24.83   10.20   0
   1  10   6   10.98    9.30   0
  -1 -10  -6   14.18    9.52   0
   2  10   6   20.76    9.25   0
  -2 -10  -6   18.71    9.59   0
   3  10   6    2.02    6.49   0
  -3 -10  -6    5.44    6.62   0
   4  10   6   12.01    6.29   0
  -4 -10  -6    6.88   10.14   0
  -5 -10  -6    1.82    9.64   0
   5  10   6   -5.01    9.50   0
  -5  -8   7    6.55    6.90   0
   5   8  -7   11.99    7.75   0
   5   8  -7   10.82    6.65   0
  -5  -8   7    5.17    8.06   0
   4   8  -7    1.98    9.07   0
   4   8  -7    3.31    7.51   0
  -4  -8   7   19.41    9.30   0
  -4  -8   7    3.06    7.81   0
   3   8  -7    7.24    6.33   0
   3   8  -7    2.44    6.91   0
  -3  -8   7   -2.28    9.17   0
  -3  -8   7    5.65    7.34   0
  -2  -8   7   32.82    6.65   0
   2   8  -7   18.00    9.12   0
   2   8  -7   23.65    7.12   0
  -2  -8   7    9.64    7.59   0
  -1  -8   7   72.03    9.58   0
   1   8  -7   59.33    6.74   0
   1   8  -7   61.34    7.35   0
  -1  -8   7   51.14    7.73   0
   0   8  -7    8.07    8.97   0
   0  -8   7    2.85    8.60   0
   0  -8   7  -10.24    7.81   0
   0  -8   7   -2.58    6.56   0
   6   7  -7   -1.18    5.67   0
   6   7  -7    4.73    6.40   0
  -6  -7   7   21.37    9.73   0
  -6  -7   7    0.79    5.43   0
  -5  -7   7    4.35    9.02   0
   5   7  -7   -9.03    8.92   0
   5   7  -7    8.43    5.11   0
  -5  -7   7    3.35    5.29   0
   4   7  -7   28.49    8.37   0
  -4  -7   7   34.59    8.95   0
   4   7  -7   26.13    5.10   0
  -4  -7   7   26.36    7.51   0
   3   7  -7   32.51    8.70   0
  -3  -7   7   54.56    9.00   0
   3   7  -7   38.62    7.10   0
  -3  -7   7   27.27    7.08   0
  -2  -7   7   22.88    6.19   0
   2   7  -7   25.82    6.14   0
   2   7  -7   16.59    4.81   0
  -2  -7   7   31.14    7.10   0
   1   7  -7  135.33    9.08   0
   1   7  -7  118.50    7.39   0
  -1  -7   7  114.86    7.57   0
  -1  -7   7  147.84    9.22   0
   0   7  -7   67.53    8.56   0
   0  -7   7   47.43    7.21   0
   0  -7   7   54.41    9.22   0
   1  -7   7    7.23    5.67   0
   1  -7   7    8.88    5.12   0
   1  -7   7    1.83    8.93   0
  -1   7  -7    6.51    5.97   0
   2  -7   7   72.05    8.03   0
   2  -7   7   70.98    8.87   0
   2  -7   7   52.03    6.62   0
  -2   7  -7   73.46    8.96   0
  -7  -6   7    3.25    8.02   0
  -7  -6   7   -0.49    6.73   0
   7   6  -7    1.41    7.69   0
   7   6  -7   -8.57    9.26   0
  -6  -6   7   13.68    5.29   0
  -6  -6   7    4.22    9.24   0
   6   6  -7   14.00    7.27   0
   6   6  -7   14.21    6.64   0
   5   6  -7   13.58    5.00   0
  -5  -6   7   20.82    8.82   0
   5   6  -7   10.88    8.42   0
  -5  -6   7   27.12    5.26   0
   4   6  -7   18.41    5.76   0
   4   6  -7   24.19    5.07   0
  -4  -6   7   21.79    4.73   0
  -4  -6   7   27.87    8.73   0
   3   6  -7   32.98    5.89   0
  -3  -6   7   79.90    6.73   0
  -3  -6   7   35.87    4.77   0
   3   6  -7   64.19    6.98   0
   2   6  -7   71.46    6.77   0
  -2  -6   7  100.52    6.57   0
   2   6  -7   63.11    6.19   0
  -2  -6   7   95.25    7.20   0
   1   6  -7    0.97    4.43   0
   1   6  -7    0.22    8.27   0
  -1  -6   7   -5.21    6.32   0
  -1  -6   7   11.22    8.22   0
   0   6  -7  314.81    7.15   0
   0   6  -7  274.27    6.41   0
   0  -6   7  225.33    7.46   0
   0  -6   7  285.82    7.44   0
   1  -6   7  139.77    6.16   0
   1  -6   7  112.20    7.22   0
   1  -6   7   94.15    8.97   0
  -1   6  -7  118.86    6.39   0
   2  -6   7    8.22    5.25   0
   2  -6   7   14.30    8.49   0
   2  -6   7   11.46    4.79   0
  -2   6  -7   16.22    5.91   0
   3  -6   7   72.05    5.99   0
   3  -6   7   57.99    9.26   0
   3  -6   7   91.65    5.61   0
  -3   6  -7   76.98    8.90   0
  -7  -5   7   -0.39    5.67   0
   7   5  -7   10.13    9.47   0
  -7  -5   7    6.72    6.95   0
   7   5  -7   10.07    7.52   0
   6   5  -7   31.76    9.30   0
  -6  -5   7    6.52    7.48   0
  -6  -5   7   26.90    9.09   0
   6   5  -7   17.86    7.08   0
   5   5  -7   17.54    6.67   0
  -5  -5   7   21.43    8.42   0
   5   5  -7   10.92    6.19   0
  -5  -5   7   11.55    6.79   0
  -4  -5   7   24.52    5.75   0
   4   5  -7   16.17    4.60   0
   4   5  -7   28.28    8.50   0
  -4  -5   7   12.64    6.75   0
   3   5  -7    7.42    7.92   0
  -3  -5   7    8.38    7.64   0
   3   5  -7    5.34    6.30   0
  -3  -5   7    4.16    4.58   0
  -2  -5   7  360.48    7.61   0
   2   5  -7  201.82    6.84   0
   2   5  -7  244.44    7.56   0
  -2  -5   7  287.51    7.74   0
  -1  -5   7   55.36    6.62   0
   1   5  -7   49.70    6.10   0
   1   5  -7   51.05    4.75   0
  -1  -5   7   62.57    8.46   0
   0   5  -7   79.02    8.17   0
   0   5  -7   65.82    6.39   0
   0  -5   7   56.07    6.95   0
   0  -5   7   62.87    6.31   0
  -1   5  -7  139.23    5.45   0
   1  -5   7  146.15    5.62   0
   1  -5   7   87.71    8.51   0
  -1   5  -7  149.26    8.50   0
   2  -5   7   66.15    7.66   0
   2  -5   7   34.19    8.49   0
   2  -5   7   53.61    6.86   0
  -2   5  -7   54.33    7.84   0
   3  -5   7    8.10    5.53   0
   3  -5   7    4.49    8.55   0
   3  -5   7   -2.03    5.18   0
  -3   5  -7    6.61    8.07   0
   4  -5   7   16.86    5.28   0
   4  -5   7   36.17    8.24   0
   4  -5   7   16.62    9.20   0
  -4   5  -7   29.56    8.46   0
  -7  -4   7    9.88    7.75   0
   7   4  -7   14.89    9.09   0
   7   4  -7    8.96    5.55   0
   7   4  -7    9.02    7.58   0
  -6  -4   7   10.02    5.27   0
   6   4  -7   17.98    8.74   0
  -6  -4   7   19.08    8.45   0
   6   4  -7   -6.65    7.47   0
   5   4  -7   12.24    8.25   0
  -5  -4   7    1.35    8.10   0
   5   4  -7    8.01    6.88   0
  -5  -4   7    3.18    4.82   0
  -4  -4   7  170.59    8.50   0
   4   4  -7  135.76    5.41   0
   4   4  -7  166.28    6.86   0
  -4  -4   7  149.25    7.31   0
   3   4  -7    6.35    5.75   0
  -3  -4   7    3.57    7.75   0
  -3  -4   7    2.03    6.34   0
   3   4  -7   -1.77    5.99   0
   2   4  -7  189.78    7.17   0
  -2  -4   7  225.80    6.84   0
  -2  -4   7  163.79    7.26   0
   2   4  -7  107.16    8.66   0
  -1  -4   7   91.92    5.08   0
   1   4  -7   86.57    8.55   0
   1   4  -7   71.11    6.52   0
  -1  -4   7   98.03    8.65   0
   0   4  -7   49.65    5.95   0
   0  -4   7   35.51    6.51   0
   0  -4   7   36.87    5.85   0
   0   4  -7   31.60    6.06   0
  -1   4  -7   87.64    4.84   0
   1  -4   7   38.93    8.41   0
   1  -4   7   88.83    4.95   0
  -1   4  -7   96.70    5.94   0
   2  -4   7  280.56    5.88   0
   2  -4   7  170.25    6.68   0
   2  -4   7  306.37    6.76   0
  -2   4  -7  241.09    8.47   0
   3  -4   7    6.91    8.29   0
   3  -4   7    0.53    7.20   0
   3  -4   7    5.60    6.62   0
  -3   4  -7   -4.81    5.40   0
   4  -4   7   11.89    6.33   0
   4  -4   7   16.81    7.62   0
   4  -4   7   28.40    6.99   0
  -4   4  -7   14.67    5.52   0
  -5   4  -7   -3.88    5.95   0
   5  -4   7   10.77    9.10   0
   5  -4   7    4.76    8.02   0
   5  -4   7    7.52    7.49   0
  -7  -3   7    4.54    7.79   0
   7   3  -7    2.16    6.44   0
   7   3  -7    2.53    5.24   0
   7   3  -7   -8.01    7.93   0
  -6  -3   7   24.57    7.25   0
   6   3  -7   28.28    8.23   0
   6   3  -7   22.10    7.23   0
  -5  -3   7   14.88    6.82   0
   5   3  -7    9.32    7.79   0
  -5  -3   7   13.22    8.50   0
   5   3  -7   18.28    6.76   0
   4   3  -7   58.89    8.55   0
   4   3  -7   49.81    4.79   0
  -4  -3   7   47.86    4.78   0
  -4  -3   7   61.79    8.14   0
  -3  -3   7   80.22    6.07   0
   3   3  -7   62.21    6.74   0
   3   3  -7   81.06    6.51   0
  -3  -3   7   82.79    5.08   0
   2   3  -7   17.23    6.23   0
   2   3  -7   18.50    8.02   0
  -2  -3   7   18.54    7.59   0
  -2  -3   7   13.58    6.25   0
  -1  -3   7  497.24   10.41   0
   1   3  -7  296.16    7.68   0
   1   3  -7  363.91    6.45   0
  -1  -3   7  401.43    8.10   0
   0   3  -7  600.33    8.89   0
   0   3  -7  557.32    8.49   0
   0  -3   7  518.09   10.44   0
   0  -3   7  466.06    6.82   0
  -1   3  -7   37.05    6.25   0
   1  -3   7   31.89    6.33   0
   1  -3   7   25.97    7.95   0
  -1   3  -7   31.43    5.46   0
   2  -3   7  135.98    6.56   0
   2  -3   7  225.66    7.26   0
  -2   3  -7  185.87    8.04   0
   3  -3   7   70.90    8.04   0
   3  -3   7   88.58    7.27   0
   3  -3   7   94.64    6.49   0
  -3   3  -7   74.24    5.70   0
   4  -3   7   17.61    5.99   0
   4  -3   7   21.82    7.21   0
   4  -3   7   16.85    4.55   0
  -4   3  -7    7.18    7.43   0
   5  -3   7   24.89    7.09   0
   5  -3   7   30.15    8.45   0
   5  -3   7   12.26    7.59   0
  -5   3  -7   12.33    7.81   0
   6  -3   7    9.93    6.69   0
   6  -3   7   21.84    7.48   0
   6  -3   7    6.74    8.09   0
  -6   3  -7   18.57    8.52   0
  -7  -2   7   -1.54    5.36   0
   7   2  -7   -3.32    5.72   0
   7   2  -7    4.49    8.86   0
   7   2  -7   -1.02    5.21   0
  -6  -2   7   -0.45    4.95   0
   6   2  -7   -0.15    7.54   0
   6   2  -7   10.57    8.49   0
   6   2  -7   16.47    7.01   0
  -5  -2   7   51.86    6.90   0
   5   2  -7   49.97    5.88   0
   5   2  -7   55.51    6.90   0
  -4  -2   7   11.99    7.64   0
   4   2  -7   -4.60    7.87   0
   4   2  -7    9.53    6.57   0
  -4  -2   7    0.58    4.59   0
   3   2  -7  353.25    9.87   0
   3   2  -7  299.38    7.61   0
  -3  -2   7  309.19    9.20   0
  -3  -2   7  307.09    7.64   0
   2   2  -7  168.97    6.80   0
   2   2  -7  210.00    7.11   0
  -2  -2   7  234.17    7.11   0
  -2  -2   7  179.59    6.86   0
  -1  -2   7   47.90    7.72   0
   1   2  -7   16.24    8.22   0
   1   2  -7   26.14    4.41   0
  -1  -2   7   29.48    6.12   0
   0   2  -7  541.62   10.48   0
   0  -2   7  405.15    6.40   0
   0  -2   7  473.94    8.71   0
   0   2  -7  407.82    6.38   0
   1  -2   7  206.93    8.96   0
   1  -2   7  385.39    7.73   0
  -1   2  -7  361.28    7.39   0
  -1   2  -7  368.04    7.67   0
   2  -2   7   15.35    8.27   0
   2  -2   7   11.85    4.36   0
  -2   2  -7    6.07    4.09   0
  -2   2  -7    6.73    7.00   0
   3  -2   7  181.83    6.67   0
   3  -2   7  198.61    7.36   0
   3  -2   7  209.05    6.90   0
  -3   2  -7  152.64    7.54   0
   4  -2   7  120.48    6.79   0
   4  -2   7  124.17    6.86   0
   4  -2   7  116.99    7.20   0
  -4   2  -7   77.35    7.77   0
   5  -2   7   -3.01    8.43   0
   5  -2   7    5.82    4.99   0
   5  -2   7   -4.57    6.66   0
  -5   2  -7   -5.33    7.42   0
   6  -2   7    4.51    6.39   0
   6  -2   7   11.10    5.45   0
   6  -2   7    4.79    7.06   0
  -6   2  -7   12.65    8.05   0
  -7  -1   7   -0.07    7.58   0
   7   1  -7    1.24    8.29   0
   7   1  -7    8.01    7.38   0
   7   1  -7   -4.29    8.98   0
  -6  -1   7    1.95    4.86   0
   6   1  -7   -0.67    5.45   0
   6   1  -7    9.33    6.98   0
   6   1  -7   -2.21    6.25   0
  -5  -1   7   34.21    6.57   0
   5   1  -7   19.03    6.60   0
   5   1  -7   27.83    7.42   0
   5   1  -7   27.06    8.23   0
  -4  -1   7   15.07    6.23   0
   4   1  -7   10.15    4.69   0
   4   1  -7    5.82    5.58   0
   4   1  -7    9.32    6.23   0
  -3  -1   7   43.56    5.64   0
   3   1  -7   47.85    7.95   0
   3   1  -7   44.55    4.84   0
  -3  -1   7   45.90    6.21   0
   2   1  -7  437.51   10.59   0
  -2  -1   7  381.17   10.11   0
   2   1  -7  373.75    7.77   0
  -2  -1   7  375.84    7.71   0
  -1  -1   7  142.24    8.32   0
   1   1  -7  106.18    6.47   0
  -1  -1   7  104.41    4.93   0
   1   1  -7   74.13    8.20   0
   0  -1   7   19.59    7.87   0
   0   1  -7   17.98    7.54   0
   0   1  -7   10.14    5.78   0
   0  -1   7   15.96    5.74   0
  -1   1  -7  442.83    7.67   0
   1  -1   7  304.96    7.79   0
   1  -1   7  478.03    8.11   0
  -1   1  -7  432.81    9.56   0
   2  -1   7  358.32   10.14   0
  -2   1  -7  342.31    7.44   0
   2  -1   7  338.32    6.09   0
  -2   1  -7  282.57    8.39   0
   3  -1   7   15.65    7.98   0
   3  -1   7   16.05    6.85   0
   3  -1   7   11.99    6.12   0
  -3   1  -7   13.59    6.91   0
   4  -1   7  101.17    8.29   0
   4  -1   7  104.33    7.17   0
  -4   1  -7   66.39    5.34   0
   4  -1   7  100.11    5.05   0
   5  -1   7   25.35    4.89   0
   5  -1   7   29.41    4.44   0
  -5   1  -7    7.74    5.08   0
   5  -1   7   22.60    8.13   0
   6  -1   7    6.77    4.87   0
   6  -1   7    4.52    5.29   0
  -6   1  -7    6.44    5.33   0
   6  -1   7    6.29    5.82   0
   7  -1   7    2.25    8.30   0
   7  -1   7    4.70    7.51   0
   7  -1   7    8.14    9.19   0
  -7   0   7  -12.34    7.53   0
   7   0  -7    2.29    9.67   0
   7   0  -7    3.87    6.35   0
   7   0  -7   -0.22    7.66   0
  -6   0   7    5.60    5.02   0
   6   0  -7    0.84    8.81   0
   6   0  -7   -3.70    7.85   0
   6   0  -7    8.82    6.95   0
  -5   0   7   29.59    6.67   0
   5   0  -7   24.46    8.57   0
   5   0  -7   18.80    7.30   0
   5   0  -7   11.66    6.70   0
  -4   0   7   57.42    6.48   0
   4   0  -7   64.32    6.05   0
   4   0  -7   53.65    6.93   0
   4   0  -7   61.81    4.96   0
   3   0  -7   91.65    7.16   0
   3   0  -7  125.50    7.13   0
   3   0  -7  140.47    8.52   0
  -3   0   7  123.84    5.23   0
   2   0  -7  159.23    8.50   0
   2   0  -7  135.44    6.88   0
  -2   0   7  128.09    8.14   0
  -2   0   7  132.67    6.84   0
  -1   0   7 1517.48   20.75   0
   1   0  -7 1243.55   10.44   0
   1   0  -7 1443.58   20.37   0
  -1   0   7 1216.85   10.49   0
   0   0  -7  225.20   12.16   0
   0   0  -7  194.12    7.24   0
   0   0   7  188.18    7.72   0
   0   0   7  239.32   10.71   0
   1   0   7  453.80    8.42   0
   1   0   7  359.12   10.56   0
  -1   0  -7  430.85    8.23   0
  -1   0  -7  401.12   10.28   0
   2   0   7  461.75   10.55   0
  -2   0  -7  427.30    6.71   0
   2   0   7  445.18    8.22   0
  -2   0  -7  323.06    8.63   0
   3   0   7   52.46    5.14   0
   3   0   7   50.92    4.71   0
  -3   0  -7   38.64    4.75   0
   3   0   7   51.16    7.45   0
   4   0   7   31.58    4.49   0
   4   0   7   47.14    6.73   0
  -4   0  -7   30.19    6.83   0
   4   0   7   26.97    7.66   0
   5   0   7   37.12    7.34   0
   5   0   7   43.96    6.62   0
  -5   0  -7   21.78    5.02   0
   5   0   7   44.82    7.41   0
   6   0   7    5.37    7.46   0
   6   0   7    5.77    6.78   0
  -6   0  -7   -3.42    5.14   0
   6   0   7    9.44    8.11   0
   7   0   7   -4.38    5.28   0
   7   0   7   -0.41    7.75   0
   7   0   7   -4.00    6.65   0
   7   0   7   -4.37    8.68   0
  -7   1   7   -0.87    8.07   0
   7  -1  -7    5.34    9.87   0
   7  -1  -7   -2.42    8.69   0
   7  -1  -7    8.09    7.80   0
  -6   1   7    0.50    7.13   0
   6  -1  -7    7.70    6.25   0
   6  -1  -7   -1.75    8.00   0
   6  -1  -7   -4.29    7.17   0
  -5   1   7    2.87    5.00   0
   5  -1  -7    8.32    7.40   0
   5  -1  -7   -0.43    8.55   0
   5  -1  -7    4.68    4.83   0
  -4   1   7  108.20    5.28   0
   4  -1  -7  124.96    9.08   0
   4  -1  -7   95.58    5.99   0
   4  -1  -7  137.89    7.00   0
  -3   1   7  145.52    5.57   0
   3  -1  -7  130.51    7.70   0
   3  -1  -7  175.46    7.46   0
   3  -1  -7  154.57    9.19   0
   2  -1  -7    2.33    7.29   0
   2  -1  -7    3.22    7.97   0
   2  -1  -7    3.43    6.29   0
  -2   1   7    7.04    6.13   0
   1  -1  -7   13.32   10.09   0
   1  -1  -7    8.79    8.45   0
   1  -1  -7    8.69    4.75   0
  -1   1   7   19.58    6.46   0
   0   1   7  349.06    7.11   0
   0   1   7  426.06   26.64   0
   0  -1  -7  354.78    7.22   0
   1   1   7 1149.15   20.08   0
  -1  -1  -7  998.20   10.16   0
  -1  -1  -7  915.22   17.68   0
   1   1   7  977.19   11.12   0
   2   1   7  253.78    6.51   0
  -2  -1  -7  172.81    7.93   0
  -2  -1  -7  230.65    6.00   0
   2   1   7  263.29    9.37   0
   3   1   7  510.16    9.38   0
  -3  -1  -7  313.52    7.47   0
   3   1   7  519.10    8.56   0
   3   1   7  515.33    9.97   0
   4   1   7   15.08    4.93   0
  -4  -1  -7   11.18    6.16   0
   4   1   7    9.27    6.30   0
   4   1   7    5.22    5.20   0
   5   1   7   24.20    6.92   0
   5   1   7   27.31    6.20   0
   5   1   7   13.68    5.20   0
   6   1   7   15.35    7.16   0
   6   1   7   10.47    5.80   0
   6   1   7   19.28    4.95   0
   6   1   7   22.08    7.90   0
   7   1   7   12.24    7.65   0
   7   1   7    2.28    8.74   0
   7   1   7    9.36    5.69   0
   7   1   7   -4.56    6.87   0
   6  -2  -7   97.44   10.04   0
  -6   2   7   80.41    6.12   0
   6  -2  -7   96.95    8.96   0
   6  -2  -7   77.96    5.96   0
  -5   2   7   22.69    7.18   0
   5  -2  -7   23.21    8.95   0
   5  -2  -7   25.91    6.10   0
   5  -2  -7   21.52    5.33   0
  -4   2   7   18.67    4.83   0
   4  -2  -7   11.60    7.35   0
   4  -2  -7    8.61    7.85   0
   4  -2  -7   10.00    4.85   0
  -3   2   7  141.41    7.33   0
   3  -2  -7  165.77    9.18   0
   3  -2  -7  147.69    7.58   0
   3  -2  -7  135.33    8.14   0
  -2   2   7  368.15    8.37   0
   2  -2  -7  393.29   13.14   0
   2  -2  -7  405.91    8.68   0
   2  -2  -7  349.61   11.59   0
   1  -2  -7   34.21   11.61   0
   1  -2  -7   36.86    6.80   0
  -1   2   7   36.63    6.74   0
   1  -2  -7   37.91   10.04   0
   0  -2  -7  583.21    9.67   0
   0   2   7  712.55   10.51   0
   1   2   7   43.46   15.00   0
  -1  -2  -7   26.38    5.86   0
   1   2   7   40.03   13.50   0
   1   2   7   31.43    5.03   0
  -2  -2  -7   41.94    5.93   0
   2   2   7   31.97    7.65   0
   2   2   7   36.63    6.68   0
   2   2   7   39.52    8.97   0
   3   2   7    9.52    7.64   0
   3   2   7    7.80    6.59   0
   3   2   7   12.42    6.08   0
   3   2   7    7.71    6.69   0
   4   2   7   42.42    5.67   0
   4   2   7   57.20    6.37   0
   4   2   7   55.41    4.87   0
   4   2   7   51.62    6.90   0
   5   2   7    4.15    7.85   0
   5   2   7   -2.16    4.64   0
   5   2   7    5.21    7.12   0
   5   2   7   -1.19    4.42   0
   6   2   7   -1.75    4.97   0
   6   2   7    2.44    6.22   0
   6   2   7    1.96    7.43   0
   6   2   7   14.68    8.53   0
   7   2   7   -0.71    7.37   0
   7   2   7    9.15    7.00   0
   7   2   7    7.05    8.90   0
   7   2   7   17.79    8.40   0
   8   2   7    7.86    5.44   0
   8   2   7    5.23    4.98   0
   8   2   7    4.50    8.74   0
   8   2   7    3.29    7.06   0
  -6   3   7   23.37    5.81   0
   6  -3  -7   23.62    6.90   0
   6  -3  -7   19.62    5.71   0
   6  -3  -7   22.77    6.16   0
  -5   3   7   63.41    7.61   0
   5  -3  -7   57.53    7.53   0
   5  -3  -7   57.02    8.45   0
   5  -3  -7   77.48    9.39   0
  -4   3   7  144.82    5.91   0
   4  -3  -7  150.50    5.93   0
   4  -3  -7  153.48    8.72   0
   4  -3  -7  169.31    7.61   0
  -3   3   7   14.54    6.66   0
   3  -3  -7   13.69    6.51   0
   3  -3  -7    8.11    7.57   0
   2  -3  -7  325.98   11.68   0
  -2   3   7  310.23    8.15   0
  -2   3   7  302.56    9.36   0
   2  -3  -7  318.57    8.33   0
  -1   3   7  340.20    8.40   0
   1  -3  -7  306.28   11.38   0
  -1   3   7  325.25   10.63   0
   1  -3  -7  347.14    8.58   0
   0  -3  -7   85.19   12.91   0
   0   3   7   73.04   11.14   0
   0  -3  -7   60.74    6.46   0
   0   3   7   69.49    6.58   0
  -1  -3  -7  511.56    9.76   0
   1   3   7  639.08   19.07   0
   1   3   7  789.22   12.05   0
   2   3   7  142.11    9.78   0
   2   3   7  158.23   11.06   0
   2   3   7  133.73    6.99   0
  -2  -3  -7  149.47    7.24   0
   3   3   7  334.47    8.98   0
   3   3   7  338.65   10.08   0
   3   3   7  388.10    9.42   0
   3   3   7  397.41    8.91   0
   4   3   7  102.59    5.74   0
   4   3   7  110.92    6.92   0
   4   3   7  119.34    7.29   0
   4   3   7   93.40    5.86   0
   5   3   7    2.21    4.71   0
   5   3   7   -0.48    4.38   0
   5   3   7    8.59    7.02   0
   5   3   7    2.15    8.05   0
   6   3   7    0.82    7.15   0
   6   3   7   -1.10    6.48   0
   6   3   7   -4.73    7.04   0
   6   3   7    3.53    5.55   0
   7   3   7   19.37    7.28   0
   7   3   7    7.10    4.85   0
   7   3   7    6.07    5.52   0
   7   3   7    9.12    8.42   0
   8   3   7   -0.81    5.47   0
   8   3   7   -2.58    5.11   0
   8   3   7    7.91    9.59   0
   8   3   7    7.07    8.80   0
   6  -4  -7   16.03    9.42   0
  -6   4   7   -2.84    6.00   0
   6  -4  -7   -0.22   10.30   0
   6  -4  -7    5.01    5.71   0
   5  -4  -7    4.34    6.07   0
  -5   4   7    3.49    5.56   0
   5  -4  -7    4.22    7.58   0
   4  -4  -7   25.17    8.03   0
  -4   4   7   19.43    5.16   0
  -4   4   7   20.54    7.30   0
   4  -4  -7   11.70    6.55   0
   3  -4  -7  140.42    6.72   0
  -3   4   7  143.26    7.67   0
  -3   4   7  131.76    7.63   0
   3  -4  -7  140.29    7.43   0
  -2   4   7   39.40    4.96   0
   2  -4  -7   48.46    8.44   0
  -2   4   7   45.78    7.09   0
   2  -4  -7   49.86    6.57   0
  -1   4   7  301.11    8.90   0
   1  -4  -7  209.03   10.12   0
  -1   4   7  308.86    9.79   0
   1  -4  -7  306.68    8.70   0
   0   4   7  121.00    7.64   0
   0  -4  -7  117.22    7.58   0
   0  -4  -7  122.54   11.21   0
   0   4   7  137.74    8.96   0
   1   4   7   19.78   10.21   0
  -1  -4  -7   11.74    6.21   0
  -1  -4  -7   20.36    9.85   0
   1   4   7   16.02    8.31   0
  -2  -4  -7  483.00   13.16   0
   2   4   7  376.05   11.80   0
   2   4   7  455.15   13.41   0
   3   4   7  293.72   10.71   0
   3   4   7  301.05    9.66   0
   3   4   7  317.32    9.18   0
   4   4   7   38.62    6.83   0
   4   4   7   30.40    6.66   0
   4   4   7   38.51    6.70   0
   4   4   7   28.98    7.72   0
   5   4   7  127.27    8.41   0
   5   4   7  135.74    7.53   0
   5   4   7  154.39    7.06   0
   5   4   7  131.71    5.85   0
   6   4   7   10.23    6.80   0
   6   4   7    7.65    5.72   0
   6   4   7    4.17    4.59   0
   6   4   7    2.84    7.21   0
   7   4   7   -0.94    7.27   0
   7   4   7   -0.07    8.47   0
   7   4   7    2.52    7.91   0
   7   4   7   -3.67    7.02   0
   8   4   7    2.67    7.92   0
   8   4   7   -0.47    6.89   0
   8   4   7   20.57    8.44   0
   8   4   7   12.93    7.16   0
   5  -5  -7   -4.21    9.29   0
  -5   5   7    0.15    8.28   0
  -5   5   7   -0.64    8.31   0
   5  -5  -7   -3.27    5.43   0
   4  -5  -7    0.77    8.84   0
  -4   5   7    5.96    7.68   0
  -4   5   7    3.17    7.93   0
   4  -5  -7   17.48    7.44   0
   3  -5  -7   10.97    8.16   0
  -3   5   7    2.51    7.12   0
  -3   5   7   14.26    7.23   0
   3  -5  -7   10.29    7.02   0
  -2   5   7   31.21    6.36   0
   2  -5  -7   24.26    8.26   0
  -2   5   7   28.77    6.97   0
   2  -5  -7   25.18    6.39   0
  -1   5   7    9.95    6.84   0
   1  -5  -7    4.65    8.36   0
  -1   5   7   11.18    7.28   0
   1  -5  -7    9.04    6.99   0
   0   5   7  384.67   11.19   0
   0  -5  -7  376.57   10.94   0
   0  -5  -7  374.19   10.57   0
   0   5   7  439.72   10.54   0
   1   5   7   68.51    9.97   0
   1   5   7   72.20    8.96   0
  -1  -5  -7   91.15    8.67   0
  -1  -5  -7   41.92    8.96   0
  -2  -5  -7   78.54    8.56   0
   2   5   7   52.24    8.43   0
   3   5   7   66.18   10.15   0
  -3  -5  -7   82.69    8.67   0
   3   5   7   59.94    8.50   0
   3   5   7   79.39    8.79   0
   4   5   7   37.17    8.46   0
   4   5   7   42.02    7.99   0
   4   5   7   49.08    8.07   0
  -4  -5  -7   29.54    8.41   0
   5   5   7   13.03    7.08   0
   5   5   7   13.39    5.09   0
   5   5   7    6.30    8.20   0
   5   5   7   16.82    8.03   0
   6   5   7   25.39    7.09   0
   6   5   7   26.68    6.68   0
   6   5   7   21.12    7.39   0
   6   5   7   27.60    8.60   0
   7   5   7    4.68    5.29   0
   7   5   7   10.19    7.11   0
   7   5   7    9.23    7.29   0
   7   5   7    6.79    6.29   0
   8   5   7    0.40    7.88   0
   8   5   7    1.42    8.23   0
   8   5   7    0.60    7.25   0
   8   5   7    2.10    9.45   0
   4  -6  -7    5.93    9.10   0
  -4   6   7   -1.32    8.22   0
  -4   6   7    5.85    8.14   0
   4  -6  -7    4.00    7.67   0
   3  -6  -7   51.80    8.82   0
  -3   6   7   53.26    5.99   0
  -3   6   7   56.23    7.98   0
   3  -6  -7   56.68    5.80   0
   2  -6  -7   51.99    7.43   0
  -2   6   7   48.22    5.67   0
   2  -6  -7   35.12    8.42   0
  -2   6   7   45.56    5.71   0
  -1   6   7   10.13    6.87   0
   1  -6  -7    7.83    7.73   0
  -1   6   7    6.97    7.01   0
   1  -6  -7    4.49    6.98   0
   0   6   7   63.57    9.17   0
   0  -6  -7   56.10    8.44   0
   0  -6  -7   56.65    8.98   0
   0   6   7   79.39    8.04   0
   1   6   7   85.21    8.82   0
  -1  -6  -7   85.80    8.87   0
   2   6   7    2.64    8.23   0
  -2  -6  -7   14.37    8.07   0
  -3  -6  -7    5.42    8.01   0
   3   6   7   -1.69    8.45   0
   4   6   7   66.79    8.47   0
  -4  -6  -7   67.86    8.52   0
   4   6   7   56.63   11.16   0
   4   6   7   61.31   11.80   0
   5   6   7   -1.16    8.13   0
  -5  -6  -7   10.37    8.70   0
   5   6   7    6.98    7.89   0
   5   6   7    2.87    6.71   0
   6   6   7    0.98    8.73   0
   6   6   7    7.22    6.88   0
   6   6   7   -2.74    7.66   0
   6   6   7    8.34    7.08   0
   7   6   7    1.80    5.50   0
   7   6   7   -1.48    8.75   0
   7   6   7   -1.91    7.21   0
   7   6   7    1.88    7.49   0
   8   6   7   10.63    7.62   0
   8   6   7    1.61    5.91   0
   8   6   7    8.99    6.69   0
   8   6   7    6.84    8.42   0
   3  -7  -7    1.00    6.69   0
  -3   7   7    2.97    5.74   0
  -3   7   7   -4.74    8.04   0
   3  -7  -7   -3.77    5.50   0
  -2   7   7   48.35    8.29   0
   2  -7  -7   23.53    8.33   0
  -2   7   7   49.76    7.84   0
   2  -7  -7   40.77    7.75   0
   1  -7  -7   87.74    6.68   0
  -1   7   7  116.51   10.09   0
  -1   7   7  126.78    8.68   0
   1  -7  -7  111.24    8.06   0
   0  -7  -7    1.27    8.08   0
   0  -7  -7   -1.39    5.65   0
   0   7   7    5.28    7.81   0
   1   7   7  101.55    8.69   0
  -1  -7  -7  113.23    9.08   0
   2   7   7   69.65    8.91   0
  -2  -7  -7  107.70    8.39   0
  -3  -7  -7    2.11    7.75   0
   3   7   7    5.36    7.77   0
   4   7   7   36.16    8.01   0
  -4  -7  -7   28.39    8.18   0
  -5  -7  -7    8.74    8.45   0
   5   7   7    1.97   12.23   0
   5   7   7    2.02   13.01   0
   5   7   7    1.85    5.56   0
   6   7   7    4.84    8.56   0
   6   7   7    1.52    8.36   0
   6   7   7   -2.46    8.80   0
   7   7   7   -0.40    8.96   0
   7   7   7    3.92    8.78   0
   7   7   7   -5.77    8.00   0
   7   7   7    5.03    7.72   0
   8   7   7    1.03    7.88   0
   8   7   7    2.20    8.02   0
   2  -8  -7   20.41    9.08   0
  -2   8   7    1.24    6.06   0
   2  -8  -7    2.41    7.94   0
   1  -8  -7   37.00    8.95   0
   1  -8  -7   38.00    9.01   0
  -1   8   7   54.89    8.12   0
   1  -8  -7   45.19    9.56   0
   0  -8  -7   14.18    8.41   0
   0  -8  -7   15.93    8.83   0
   0  -8  -7   23.18    8.73   0
   0   8   7   13.65    8.03   0
   1   8   7    8.23    8.33   0
  -1  -8  -7    3.73    8.37   0
   2   8   7    4.99    5.79   0
  -2  -8  -7   10.99    8.49   0
   3   8   7    5.28    7.86   0
  -3  -8  -7   26.66    8.44   0
  -4  -8  -7    9.46    8.29   0
   4   8   7    2.31    8.24   0
  -5  -8  -7   21.04    8.74   0
   5   8   7   13.14    6.04   0
  -6  -8  -7    8.45    9.21   0
   6   8   7   18.95    8.82   0
   7   8   7   -2.29    6.69   0
   7   8   7    1.07    9.64   0
   7   8   7    0.85    9.80   0
   1  -9  -7    0.82    7.90   0
   1  -9  -7    0.94    6.75   0
  -1   9   7    4.49    8.70   0
   1  -9  -7    6.95    7.96   0
   0  -9  -7   18.18   11.78   0
   0  -9  -7   18.60   12.40   0
   0   9   7   29.01    8.48   0
   0  -9  -7   20.98    6.73   0
   1   9   7   12.61    8.30   0
  -1  -9  -7   11.37    9.03   0
   2   9   7   17.91    8.40   0
  -2  -9  -7   25.58    6.48   0
   3   9   7    6.76    6.06   0
  -3  -9  -7    7.15    8.85   0
  -4  -9  -7    4.11    6.41   0
   4   9   7    1.87    8.44   0
   5   9   7   10.43    8.85   0
  -5  -9  -7    0.73    6.63   0
   6   9   7   -5.84    9.97   0
  -6  -9  -7    4.32    9.75   0
  -1 -10  -7   17.81    9.88   0
   1  10   7    2.82    9.20   0
   2  10   7    3.16    8.87   0
  -2 -10  -7    1.98    6.88   0
   3  10   7   22.12    9.21   0
  -3 -10  -7    7.93    9.58   0
  -4 -10  -7    3.04    9.71   0
   4  10   7    8.32    9.44   0
  -5 -10  -7    3.93    6.77   0
   5  10   7   -0.02    9.37   0
  -4  -8   8   -1.72    6.82   0
   4   8  -8   24.67    9.09   0
   4   8  -8    1.44    7.66   0
  -4  -8   8    8.54    5.73   0
   3   8  -8   14.24    6.45   0
  -3  -8   8   18.15    6.69   0
   3   8  -8    3.01    5.46   0
  -3  -8   8    9.19    5.43   0
   2   8  -8   47.33    6.87   0
  -2  -8   8   66.21    9.49   0
   2   8  -8   37.05    7.46   0
  -2  -8   8   43.40    5.69   0
  -1  -8   8    1.16    6.76   0
   1   8  -8   10.00    6.57   0
   1   8  -8   10.29    5.41   0
  -1  -8   8    5.36    8.08   0
   0  -8   8   -5.74    6.39   0
   0  -8   8   11.36    7.78   0
   0  -8   8   -0.13    6.90   0
   0   8  -8    6.29    6.37   0
   6   7  -8    4.06    7.98   0
   6   7  -8   10.54    9.62   0
  -6  -7   8    4.00   10.14   0
  -5  -7   8    4.18    6.57   0
   5   7  -8   -0.15    6.22   0
   5   7  -8    5.30    7.50   0
  -5  -7   8    3.70    7.70   0
   4   7  -8   30.10    6.17   0
  -4  -7   8   65.01    6.90   0
   4   7  -8   44.27    5.55   0
  -4  -7   8   38.04    5.78   0
   3   7  -8    9.33    6.21   0
  -3  -7   8   24.69    8.95   0
  -3  -7   8   16.73    7.44   0
   3   7  -8   14.35    7.21   0
  -2  -7   8   51.48    9.08   0
   2   7  -8   52.82    8.46   0
  -2  -7   8   41.85    7.40   0
   2   7  -8   28.84    5.14   0
  -1  -7   8   86.92    9.14   0
   1   7  -8   75.74    8.66   0
   1   7  -8   52.87    5.29   0
  -1  -7   8   76.86    7.41   0
   0   7  -8   15.45    8.81   0
   0   7  -8   10.53    7.18   0
   0  -7   8   18.74    5.28   0
   0  -7   8   15.50    8.90   0
   1  -7   8   67.64    6.13   0
   1  -7   8   49.78    7.62   0
   1  -7   8   54.80    9.68   0
  -1   7  -8   65.50    8.97   0
   2  -7   8   22.44    8.66   0
   2  -7   8   28.68    6.70   0
  -2   7  -8   27.92    6.53   0
  -6  -6   8    3.89    6.50   0
   6   6  -8    6.16    4.98   0
   6   6  -8   12.26    9.00   0
  -6  -6   8   -0.05    5.49   0
  -5  -6   8   11.54    6.14   0
   5   6  -8    6.12    7.01   0
   5   6  -8   11.28    6.42   0
  -5  -6   8    7.01    5.29   0
   4   6  -8    7.61    8.29   0
   4   6  -8    4.87    4.66   0
  -4  -6   8    7.02    7.05   0
  -4  -6   8    5.24    6.09   0
   3   6  -8    8.59    8.07   0
  -3  -6   8   23.70    8.76   0
   3   6  -8   20.69    7.18   0
  -3  -6   8    7.22    5.21   0
  -2  -6   8   20.21    6.33   0
   2   6  -8   15.27    8.21   0
   2   6  -8   12.03    6.38   0
  -2  -6   8   12.86    6.72   0
   1   6  -8   93.10    8.16   0
   1   6  -8   68.24    5.25   0
  -1  -6   8   72.86    6.89   0
  -1  -6   8   98.33    9.15   0
   0   6  -8   89.56    8.39   0
   0   6  -8   77.35    6.86   0
   0  -6   8   60.91    4.84   0
   0  -6   8  101.95    8.55   0
   1  -6   8    6.62    8.47   0
   1  -6   8   -1.35    4.73   0
  -1   6  -8   13.88    7.92   0
   2  -6   8   15.85    8.88   0
   2  -6   8   17.23    7.93   0
   2  -6   8   22.99    5.03   0
  -2   6  -8   16.69    8.48   0
   3  -6   8   42.57    6.18   0
   3  -6   8   14.34    9.06   0
   3  -6   8   34.70    5.49   0
  -3   6  -8   48.59    8.89   0
   7   5  -8   -5.41    9.85   0
  -7  -5   8   -2.60    8.10   0
  -7  -5   8   -2.28    9.84   0
   7   5  -8   -4.70    7.83   0
  -6  -5   8    6.43    7.68   0
  -6  -5   8    4.10    6.25   0
   6   5  -8   -5.45    6.97   0
   6   5  -8    3.29    9.25   0
   5   5  -8   54.97    6.50   0
   5   5  -8   29.95    4.91   0
  -5  -5   8   42.21    6.47   0
  -5  -5   8   44.67    7.01   0
  -4  -5   8    8.21    8.41   0
   4   5  -8   21.62    8.21   0
   4   5  -8   10.65    7.04   0
  -4  -5   8   15.00    4.76   0
   3   5  -8   97.55    6.12   0
   3   5  -8  140.40    5.49   0
  -3  -5   8  192.41    8.76   0
  -3  -5   8   85.07    5.22   0
  -2  -5   8   14.98    5.67   0
   2   5  -8    8.75    8.03   0
   2   5  -8   15.93    4.24   0
  -2  -5   8   18.03    6.70   0
   1   5  -8    3.12    7.70   0
   1   5  -8    7.98    4.55   0
  -1  -5   8   13.13    7.12   0
  -1  -5   8   12.15    7.98   0
   0   5  -8  140.10    8.35   0
   0  -5   8   94.09    6.77   0
   0  -5   8  118.85    8.70   0
   0   5  -8  128.50    6.81   0
  -1   5  -8  169.38    7.27   0
   1  -5   8  111.77    8.45   0
   1  -5   8  169.11    5.42   0
  -1   5  -8  173.87    6.28   0
   2  -5   8   16.02    8.15   0
   2  -5   8   13.95    7.74   0
   2  -5   8    5.85    7.17   0
  -2   5  -8   12.78    5.33   0
   3  -5   8  100.69    6.12   0
   3  -5   8   41.74    6.42   0
   3  -5   8   74.30    7.50   0
  -3   5  -8   86.21    8.58   0
   4  -5   8   13.85    5.82   0
   4  -5   8   16.30    9.35   0
   4  -5   8   15.92    5.30   0
  -4   5  -8   17.47    8.56   0
  -7  -4   8    7.98    7.82   0
   7   4  -8   -4.72    9.38   0
   7   4  -8    4.17    5.73   0
   7   4  -8    4.90    7.67   0
  -6  -4   8   12.51    5.06   0
   6   4  -8    3.50    8.84   0
  -6  -4   8   17.06    8.87   0
   6   4  -8    9.21    7.15   0
  -5  -4   8   10.30    8.08   0
   5   4  -8    5.93    6.80   0
  -5  -4   8    7.87    5.12   0
   5   4  -8   12.59    8.63   0
  -4  -4   8   13.80    5.56   0
   4   4  -8    4.30    4.66   0
   4   4  -8   11.58    8.69   0
  -4  -4   8    6.85    6.83   0
   3   4  -8    8.91    6.64   0
   3   4  -8    4.42    6.05   0
  -3  -4   8   10.74    7.78   0
  -3  -4   8    0.03    6.68   0
  -2  -4   8  303.80    9.62   0
   2   4  -8  164.76    9.14   0
   2   4  -8  245.70    7.49   0
  -2  -4   8  253.41    7.70   0
  -1  -4   8  264.75    9.24   0
   1   4  -8  221.14    9.35   0
   1   4  -8  195.76    6.86   0
  -1  -4   8  211.02    5.69   0
   0   4  -8  159.18    8.79   0
   0   4  -8  132.91    6.73   0
   0  -4   8  121.79    5.08   0
   0  -4   8  137.63    8.69   0
  -1   4  -8  232.59    7.37   0
   1  -4   8  141.82    6.27   0
   1  -4   8  225.79    6.03   0
  -1   4  -8  252.73    8.41   0
   2  -4   8   60.84    8.32   0
   2  -4   8  125.17    5.95   0
   2  -4   8  112.43    7.23   0
  -2   4  -8  103.73    8.13   0
   3  -4   8   -0.30    6.01   0
   3  -4   8   -3.62    5.16   0
   3  -4   8    1.02    6.87   0
  -3   4  -8   -3.90    5.59   0
   4  -4   8   75.84    9.37   0
   4  -4   8  118.39    8.14   0
   4  -4   8   88.75    5.79   0
  -4   4  -8   93.97    8.22   0
   5  -4   8   19.38    9.65   0
   5  -4   8   24.84    8.05   0
  -5   4  -8   12.79    6.12   0
   5  -4   8   25.79    7.92   0
  -7  -3   8   10.92    7.70   0
   7   3  -8   -2.34    6.58   0
   7   3  -8    7.07    8.27   0
   7   3  -8    0.81    7.78   0
  -6  -3   8   -0.52    5.20   0
   6   3  -8    9.10    6.13   0
   6   3  -8    3.18    5.18   0
   5   3  -8   28.79    8.57   0
  -5  -3   8   31.68    8.70   0
   5   3  -8   27.06    6.71   0
  -5  -3   8   21.45    6.83   0
   4   3  -8  137.25    7.25   0
  -4  -3   8  134.59    5.43   0
  -4  -3   8  148.15    8.91   0
   4   3  -8  139.19    9.25   0
  -3  -3   8   42.47    7.93   0
   3   3  -8   30.31    6.45   0
   3   3  -8   45.29    8.34   0
  -3  -3   8   40.18    6.50   0
  -2  -3   8  350.71    7.45   0
   2   3  -8  179.98    8.65   0
   2   3  -8  271.00    6.08   0
  -2  -3   8  252.37    7.47   0
  -1  -3   8  342.35    7.71   0
   1   3  -8  229.55    9.01   0
   1   3  -8  280.90    7.34   0
  -1  -3   8  284.90    7.74   0
   0   3  -8   97.07    8.21   0
   0   3  -8   71.05    6.33   0
   0  -3   8   72.11    6.41   0
   0  -3   8   76.51    7.96   0
  -1   3  -8    8.75    5.85   0
   1  -3   8    9.82    5.38   0
   1  -3   8    9.11    6.16   0
  -1   3  -8   11.06    7.79   0
   2  -3   8  291.09    7.37   0
   2  -3   8  438.72    8.02   0
  -2   3  -8  424.99    7.39   0
   3  -3   8   44.85    8.27   0
   3  -3   8   55.86    7.09   0
   3  -3   8   57.85    6.47   0
  -3   3  -8   54.28    7.65   0
   4  -3   8    5.02    5.73   0
   4  -3   8   15.72    7.27   0
   4  -3   8   10.11    6.66   0
  -4   3  -8   -5.15    7.54   0
   5  -3   8   10.36    8.87   0
   5  -3   8   16.57    7.78   0
   5  -3   8   13.99    7.16   0
  -5   3  -8    6.42    8.16   0
  -7  -2   8    0.21    7.91   0
   7   2  -8    3.23    6.03   0
   7   2  -8    0.78    7.55   0
   7   2  -8    4.33    6.78   0
  -6  -2   8   10.36    7.31   0
   6   2  -8   10.87    8.78   0
   6   2  -8    3.83    7.59   0
   6   2  -8   23.17    6.99   0
  -5  -2   8   13.13    4.93   0
   5   2  -8    3.49    8.58   0
   5   2  -8    7.74    4.89   0
   4   2  -8   96.91    7.12   0
  -4  -2   8  106.68    8.49   0
   4   2  -8   98.58    8.66   0
  -4  -2   8   95.65    6.98   0
  -3  -2   8  188.02    8.46   0
   3   2  -8  142.85    5.26   0
  -3  -2   8  151.03    7.03   0
   3   2  -8  173.29    6.92   0
   2   2  -8   43.43    6.11   0
   2   2  -8   51.33    6.23   0
  -2  -2   8   42.40    6.37   0
  -2  -2   8   68.44    8.04   0
  -1  -2   8   58.37    8.22   0
   1   2  -8   40.86    8.05   0
   1   2  -8   46.23    6.29   0
  -1  -2   8   43.93    6.49   0
   0   2  -8 1042.90   12.75   0
   0   2  -8  770.45    7.89   0
   0  -2   8  790.69    9.17   0
   0  -2   8  997.97   11.25   0
   1  -2   8   29.73    8.08   0
  -1   2  -8   58.84    6.03   0
   1  -2   8   62.49    4.75   0
  -1   2  -8   53.85    5.73   0
   2  -2   8  177.23    6.73   0
  -2   2  -8  209.66    5.20   0
  -2   2  -8  217.66    6.44   0
   2  -2   8  214.38    5.40   0
   3  -2   8   69.23    6.12   0
   3  -2   8   78.60    5.25   0
   3  -2   8   89.54    6.63   0
  -3   2  -8   70.67    7.14   0
   4  -2   8   13.23    5.90   0
   4  -2   8   10.01    6.94   0
   4  -2   8    4.33    4.71   0
  -4   2  -8    6.35    7.24   0
   5  -2   8   11.67    8.40   0
   5  -2   8    9.33    7.55   0
   5  -2   8    4.23    4.68   0
  -5   2  -8   15.80    7.68   0
   6  -2   8    8.26    9.19   0
   6  -2   8    0.59    7.74   0
   6  -2   8    3.45    5.21   0
  -6   2  -8    9.47    8.26   0
  -7  -1   8    2.23    5.46   0
   7   1  -8   -5.87    8.87   0
   7   1  -8    3.84    6.77   0
   7   1  -8    8.83    5.38   0
   6   1  -8    9.39    5.47   0
  -6  -1   8    6.76    7.18   0
   6   1  -8   16.59    8.89   0
   6   1  -8   12.15    4.87   0
  -5  -1   8   49.37    4.88   0
   5   1  -8   60.68    8.45   0
   5   1  -8   44.11    7.40   0
   5   1  -8   51.42    6.65   0
   4   1  -8   28.52    8.11   0
   4   1  -8   10.57    5.04   0
   4   1  -8   20.85    6.60   0
  -4  -1   8   17.80    4.66   0
  -3  -1   8  201.08    9.04   0
   3   1  -8  224.85    9.46   0
   3   1  -8  201.25    7.25   0
  -3  -1   8  199.68    5.61   0
  -2  -1   8  720.69   12.45   0
   2   1  -8  587.13    7.45   0
   2   1  -8  721.23   12.50   0
  -2  -1   8  578.55    8.53   0
   1   1  -8   20.89    8.50   0
  -1  -1   8   31.62    8.00   0
   1   1  -8   25.33    4.47   0
  -1  -1   8   35.62    6.29   0
   0   1  -8  369.97   10.47   0
   0   1  -8  288.37    7.26   0
   0  -1   8  283.90    5.96   0
   0  -1   8  378.16   10.45   0
   1  -1   8  106.11    6.60   0
  -1   1  -8  169.03    5.22   0
   1  -1   8  177.74    5.29   0
  -1   1  -8  187.53    8.63   0
   2  -1   8   37.49    8.07   0
  -2   1  -8   38.50    4.52   0
   2  -1   8   39.39    4.52   0
  -2   1  -8   33.77    7.08   0
   3  -1   8  137.82    6.59   0
   3  -1   8  145.88    5.44   0
   3  -1   8  152.40    6.77   0
  -3   1  -8  100.98    7.40   0
   4  -1   8  109.00    8.19   0
   4  -1   8  112.26    5.05   0
   4  -1   8  109.58    7.39   0
  -4   1  -8   82.65    7.18   0
   5  -1   8   -3.22    7.69   0
   5  -1   8    3.99    7.11   0
  -5   1  -8   -2.72    4.82   0
   5  -1   8   -1.98    6.67   0
   6  -1   8   17.64    7.11   0
   6  -1   8   13.42    7.76   0
  -6   1  -8   13.81    7.59   0
   6  -1   8    0.58    8.21   0
  -7   0   8   -3.04    5.61   0
   7   0  -8   -3.09    6.24   0
   7   0  -8   -4.81    5.50   0
   7   0  -8   15.23    6.48   0
   6   0  -8   -3.20    6.06   0
  -6   0   8   -6.94    7.00   0
   6   0  -8   11.32    7.94   0
   6   0  -8    1.18    6.95   0
   5   0  -8   20.94    8.33   0
  -5   0   8   29.24    6.71   0
   5   0  -8   28.71    7.66   0
   5   0  -8   49.81    6.90   0
  -4   0   8   58.45    4.84   0
   4   0  -8   46.78    7.13   0
   4   0  -8   52.43    4.89   0
   4   0  -8   63.34    8.34   0
   3   0  -8    0.37    6.66   0
   3   0  -8    4.78    7.99   0
   3   0  -8    8.41    6.43   0
  -3   0   8   -2.58    6.13   0
   2   0  -8   75.01    8.66   0
   2   0  -8   67.95    6.54   0
  -2   0   8   72.47    8.43   0
  -2   0   8   67.09    6.59   0
   1   0  -8  465.26    8.28   0
  -1   0   8  664.91   15.64   0
   1   0  -8  409.23   12.33   0
  -1   0   8  508.05    8.52   0
   0   0  -8   31.29    8.22   0
   0   0   8   32.74   10.10   0
   0   0  -8   33.75    6.27   0
   0   0   8   30.41    6.29   0
   1   0   8  475.89   11.82   0
  -1   0  -8  639.61    8.73   0
   1   0   8  654.51    7.94   0
  -1   0  -8  706.44   13.66   0
   2   0   8  249.90    9.45   0
  -2   0  -8  251.28    7.11   0
   2   0   8  258.77    7.43   0
  -2   0  -8  212.49    8.20   0
   3   0   8    2.17    5.39   0
   3   0   8   12.18    6.82   0
   3   0   8   10.79    6.25   0
  -3   0  -8    5.26    4.39   0
   4   0   8   97.74    7.29   0
   4   0   8   87.55    6.79   0
  -4   0  -8   55.26    7.18   0
   4   0   8   95.60    6.16   0
   5   0   8   39.37    7.30   0
  -5   0  -8   18.37    7.12   0
   5   0   8   25.89    6.84   0
   5   0   8   30.42    7.75   0
   6   0   8   -2.17    7.42   0
  -6   0  -8    3.58    5.20   0
   6   0   8   14.70    6.81   0
   6   0   8    2.93    7.58   0
   7   0   8   -5.02    8.05   0
   7   0   8   -1.63    7.36   0
   7   0   8    0.12    6.24   0
  -7   1   8    9.72    5.75   0
   7  -1  -8    5.43   10.05   0
   7  -1  -8    1.29    9.12   0
   7  -1  -8    5.36    5.81   0
  -6   1   8   24.86    5.59   0
   6  -1  -8   23.90    9.29   0
   6  -1  -8   34.48    8.14   0
   6  -1  -8   32.10    7.62   0
  -5   1   8    2.61    6.99   0
   5  -1  -8    9.51    8.28   0
   5  -1  -8    4.77    7.65   0
   5  -1  -8    4.04    4.94   0
  -4   1   8   77.38    7.16   0
   4  -1  -8   88.43    6.44   0
   4  -1  -8   68.70    5.65   0
   4  -1  -8   88.61    5.29   0
  -3   1   8   47.24    4.98   0
   3  -1  -8   53.36    8.28   0
   3  -1  -8   42.64    7.18   0
   3  -1  -8   54.49    5.14   0
   2  -1  -8   24.33    6.84   0
   2  -1  -8   30.34    8.01   0
   2  -1  -8   25.73    6.63   0
  -2   1   8   27.73    6.49   0
   1  -1  -8  245.65   12.60   0
   1  -1  -8  278.91    7.70   0
   1  -1  -8  325.40   14.50   0
  -1   1   8  284.39    7.82   0
   0  -1  -8   28.52    6.63   0
   0   1   8   34.85    6.68   0
   0  -1  -8   32.59   13.97   0
   0   1   8   36.77   15.45   0
   1   1   8   20.16   10.34   0
  -1  -1  -8   16.60    4.48   0
  -1  -1  -8   21.62    8.44   0
   1   1   8   20.26    6.49   0
   2   1   8  252.79    9.62   0
  -2  -1  -8  230.64    7.13   0
  -2  -1  -8  169.19    9.49   0
   2   1   8  250.15    7.64   0
   3   1   8  103.63    7.28   0
  -3  -1  -8   52.70    6.98   0
   3   1   8   91.93    5.06   0
   3   1   8  101.12    7.95   0
   4   1   8    5.80    4.68   0
  -4  -1  -8   -2.39    4.60   0
   4   1   8    6.76    4.38   0
   4   1   8    7.30    7.39   0
   5   1   8   15.19    7.08   0
   5   1   8   22.01    4.69   0
   5   1   8   25.74    7.49   0
   6   1   8    4.69    7.35   0
   6   1   8    5.75    8.27   0
   6   1   8   15.08    6.38   0
   6   1   8    9.10    5.66   0
   7   1   8   -4.59    5.27   0
   7   1   8    2.33    6.35   0
   7   1   8   10.08    7.11   0
   7   1   8    7.14    5.92   0
  -6   2   8   20.32    8.00   0
   6  -2  -8    4.20    8.57   0
   6  -2  -8    1.02    7.83   0
   6  -2  -8   10.23    9.13   0
   5  -2  -8    9.36    8.92   0
  -5   2   8    6.63    6.92   0
   5  -2  -8   -3.23    7.68   0
   5  -2  -8   10.76    5.08   0
  -4   2   8   20.29    5.15   0
   4  -2  -8   23.29    8.17   0
   4  -2  -8   19.74    7.32   0
   4  -2  -8   16.77    7.26   0
   3  -2  -8  210.07    9.97   0
  -3   2   8  189.96    7.42   0
   3  -2  -8  190.01    8.98   0
   3  -2  -8  205.39    5.85   0
   2  -2  -8   11.02    7.16   0
   2  -2  -8   13.50    9.56   0
   2  -2  -8   17.87    6.56   0
  -2   2   8   11.66    4.66   0
   1  -2  -8  205.22   14.31   0
   1  -2  -8  180.04    5.97   0
   1  -2  -8  209.15   14.76   0
  -1   2   8  175.89    7.47   0
   0  -2  -8  199.32    6.11   0
   0   2   8  185.50    7.42   0
  -1  -2  -8   78.92    6.31   0
   1   2   8  115.93    6.93   0
   2   2   8   85.18    5.01   0
   2   2   8   83.96   10.21   0
  -2  -2  -8   88.84    6.21   0
   2   2   8  101.12   10.01   0
   3   2   8  376.59   10.58   0
   3   2   8  473.43    7.92   0
   3   2   8  473.10    8.60   0
   3   2   8  439.31   10.15   0
   4   2   8   52.36    6.96   0
   4   2   8   39.53    7.95   0
   4   2   8   57.94    6.57   0
   4   2   8   53.59    7.23   0
   5   2   8   34.03    8.09   0
   5   2   8   36.19    6.95   0
   5   2   8   33.92    6.27   0
   5   2   8   24.74    7.77   0
   6   2   8   17.93    4.91   0
   6   2   8   24.98    6.42   0
   6   2   8   22.96    8.24   0
   6   2   8   14.67    7.54   0
   7   2   8   -2.86    7.68   0
   7   2   8    4.63    6.32   0
   7   2   8    2.96    6.88   0
   7   2   8    2.73    8.31   0
  -6   3   8   21.50    8.42   0
   6  -3  -8   39.29   10.07   0
   6  -3  -8   31.27    8.21   0
   6  -3  -8   31.44    9.12   0
  -5   3   8   27.01    7.86   0
   5  -3  -8   30.91    9.15   0
   5  -3  -8   20.88    7.26   0
   5  -3  -8   32.27    8.36   0
  -4   3   8  185.34    7.86   0
   4  -3  -8  202.32    9.74   0
   4  -3  -8  206.42    7.92   0
   4  -3  -8  216.60    8.84   0
  -3   3   8   70.36    7.14   0
   3  -3  -8   81.99    8.98   0
   3  -3  -8   75.49    7.15   0
   3  -3  -8   74.26    8.22   0
   2  -3  -8    6.18    7.74   0
  -2   3   8    0.67    6.21   0
   2  -3  -8    4.00    7.66   0
   2  -3  -8    9.73    6.38   0
   1  -3  -8   53.56   10.11   0
   1  -3  -8   47.26   10.40   0
   1  -3  -8   57.68    6.65   0
  -1   3   8   46.68    6.47   0
   0  -3  -8  281.18    7.99   0
   0   3   8  377.53    8.95   0
  -1  -3  -8  242.20    7.81   0
   1   3   8  302.69    8.53   0
   2   3   8    1.54    7.99   0
  -2  -3  -8    3.69    6.14   0
   2   3   8    2.42    7.04   0
   2   3   8    5.96    6.28   0
   3   3   8    1.01    7.75   0
   3   3   8   -2.72    6.66   0
   3   3   8    6.65    6.20   0
   3   3   8   -0.40    7.21   0
   4   3   8   44.43    7.12   0
   4   3   8   48.61    6.46   0
   4   3   8   37.60    7.36   0
   4   3   8   41.86    8.00   0
   5   3   8  103.45    7.59   0
   5   3   8  103.20    5.36   0
   5   3   8  102.76    7.81   0
   5   3   8   96.43    6.37   0
   6   3   8    8.20    6.90   0
   6   3   8    8.59    6.52   0
   6   3   8    5.52    7.65   0
   6   3   8   10.41    5.75   0
   7   3   8   25.59    7.69   0
   7   3   8   14.24    7.09   0
   7   3   8   20.77    8.26   0
   7   3   8   14.90    8.98   0
   8   3   8   -1.69    8.30   0
   8   3   8   -0.19    5.51   0
   8   3   8    3.32    9.74   0
   8   3   8   10.76    8.58   0
   5  -4  -8    9.07    8.72   0
  -5   4   8    8.02    5.34   0
   5  -4  -8   10.07    9.29   0
   5  -4  -8   12.52    7.49   0
   4  -4  -8  213.19    9.72   0
  -4   4   8  212.24    6.43   0
   4  -4  -8  207.71    6.43   0
   3  -4  -8   -0.25    8.26   0
  -3   4   8    4.27    7.25   0
  -3   4   8   -2.79    7.14   0
   3  -4  -8   -1.86    7.19   0
  -2   4   8 1006.22   10.75   0
   2  -4  -8 1079.97   14.36   0
  -2   4   8 1021.58   14.44   0
   2  -4  -8 1045.74   11.03   0
  -1   4   8  157.10    7.91   0
   1  -4  -8  101.56    8.85   0
  -1   4   8  165.39    9.61   0
   1  -4  -8  153.17    7.38   0
   0   4   8   93.08    8.68   0
   0  -4  -8  119.75   10.98   0
   0  -4  -8   83.38    8.41   0
   0   4   8  107.44    9.68   0
   1   4   8  199.17   12.23   0
  -1  -4  -8  138.38    7.37   0
  -1  -4  -8  199.48   13.85   0
   1   4   8  174.15    9.35   0
   2   4   8  242.96    8.74   0
   2   4   8  254.67   12.05   0
  -2  -4  -8  270.33    8.50   0
   3   4   8   -1.37    6.52   0
   3   4   8    6.95    9.47   0
   3   4   8   -0.78    6.99   0
   3   4   8    4.55    7.89   0
   4   4   8   85.34    7.66   0
   4   4   8   98.73    7.33   0
   4   4   8   95.39    7.55   0
   4   4   8   88.26    8.34   0
   5   4   8    3.42    7.70   0
   5   4   8    2.12    6.54   0
   5   4   8    6.32    6.33   0
   5   4   8    2.47    7.01   0
   6   4   8   10.02    7.53   0
   6   4   8    6.72    5.96   0
   6   4   8    3.28    4.63   0
   6   4   8    9.21    4.94   0
   7   4   8    9.59    7.35   0
   7   4   8    5.79    8.77   0
   7   4   8    2.92    7.11   0
   7   4   8    1.42    8.16   0
   8   4   8   -0.08    5.81   0
   8   4   8    1.23    9.49   0
   8   4   8    1.89    7.68   0
   8   4   8    2.10    8.76   0
   5  -5  -8    0.33    9.25   0
  -5   5   8    1.92    8.31   0
   5  -5  -8    6.76    5.72   0
   4  -5  -8    8.31    6.47   0
  -4   5   8   14.52    5.52   0
  -4   5   8   11.53    8.10   0
   4  -5  -8    1.97    7.45   0
   3  -5  -8   70.96    8.96   0
  -3   5   8   63.74    7.85   0
  -3   5   8   70.72    7.81   0
   3  -5  -8   61.20    7.57   0
  -2   5   8  106.84    7.64   0
   2  -5  -8   91.84    9.26   0
  -2   5   8  107.79    8.22   0
   2  -5  -8  110.66    7.37   0
  -1   5   8  304.63    9.09   0
   1  -5  -8  185.96   11.41   0
  -1   5   8  332.76    9.81   0
   1  -5  -8  332.34    9.08   0
   0   5   8  610.38   12.46   0
   0  -5  -8  579.35   10.81   0
   0   5   8  714.43   12.90   0
   0  -5  -8  684.38   13.42   0
   1   5   8   10.41    7.73   0
   1   5   8   17.10    9.66   0
  -1  -5  -8   11.74    7.61   0
  -1  -5  -8   13.19    9.41   0
   2   5   8  228.93   13.03   0
   2   5   8  119.52    8.88   0
  -2  -5  -8  230.57   11.61   0
   2   5   8  203.90   11.81   0
  -3  -5  -8  112.07    9.22   0
   3   5   8   91.82    9.45   0
   3   5   8   89.66    8.94   0
   3   5   8   96.69    8.86   0
   4   5   8    5.69    8.13   0
   4   5   8    0.71    7.81   0
   4   5   8    0.01    6.80   0
   4   5   8    2.23    6.60   0
   5   5   8   50.45    7.77   0
   5   5   8   45.82    7.22   0
   5   5   8   61.70    7.29   0
   5   5   8   57.81    8.11   0
   6   5   8    5.45    7.31   0
   6   5   8    3.63    6.59   0
   6   5   8    5.04    5.54   0
   6   5   8   13.04    8.60   0
   7   5   8   13.42    7.68   0
   7   5   8   14.74    7.56   0
   7   5   8   14.90    8.00   0
   7   5   8   23.16    8.79   0
   8   5   8   -4.56    7.88   0
   8   5   8    5.39    7.50   0
   8   5   8    6.54    8.87   0
   8   5   8    3.57    9.36   0
   4  -6  -8   -1.51    6.46   0
  -4   6   8    9.69    8.09   0
  -4   6   8    1.94    5.79   0
   4  -6  -8    2.52    7.65   0
  -3   6   8   36.32    7.81   0
   3  -6  -8   24.11    9.25   0
  -3   6   8   32.62    8.39   0
   3  -6  -8   30.57    7.43   0
  -2   6   8   24.99    7.29   0
   2  -6  -8   11.81    8.36   0
  -2   6   8   30.00    7.76   0
   2  -6  -8   18.40    7.24   0
  -1   6   8    4.49    7.23   0
   1  -6  -8    4.82    7.98   0
  -1   6   8    6.17    7.61   0
   1  -6  -8    0.41    8.85   0
   0   6   8   17.08    8.83   0
   0  -6  -8    8.24    8.45   0
   0   6   8   16.33    7.86   0
   0  -6  -8   14.17    8.58   0
   1   6   8  268.56   10.06   0
  -1  -6  -8  311.41   10.31   0
   1   6   8  266.28   16.23   0
  -1  -6  -8  154.58   12.36   0
  -2  -6  -8   -2.37    8.04   0
   2   6   8   -3.62    8.34   0
   3   6   8   88.41    8.92   0
  -3  -6  -8  116.97    9.30   0
   4   6   8    7.47    9.76   0
  -4  -6  -8    1.15    7.91   0
   4   6   8    7.88    9.20   0
   4   6   8   12.16    6.00   0
   5   6   8    4.81    6.69   0
   5   6   8    9.09    7.97   0
   5   6   8    1.49    8.30   0
   6   6   8    9.09    8.92   0
   6   6   8   14.01    7.36   0
   6   6   8   11.43    8.67   0
   6   6   8    8.28    6.73   0
   7   6   8    5.42    7.86   0
   7   6   8    4.64    7.44   0
   7   6   8   14.03    9.14   0
   7   6   8    9.59    8.26   0
   8   6   8    1.06    7.97   0
   8   6   8   -4.16    7.23   0
   8   6   8   -1.63    6.20   0
   8   6   8   -5.02    8.89   0
  -3   7   8   11.66    8.31   0
   3  -7  -8    4.59    6.22   0
  -3   7   8    5.29    8.44   0
   3  -7  -8    4.33    8.06   0
  -2   7   8   13.45    7.99   0
   2  -7  -8   13.61    8.78   0
  -2   7   8   11.17    8.14   0
   2  -7  -8   17.49    7.45   0
  -1   7   8    2.03    7.58   0
   1  -7  -8    4.20    8.46   0
  -1   7   8    5.09    7.76   0
   1  -7  -8    2.80    7.13   0
   0   7   8   16.20   10.78   0
   0  -7  -8   15.97    8.84   0
   0   7   8   13.28    8.04   0
   0  -7  -8   23.62    8.51   0
   1   7   8    7.17    8.12   0
  -1  -7  -8    0.95    8.63   0
   2   7   8   10.04    8.58   0
  -2  -7  -8   14.19    8.61   0
  -3  -7  -8   13.40    8.45   0
   3   7   8    5.09    8.37   0
  -4  -7  -8   18.20    8.54   0
   4   7   8   22.08    6.20   0
  -5  -7  -8    6.46    6.05   0
   5   7   8    9.19   14.11   0
   5   7   8    8.53   13.56   0
   5   7   8   12.12    8.19   0
   6   7   8    7.37    8.81   0
   6   7   8    1.42    5.49   0
   6   7   8    2.11    7.13   0
   6   7   8   -0.81    7.41   0
   7   7   8   15.86    9.04   0
   7   7   8    1.62    8.34   0
   7   7   8   -1.10    9.20   0
   7   7   8    4.05    7.97   0
   2  -8  -8    6.91    9.26   0
  -2   8   8   18.34    8.42   0
   2  -8  -8    6.45    8.21   0
  -1   8   8   31.04    8.41   0
   1  -8  -8   12.62    6.87   0
   1  -8  -8   26.44    7.75   0
   0  -8  -8    1.80    8.37   0
   0  -8  -8    4.00   10.22   0
   0   8   8    0.78    8.03   0
   0  -8  -8    6.56    8.76   0
   1   8   8   71.70    8.69   0
  -1  -8  -8   66.34    9.16   0
   2   8   8   19.44    8.34   0
  -2  -8  -8   24.65    8.69   0
  -3  -8  -8   17.32    6.25   0
   3   8   8   -0.84    8.56   0
   4   8   8    2.49    5.69   0
  -4  -8  -8   13.38    5.85   0
   5   8   8   -0.82    8.65   0
  -5  -8  -8    2.74    8.89   0
  -6  -8  -8    8.44    9.18   0
   6   8   8    9.14    9.03   0
   7   8   8    6.03    6.96   0
   7   8   8    2.76    6.08   0
   7   8   8   -1.88    9.64   0
   7   8   8   -3.81    9.89   0
   1  -9  -8   10.53    9.66   0
  -1   9   8    7.03    8.76   0
   1  -9  -8    8.22    9.81   0
   1  -9  -8    6.40    9.93   0
   0  -9  -8   12.02   14.52   0
   0  -9  -8   10.67   15.59   0
   0   9   8    6.43    8.68   0
   0  -9  -8   17.53    9.60   0
  -1  -9  -8    2.47    9.19   0
   1   9   8    0.03    8.87   0
   2   9   8   29.30    8.61   0
  -2  -9  -8   20.72    8.84   0
   3   9   8   26.05    8.79   0
  -3  -9  -8   31.08    9.19   0
   4   9   8    3.81    8.54   0
  -4  -9  -8   17.83    9.20   0
  -5  -9  -8   18.90    9.46   0
   5   9   8    8.26    6.35   0
   6   9   8    9.43    6.79   0
  -6  -9  -8   -5.10    9.69   0
  -1 -10  -8    5.67    9.58   0
   1  10   8   10.07    9.49   0
   2  10   8    2.81    9.00   0
  -2 -10  -8    7.52    9.79   0
   3  10   8    0.61    6.37   0
  -3 -10  -8   10.38    9.51   0
  -4 -10  -8   -0.54    9.53   0
   4  10   8   11.15    9.08   0
   5  10   8    5.24    9.49   0
  -5 -10  -8    0.36    7.09   0
   3   8  -9    6.96    9.46   0
  -3  -8   9    6.26    9.71   0
   3   8  -9   14.38    7.91   0
  -3  -8   9   11.02    5.50   0
   2   8  -9   28.49    6.55   0
  -2  -8   9   23.08    9.50   0
   2   8  -9   18.33    7.84   0
  -2  -8   9   23.83    8.17   0
  -5  -7   9   19.87    9.57   0
   5   7  -9   20.85    7.90   0
   5   7  -9   15.24    8.81   0
  -5  -7   9   10.60    8.15   0
   4   7  -9   16.82    8.92   0
   4   7  -9   12.65    7.69   0
  -4  -7   9   20.50    6.64   0
  -4  -7   9   -0.46    5.17   0
   3   7  -9   15.39    8.77   0
   3   7  -9   16.55    7.38   0
  -3  -7   9   11.70    6.57   0
  -3  -7   9   11.95    5.69   0
   2   7  -9   45.17    8.80   0
  -2  -7   9   64.09    9.30   0
   2   7  -9   35.64    5.25   0
  -2  -7   9   49.27    5.55   0
  -1  -7   9   14.58    9.19   0
   1   7  -9   27.61    6.50   0
   1   7  -9   11.88    7.10   0
  -1  -7   9   23.49    7.52   0
   0   7  -9   -4.70    8.87   0
   0   7  -9    2.94    7.16   0
   0  -7   9   10.34    7.52   0
   0  -7   9   -3.70    9.23   0
   1  -7   9   36.85    8.60   0
   1  -7   9   40.05    7.88   0
   1  -7   9   27.87    9.59   0
  -1   7  -9   54.05    9.10   0
  -6  -6   9    0.68    9.85   0
   6   6  -9   -7.78    9.44   0
   6   6  -9   11.16    7.78   0
  -6  -6   9    2.54    7.98   0
  -5  -6   9   -6.50    9.30   0
   5   6  -9   -2.11    6.37   0
   5   6  -9    0.35    5.24   0
  -5  -6   9    1.96    7.63   0
   4   6  -9   16.14    8.55   0
   4   6  -9   11.72    7.27   0
  -4  -6   9   13.46    7.08   0
  -4  -6   9   17.66    8.74   0
   3   6  -9   38.68    8.74   0
  -3  -6   9   79.02    6.42   0
   3   6  -9   63.82    7.23   0
  -3  -6   9   45.39    5.21   0
   2   6  -9   43.47    5.99   0
  -2  -6   9   51.92    6.59   0
   2   6  -9   38.11    5.13   0
  -2  -6   9   47.39    5.38   0
  -1  -6   9  251.51    7.55   0
   1   6  -9  237.71    6.83   0
   1   6  -9  175.65    5.76   0
  -1  -6   9  202.85    6.07   0
   0   6  -9   13.75    8.42   0
   0   6  -9   16.38    4.78   0
   0  -6   9   11.88    6.94   0
   0  -6   9   17.32    8.75   0
   1  -6   9   27.25    7.23   0
   1  -6   9   26.81    8.94   0
  -1   6  -9   47.49    8.48   0
   2  -6   9   84.52    6.20   0
   2  -6   9   63.70    5.87   0
   2  -6   9   42.59    6.64   0
  -2   6  -9   64.05    6.72   0
  -6  -5   9    3.69    7.97   0
   6   5  -9    5.84    7.31   0
   6   5  -9    6.18    9.22   0
  -6  -5   9    3.72    9.44   0
   5   5  -9    5.26    6.89   0
   5   5  -9    3.56    6.38   0
  -5  -5   9   -1.01    8.83   0
  -5  -5   9    0.24    7.11   0
  -4  -5   9   17.62    5.82   0
   4   5  -9   12.54    8.62   0
   4   5  -9   14.55    5.01   0
  -4  -5   9    7.59    7.13   0
   3   5  -9   14.31    5.91   0
   3   5  -9   18.22    4.93   0
  -3  -5   9   12.24    6.29   0
  -3  -5   9   12.40    5.03   0
  -2  -5   9   20.87    5.78   0
   2   5  -9   12.50    8.21   0
   2   5  -9   27.65    6.69   0
  -2  -5   9   30.35    6.87   0
  -1  -5   9   11.68    6.06   0
   1   5  -9   11.54    5.54   0
   1   5  -9    0.53    4.42   0
  -1  -5   9   10.82    6.95   0
   0   5  -9  346.31    9.40   0
   0   5  -9  278.86    7.84   0
   0  -5   9  220.30    5.78   0
   0  -5   9  337.39    9.89   0
  -1   5  -9   75.76    7.10   0
   1  -5   9   69.95    6.31   0
   1  -5   9   74.96    7.43   0
  -1   5  -9   84.62    5.73   0
   2  -5   9   75.48    8.15   0
   2  -5   9   52.32    8.90   0
   2  -5   9   73.07    7.32   0
  -2   5  -9   83.39    8.40   0
   3  -5   9   54.32    6.19   0
   3  -5   9   41.71    9.26   0
   3  -5   9   71.64    7.84   0
  -3   5  -9   52.84    5.96   0
  -7  -4   9    6.76    8.44   0
   7   4  -9    7.04    9.83   0
   7   4  -9    1.71    8.56   0
   7   4  -9    8.63    7.86   0
  -6  -4   9   30.31    5.64   0
   6   4  -9   23.46    9.38   0
  -6  -4   9   25.75    6.75   0
   6   4  -9   24.48    5.15   0
  -5  -4   9   21.68    6.29   0
   5   4  -9    8.43    7.10   0
   5   4  -9   27.22    6.10   0
  -5  -4   9   18.45    7.44   0
  -4  -4   9    4.66    8.48   0
   4   4  -9    2.59    6.69   0
   4   4  -9    7.86    8.79   0
  -4  -4   9    9.41    4.81   0
   3   4  -9  156.68    8.57   0
   3   4  -9  225.32    7.50   0
  -3  -4   9  285.30    7.79   0
  -3  -4   9  162.76    7.19   0
  -2  -4   9  127.75    8.92   0
   2   4  -9   67.22    8.27   0
   2   4  -9  106.81    7.03   0
  -2  -4   9   94.33    7.34   0
  -1  -4   9   24.55    8.24   0
   1   4  -9   23.60    5.86   0
   1   4  -9   19.34    6.48   0
  -1  -4   9   25.87    6.85   0
   0   4  -9   74.86    8.74   0
   0   4  -9   57.92    4.88   0
   0  -4   9   51.24    6.83   0
   0  -4   9   62.56    6.47   0
  -1   4  -9   75.03    4.53   0
   1  -4   9   50.46    8.62   0
   1  -4   9   71.64    4.69   0
  -1   4  -9   75.38    7.62   0
   2  -4   9   26.40    7.81   0
   2  -4   9   48.97    6.97   0
  -2   4  -9   39.06    5.60   0
   3  -4   9   18.98    8.37   0
   3  -4   9   28.68    5.34   0
   3  -4   9   20.35    4.83   0
  -3   4  -9   19.62    7.77   0
   4  -4   9   23.82    6.59   0
   4  -4   9   33.94    8.10   0
  -4   4  -9   28.41    8.39   0
   4  -4   9   26.35    7.72   0
  -7  -3   9   16.39    5.94   0
   7   3  -9    9.45   10.11   0
   7   3  -9   21.69    8.65   0
   7   3  -9   24.80    8.14   0
  -6  -3   9   -0.89    5.30   0
   6   3  -9    4.77    9.18   0
   6   3  -9    2.76    7.12   0
   5   3  -9   77.22    9.48   0
  -5  -3   9   85.98    9.08   0
   5   3  -9   57.38    5.48   0
  -5  -3   9   64.29    7.35   0
   4   3  -9   42.45    6.76   0
   4   3  -9   44.95    6.05   0
  -4  -3   9   38.33    4.91   0
  -4  -3   9   49.46    6.19   0
  -3  -3   9   17.84    5.81   0
   3   3  -9   19.24    6.55   0
   3   3  -9   15.25    8.24   0
  -3  -3   9   23.74    6.58   0
   2   3  -9   88.91    6.09   0
  -2  -3   9  181.89    6.95   0
   2   3  -9  161.09    6.97   0
  -2  -3   9  139.23    5.16   0
  -1  -3   9  695.45   11.35   0
   1   3  -9  504.43   10.45   0
   1   3  -9  546.86    8.37   0
  -1  -3   9  552.14    8.39   0
   0   3  -9   10.71    8.20   0
   0   3  -9    2.97    5.81   0
   0  -3   9   11.31    4.34   0
   0  -3   9   15.49    5.90   0
   1  -3   9  269.03    7.30   0
   1  -3   9  392.23    6.31   0
  -1   3  -9  413.55    6.41   0
  -1   3  -9  478.89    9.83   0
   2  -3   9   29.58    6.65   0
   2  -3   9   17.17    6.03   0
  -2   3  -9   25.74    4.34   0
  -2   3  -9   29.82    7.42   0
   3  -3   9    2.93    8.22   0
   3  -3   9   24.14    6.97   0
   3  -3   9   19.62    6.72   0
  -3   3  -9    7.92    7.29   0
   4  -3   9    0.20    8.00   0
   4  -3   9    9.78    5.53   0
   4  -3   9   17.28    4.77   0
  -4   3  -9   13.82    5.47   0
   5  -3   9   10.79    6.53   0
   5  -3   9   18.70    7.58   0
   5  -3   9   14.74    5.23   0
  -5   3  -9   13.17    8.37   0
  -7  -2   9   -5.42    7.86   0
   7   2  -9    2.05    9.72   0
   7   2  -9    9.37    6.16   0
   7   2  -9   -7.10    5.58   0
  -6  -2   9   10.45    7.42   0
   6   2  -9   14.58    8.92   0
   6   2  -9    7.69    7.61   0
   6   2  -9    3.50    5.06   0
  -5  -2   9    4.77    4.60   0
   5   2  -9   -3.68    8.25   0
   5   2  -9    6.93    6.67   0
   4   2  -9  122.69    9.41   0
  -4  -2   9  119.75    8.98   0
   4   2  -9   99.56    7.03   0
  -4  -2   9  105.02    6.84   0
  -3  -2   9   72.43    6.30   0
   3   2  -9   53.93    6.45   0
   3   2  -9   70.97    8.62   0
  -3  -2   9   49.91    4.59   0
   2   2  -9   59.32    8.73   0
   2   2  -9   71.40    6.19   0
  -2  -2   9   71.71    4.74   0
  -2  -2   9   96.33    8.53   0
  -1  -2   9  187.21    8.79   0
   1   2  -9  112.74    9.14   0
   1   2  -9  143.98    6.65   0
  -1  -2   9  142.30    5.24   0
   0   2  -9   33.83    7.98   0
   0   2  -9   26.69    5.84   0
   0  -2   9   25.01    6.12   0
   0  -2   9   36.17    6.23   0
  -1   2  -9    2.73    5.60   0
   1  -2   9   -6.36    8.12   0
   1  -2   9   -6.20    6.00   0
  -1   2  -9    3.20    5.31   0
   2  -2   9  140.62    8.86   0
  -2   2  -9  203.62    5.16   0
   2  -2   9  221.86    7.18   0
  -2   2  -9  213.34    8.21   0
   3  -2   9  144.19    8.74   0
   3  -2   9  162.25    5.73   0
   3  -2   9  167.02    5.36   0
  -3   2  -9  138.73    8.26   0
   4  -2   9   25.68    8.75   0
   4  -2   9   33.71    5.39   0
   4  -2   9   42.47    6.69   0
  -4   2  -9   31.80    5.49   0
   5  -2   9   27.99    6.99   0
   5  -2   9   27.66    8.77   0
   5  -2   9   23.01    7.76   0
  -5   2  -9   18.25    7.77   0
   6  -2   9    7.12    9.35   0
   6  -2   9   -0.12    8.13   0
  -6   2  -9    2.58    8.37   0
   6  -2   9    7.66    7.75   0
  -7  -1   9    1.42    5.63   0
   7   1  -9    3.65    6.43   0
   7   1  -9   -5.29    9.93   0
   7   1  -9   -8.83    7.66   0
  -6  -1   9    6.76    5.40   0
   6   1  -9    7.87    5.62   0
   6   1  -9   14.02    9.04   0
   6   1  -9   17.23    7.02   0
  -5  -1   9    4.35    4.73   0
   5   1  -9   14.71    8.31   0
   5   1  -9    7.10    7.47   0
   5   1  -9   14.65    4.70   0
   4   1  -9    7.30    5.34   0
   4   1  -9    3.92    6.50   0
   4   1  -9    3.06    4.70   0
  -4  -1   9    4.23    4.58   0
   3   1  -9  188.67    9.38   0
  -3  -1   9  199.15    7.40   0
   3   1  -9  163.93    7.03   0
  -3  -1   9  166.28    5.38   0
  -2  -1   9   87.04    8.49   0
   2   1  -9   43.08    4.58   0
   2   1  -9   59.79    8.96   0
  -2  -1   9   55.92    6.22   0
   1   1  -9  146.24    9.26   0
  -1  -1   9  233.40    9.72   0
   1   1  -9  187.12    7.09   0
  -1  -1   9  204.80    5.55   0
   0   1  -9  640.78   12.06   0
   0   1  -9  529.70    7.01   0
   0  -1   9  521.75    8.36   0
   0  -1   9  665.79   12.46   0
   1  -1   9   51.78    8.50   0
   1  -1   9   94.27    6.61   0
  -1   1  -9   83.77    4.80   0
  -1   1  -9  107.94    8.33   0
   2  -1   9  254.57    9.22   0
  -2   1  -9  285.55    5.73   0
   2  -1   9  310.65    7.65   0
  -2   1  -9  268.51    6.87   0
   3  -1   9  152.08    8.90   0
   3  -1   9  155.13    7.48   0
  -3   1  -9  123.74    5.94   0
   3  -1   9  156.18    7.11   0
   4  -1   9   20.11    8.12   0
   4  -1   9   17.10    7.25   0
  -4   1  -9   16.75    4.94   0
   4  -1   9   13.08    4.54   0
   5  -1   9   -1.70    7.92   0
   5  -1   9   -2.37    5.15   0
   5  -1   9   -6.95    6.66   0
  -5   1  -9    4.19    4.94   0
   6  -1   9   28.65    8.76   0
   6  -1   9   18.93    5.54   0
  -6   1  -9   19.26    5.80   0
   6  -1   9   17.80    5.46   0
  -7   0   9    5.19    8.11   0
   7   0  -9    9.39    9.05   0
   7   0  -9    1.96    7.95   0
   7   0  -9    0.74    9.88   0
  -6   0   9   -0.18    5.26   0
   6   0  -9   -3.68    5.78   0
   6   0  -9    4.20    5.24   0
   6   0  -9    7.49    8.95   0
  -5   0   9   30.96    6.98   0
   5   0  -9   22.40    7.56   0
   5   0  -9   21.80    6.96   0
   5   0  -9   21.97    8.53   0
  -4   0   9   -2.40    6.46   0
   4   0  -9    8.17    7.03   0
   4   0  -9   11.75    8.35   0
   4   0  -9    9.88    4.74   0
   3   0  -9   76.25    8.91   0
   3   0  -9   47.36    7.45   0
   3   0  -9   65.53    6.84   0
  -3   0   9   71.77    5.03   0
   2   0  -9  218.15    7.57   0
  -2   0   9  254.57   10.33   0
  -2   0   9  216.83    7.46   0
   2   0  -9  273.97   10.79   0
  -1   0   9   86.56    8.94   0
   1   0  -9   52.71   10.22   0
   1   0  -9   74.92    6.47   0
  -1   0   9   68.69    6.79   0
   0   0  -9  541.16   13.78   0
   0   0   9  592.60   13.43   0
   0   0  -9  465.10    8.29   0
   0   0   9  454.55    8.45   0
   1   0   9  243.54   11.76   0
  -1   0  -9  315.09    7.14   0
   1   0   9  325.10    7.56   0
  -1   0  -9  426.70   10.80   0
   2   0   9   44.82    8.90   0
  -2   0  -9   44.56    6.21   0
   2   0   9   41.87    6.73   0
  -2   0  -9   37.09    7.41   0
   3   0   9   20.22    8.09   0
   3   0   9   19.36    4.92   0
   3   0   9   20.22    6.46   0
  -3   0  -9   13.99    6.81   0
   4   0   9  231.33    9.31   0
   4   0   9  221.32    6.41   0
  -4   0  -9  162.82    8.04   0
   4   0   9  214.57    7.61   0
   5   0   9   16.45    5.14   0
  -5   0  -9   11.30    7.74   0
   5   0   9   12.74    7.01   0
   5   0   9   14.24    8.01   0
   6   0   9   22.10    7.43   0
  -6   0  -9    4.52    5.17   0
   6   0   9    3.89    4.94   0
   6   0   9   18.30    8.18   0
   7   0   9    5.59    5.85   0
   7   0   9    7.72    5.25   0
   7   0   9    6.42    6.20   0
  -6   1   9   12.81    7.84   0
   6  -1  -9   11.99    9.36   0
   6  -1  -9    2.60    6.10   0
   6  -1  -9    2.70    5.36   0
  -5   1   9    9.26    5.04   0
   5  -1  -9   10.57    8.18   0
   5  -1  -9   17.52    7.84   0
   5  -1  -9   12.83    4.96   0
   4  -1  -9   47.02    8.45   0
  -4   1   9   44.22    7.01   0
   4  -1  -9   45.39    7.74   0
   4  -1  -9   47.39    4.97   0
   3  -1  -9    2.00    7.04   0
   3  -1  -9    0.25    6.45   0
   3  -1  -9    4.96    7.97   0
  -3   1   9    5.18    6.30   0
   2  -1  -9  222.31   11.78   0
   2  -1  -9  162.21    9.95   0
   2  -1  -9  208.78    7.54   0
  -2   1   9  190.82    7.23   0
   1  -1  -9  170.71   13.57   0
   1  -1  -9  220.29   12.30   0
   1  -1  -9  208.05    5.69   0
  -1   1   9  205.90    7.12   0
   0   1   9   65.77   14.82   0
   0  -1  -9   57.34    6.36   0
   0  -1  -9   58.13   14.60   0
   0   1   9   56.77    6.63   0
  -1  -1  -9  175.84    5.41   0
  -1  -1  -9  228.95   11.41   0
   1   1   9  183.98   12.27   0
   1   1   9  225.38    7.28   0
   2   1   9  821.25   13.48   0
  -2  -1  -9  745.40    9.31   0
  -2  -1  -9  561.18   12.75   0
   2   1   9  758.45    9.76   0
  -3  -1  -9    5.11    6.69   0
   3   1   9    1.37    6.39   0
   3   1   9    3.28    5.54   0
   4   1   9   84.51    7.08   0
  -4  -1  -9   58.17    5.42   0
   4   1   9   74.93    6.69   0
   4   1   9   69.83    8.52   0
   5   1   9   19.54    7.11   0
   5   1   9   10.37    4.68   0
   5   1   9   21.20    7.81   0
   6   1   9    3.76    5.37   0
   6   1   9    6.54    6.76   0
   6   1   9    6.92    8.94   0
   6   1   9    2.16    8.36   0
   7   1   9   -6.65    7.94   0
   7   1   9   -9.75    6.56   0
   7   1   9    3.12    7.38   0
   7   1   9   -2.99    6.06   0
  -6   2   9    6.49    5.65   0
   6  -2  -9    3.75    9.45   0
   6  -2  -9    4.83    6.13   0
   6  -2  -9    0.74    7.69   0
  -5   2   9   12.53    5.29   0
   5  -2  -9    5.63    8.76   0
   5  -2  -9   12.21    8.08   0
   5  -2  -9    4.87    4.97   0
  -4   2   9   37.10    5.15   0
   4  -2  -9   44.36    8.48   0
   4  -2  -9   56.87    7.97   0
   4  -2  -9   46.50    7.02   0
  -3   2   9   72.09    6.82   0
   3  -2  -9   69.38    8.83   0
   3  -2  -9   68.84    8.10   0
   3  -2  -9   68.85    7.01   0
   2  -2  -9   14.89    9.29   0
   2  -2  -9    9.06    6.58   0
   2  -2  -9   15.66    8.45   0
  -2   2   9   12.71    4.34   0
   1  -2  -9  384.48   22.23   0
   1  -2  -9  329.09    7.92   0
  -1   2   9  341.51    7.97   0
   1  -2  -9  381.48   22.37   0
   0  -2  -9  298.02    8.04   0
   0   2   9  260.89    7.82   0
  -1  -2  -9    4.12    5.92   0
   1   2   9    5.74    6.14   0
   2   2   9   66.29    9.92   0
   2   2   9   55.79    9.62   0
  -2  -2  -9   57.62    5.99   0
   2   2   9   50.28    4.75   0
   3   2   9  246.95    6.45   0
   3   2   9  239.56    7.43   0
   3   2   9  218.85   11.38   0
   3   2   9  245.32    9.41   0
   4   2   9   37.67    7.09   0
   4   2   9   29.18    7.89   0
   4   2   9   41.02    6.57   0
   4   2   9   37.52    7.55   0
   5   2   9   40.17    6.40   0
   5   2   9   59.80    7.26   0
   5   2   9   51.85    6.70   0
   5   2   9   45.60    7.97   0
   6   2   9   12.46    5.27   0
   6   2   9    5.07    4.99   0
   6   2   9   -1.87    8.82   0
   6   2   9   13.07    7.90   0
   7   2   9   -7.97    7.84   0
   7   2   9    5.59    6.94   0
   7   2   9    3.28    7.27   0
   7   2   9    5.55    8.72   0
  -6   3   9   18.13    5.92   0
   6  -3  -9   15.68    5.80   0
   6  -3  -9   18.12    7.12   0
   6  -3  -9   17.99    9.26   0
   5  -3  -9    8.57    9.01   0
  -5   3   9   11.47    5.52   0
   5  -3  -9   21.63    7.66   0
   5  -3  -9   12.36    5.71   0
  -4   3   9    3.58    5.31   0
   4  -3  -9    0.90    8.54   0
   4  -3  -9    0.93    6.65   0
   4  -3  -9    7.31    8.08   0
  -3   3   9  154.91    7.11   0
   3  -3  -9  163.56   10.25   0
   3  -3  -9  149.91    5.61   0
   3  -3  -9  170.28    9.30   0
  -2   3   9  262.22    7.83   0
   2  -3  -9  302.68   10.60   0
   2  -3  -9  298.40   11.26   0
   2  -3  -9  296.93    8.08   0
   1  -3  -9   34.99   12.29   0
   1  -3  -9   58.12   11.98   0
   1  -3  -9   52.65    4.90   0
  -1   3   9   50.26    6.28   0
   0  -3  -9  286.45    7.92   0
   0   3   9  340.21    8.42   0
  -1  -3  -9  112.10    6.84   0
   1   3   9  116.13    5.74   0
   2   3   9    6.01    9.22   0
  -2  -3  -9    6.60    6.11   0
   2   3   9   -2.88    6.20   0
   2   3   9    4.61    8.51   0
   3   3   9   85.31    8.45   0
   3   3   9   96.61    7.54   0
   3   3   9   93.09    6.95   0
   3   3   9   87.25    7.97   0
   4   3   9   -0.52    6.82   0
   4   3   9   -0.28    6.45   0
   4   3   9   10.63    7.91   0
   4   3   9   11.86    7.28   0
   5   3   9   -8.78    7.21   0
   5   3   9   -1.90    4.74   0
   5   3   9    8.57    7.32   0
   5   3   9    1.36    5.93   0
   6   3   9   -3.44    5.16   0
   6   3   9    5.60    4.39   0
   6   3   9   17.10    7.89   0
   6   3   9   -9.63    8.70   0
   7   3   9    0.94    7.25   0
   7   3   9   -1.71    7.78   0
   7   3   9    7.91    9.16   0
   7   3   9    6.29    8.18   0
   5  -4  -9   21.83    6.56   0
   5  -4  -9   29.80    9.43   0
  -5   4   9   16.95    8.19   0
   5  -4  -9   27.66    7.79   0
   4  -4  -9   13.67    6.38   0
  -4   4   9    8.94    5.53   0
   4  -4  -9   18.68    7.18   0
   4  -4  -9   13.31    9.34   0
   3  -4  -9   46.88    9.03   0
   3  -4  -9   43.65    8.49   0
  -3   4   9   36.25    5.14   0
   3  -4  -9   41.37    7.27   0
  -2   4   9    4.00    6.65   0
   2  -4  -9    2.91    8.51   0
   2  -4  -9    1.17    4.37   0
  -1   4   9   35.59    6.58   0
  -1   4   9   30.93    8.94   0
   1  -4  -9   20.39   10.47   0
   1  -4  -9   36.81    6.84   0
   0   4   9  124.78   13.57   0
   0  -4  -9   95.99    7.05   0
   0  -4  -9  151.79   16.72   0
   0   4   9  123.57    7.55   0
   1   4   9  281.09   20.53   0
  -1  -4  -9  248.86    9.36   0
   1   4   9  333.97   22.52   0
   1   4   9  262.57    8.67   0
  -2  -4  -9   59.94    7.82   0
   2   4   9   60.62    8.81   0
   2   4   9   52.68   10.23   0
   2   4   9   57.25    6.98   0
   3   4   9   41.77    7.87   0
   3   4   9   44.14    7.21   0
   3   4   9   40.19    7.12   0
   3   4   9   36.51    6.48   0
   4   4   9   11.77    7.10   0
   4   4   9   13.32    6.68   0
   4   4   9   13.69    7.11   0
   4   4   9   17.05    8.02   0
   5   4   9   -0.37    7.94   0
   5   4   9    4.58    6.45   0
   5   4   9    5.69    6.58   0
   5   4   9   11.97    7.15   0
   6   4   9    0.88    7.24   0
   6   4   9    6.38    6.05   0
   6   4   9    1.99    6.59   0
   6   4   9    4.25    7.56   0
   7   4   9    2.14    7.52   0
   7   4   9    1.95    8.29   0
   7   4   9    1.69    9.09   0
   7   4   9    6.84    6.91   0
   5  -5  -9   17.52   10.31   0
   5  -5  -9    5.14    6.00   0
   4  -5  -9    1.45    8.84   0
  -4   5   9   17.06    7.83   0
   4  -5  -9   18.91    7.58   0
  -3   5   9   14.90    5.41   0
   3  -5  -9    9.91    8.74   0
  -3   5   9   15.22    7.60   0
   3  -5  -9   10.82    5.07   0
  -2   5   9  135.00    7.70   0
   2  -5  -9  105.35    9.04   0
  -2   5   9  132.92    8.60   0
   2  -5  -9  121.76    7.69   0
  -1   5   9  223.85    8.44   0
  -1   5   9  225.44    9.70   0
   1  -5  -9  169.86   11.42   0
   1  -5  -9  224.85    8.49   0
   0   5   9  384.26    9.99   0
   0  -5  -9  489.30   14.41   0
   0  -5  -9  326.00    9.01   0
   0   5   9  447.89   13.36   0
   1   5   9  111.65    8.88   0
  -1  -5  -9  123.97   11.18   0
  -1  -5  -9   97.11    8.50   0
   1   5   9  124.06   11.30   0
  -2  -5  -9   81.58    8.76   0
   2   5   9   48.82   10.47   0
  -2  -5  -9   77.84    8.48   0
   2   5   9   67.62    8.95   0
   3   5   9    6.92    6.91   0
   3   5   9    6.82    8.12   0
   3   5   9    9.42    8.20   0
   4   5   9   11.18    6.93   0
   4   5   9   12.39    8.07   0
   4   5   9    6.08    7.09   0
   4   5   9   13.21    6.76   0
   5   5   9   13.96    7.32   0
   5   5   9   21.53    8.32   0
   5   5   9   14.70    7.20   0
   5   5   9   13.83    8.11   0
   6   5   9    1.92    7.33   0
   6   5   9   -3.60    6.75   0
   6   5   9    1.22    5.33   0
   6   5   9    7.32    8.49   0
   7   5   9   -1.12    7.59   0
   7   5   9   -1.05    7.15   0
   7   5   9   11.16    8.04   0
   7   5   9   -2.30    9.38   0
   4  -6  -9   15.59    9.41   0
  -4   6   9   25.64    8.38   0
  -4   6   9   31.08    8.68   0
   4  -6  -9   18.29    5.83   0
  -3   6   9   19.18    7.91   0
   3  -6  -9   17.16    9.20   0
  -3   6   9   28.48    8.33   0
   3  -6  -9   30.22    7.69   0
  -2   6   9    2.63    7.41   0
   2  -6  -9    2.02    8.27   0
  -2   6   9    0.71    7.46   0
   2  -6  -9   12.94    7.16   0
  -1   6   9   34.62    7.69   0
  -1   6   9   45.90    7.99   0
   1  -6  -9   33.10    8.59   0
   1  -6  -9   47.63    7.40   0
   0  -6  -9  427.79   11.48   0
   0   6   9  364.58   10.34   0
   0  -6  -9  314.92   10.63   0
   0   6   9  438.03   12.30   0
   1   6   9    5.19    8.08   0
   1   6   9    7.23    9.59   0
  -1  -6  -9    5.70    8.35   0
  -1  -6  -9    2.79    7.63   0
   2   6   9  676.28   13.03   0
  -2  -6  -9  944.35   15.65   0
   3   6   9   56.11   10.49   0
  -3  -6  -9   54.94    8.97   0
   4   6   9   74.30   10.62   0
   4   6   9   71.55    9.08   0
   4   6   9   94.74    9.22   0
   5   6   9   11.85    8.93   0
   5   6   9   21.10    6.44   0
   5   6   9   14.61    8.42   0
   5   6   9   11.00    5.52   0
   6   6   9    1.50    7.56   0
   6   6   9    4.42    7.02   0
   6   6   9    3.80    8.59   0
   6   6   9    0.97    7.63   0
   7   6   9   -2.63    7.97   0
   7   6   9    1.85    7.38   0
   7   6   9   10.93    8.80   0
   7   6   9   -2.90    8.47   0
  -3   7   9    7.76    8.56   0
   3  -7  -9    4.65    9.52   0
  -3   7   9    6.30    8.37   0
   3  -7  -9    6.11    8.05   0
  -2   7   9   52.25    8.55   0
   2  -7  -9   31.63    8.85   0
  -2   7   9   49.32    8.55   0
   2  -7  -9   48.03    7.89   0
  -1   7   9    1.72    7.53   0
  -1   7   9    4.83    7.78   0
   1  -7  -9   10.42    8.81   0
   1  -7  -9    2.08    7.20   0
   0   7   9   81.23   10.03   0
   0  -7  -9   59.92    9.07   0
   0   7   9   79.91    8.42   0
   0  -7  -9   83.49    9.25   0
  -1  -7  -9   63.99    8.89   0
   1   7   9   58.60    8.38   0
   2   7   9   83.73    9.20   0
  -2  -7  -9   96.99    9.20   0
   3   7   9   40.42    8.46   0
  -3  -7  -9   75.92    9.38   0
  -4  -7  -9  212.70   10.35   0
   4   7   9  165.96    7.24   0
   5   7   9    2.36   13.29   0
   5   7   9    0.97   12.61   0
   5   7   9   -3.53    6.15   0
   6   7   9   26.77    9.00   0
   6   7   9   16.26    8.10   0
   6   7   9   20.43    9.13   0
   6   7   9   17.81    9.54   0
   7   7   9    6.55    6.54   0
   7   7   9    7.07    8.41   0
   7   7   9    6.34    9.31   0
   7   7   9    6.85    7.95   0
  -2   8   9    2.46    8.77   0
  -2   8   9    2.20    8.85   0
   2  -8  -9    8.57    9.46   0
   2  -8  -9   10.09    8.14   0
  -1   8   9    1.17    8.41   0
   1  -8  -9    4.52    9.13   0
   1  -8  -9    1.67    7.79   0
   0  -8  -9   -0.30    8.96   0
   0  -8  -9    1.69    9.83   0
   0  -8  -9    0.41    8.91   0
   0   8   9    2.87    8.22   0
  -1  -8  -9   47.97    9.08   0
   1   8   9   37.48    8.63   0
   2   8   9   21.46    8.83   0
  -2  -8  -9   19.15    8.81   0
   3   8   9    2.77    8.52   0
  -3  -8  -9    9.69    8.67   0
  -4  -8  -9    8.48    8.58   0
   4   8   9    3.80    8.30   0
  -5  -8  -9   20.37    6.96   0
   5   8   9   33.14    8.88   0
   6   8   9    3.05    6.68   0
   7   8   9    9.97    9.82   0
   7   8   9    4.74    8.83   0
   7   8   9    2.99    9.75   0
   7   8   9    4.36   10.00   0
   1  -9  -9    8.33    9.52   0
  -1   9   9   25.89    9.01   0
   1  -9  -9   13.86   10.09   0
   1  -9  -9   13.92    7.37   0
   0  -9  -9    8.18    9.74   0
   0   9   9    0.21    8.62   0
  -1  -9  -9   10.32    9.10   0
   1   9   9   14.31    8.82   0
   2   9   9    0.29    8.98   0
  -2  -9  -9    5.49    9.35   0
  -3  -9  -9   -3.76    9.20   0
   3   9   9   -2.10    8.89   0
   4   9   9   -3.23    8.79   0
  -4  -9  -9    2.99    6.45   0
   5   9   9    3.27    9.02   0
  -5  -9  -9    4.27    9.66   0
  -6  -9  -9   -8.43    7.20   0
   6   9   9    1.09    9.56   0
   2  10   9   -0.25    9.35   0
  -2 -10  -9    6.47    9.86   0
   3  10   9   -2.43    9.23   0
  -3 -10  -9    8.90    6.83   0
   4  10   9    4.29    9.37   0
  -4 -10  -9   -9.42    9.86   0
   4   7 -10   -7.60    9.34   0
   4   7 -10   -3.74    7.34   0
  -4  -7  10   -3.34    5.30   0
  -4  -7  10    2.59    9.57   0
   3   7 -10   19.00    6.40   0
   3   7 -10   20.77    7.61   0
  -3  -7  10   27.50    7.78   0
  -3  -7  10   21.51    6.68   0
   2   7 -10   45.58    6.62   0
  -2  -7  10   45.39   10.08   0
   2   7 -10   34.71    7.42   0
  -2  -7  10   44.18    7.94   0
   1   7 -10   13.90    6.10   0
  -1  -7  10   10.25    9.47   0
   1   7 -10   -0.07    7.36   0
  -1  -7  10   -0.25    7.73   0
   0   7 -10   18.52    5.10   0
   0  -7  10   30.07    8.05   0
   0  -7  10   33.58    9.76   0
   0   7 -10   34.16    9.17   0
  -5  -6  10   26.25    7.20   0
   5   6 -10   14.20    6.83   0
   5   6 -10   14.07    7.42   0
  -5  -6  10   12.93    5.75   0
  -4  -6  10   45.25    9.24   0
   4   6 -10   24.93    6.51   0
   4   6 -10   43.75    7.41   0
  -4  -6  10   22.07    7.33   0
   3   6 -10    8.33    6.12   0
   3   6 -10    1.61    6.78   0
  -3  -6  10   -0.19    6.44   0
  -3  -6  10   -3.09    6.99   0
   2   6 -10   71.09    9.09   0
  -2  -6  10   94.54    6.58   0
   2   6 -10   73.80    7.22   0
  -2  -6  10   71.16    7.65   0
  -1  -6  10   89.89    6.79   0
   1   6 -10   84.46    6.76   0
   1   6 -10   57.76    5.16   0
  -1  -6  10   73.42    5.41   0
   0   6 -10    6.26    6.12   0
   0   6 -10   14.20    6.94   0
   0  -6  10   13.25    5.18   0
   0  -6  10   -0.53    8.95   0
   1  -6  10   38.30    7.55   0
   1  -6  10   44.32    9.26   0
  -1   6 -10   71.13    8.95   0
   2  -6  10   26.78    8.59   0
   2  -6  10   15.91    9.47   0
   2  -6  10   22.38    5.45   0
  -2   6 -10   38.13    9.13   0
   6   5 -10   13.91    7.67   0
   6   5 -10   26.34    9.71   0
  -6  -5  10   28.41   10.15   0
  -6  -5  10   26.09    5.57   0
   5   5 -10   20.71    7.35   0
   5   5 -10    5.81    8.91   0
  -5  -5  10    2.92    6.60   0
  -5  -5  10   13.08    7.56   0
  -4  -5  10   39.14    8.84   0
   4   5 -10   13.46    8.69   0
   4   5 -10   30.24    6.84   0
  -4  -5  10   13.10    7.03   0
   3   5 -10   40.30    6.09   0
   3   5 -10   53.05    5.35   0
  -3  -5  10   54.50    6.50   0
  -3  -5  10   53.21    5.39   0
   2   5 -10    5.52    6.16   0
  -2  -5  10    8.40    5.70   0
   2   5 -10   -4.02    6.86   0
  -2  -5  10    2.75    4.63   0
  -1  -5  10  199.38    9.31   0
   1   5 -10  193.96    9.09   0
   1   5 -10  144.79    7.25   0
  -1  -5  10  173.81    6.08   0
   0   5 -10   98.54    8.26   0
   0   5 -10   64.86    7.00   0
   0  -5  10   65.50    7.13   0
   0  -5  10   80.78    6.54   0
   1  -5  10   25.87    7.02   0
  -1   5 -10   24.00    6.82   0
   1  -5  10   27.63    8.88   0
  -1   5 -10   15.33    8.18   0
   2  -5  10   93.95    6.19   0
   2  -5  10   79.11    7.80   0
   2  -5  10   28.01    9.10   0
  -2   5 -10   85.75    8.65   0
   3  -5  10   18.84    8.31   0
   3  -5  10    5.13    6.34   0
   3  -5  10   12.31    7.53   0
  -3   5 -10    9.84    8.77   0
  -6  -4  10   13.46    7.83   0
   6   4 -10   11.41    7.49   0
   6   4 -10   13.68    9.19   0
  -6  -4  10   21.08   10.02   0
  -5  -4  10   80.55    9.42   0
   5   4 -10   47.04    7.48   0
   5   4 -10   59.42    9.48   0
  -5  -4  10   56.69    7.61   0
  -4  -4  10   20.13    6.57   0
   4   4 -10   12.01    6.38   0
   4   4 -10   11.12    6.75   0
  -4  -4  10   11.66    6.96   0
   3   4 -10   89.42    9.02   0
   3   4 -10  121.54    5.62   0
  -3  -4  10  105.54    7.36   0
  -3  -4  10  145.69    9.34   0
   2   4 -10   34.30    8.44   0
  -2  -4  10   48.79    6.33   0
   2   4 -10   44.62    6.90   0
  -2  -4  10   45.25    7.10   0
  -1  -4  10    5.73    5.90   0
   1   4 -10    5.09    8.29   0
   1   4 -10   15.36    6.56   0
  -1  -4  10   14.32    6.88   0
   0   4 -10  155.87    8.67   0
   0   4 -10  105.63    5.09   0
   0  -4  10  125.42    7.16   0
   0  -4  10  147.81    9.01   0
  -1   4 -10  128.59    6.91   0
   1  -4  10  128.69    5.52   0
   1  -4  10  121.02    8.88   0
  -1   4 -10  161.26    8.46   0
   2  -4  10   10.47    8.47   0
   2  -4  10   26.24    6.95   0
  -2   4 -10   39.83    7.82   0
   3  -4  10  145.54    8.17   0
   3  -4  10   77.17    8.95   0
   3  -4  10  123.97    5.67   0
  -3   4 -10  133.21    8.60   0
   4  -4  10   13.81    8.51   0
   4  -4  10    8.18    9.56   0
   4  -4  10    5.31    7.45   0
  -4   4 -10   13.37    8.21   0
  -6  -3  10   41.56    7.80   0
   6   3 -10   39.58    9.26   0
   6   3 -10   29.16    7.66   0
  -5  -3  10    8.57    6.15   0
   5   3 -10    3.22    5.04   0
   5   3 -10   10.67    6.24   0
  -5  -3  10    4.62    7.12   0
  -4  -3  10   70.24    8.71   0
   4   3 -10   50.30    6.71   0
   4   3 -10   57.94    8.55   0
  -4  -3  10   63.49    7.08   0
  -3  -3  10    1.42    8.23   0
   3   3 -10    3.84    7.90   0
   3   3 -10    2.19    6.20   0
  -3  -3  10    8.81    4.72   0
   2   3 -10   11.08    7.97   0
  -2  -3  10   18.49    5.93   0
   2   3 -10   14.15    4.44   0
  -2  -3  10   25.06    6.77   0
  -1  -3  10    5.42    7.75   0
   1   3 -10    5.44    7.89   0
   1   3 -10    4.93    4.40   0
  -1  -3  10    5.47    6.66   0
   0   3 -10   76.79    8.59   0
   0   3 -10   57.95    4.60   0
   0  -3  10   63.04    6.60   0
   0  -3  10   80.23    8.11   0
  -1   3 -10   52.10    4.59   0
   1  -3  10   53.87    8.45   0
   1  -3  10   58.80    4.83   0
  -1   3 -10   83.04    5.98   0
   2  -3  10   17.27    5.74   0
  -2   3 -10   28.17    6.19   0
   2  -3  10   26.44    4.62   0
  -2   3 -10   30.58    7.47   0
   3  -3  10   -0.52    4.67   0
   3  -3  10   15.74    8.62   0
   3  -3  10    4.92    7.25   0
  -3   3 -10    6.12    8.19   0
   4  -3  10   64.20    9.09   0
   4  -3  10   68.55    5.73   0
   4  -3  10   91.94    7.24   0
  -4   3 -10   83.82    8.14   0
   5  -3  10   12.21    8.90   0
   5  -3  10   26.49    8.05   0
   5  -3  10   32.75    7.60   0
  -5   3 -10   27.87    5.99   0
  -6  -2  10    1.71    7.50   0
   6   2 -10    5.42    9.23   0
   6   2 -10    4.74    8.35   0
   6   2 -10    0.77    7.27   0
   5   2 -10   98.05    9.43   0
   5   2 -10   81.48    7.24   0
  -5  -2  10   73.88    5.44   0
  -4  -2  10  176.25    9.18   0
   4   2 -10  120.87    5.37   0
  -4  -2  10  140.06    5.40   0
   4   2 -10  162.19    6.99   0
   3   2 -10  102.24    6.81   0
   3   2 -10  132.94    8.69   0
  -3  -2  10  164.22    9.24   0
  -3  -2  10  106.29    6.97   0
   2   2 -10  225.67    9.60   0
   2   2 -10  353.21    6.35   0
  -2  -2  10  356.76    7.90   0
  -2  -2  10  484.29   10.89   0
   1   2 -10  149.61    9.31   0
  -1  -2  10  199.82    9.32   0
   1   2 -10  163.25    6.68   0
  -1  -2  10  170.57    5.36   0
   0   2 -10   15.49    8.11   0
   0   2 -10    8.16    4.05   0
   0  -2  10    3.65    5.98   0
   0  -2  10   16.78    5.93   0
  -1   2 -10  411.58    7.66   0
   1  -2  10  340.15    9.88   0
   1  -2  10  431.68    7.83   0
  -1   2 -10  546.64   10.19   0
   2  -2  10   83.21    6.65   0
  -2   2 -10  130.33    6.57   0
   2  -2  10  152.17    6.97   0
  -2   2 -10  155.90    7.96   0
   3  -2  10   16.49    8.06   0
   3  -2  10   15.69    5.01   0
   3  -2  10   14.66    6.41   0
  -3   2 -10   18.90    7.19   0
   4  -2  10    1.28    8.74   0
   4  -2  10    8.23    5.32   0
   4  -2  10   10.38    6.86   0
  -4   2 -10    9.23    7.84   0
   5  -2  10    0.65    8.89   0
   5  -2  10    4.33    7.85   0
   5  -2  10    3.06    5.11   0
  -5   2 -10    5.70    7.93   0
  -6  -1  10   12.04    5.45   0
   6   1 -10    6.89    6.30   0
   6   1 -10    4.47    7.79   0
   6   1 -10   12.25    7.46   0
  -5  -1  10    7.30    4.96   0
   5   1 -10    7.09    8.70   0
   5   1 -10   -2.65    7.57   0
   5   1 -10    9.06    6.80   0
   4   1 -10   57.45    8.44   0
   4   1 -10   38.46    7.15   0
   4   1 -10   36.98    6.64   0
  -4  -1  10   50.47    4.82   0
  -3  -1  10  382.01   10.80   0
   3   1 -10  276.13    6.11   0
   3   1 -10  373.82   10.80   0
  -3  -1  10  285.66    7.74   0
   2   1 -10    0.02    8.49   0
  -2  -1  10    4.06    7.69   0
   2   1 -10    8.42    6.08   0
  -2  -1  10   -0.86    6.31   0
   1   1 -10  734.97   12.71   0
   1   1 -10  874.49    8.21   0
  -1  -1  10 1047.03   14.44   0
  -1  -1  10  868.64    9.57   0
   0  -1  10  288.12   10.15   0
   0   1 -10  281.75    9.65   0
   0   1 -10  259.00    7.32   0
   0  -1  10  245.43    7.54   0
  -1   1 -10    9.89    5.90   0
   1  -1  10   11.03    8.07   0
   1  -1  10    9.12    6.29   0
  -1   1 -10   17.34    7.29   0
  -2   1 -10  135.62    6.43   0
   2  -1  10   93.92    8.67   0
   2  -1  10  130.14    5.26   0
  -2   1 -10  129.30    7.83   0
   3  -1  10  347.23    9.85   0
   3  -1  10  386.93    7.00   0
   3  -1  10  399.98    8.22   0
  -3   1 -10  346.99    9.26   0
   4  -1  10    9.32    8.32   0
   4  -1  10    4.09    5.25   0
   4  -1  10    5.36    6.64   0
  -4   1 -10    3.27    7.40   0
   5  -1  10   65.86    8.84   0
   5  -1  10   68.52    5.75   0
   5  -1  10   61.43    5.18   0
  -5   1 -10   51.89    8.07   0
   6  -1  10    3.12    9.01   0
   6  -1  10   -0.71    5.69   0
  -6   1 -10    3.92    5.76   0
   6  -1  10   18.66    7.60   0
  -6   0  10   10.34    5.71   0
   6   0 -10   12.72    8.20   0
   6   0 -10   14.22    9.07   0
   6   0 -10    8.84    7.46   0
  -5   0  10   17.97    4.91   0
   5   0 -10   20.15    8.66   0
   5   0 -10   13.63    7.61   0
   5   0 -10   17.76    4.99   0
  -4   0  10   -2.40    6.52   0
   4   0 -10   10.25    8.19   0
   4   0 -10    8.56    7.08   0
   4   0 -10   14.80    6.97   0
   3   0 -10  145.07    9.34   0
   3   0 -10  110.01    8.08   0
   3   0 -10  120.26    7.08   0
  -3   0  10  113.41    5.49   0
  -2   0  10  157.15   10.85   0
   2   0 -10  111.66    6.61   0
   2   0 -10  137.95   11.07   0
  -2   0  10  108.61    4.98   0
   1   0 -10    7.80    9.75   0
  -1   0  10    9.53    9.22   0
   1   0 -10    6.05    6.55   0
  -1   0  10    6.54    4.67   0
   0   0  10  619.35   13.53   0
   0   0 -10  498.86    8.46   0
   0   0  10  498.68    8.70   0
   0   0 -10  565.59   13.75   0
  -1   0 -10  219.74    6.95   0
   1   0  10  231.62   11.12   0
   1   0  10  239.93    7.32   0
  -1   0 -10  309.25   10.91   0
   2   0  10   44.55    8.70   0
  -2   0 -10   49.98    4.57   0
   2   0  10   51.26    4.94   0
  -2   0 -10   48.15    7.47   0
   3   0  10   52.74    8.30   0
   3   0  10   56.27    6.67   0
  -3   0 -10   43.81    7.00   0
   4   0  10    1.74    8.11   0
   4   0  10   17.04    7.18   0
  -4   0 -10   14.02    7.32   0
   4   0  10   -0.21    6.69   0
   5   0  10   11.78    8.13   0
   5   0  10    7.49    7.22   0
  -5   0 -10   10.39    5.04   0
   5   0  10   -0.98    6.94   0
   6   0  10    3.88    5.78   0
  -6   0 -10    7.72    6.21   0
   6   0  10   -4.22    7.24   0
   6   0  10   -3.46    6.11   0
  -6   1  10    5.18    7.93   0
   6  -1 -10    3.63    8.57   0
   6  -1 -10    8.61    7.66   0
   6  -1 -10   -6.57    9.41   0
  -5   1  10   36.39    7.42   0
   5  -1 -10   28.15    8.25   0
   5  -1 -10   32.68    7.24   0
   5  -1 -10   39.56    8.70   0
  -4   1  10   22.50    7.07   0
   4  -1 -10   31.62    7.67   0
   4  -1 -10   24.25    8.71   0
   4  -1 -10   11.40    5.12   0
   3  -1 -10   32.47    8.91   0
   3  -1 -10   23.18    7.82   0
   3  -1 -10   34.90    6.83   0
  -3   1  10   21.19    6.95   0
   2  -1 -10  259.71   12.29   0
   2  -1 -10  165.56    9.45   0
   2  -1 -10  202.54    7.74   0
  -2   1  10  210.78    7.44   0
   1  -1 -10   77.73   14.41   0
   1  -1 -10   73.65   11.17   0
   1  -1 -10   73.33    6.77   0
  -1   1  10   74.13    6.77   0
   0   1  10   29.97   14.71   0
   0  -1 -10   21.85    6.53   0
   0  -1 -10   27.74   14.28   0
   0   1  10   20.30    6.44   0
  -1  -1 -10  224.13    7.18   0
  -1  -1 -10  244.92   12.11   0
   1   1  10  241.81    7.49   0
   1   1  10  278.22   13.85   0
   2   1  10  112.71    9.12   0
  -2  -1 -10  104.09    7.79   0
   2   1  10  111.56    5.31   0
  -2  -1 -10  110.35    6.71   0
   3   1  10   47.03    8.33   0
  -3  -1 -10   31.20    6.98   0
   3   1  10   51.51    6.61   0
   4   1  10  112.91    7.29   0
  -4  -1 -10   77.83    7.50   0
   4   1  10  120.00    6.63   0
   4   1  10  112.84    8.86   0
   5   1  10    6.09    5.26   0
   5   1  10   -0.97    6.41   0
   5   1  10    5.23    7.84   0
   6   1  10   17.50    7.59   0
   6   1  10    3.21    8.99   0
   6   1  10   12.53    5.19   0
   6   1  10   20.90    8.63   0
   7   1  10   -0.66    8.23   0
   7   1  10    7.43   10.17   0
   7   1  10    4.52    5.38   0
   7   1  10    3.16    6.17   0
  -6   2  10    5.65    8.31   0
   6  -2 -10    5.83    9.92   0
   6  -2 -10    7.99    5.72   0
   6  -2 -10    8.17    9.53   0
  -5   2  10   -6.03    7.50   0
   5  -2 -10    7.51    9.10   0
   5  -2 -10    5.24    5.08   0
   5  -2 -10    2.05    8.28   0
  -4   2  10   68.17    7.16   0
   4  -2 -10   88.18    9.39   0
   4  -2 -10   89.45    7.35   0
   4  -2 -10   78.83    8.50   0
  -3   2  10   29.94    4.80   0
   3  -2 -10   35.39   10.37   0
   3  -2 -10   39.05    6.87   0
   3  -2 -10   35.41    8.13   0
   2  -2 -10   97.47   11.14   0
   2  -2 -10   88.78    7.00   0
   2  -2 -10   89.41   10.61   0
  -2   2  10   78.32    6.88   0
   1  -2 -10  167.81    6.84   0
  -1   2  10  179.55    5.79   0
   0  -2 -10   32.32    4.63   0
   0   2  10   31.51    6.45   0
  -1  -2 -10   68.46    6.41   0
   1   2  10   80.70    6.62   0
   2   2  10  152.99   11.34   0
   2   2  10  149.74   11.04   0
   2   2  10  104.33    6.56   0
  -2  -2 -10  132.30    6.39   0
   3   2  10   28.28    8.26   0
   3   2  10   25.57    6.52   0
   3   2  10   29.79    7.84   0
   4   2  10   28.01    6.96   0
   4   2  10   29.43    8.13   0
   4   2  10   27.05    6.71   0
   4   2  10   40.20    7.71   0
   5   2  10   48.46    8.48   0
   5   2  10   45.15    5.62   0
   5   2  10   44.44    6.87   0
   5   2  10   44.49    7.86   0
   6   2  10    8.48    7.48   0
   6   2  10   -1.14    5.01   0
   6   2  10   15.07    8.93   0
   6   2  10    9.99    8.04   0
   7   2  10   13.22    7.88   0
   7   2  10   -8.10    7.12   0
   7   2  10    8.47    7.39   0
   7   2  10    5.45    6.37   0
  -5   3  10    3.78    7.62   0
   5  -3 -10   -5.14    9.59   0
   5  -3 -10   -1.67    7.63   0
   5  -3 -10   -1.48    8.50   0
  -4   3  10    6.48    7.18   0
   4  -3 -10    3.34    8.54   0
   4  -3 -10   -0.07    6.91   0
   4  -3 -10   -4.69    7.94   0
  -3   3  10   -2.79    6.74   0
   3  -3 -10    7.86   10.70   0
   3  -3 -10    2.12    6.90   0
   3  -3 -10    9.37    8.39   0
  -2   3  10   55.81    7.15   0
   2  -3 -10   59.98   10.42   0
   2  -3 -10   61.53   10.54   0
   2  -3 -10   57.96    7.04   0
   1  -3 -10   55.39    6.58   0
  -1   3  10   55.71    6.76   0
   0  -3 -10  197.07    7.04   0
   0   3  10  190.65    7.22   0
  -1  -3 -10    3.98    6.07   0
   1   3  10   -4.73    6.59   0
   2   3  10  138.74   13.27   0
   2   3  10  140.86   13.51   0
  -2  -3 -10  107.67    6.75   0
   2   3  10   96.95    7.16   0
   3   3  10   85.07    8.78   0
   3   3  10   81.94    6.81   0
   3   3  10   96.51    9.80   0
   4   3  10    1.53    4.80   0
   4   3  10   -0.84    6.18   0
   4   3  10    0.52    7.82   0
   4   3  10    0.11    7.16   0
   5   3  10   12.99    7.34   0
   5   3  10   18.05    6.61   0
   5   3  10   19.77    8.35   0
   5   3  10   10.38    5.43   0
   6   3  10   22.13    7.62   0
   6   3  10   17.82    7.17   0
   6   3  10   18.38    6.34   0
   6   3  10   20.88    7.76   0
   7   3  10    4.56    5.52   0
   7   3  10   -5.70    7.69   0
   7   3  10    0.13    9.83   0
   7   3  10    5.24    6.42   0
   5  -4 -10    7.23    9.03   0
   5  -4 -10    7.88    6.87   0
  -5   4  10    9.48    5.66   0
   5  -4 -10    5.00    8.02   0
   4  -4 -10   10.10    8.64   0
  -4   4  10   12.56    7.70   0
   4  -4 -10   10.78    9.11   0
   4  -4 -10   10.84    7.36   0
  -3   4  10   79.62    5.69   0
   3  -4 -10   72.12   11.32   0
   3  -4 -10   86.79   10.95   0
   3  -4 -10   85.76    7.84   0
  -2   4  10    4.98    7.00   0
   2  -4 -10    0.03    8.01   0
   2  -4 -10    5.35    9.69   0
   2  -4 -10    2.05    6.61   0
  -1   4  10   99.49    7.19   0
   1  -4 -10  110.33   13.34   0
   1  -4 -10  100.23    5.50   0
   1  -4 -10   97.94   13.22   0
   0  -4 -10   60.67    6.89   0
   0   4  10   68.77    7.03   0
  -1  -4 -10   46.56    6.80   0
   1   4  10   47.31    6.78   0
  -2  -4 -10   10.06    6.04   0
   2   4  10    5.02   11.78   0
   2   4  10    5.79   10.39   0
   2   4  10    6.22    6.47   0
   3   4  10  103.18   10.80   0
   3   4  10   90.54    7.69   0
   3   4  10   63.54    6.90   0
   3   4  10   90.97    9.76   0
   4   4  10   33.66    4.83   0
   4   4  10   38.51    6.36   0
   4   4  10   43.33    8.06   0
   4   4  10   41.78    8.42   0
   5   4  10    3.93    8.14   0
   5   4  10    9.17    6.94   0
   5   4  10    7.92    6.64   0
   5   4  10   -1.15    7.29   0
   6   4  10    6.03    5.94   0
   6   4  10    3.77    7.26   0
   6   4  10   -2.71    6.71   0
   6   4  10    0.62    7.68   0
   7   4  10    6.21    7.96   0
   7   4  10    4.97    9.48   0
   7   4  10    0.98    5.20   0
   7   4  10   -7.52    8.73   0
   4  -5 -10    6.80    9.50   0
  -4   5  10   13.82    7.96   0
   4  -5 -10   19.35    7.70   0
   4  -5 -10    0.54    9.95   0
  -3   5  10    9.17    5.30   0
   3  -5 -10    5.65    8.72   0
   3  -5 -10   11.75    7.83   0
  -2   5  10  139.29    7.86   0
   2  -5 -10   94.87    9.39   0
  -2   5  10  154.07    8.82   0
   2  -5 -10  147.84    7.55   0
  -1   5  10   67.59    7.28   0
  -1   5  10   64.94    9.22   0
   1  -5 -10   57.77   10.54   0
   1  -5 -10   63.81    7.52   0
   0   5  10   54.22    7.31   0
   0  -5 -10   69.68   12.62   0
   0   5  10   55.55   10.87   0
   0  -5 -10   42.81    6.79   0
  -1  -5 -10  240.02    9.63   0
  -1  -5 -10  270.22   19.56   0
   1   5  10  280.09   16.51   0
   1   5  10  234.05    8.89   0
   2   5  10  119.03   13.30   0
  -2  -5 -10  145.20    7.49   0
   2   5  10  136.07   11.68   0
   2   5  10  138.77    9.54   0
   3   5  10   14.95    9.07   0
   3   5  10   15.16    6.86   0
   3   5  10   14.13    6.87   0
   3   5  10   22.45    9.91   0
   4   5  10   74.66    7.55   0
   4   5  10   84.20   10.90   0
   4   5  10   71.42    8.23   0
   4   5  10   71.43    8.43   0
   5   5  10    8.75    7.01   0
   5   5  10    8.00    8.41   0
   5   5  10    6.30    6.73   0
   5   5  10   10.42    7.48   0
   6   5  10    3.53    7.30   0
   6   5  10    6.21    7.14   0
   6   5  10    5.63    5.37   0
   6   5  10   -1.05    8.80   0
   7   5  10   -1.15    8.13   0
   7   5  10   -0.09    7.62   0
   7   5  10    4.18    8.32   0
   7   5  10   -1.90    6.44   0
  -4   6  10   11.16    8.58   0
   4  -6 -10   11.47    8.24   0
  -3   6  10    2.83    7.87   0
   3  -6 -10    0.25    9.18   0
  -3   6  10    2.23    7.99   0
   3  -6 -10    0.86    5.28   0
  -2   6  10   10.14    7.43   0
   2  -6 -10    9.84    8.68   0
  -2   6  10    5.04    7.86   0
   2  -6 -10    7.73    7.00   0
  -1   6  10   89.11    8.00   0
  -1   6  10  103.65   10.05   0
   1  -6 -10   89.44    9.16   0
   1  -6 -10   90.77    7.49   0
   0   6  10   49.90    7.38   0
   0  -6 -10   62.72   10.89   0
   0  -6 -10   37.65    8.05   0
   0   6  10   52.21    9.56   0
  -1  -6 -10   48.21   10.60   0
   1   6  10   31.95    8.89   0
  -1  -6 -10   38.67    8.15   0
   1   6  10   49.29    9.91   0
   2   6  10    3.04    9.56   0
   2   6  10    9.41    9.88   0
  -2  -6 -10    3.54    7.94   0
   2   6  10    1.71   10.20   0
   3   6  10   10.12   10.29   0
   3   6  10   11.94    8.00   0
   3   6  10   12.63   10.93   0
   4   6  10   67.57    9.61   0
   4   6  10   77.36    7.98   0
   4   6  10   67.30    9.21   0
   4   6  10   73.67    9.02   0
   5   6  10    2.48    7.24   0
   5   6  10   13.85    8.52   0
   5   6  10   10.76    7.60   0
   5   6  10    8.24    7.43   0
   6   6  10   14.06    7.79   0
   6   6  10   18.17    9.06   0
   6   6  10   13.58    8.12   0
   6   6  10   11.75    7.41   0
   7   6  10    1.99    8.09   0
   7   6  10    8.14    9.15   0
   7   6  10    1.89    7.65   0
   7   6  10    2.20    8.47   0
  -3   7  10   70.90    8.91   0
   3  -7 -10   16.10    9.81   0
  -3   7  10   52.64    9.13   0
   3  -7 -10   53.88    8.68   0
  -2   7  10    0.03    8.19   0
  -2   7  10   -1.03    8.20   0
   2  -7 -10   -2.74    9.08   0
   2  -7 -10    4.24    7.70   0
  -1   7  10   57.05    8.09   0
  -1   7  10   56.38    8.65   0
   1  -7 -10   57.37    7.68   0
   1  -7 -10   57.76    9.27   0
   0  -7 -10   43.27    9.12   0
   0   7  10   27.33    9.27   0
   0  -7 -10   17.66    7.16   0
   0   7  10   34.88    8.51   0
  -1  -7 -10   11.06   11.78   0
  -1  -7 -10   14.76   10.43   0
   1   7  10   15.75    8.21   0
   2   7  10   32.05   10.47   0
  -2  -7 -10   32.07    8.50   0
   3   7  10   36.81    8.48   0
  -3  -7 -10   55.56   10.88   0
   4   7  10   73.58    9.29   0
  -4  -7 -10   81.25    9.50   0
   5   7  10    3.09    7.68   0
   5   7  10    5.13   11.67   0
   5   7  10   13.72    8.75   0
   5   7  10    8.44   11.85   0
   6   7  10   42.19    9.21   0
   6   7  10   42.60    8.19   0
   6   7  10   38.37    9.67   0
   6   7  10   39.79   10.11   0
   7   7  10   13.77    9.36   0
   7   7  10    0.80    8.64   0
   7   7  10    2.78    7.99   0
   7   7  10   -0.21    9.94   0
  -2   8  10   35.75   10.90   0
  -2   8  10   37.01    9.32   0
   2  -8 -10   26.78   10.28   0
   2  -8 -10   31.56    8.38   0
  -1   8  10   21.73   10.37   0
  -1   8  10   16.48    8.84   0
   1  -8 -10   23.00    7.69   0
   1  -8 -10   23.68   11.68   0
   0  -8 -10   59.01    9.80   0
   0  -8 -10   33.08   10.76   0
   0   8  10   56.54    8.72   0
  -1  -8 -10   48.42    9.20   0
   1   8  10   52.02    8.70   0
  -2  -8 -10    6.40    8.94   0
   2   8  10    6.11    8.56   0
   3   8  10    0.84    8.83   0
  -3  -8 -10    3.91   10.96   0
   4   8  10   21.12    8.82   0
  -4  -8 -10   33.31    9.46   0
   5   8  10   -4.27    8.82   0
   6   8  10   60.00    8.63   0
   6   8  10   66.50    9.60   0
   0  -9 -10    8.48   10.34   0
   0   9  10    8.19    8.99   0
  -1  -9 -10    5.41    9.62   0
   1   9  10    5.82    9.08   0
   2   9  10   38.00    8.88   0
  -2  -9 -10   29.30    9.29   0
   3   9  10   -0.47    9.11   0
  -3  -9 -10   -1.41    9.41   0
  -4  -9 -10    8.76    9.66   0
   4   9  10    0.70    9.23   0
   5   9  10   -4.18    9.24   0
  -5  -9 -10  -10.46    9.97   0
   2  10  10    8.93    9.31   0
   3  10  10   -4.52    9.45   0
  -3 -10 -10   -1.62   10.10   0
   2   7 -11    1.52    9.61   0
  -2  -7  11    5.32    9.56   0
   2   7 -11   -6.18    7.68   0
  -2  -7  11    3.34    7.95   0
  -4  -6  11    3.51    6.91   0
   4   6 -11   10.85    6.63   0
   4   6 -11    9.71    7.76   0
  -4  -6  11   -2.47    7.85   0
   3   6 -11    6.63    9.06   0
   3   6 -11   -5.08    5.09   0
  -3  -6  11    7.57    6.56   0
  -3  -6  11    2.89    5.68   0
   2   6 -11   63.70    6.60   0
  -2  -6  11   60.48    6.84   0
   2   6 -11   43.94    5.52   0
  -2  -6  11   63.57    7.52   0
   1   6 -11   27.18    9.19   0
  -1  -6  11   17.83    9.40   0
   1   6 -11    6.65    7.19   0
  -1  -6  11   13.65    5.51   0
   0   6 -11   53.04    7.34   0
   0  -6  11   56.43    7.73   0
   0  -6  11   67.85    9.43   0
   0   6 -11   68.38    6.97   0
   1  -6  11   49.25    5.70   0
   1  -6  11   62.51    9.92   0
  -1   6 -11   72.74    9.44   0
   5   5 -11   -8.63    9.61   0
   5   5 -11   -2.45    5.34   0
  -5  -5  11    6.46    5.51   0
  -5  -5  11    9.45   10.15   0
  -4  -5  11   23.69    9.50   0
   4   5 -11   10.25    9.01   0
   4   5 -11   26.63    5.28   0
  -4  -5  11   14.81    7.56   0
   3   5 -11    1.19    6.03   0
   3   5 -11    6.83    6.95   0
  -3  -5  11    0.28    6.23   0
  -3  -5  11   10.23    7.24   0
   2   5 -11   79.04    9.18   0
  -2  -5  11  108.93    9.39   0
   2   5 -11   73.41    7.27   0
  -2  -5  11   86.69    7.61   0
   1   5 -11   95.85    6.88   0
  -1  -5  11  100.85    9.34   0
   1   5 -11   69.94    5.32   0
  -1  -5  11   79.69    5.43   0
   0   5 -11    9.53    6.15   0
   0   5 -11    6.84    6.71   0
   0  -5  11    3.71    7.19   0
   0  -5  11    3.54    8.93   0
  -1   5 -11   53.80    5.40   0
   1  -5  11   59.64    7.56   0
   1  -5  11   79.44    9.39   0
  -1   5 -11   74.93    6.38   0
   2  -5  11   76.95    8.78   0
   2  -5  11   40.98    6.79   0
   2  -5  11   67.01    7.61   0
  -2   5 -11   90.10    9.25   0
  -6  -4  11    8.71    8.13   0
   6   4 -11    2.71    7.88   0
   6   4 -11    6.86    9.76   0
  -6  -4  11    5.66    7.25   0
  -5  -4  11    4.89    9.30   0
   5   4 -11    1.26    7.39   0
   5   4 -11    8.74    8.91   0
  -5  -4  11    8.93    7.55   0
  -4  -4  11   57.69    9.45   0
   4   4 -11   42.43    8.88   0
   4   4 -11   28.07    5.19   0
  -4  -4  11   35.72    7.11   0
   3   4 -11   13.11    6.30   0
   3   4 -11   19.34    6.93   0
  -3  -4  11    6.11    7.18   0
  -3  -4  11   24.37    9.05   0
   2   4 -11   -5.44    8.12   0
  -2  -4  11   -0.37    8.45   0
   2   4 -11    6.23    6.66   0
  -2  -4  11   -8.78    6.82   0
   1   4 -11  137.67    9.20   0
  -1  -4  11  152.68    9.49   0
   1   4 -11  131.52    7.26   0
  -1  -4  11  126.49    7.29   0
   0   4 -11  233.09    9.10   0
   0   4 -11  137.59    7.30   0
   0  -4  11  171.60    7.34   0
   0  -4  11  209.89    9.26   0
  -1   4 -11    5.73    6.64   0
   1  -4  11    9.32    6.75   0
   1  -4  11   -4.75    8.66   0
  -1   4 -11   -0.05    8.21   0
   2  -4  11   55.63    6.42   0
   2  -4  11   74.06    7.29   0
  -2   4 -11   92.93    8.75   0
   3  -4  11   65.77    8.06   0
   3  -4  11   40.51    8.70   0
   3  -4  11   53.47    7.42   0
  -3   4 -11   55.90    6.36   0
  -6  -3  11    2.31    7.76   0
   6   3 -11    7.48    8.35   0
   6   3 -11   -3.29    7.40   0
   6   3 -11    4.11    9.48   0
  -5  -3  11   -1.10    8.87   0
   5   3 -11    7.44    4.91   0
   5   3 -11    5.63    9.02   0
  -5  -3  11   10.67    5.03   0
  -4  -3  11   25.62    8.75   0
   4   3 -11   10.94    6.74   0
   4   3 -11   25.42    8.56   0
  -4  -3  11   10.47    7.05   0
  -3  -3  11  249.13    9.54   0
   3   3 -11  126.84    8.63   0
   3   3 -11  185.38    5.78   0
  -3  -3  11  180.77    5.86   0
   2   3 -11  219.53    7.23   0
   2   3 -11  301.96    6.19   0
  -2  -3  11  358.54   10.16   0
  -2  -3  11  318.30    7.76   0
   1   3 -11  121.50    6.52   0
  -1  -3  11  148.50    9.28   0
   1   3 -11  124.54    5.21   0
  -1  -3  11  125.59    6.93   0
   0   3 -11  270.82    7.40   0
   0   3 -11  192.35    7.04   0
   0  -3  11  204.37    5.62   0
   0  -3  11  276.40   10.01   0
  -1   3 -11   83.08    4.77   0
   1  -3  11   89.07    6.77   0
   1  -3  11  102.30    8.80   0
  -1   3 -11  140.09    8.21   0
  -2   3 -11    4.00    4.49   0
   2  -3  11   -7.13    8.49   0
   2  -3  11   -4.14    4.75   0
  -2   3 -11    8.12    7.73   0
   3  -3  11   52.04    8.91   0
   3  -3  11   87.49    5.73   0
   3  -3  11  107.81    7.22   0
  -3   3 -11   96.52    6.39   0
   4  -3  11   23.31    9.75   0
   4  -3  11   19.68    7.87   0
   4  -3  11   36.04    7.19   0
  -4   3 -11   29.24    5.98   0
  -6  -2  11   -3.68    7.58   0
   6   2 -11   11.39    9.33   0
   6   2 -11    6.71    8.39   0
   6   2 -11    1.30    7.37   0
   5   2 -11   19.45    8.92   0
   5   2 -11   18.58    7.87   0
   5   2 -11   14.11    4.90   0
  -5  -2  11   14.47    7.22   0
  -4  -2  11    9.80    8.78   0
   4   2 -11    4.23    4.55   0
   4   2 -11    4.45    8.46   0
  -4  -2  11    8.62    6.84   0
   3   2 -11    3.92    8.33   0
   3   2 -11    4.98    6.14   0
  -3  -2  11    3.42    6.36   0
  -3  -2  11    3.38    7.96   0
  -2  -2  11   15.01    8.27   0
   2   2 -11   12.65    8.49   0
   2   2 -11    4.32    6.23   0
  -2  -2  11   14.33    6.49   0
   1   2 -11  387.60   10.89   0
  -1  -2  11  445.58   11.15   0
   1   2 -11  382.76    7.75   0
  -1  -2  11  391.85    6.43   0
   0   2 -11   74.89    8.39   0
   0   2 -11   63.10    6.45   0
   0  -2  11   66.26    4.98   0
   0  -2  11   74.69    8.62   0
  -1   2 -11  309.64    7.31   0
   1  -2  11  365.95    9.80   0
   1  -2  11  327.34    6.07   0
  -1   2 -11  485.51    9.91   0
   2  -2  11   64.64    8.18   0
   2  -2  11  110.37    5.18   0
  -2   2 -11  115.36    8.05   0
  -2   2 -11   99.72    4.81   0
   3  -2  11    3.63    8.44   0
   3  -2  11    8.91    7.29   0
   3  -2  11   -1.28    4.77   0
  -3   2 -11    6.91    5.31   0
   4  -2  11   17.85    8.97   0
   4  -2  11   21.46    7.65   0
   4  -2  11   23.85    7.03   0
  -4   2 -11   25.39    5.93   0
   5  -2  11   13.51    9.14   0
   5  -2  11   21.94    8.02   0
  -5   2 -11   25.40    8.61   0
   5  -2  11   24.21    7.53   0
  -6  -1  11    5.91    7.67   0
   6   1 -11    2.01    6.85   0
   6   1 -11    4.67    5.79   0
   6   1 -11   -1.18    5.22   0
  -5  -1  11    5.55    5.22   0
   5   1 -11   24.27    9.34   0
   5   1 -11   24.08    8.24   0
   5   1 -11   23.15    5.03   0
   4   1 -11   77.94    9.31   0
   4   1 -11   59.89    8.14   0
   4   1 -11   65.58    5.05   0
  -4  -1  11   66.71    6.84   0
  -3  -1  11    1.34    8.50   0
   3   1 -11    2.86    4.40   0
   3   1 -11    0.85    8.71   0
  -3  -1  11    5.11    4.43   0
   2   1 -11  191.23    9.63   0
   2   1 -11  286.59    7.74   0
  -2  -1  11  380.86   11.11   0
  -2  -1  11  312.33    7.85   0
   1   1 -11   24.16    8.37   0
   1   1 -11   18.16    6.29   0
  -1  -1  11   26.89    8.03   0
  -1  -1  11   27.07    4.68   0
   0   1 -11  169.22   10.67   0
   0  -1  11  179.60    9.55   0
   0   1 -11  147.74    6.49   0
   0  -1  11  140.44    5.12   0
  -1   1 -11   12.55    4.40   0
   1  -1  11    2.66    6.42   0
   1  -1  11    7.38    8.60   0
  -1   1 -11    8.94    7.44   0
   2  -1  11    5.01    7.77   0
  -2   1 -11   10.38    6.23   0
   2  -1  11    1.05    6.57   0
  -2   1 -11    0.60    7.23   0
   3  -1  11   12.74    8.22   0
   3  -1  11   27.26    6.64   0
  -3   1 -11   22.28    7.17   0
   4  -1  11   -9.24    8.34   0
   4  -1  11    2.68    7.58   0
   4  -1  11    1.57    5.04   0
  -4   1 -11    0.13    7.44   0
   5  -1  11    4.40    6.30   0
   5  -1  11   -1.95    5.68   0
  -5   1 -11    1.47    7.96   0
   5  -1  11    1.59    7.18   0
   6  -1  11    6.69    7.05   0
   6  -1  11   -3.39    6.02   0
  -6   1 -11   -3.50    8.92   0
   6  -1  11   -0.15    5.61   0
  -6   0  11   17.12    5.64   0
   6   0 -11    8.74    9.55   0
   6   0 -11   10.48    6.12   0
   6   0 -11   19.16    5.56   0
  -5   0  11   -4.06    5.20   0
   5   0 -11    0.61    8.88   0
   5   0 -11    4.19    8.19   0
   5   0 -11    3.84    7.13   0
   4   0 -11   42.64    8.92   0
   4   0 -11   36.37    7.61   0
   4   0 -11   33.40    5.09   0
  -4   0  11   55.70    7.07   0
   3   0 -11   93.54    8.43   0
   3   0 -11   98.19    5.37   0
  -3   0  11   99.92    6.85   0
   3   0 -11  111.76    9.74   0
   2   0 -11    9.20    8.34   0
   2   0 -11    9.45    4.63   0
  -2   0  11   15.56    6.66   0
   1   0 -11  374.04   13.23   0
   1   0 -11  359.62    7.81   0
  -1   0  11  420.64   12.36   0
  -1   0  11  353.94    8.16   0
   0   0  11  750.48   14.40   0
   0   0 -11  614.76    7.41   0
   0   0  11  619.92    9.02   0
   0   0 -11  700.68   14.64   0
  -1   0 -11  188.07    6.92   0
   1   0  11  183.57    5.58   0
  -1   0 -11  226.02    9.29   0
   1   0  11  214.73   11.74   0
   2   0  11  305.85   12.16   0
  -2   0 -11  373.55    7.70   0
  -2   0 -11  404.72   10.04   0
   2   0  11  394.39    8.13   0
   3   0  11   -0.84    7.92   0
   3   0  11   13.16    4.76   0
  -3   0 -11    5.34    7.03   0
   4   0  11   11.50    8.51   0
   4   0  11    2.93    7.43   0
  -4   0 -11   11.23    4.94   0
   4   0  11    9.76    4.78   0
   5   0  11   47.92    8.72   0
   5   0  11   46.83    7.72   0
  -5   0 -11   28.21    7.85   0
   5   0  11   49.63    5.55   0
   6   0  11    2.84    9.34   0
   6   0  11    9.13    5.59   0
   6   0  11   13.27    7.47   0
  -6   1  11    5.48    8.06   0
   6  -1 -11    8.37    9.87   0
   6  -1 -11    9.01    8.96   0
   6  -1 -11   -0.87    5.58   0
  -5   1  11   32.94    7.58   0
   5  -1 -11   16.85    9.69   0
   5  -1 -11   18.39    8.02   0
   5  -1 -11   38.44    7.37   0
  -4   1  11   -2.60    7.23   0
   4  -1 -11   -2.19    8.29   0
   4  -1 -11    0.26    7.55   0
   4  -1 -11   -0.96    7.12   0
   3  -1 -11   72.80   10.70   0
   3  -1 -11   54.86    9.45   0
   3  -1 -11   63.59    5.21   0
  -3   1  11   63.08    7.01   0
   2  -1 -11   88.54   10.02   0
   2  -1 -11   93.76    5.12   0
   2  -1 -11  103.74   11.12   0
  -2   1  11   93.21    6.90   0
   1  -1 -11    3.50   14.53   0
   1  -1 -11    4.13   11.27   0
   1  -1 -11    9.72    6.35   0
  -1   1  11    5.78    6.47   0
   0  -1 -11  157.05    7.00   0
   0   1  11  147.21    5.46   0
  -1  -1 -11  437.49   14.49   0
  -1  -1 -11  442.12    8.00   0
   1   1  11  452.98    7.01   0
   1   1  11  589.99   17.84   0
   2   1  11   12.35    8.20   0
  -2  -1 -11    8.50    6.15   0
  -2  -1 -11    6.69    8.39   0
   2   1  11    8.87    6.30   0
   3   1  11  523.87   11.63   0
  -3  -1 -11  408.71   10.10   0
   3   1  11  484.87    8.41   0
   4   1  11   84.39    8.48   0
   4   1  11   85.40    7.50   0
  -4  -1 -11   62.36    7.42   0
   4   1  11   76.98    7.07   0
   5   1  11    9.84    8.03   0
   5   1  11   -1.80    4.96   0
   5   1  11    0.61    4.51   0
   6   1  11    3.03    7.83   0
   6   1  11    4.12    6.60   0
   6   1  11    8.55    5.16   0
   6   1  11   14.48    8.80   0
  -5   2  11   -1.30    7.70   0
   5  -2 -11   11.02    7.22   0
   5  -2 -11   -4.98    8.48   0
   5  -2 -11    2.61    9.24   0
  -4   2  11   28.02    7.42   0
   4  -2 -11   24.51    7.26   0
   4  -2 -11   27.96    8.46   0
   4  -2 -11   37.52    9.10   0
  -3   2  11   -0.56    4.65   0
   3  -2 -11    5.41    8.28   0
   3  -2 -11   -7.37    6.63   0
   3  -2 -11    1.33    9.35   0
   2  -2 -11  224.39   14.46   0
   2  -2 -11  190.90    7.29   0
   2  -2 -11  215.92   13.38   0
  -2   2  11  181.33    7.26   0
   1  -2 -11   63.73    6.60   0
  -1   2  11   68.21    6.66   0
   0  -2 -11   28.70    6.41   0
   0   2  11   37.28    4.76   0
  -1  -2 -11  217.56    5.75   0
   1   2  11  221.79    6.10   0
   2   2  11   86.55   11.01   0
   2   2  11   72.38   12.61   0
  -2  -2 -11   59.46    6.27   0
   2   2  11   70.65    6.52   0
   3   2  11   13.82   10.56   0
   3   2  11   21.42    8.51   0
  -3  -2 -11   12.30    4.34   0
   3   2  11   13.41    6.62   0
   4   2  11   57.83    8.70   0
   4   2  11   60.03    5.64   0
   4   2  11   64.70    6.99   0
   4   2  11   64.23    8.63   0
   5   2  11   65.61    8.55   0
   5   2  11   67.87    7.65   0
   5   2  11   77.76    7.12   0
   5   2  11   83.07    8.31   0
   6   2  11    7.02    5.38   0
   6   2  11    1.15    5.05   0
   6   2  11    2.45    9.02   0
   6   2  11    8.54    8.11   0
   7   2  11    6.60    5.88   0
   7   2  11  -13.04   10.12   0
   7   2  11   -2.24    7.37   0
   7   2  11    7.78    9.31   0
  -5   3  11   13.31    8.33   0
   5  -3 -11    5.59   10.02   0
   5  -3 -11   13.60    5.74   0
   5  -3 -11    8.79    9.28   0
  -4   3  11   21.24    5.50   0
   4  -3 -11   20.25   10.05   0
   4  -3 -11   24.08    7.17   0
   4  -3 -11   24.03    8.86   0
   3  -3 -11    3.57    9.97   0
  -3   3  11    3.33    4.56   0
   3  -3 -11   -0.51   10.46   0
   3  -3 -11   -4.43    6.94   0
  -2   3  11   18.41    6.69   0
   2  -3 -11   16.31   10.12   0
   2  -3 -11   14.75    9.99   0
   2  -3 -11   18.51    5.11   0
   1  -3 -11  154.55    7.19   0
  -1   3  11  167.79    7.46   0
   0  -3 -11   79.58    6.81   0
   0   3  11   61.29    5.02   0
  -1  -3 -11   41.29    6.41   0
   1   3  11   44.57    6.79   0
   2   3  11  184.97   20.12   0
   2   3  11  131.86   18.99   0
  -2  -3 -11  130.03    6.93   0
   2   3  11  150.20    7.47   0
   3   3  11   48.83   10.19   0
   3   3  11   42.02    6.66   0
   3   3  11   54.45    9.68   0
   4   3  11    7.68    6.91   0
   4   3  11    1.55    8.57   0
   4   3  11    8.10    6.65   0
   4   3  11    4.87    7.76   0
   5   3  11    4.67    5.70   0
   5   3  11    8.64    7.13   0
   5   3  11    5.81    8.70   0
   5   3  11   10.91    7.94   0
   6   3  11    6.77    7.68   0
   6   3  11   12.10    7.23   0
   6   3  11   19.87    8.85   0
   6   3  11   13.29    8.34   0
   7   3  11   10.11    8.09   0
   7   3  11    0.53    7.49   0
   7   3  11   10.30    9.86   0
   7   3  11    1.60    8.86   0
   5  -4 -11   -0.55    9.63   0
   5  -4 -11   -8.15    5.70   0
   4  -4 -11   10.03    8.95   0
  -4   4  11    7.07    7.61   0
   4  -4 -11   -6.17    7.52   0
   4  -4 -11   13.85    9.50   0
  -3   4  11   88.74    7.84   0
   3  -4 -11   84.16   11.51   0
   3  -4 -11   72.84    5.99   0
   3  -4 -11   81.49    9.94   0
  -2   4  11   16.34    6.74   0
   2  -4 -11    6.73   10.34   0
   2  -4 -11   13.49   10.60   0
   2  -4 -11    6.32    6.83   0
  -1   4  11   54.84    6.58   0
   1  -4 -11   54.35    6.80   0
   0  -4 -11  226.86    7.91   0
   0   4  11  205.99    7.87   0
  -1  -4 -11   69.89    6.76   0
   1   4  11   56.30    7.14   0
  -2  -4 -11   47.03    6.23   0
   2   4  11   56.24    7.03   0
   3   4  11   80.28   10.63   0
   3   4  11   76.93    7.75   0
   3   4  11   50.51    6.84   0
   3   4  11   75.96    9.91   0
   4   4  11    9.75    7.58   0
   4   4  11   11.52    6.47   0
   4   4  11   11.36    8.26   0
   4   4  11    9.50    7.73   0
   5   4  11    1.57    8.72   0
   5   4  11    0.50    7.46   0
   5   4  11    2.97    4.60   0
   5   4  11    6.77    7.87   0
   6   4  11    3.32    8.74   0
   6   4  11    4.94    7.88   0
   6   4  11    2.28    7.25   0
   6   4  11    2.77    7.91   0
   7   4  11    3.19    5.72   0
   7   4  11   -5.33    9.56   0
   7   4  11    9.20    7.61   0
   7   4  11    6.39    8.38   0
  -4   5  11   -1.22    8.15   0
   4  -5 -11    7.66    9.67   0
   4  -5 -11   -1.16    9.84   0
   4  -5 -11   -0.90    7.97   0
   3  -5 -11   23.14    9.77   0
  -3   5  11   19.84    7.47   0
   3  -5 -11   17.52    9.02   0
   3  -5 -11   19.45    5.05   0
  -2   5  11   40.98    7.46   0
   2  -5 -11   47.79    9.69   0
   2  -5 -11   23.11   10.49   0
   2  -5 -11   43.60    7.34   0
  -1   5  11    1.08    7.12   0
   1  -5 -11    8.43   12.38   0
   1  -5 -11    8.21    6.99   0
   1  -5 -11    8.92   12.44   0
   0   5  11   16.26    6.85   0
   0  -5 -11   13.13    6.62   0
  -1  -5 -11   11.47    8.15   0
   1   5  11    3.87    8.34   0
   2   5  11   77.87   16.59   0
  -2  -5 -11   63.53    6.93   0
   2   5  11   72.96   15.32   0
   2   5  11   66.18    8.44   0
   3   5  11    2.30    8.49   0
   3   5  11   -1.34    8.70   0
   3   5  11   -1.33    8.11   0
   3   5  11    3.20    9.78   0
   4   5  11   39.34    8.89   0
   4   5  11   31.53    7.58   0
   4   5  11   34.37    7.72   0
   4   5  11   24.24    8.37   0
   5   5  11    1.38    7.15   0
   5   5  11   12.00    8.82   0
   5   5  11    7.73    7.15   0
   5   5  11    5.29    7.86   0
   6   5  11    1.30    5.22   0
   6   5  11    2.60    7.26   0
   6   5  11   -1.04    6.11   0
   6   5  11    2.24    8.14   0
   7   5  11    7.12    8.16   0
   7   5  11   -3.67    7.66   0
   7   5  11    5.90    8.66   0
   7   5  11   -0.64    9.36   0
   3  -6 -11    6.06   10.00   0
  -3   6  11    7.39    8.33   0
   3  -6 -11    6.88    9.29   0
   3  -6 -11    2.88    7.71   0
  -2   6  11   38.23    7.70   0
   2  -6 -11   29.83    9.17   0
   2  -6 -11   38.37    7.52   0
  -1   6  11   24.41    9.08   0
  -1   6  11   21.43    9.35   0
   1  -6 -11   23.74    7.47   0
   1  -6 -11   21.56   10.65   0
   0   6  11   10.36    8.72   0
   0   6  11    2.77   10.68   0
   0  -6 -11    6.05   11.92   0
   0  -6 -11    5.49    6.91   0
   1   6  11   47.75    8.88   0
  -1  -6 -11   57.34    7.05   0
  -1  -6 -11   69.56   14.79   0
   1   6  11   64.23   11.99   0
   2   6  11    3.15   10.13   0
  -2  -6 -11    1.16    8.09   0
   2   6  11    0.59    8.36   0
   3   6  11   46.52   10.98   0
   3   6  11   25.37    8.34   0
   3   6  11   43.32    7.81   0
   3   6  11   31.77    9.08   0
   4   6  11    0.43    8.92   0
   4   6  11    3.06    9.23   0
   4   6  11    2.09    8.53   0
   4   6  11   -0.95    8.73   0
   5   6  11    1.90    8.89   0
   5   6  11    7.50    8.80   0
   5   6  11    3.00    8.04   0
   5   6  11    6.79    6.99   0
   6   6  11   -1.44    7.69   0
   6   6  11   -5.45    9.32   0
   6   6  11    1.21    7.34   0
   6   6  11   -1.22    8.41   0
   7   6  11    3.37    8.49   0
   7   6  11   -3.72    6.76   0
   7   6  11   -1.51    7.82   0
   7   6  11    4.45    8.64   0
  -2   7  11    2.21    8.33   0
  -2   7  11    3.07    8.36   0
   2  -7 -11   -4.70   11.39   0
   2  -7 -11    2.40    7.95   0
  -1   7  11    2.23    7.93   0
  -1   7  11    4.78    8.05   0
   1  -7 -11   10.28    7.67   0
   1  -7 -11    9.93   11.19   0
   0   7  11   14.66    7.68   0
   0  -7 -11   20.75    8.94   0
   0  -7 -11   15.56    8.72   0
   0   7  11   18.22    9.69   0
  -1  -7 -11    8.95   10.77   0
   1   7  11    7.94   11.82   0
  -1  -7 -11    7.93    9.33   0
   1   7  11    7.80    9.99   0
   2   7  11   60.94   10.74   0
  -2  -7 -11   57.73   11.33   0
   3   7  11   15.73   10.24   0
  -3  -7 -11   15.74   10.96   0
   4   7  11   10.86    7.95   0
   4   7  11    8.86    8.73   0
   5   7  11   20.44   11.01   0
   5   7  11   22.56    8.08   0
   5   7  11   16.65   10.69   0
   5   7  11   22.72    9.04   0
   6   7  11    5.64    8.07   0
   6   7  11    1.44    9.38   0
   6   7  11   11.40    8.26   0
   6   7  11    5.61    9.36   0
  -1   8  11   44.49    9.25   0
  -1   8  11   39.07    9.01   0
   1  -8 -11   31.34   10.18   0
   1  -8 -11   52.88   12.42   0
   0  -8 -11   13.37   11.76   0
   0   8  11   15.06   11.80   0
   0  -8 -11   12.48    9.21   0
   0   8  11   15.09   10.53   0
  -1  -8 -11   -0.40   11.25   0
   1   8  11    6.20    8.41   0
   2   8  11    0.93    8.72   0
  -2  -8 -11    8.11   11.13   0
   3   8  11   11.41    8.49   0
  -3  -8 -11   24.40   11.25   0
   4   8  11    4.63    8.87   0
  -4  -8 -11   12.83   11.26   0
   5   8  11   -3.41    8.31   0
   5   8  11   -2.27    9.07   0
   6   8  11    3.48    8.81   0
   6   8  11    7.82    9.91   0
   0  -9 -11   17.24   12.37   0
   0   9  11   19.13   11.49   0
  -1  -9 -11   80.76   10.94   0
   1   9  11   87.41   10.07   0
  -2  -9 -11    5.72    9.63   0
   2   9  11    2.25    8.92   0
   3   9  11   31.90    9.47   0
  -3  -9 -11   30.51    9.99   0
   4   9  11   -0.60    9.40   0
  -4  -9 -11   -0.68   10.02   0
   5   9  11    5.38    9.29   0
   3   6 -12   38.96    9.62   0
   3   6 -12   46.53    5.82   0
  -3  -6  12   47.83   10.03   0
  -3  -6  12   35.10    8.14   0
   2   6 -12   22.85    9.17   0
  -2  -6  12   27.13    9.72   0
   2   6 -12    4.95    7.67   0
  -2  -6  12   17.01    5.70   0
   1   6 -12   23.47    6.77   0
  -1  -6  12    4.37    9.73   0
   1   6 -12   10.16    7.32   0
  -1  -6  12   16.37    5.40   0
   0   6 -12   25.09    7.49   0
   0  -6  12   39.98    8.12   0
   0   6 -12   56.78    9.50   0
   0  -6  12   57.24   10.22   0
   5   5 -12   15.91    8.06   0
  -4  -5  12    7.67    9.66   0
   4   5 -12    8.09    6.70   0
   4   5 -12    7.22    7.60   0
  -4  -5  12    8.48    7.65   0
   3   5 -12   11.49    6.25   0
   3   5 -12   13.28    7.30   0
  -3  -5  12    4.88    5.52   0
  -3  -5  12   10.20    6.52   0
   2   5 -12   92.12    9.21   0
  -2  -5  12  101.75    9.39   0
   2   5 -12   80.37    5.56   0
  -2  -5  12   87.45    7.56   0
   1   5 -12   59.93    9.05   0
  -1  -5  12   76.20    6.83   0
   1   5 -12   41.42    7.33   0
  -1  -5  12   77.62    5.63   0
   0   5 -12    2.95    7.09   0
   0  -5  12   16.06    7.55   0
   0  -5  12   22.57    9.46   0
   0   5 -12   27.36    8.98   0
  -1   5 -12   96.07    5.87   0
   1  -5  12   77.85    5.89   0
   1  -5  12  125.02    7.53   0
  -1   5 -12  154.45    7.33   0
   2  -5  12    3.91    8.66   0
   2  -5  12   14.18    9.73   0
   2  -5  12   -1.52    7.85   0
  -2   5 -12    9.81    9.10   0
  -5  -4  12    5.81    6.71   0
   5   4 -12    8.30    9.47   0
   5   4 -12    9.60    7.45   0
  -5  -4  12    5.34    5.42   0
   4   4 -12   29.79    8.51   0
   4   4 -12   61.17    7.51   0
  -4  -4  12   67.69    9.84   0
  -4  -4  12   45.17    7.59   0
  -3  -4  12   12.34    8.93   0
   3   4 -12    7.45    8.69   0
   3   4 -12    8.99    4.93   0
  -3  -4  12    6.10    5.15   0
   2   4 -12   52.29    8.57   0
   2   4 -12   61.21    7.03   0
  -2  -4  12   58.14    8.78   0
  -2  -4  12   64.32    5.35   0
   1   4 -12  114.19    8.80   0
  -1  -4  12  118.93    9.16   0
   1   4 -12   92.51    5.36   0
  -1  -4  12   91.09    7.64   0
   0   4 -12    9.94    8.68   0
   0   4 -12    6.25    6.69   0
   0  -4  12   19.06    5.15   0
   0  -4  12   26.25    8.75   0
  -1   4 -12   17.36    6.65   0
   1  -4  12   12.49    6.84   0
   1  -4  12   22.20    6.36   0
  -1   4 -12   15.55    5.93   0
   2  -4  12   37.01    6.75   0
   2  -4  12   72.73    7.52   0
  -2   4 -12   90.85    9.33   0
   3  -4  12   23.40    8.30   0
   3  -4  12    9.33    9.54   0
   3  -4  12   13.87    7.73   0
  -3   4 -12   16.50    8.89   0
   5   3 -12    4.52    5.02   0
   5   3 -12    6.29    9.23   0
  -5  -3  12    5.24    9.72   0
  -5  -3  12    4.95    5.23   0
  -4  -3  12   13.25    8.58   0
   4   3 -12    0.63    8.74   0
   4   3 -12    4.68    6.88   0
  -4  -3  12    6.96    7.20   0
  -3  -3  12   85.36    9.04   0
   3   3 -12   34.98    8.42   0
   3   3 -12   65.53    7.09   0
  -3  -3  12   73.53    7.14   0
   2   3 -12   21.34    8.82   0
   2   3 -12   25.72    6.67   0
  -2  -3  12   27.59    8.80   0
  -2  -3  12   32.04    6.95   0
   1   3 -12   74.00    9.16   0
  -1  -3  12   76.43    8.79   0
   1   3 -12   59.37    4.97   0
  -1  -3  12   67.41    6.92   0
   0   3 -12  227.75    9.09   0
   0   3 -12  175.83    5.53   0
   0  -3  12  172.39    7.46   0
   0  -3  12  224.11    9.56   0
  -1   3 -12    1.87    4.34   0
   1  -3  12   19.17    6.62   0
   1  -3  12    0.46    8.29   0
  -1   3 -12    4.70    8.13   0
  -2   3 -12   61.72    5.01   0
   2  -3  12   46.39    8.69   0
   2  -3  12   80.31    5.22   0
  -2   3 -12   74.87    8.57   0
   3  -3  12   25.88    7.90   0
   3  -3  12   16.03    6.36   0
   3  -3  12   41.46    7.17   0
  -3   3 -12   45.30    6.02   0
   4  -3  12    4.63    5.78   0
   4  -3  12    3.46    9.57   0
   4  -3  12   -0.75    7.48   0
  -4   3 -12   15.35    8.52   0
   6   2 -12    7.32   10.10   0
  -6  -2  12    1.61    5.68   0
   6   2 -12    4.20    8.48   0
   6   2 -12    2.71    5.43   0
   5   2 -12    5.17    5.53   0
   5   2 -12    5.96    4.97   0
   5   2 -12    7.87    9.04   0
  -5  -2  12   12.68    5.23   0
  -4  -2  12    1.78    8.57   0
   4   2 -12    5.47    6.61   0
   4   2 -12   -5.14    8.71   0
  -4  -2  12   12.49    6.79   0
  -3  -2  12   22.74    8.97   0
   3   2 -12    6.89    8.30   0
   3   2 -12   19.62    6.67   0
  -3  -2  12   14.88    6.77   0
  -2  -2  12  136.13    9.12   0
   2   2 -12   79.08    8.98   0
   2   2 -12   98.19    5.14   0
  -2  -2  12   99.05    5.20   0
   1   2 -12    2.94    8.58   0
  -1  -2  12    2.90    8.28   0
   1   2 -12    1.35    4.53   0
  -1  -2  12    2.62    6.60   0
   0  -2  12  242.72    9.98   0
   0   2 -12  177.34    5.49   0
   0  -2  12  198.74    7.31   0
   0   2 -12  232.17    9.55   0
  -1   2 -12   32.96    6.32   0
   1  -2  12   42.63    4.78   0
   1  -2  12   44.82    8.40   0
  -1   2 -12   49.04    7.83   0
  -2   2 -12    3.31    4.25   0
   2  -2  12    2.52    5.58   0
   2  -2  12    3.69    4.66   0
  -2   2 -12   -1.86    7.87   0
   3  -2  12   21.24    9.13   0
   3  -2  12   38.11    5.60   0
   3  -2  12   40.19    5.20   0
  -3   2 -12   29.77    5.74   0
   4  -2  12   29.33    6.38   0
   4  -2  12   49.40    8.09   0
   4  -2  12   53.21    5.68   0
  -4   2 -12   40.24    8.36   0
   5  -2  12   -2.07    9.71   0
   5  -2  12   -2.37    6.03   0
  -5   2 -12   11.62    8.85   0
  -6  -1  12   -1.12    8.05   0
   6   1 -12    2.14    9.74   0
   6   1 -12   -1.18    8.49   0
   6   1 -12    8.51    7.78   0
  -5  -1  12    8.80    7.25   0
   5   1 -12   -1.75    9.25   0
   5   1 -12    7.20    8.03   0
   5   1 -12    2.55    7.45   0
   4   1 -12   26.68    7.79   0
   4   1 -12   27.09    6.97   0
   4   1 -12   32.86    9.01   0
  -4  -1  12   19.18    5.10   0
   3   1 -12   12.19    8.56   0
   3   1 -12   13.19    4.66   0
  -3  -1  12   18.01    8.46   0
  -3  -1  12   14.27    4.79   0
   2   1 -12   54.43    8.51   0
   2   1 -12   69.39    4.86   0
  -2  -1  12   65.86    6.93   0
  -2  -1  12   89.47    9.23   0
   1   1 -12   20.74    8.08   0
   1   1 -12   26.60    4.70   0
  -1  -1  12   17.52    4.91   0
  -1  -1  12   23.07    8.37   0
   0  -1  12   22.48    8.52   0
   0   1 -12   26.46    6.65   0
   0  -1  12   20.87    6.85   0
   0   1 -12   22.25    7.70   0
  -1   1 -12  258.26    7.45   0
   1  -1  12  223.25    6.03   0
   1  -1  12  277.60   10.30   0
  -1   1 -12  302.31    9.68   0
  -2   1 -12  241.84    5.56   0
   2  -1  12  180.07    9.54   0
   2  -1  12  300.86    7.84   0
  -2   1 -12  329.84    9.88   0
   3  -1  12   38.11    8.43   0
   3  -1  12   54.32    5.13   0
  -3   1 -12   42.86    7.56   0
   4  -1  12   53.54    6.34   0
   4  -1  12   70.99    8.34   0
  -4   1 -12   64.00    8.03   0
   4  -1  12   64.43    7.51   0
   5  -1  12   14.61    9.25   0
   5  -1  12   15.33    5.66   0
  -5   1 -12    7.60    8.24   0
   5  -1  12    7.33    5.31   0
   6   0 -12    5.49    9.13   0
   6   0 -12   12.16    7.88   0
  -5   0  12   17.71    7.88   0
   5   0 -12   17.50    9.38   0
   5   0 -12   24.98    8.56   0
   5   0 -12   20.38    5.56   0
   4   0 -12   12.60    8.93   0
   4   0 -12    8.00    7.78   0
   4   0 -12    7.69    7.15   0
  -4   0  12    3.13    5.00   0
   3   0 -12    0.53    7.42   0
   3   0 -12   -4.84    6.68   0
   3   0 -12   -0.81   10.47   0
  -3   0  12   -5.50    4.76   0
   2   0 -12   15.42    9.72   0
   2   0 -12   17.17    4.66   0
  -2   0  12   15.01    6.80   0
  -1   0  12  289.51   12.81   0
   1   0 -12  277.58   12.44   0
   1   0 -12  257.55    6.14   0
  -1   0  12  260.08    7.79   0
   0   0 -12    9.65    4.63   0
   0   0  12   10.33    8.21   0
   0   0  12    4.86    6.71   0
   0   0 -12   17.45    9.00   0
  -1   0 -12   46.07    6.49   0
   1   0  12   45.18    4.78   0
  -1   0 -12   59.33    8.15   0
   1   0  12   55.24   10.58   0
  -2   0 -12    0.52    6.29   0
   2   0  12   13.14   10.46   0
  -2   0 -12    5.35    7.57   0
   2   0  12    5.15    6.58   0
   3   0  12  141.04    9.24   0
  -3   0 -12  152.45    8.49   0
   3   0  12  182.56    7.54   0
   4   0  12   80.19    8.97   0
   4   0  12   77.26    5.97   0
  -4   0 -12   66.01    8.01   0
   4   0  12   83.55    7.17   0
   5   0  12   42.71    6.52   0
   5   0  12   52.42    8.05   0
  -5   0 -12   39.64    8.29   0
   5   0  12   60.24    7.49   0
   6   0  12   14.75    9.61   0
   6   0  12   19.53    5.87   0
   6   0  12   20.46    7.94   0
  -5   1  12    6.26    7.94   0
   5  -1 -12    8.20    9.38   0
   5  -1 -12   12.34    8.59   0
   5  -1 -12   14.41    5.42   0
  -4   1  12   67.67    7.49   0
   4  -1 -12   82.64    9.88   0
   4  -1 -12   67.92    8.73   0
   4  -1 -12   70.45    7.60   0
   3  -1 -12  138.20    9.24   0
   3  -1 -12  141.36    7.43   0
  -3   1  12  130.89    7.47   0
   3  -1 -12  164.58   10.31   0
   2  -1 -12   -2.82   10.13   0
   2  -1 -12    2.35   10.07   0
   2  -1 -12    4.91    6.51   0
  -2   1  12   -2.29    6.69   0
   1  -1 -12  142.46    6.92   0
  -1   1  12  146.55    7.15   0
   0  -1 -12  213.99    7.38   0
   0   1  12  205.44    5.82   0
   1   1  12   30.40   11.94   0
  -1  -1 -12   25.57   10.19   0
  -1  -1 -12   24.21    6.25   0
   1   1  12   25.36    6.59   0
  -2  -1 -12  161.24    8.86   0
  -2  -1 -12  124.49    6.49   0
   2   1  12  112.25   11.07   0
   2   1  12  144.12    7.01   0
   3   1  12   21.38   10.25   0
  -3  -1 -12   15.17    6.31   0
  -3  -1 -12   10.74    7.39   0
   3   1  12   12.64    4.64   0
   4   1  12   65.40    8.76   0
   4   1  12   61.92    7.86   0
   4   1  12   58.28    7.06   0
   5   1  12   15.40    8.45   0
   5   1  12   10.76    5.50   0
   5   1  12   26.23    5.41   0
   6   1  12   12.26    6.82   0
   6   1  12   10.42    8.40   0
   6   1  12   18.66    9.79   0
   6   1  12   18.78    7.58   0
  -5   2  12   -0.55    7.60   0
   5  -2 -12   12.68    9.59   0
   5  -2 -12   10.29    5.71   0
   5  -2 -12    4.00    9.05   0
  -4   2  12   19.53    7.40   0
   4  -2 -12    6.70   10.90   0
   4  -2 -12   10.70    7.14   0
   4  -2 -12   10.17    8.53   0
  -3   2  12   32.37    5.19   0
   3  -2 -12   34.89   11.19   0
   3  -2 -12   34.68    7.02   0
   3  -2 -12   38.65   10.32   0
   2  -2 -12  203.34   16.88   0
   2  -2 -12  157.40   16.07   0
   2  -2 -12  161.65    5.83   0
  -2   2  12  162.01    5.90   0
   1  -2 -12   14.52    4.51   0
  -1   2  12   18.20    4.49   0
   0  -2 -12  185.97    7.20   0
   0   2  12  179.07    7.58   0
  -1  -2 -12  191.77    7.23   0
   1   2  12  201.49    7.60   0
  -2  -2 -12    3.13    6.01   0
   2   2  12    9.01   10.19   0
   2   2  12    9.17    6.79   0
   2   2  12   18.83    9.92   0
   3   2  12   90.83    9.04   0
  -3  -2 -12   86.69    6.96   0
   3   2  12   64.62    4.80   0
   3   2  12   89.84   10.83   0
   4   2  12  152.43    9.08   0
   4   2  12  133.53    9.42   0
   4   2  12  141.70    6.17   0
   4   2  12  132.02    7.68   0
   5   2  12   35.56    7.91   0
   5   2  12   44.73    7.29   0
   5   2  12   27.84    8.92   0
   5   2  12   27.39    8.69   0
   6   2  12   40.43    5.72   0
   6   2  12   32.19    9.74   0
   6   2  12   44.85    7.50   0
   6   2  12   41.39    9.12   0
   5  -3 -12    7.24   10.07   0
  -5   3  12   10.59    8.27   0
   5  -3 -12   10.78    8.02   0
   5  -3 -12    1.74    9.41   0
   4  -3 -12   17.53   10.83   0
  -4   3  12   14.02    7.52   0
   4  -3 -12   17.71    7.48   0
   4  -3 -12   21.20   11.70   0
  -3   3  12    7.60    7.38   0
   3  -3 -12    5.59   10.37   0
   3  -3 -12    3.87   10.69   0
   3  -3 -12    1.43    7.38   0
   2  -3 -12   68.94   17.79   0
   2  -3 -12   47.28   15.71   0
   2  -3 -12   51.69    5.12   0
  -2   3  12   63.20    5.34   0
   1  -3 -12  104.79    5.38   0
  -1   3  12  123.60    7.35   0
   0  -3 -12    0.87    6.60   0
   0   3  12    8.71    6.54   0
  -1  -3 -12   93.61    6.73   0
   1   3  12   91.70    6.93   0
  -2  -3 -12   38.22    4.29   0
   2   3  12   81.02    6.77   0
   3   3  12    1.05    9.49   0
  -3  -3 -12    3.28    6.11   0
   3   3  12    0.89    4.26   0
   3   3  12    0.34    7.92   0
   4   3  12   14.40    5.24   0
   4   3  12   10.44    8.46   0
   4   3  12   13.01    6.70   0
   4   3  12    5.63    8.20   0
   5   3  12   32.82    7.37   0
   5   3  12   27.33    5.09   0
   5   3  12   41.24    8.87   0
   5   3  12   43.08    8.30   0
   6   3  12    3.78    7.71   0
   6   3  12    3.26    7.52   0
   6   3  12    0.51    9.39   0
   6   3  12    8.83    5.91   0
   4  -4 -12   21.60    9.39   0
  -4   4  12   20.32    7.98   0
   4  -4 -12   22.39    9.89   0
   4  -4 -12   25.41    8.15   0
  -3   4  12    6.03    5.45   0
   3  -4 -12   12.16    9.27   0
   3  -4 -12   15.18   10.82   0
   3  -4 -12    9.80    5.26   0
  -2   4  12    9.90    5.21   0
   2  -4 -12    8.20   13.58   0
   2  -4 -12   11.40    7.08   0
   2  -4 -12    9.61   13.60   0
   1  -4 -12    5.82    6.43   0
  -1   4  12    3.43    4.68   0
   0  -4 -12   85.38    7.52   0
   0   4  12   75.98    7.17   0
  -1  -4 -12    0.05    6.09   0
   1   4  12    2.99    6.22   0
  -2  -4 -12   70.78    7.08   0
   2   4  12  113.46    7.53   0
   3   4  12   34.40   12.10   0
   3   4  12   27.13    7.01   0
   3   4  12   28.53   10.15   0
   4   4  12    5.24    7.20   0
   4   4  12    4.08    6.73   0
   4   4  12    7.95   10.25   0
   4   4  12    4.41    7.91   0
   5   4  12   19.05    7.38   0
   5   4  12   15.08    6.93   0
   5   4  12   23.00    8.31   0
   5   4  12   10.28    8.98   0
   6   4  12    6.06    6.33   0
   6   4  12    2.10    7.67   0
   6   4  12    6.70    5.19   0
   6   4  12   -4.36    8.29   0
   7   4  12    4.65   10.00   0
   7   4  12    2.94    8.30   0
   7   4  12   -2.45    7.79   0
   7   4  12   12.24    9.23   0
  -4   5  12   -6.76    8.15   0
   4  -5 -12    2.35    9.90   0
   4  -5 -12    5.35    7.83   0
   4  -5 -12    4.49   13.07   0
  -3   5  12   13.62    8.06   0
   3  -5 -12   10.67   11.54   0
   3  -5 -12    7.27    5.86   0
   3  -5 -12   13.11    9.20   0
  -2   5  12   15.71    7.55   0
   2  -5 -12   19.74   11.12   0
   2  -5 -12   26.59    5.59   0
   2  -5 -12   18.25   12.88   0
  -1   5  12   34.32    7.31   0
   1  -5 -12   30.18    6.94   0
   0   5  12   69.58    7.52   0
   0  -5 -12   74.17    7.35   0
  -1  -5 -12   15.45    8.26   0
   1   5  12    8.42    7.13   0
  -2  -5 -12    6.78    7.58   0
   2   5  12    3.84    6.92   0
   3   5  12   24.20    7.61   0
   3   5  12   16.85   12.03   0
   3   5  12   13.28    7.14   0
   3   5  12   22.31   11.31   0
   4   5  12   16.30   10.49   0
   4   5  12   14.57    7.46   0
   4   5  12   13.95    7.19   0
   4   5  12    6.95    7.97   0
   5   5  12    0.35    7.60   0
   5   5  12    4.47    8.78   0
   5   5  12    6.22    7.13   0
   5   5  12    4.74    8.14   0
   6   5  12    1.64    7.86   0
   6   5  12    4.36    7.47   0
   6   5  12    0.94    9.43   0
   6   5  12    6.90    8.52   0
   7   5  12    7.22    8.46   0
   7   5  12    6.53    9.07   0
   7   5  12   -3.19    9.44   0
  -3   6  12    3.17    8.90   0
   3  -6 -12    5.73   11.69   0
   3  -6 -12   -4.10    7.91   0
   3  -6 -12    6.71    9.98   0
  -2   6  12    8.18    8.04   0
   2  -6 -12    1.39   11.78   0
   2  -6 -12   16.65   11.22   0
   2  -6 -12   14.23    7.70   0
  -1   6  12   -2.70    7.44   0
   1  -6 -12    5.63   12.47   0
   1  -6 -12    4.91   12.66   0
   1  -6 -12    5.97    7.12   0
   0   6  12   18.18    8.95   0
   0  -6 -12   18.02    7.07   0
   1   6  12   83.44    9.18   0
  -1  -6 -12   94.81    7.34   0
  -2  -6 -12    6.64    8.01   0
   2   6  12    5.07    8.57   0
   3   6  12   29.09    9.25   0
   3   6  12   18.96   10.66   0
   3   6  12   32.14    9.96   0
   3   6  12   25.25    8.81   0
   4   6  12   30.10    7.80   0
   4   6  12   29.40    9.64   0
   4   6  12   25.91    7.34   0
   4   6  12   32.57   10.77   0
   5   6  12   10.12   10.93   0
   5   6  12    4.58    7.56   0
   5   6  12    4.27    7.99   0
   5   6  12    2.24    7.16   0
   6   6  12    2.25    8.09   0
   6   6  12    8.32    9.64   0
   6   6  12    5.99    9.32   0
   6   6  12    1.45    8.63   0
  -2   7  12   17.96    8.68   0
   2  -7 -12   20.05    8.28   0
   2  -7 -12   14.26   10.05   0
   1  -7 -12   34.08   11.34   0
  -1   7  12   18.60    8.35   0
  -1   7  12   23.86   10.50   0
   1  -7 -12   17.01    7.58   0
   0   7  12    2.62    9.74   0
   0   7  12    3.00   11.39   0
   0  -7 -12    4.99    9.01   0
   0  -7 -12   -2.52   12.87   0
   1   7  12   25.95   11.00   0
  -1  -7 -12   24.27   13.24   0
  -1  -7 -12   22.85   10.19   0
   1   7  12   28.41   13.05   0
   2   7  12   21.00   12.45   0
   3   7  12    6.92   10.37   0
   3   7  12    2.26    8.95   0
   4   7  12   -2.87    9.73   0
   4   7  12    0.02   10.67   0
   5   7  12    2.97   10.85   0
   5   7  12    2.17   10.02   0
   5   7  12    2.29   10.61   0
   5   7  12    4.41    9.31   0
   6   7  12    6.35    9.61   0
   6   7  12    2.64   10.17   0
   6   7  12    7.56    8.75   0
   6   7  12    4.12    9.61   0
   1  -8 -12   28.76   12.67   0
  -1   8  12   23.67    9.34   0
  -1   8  12   21.49   11.24   0
   1  -8 -12   16.38    8.24   0
   0   8  12   20.14   10.49   0
   0  -8 -12   17.40   11.92   0
   0  -8 -12   15.06   11.39   0
   0   8  12   16.98   10.65   0
  -1  -8 -12    3.14   11.78   0
   1   8  12    8.37   10.61   0
  -2  -8 -12   24.90   12.05   0
   2   8  12   18.46   10.97   0
   3   8  12    1.04   11.19   0
  -3  -8 -12   10.15   11.80   0
   4   8  12    1.64    9.06   0
   4   8  12    4.54    9.95   0
   5   8  12    2.38    8.31   0
   5   8  12    4.05    9.10   0
   1   9  12    6.23   11.28   0
  -1  -9 -12    2.98   12.41   0
  -2  -9 -12    5.98   12.46   0
   2   9  12    5.90   11.34   0
   3   9  12    1.40   11.39   0
  -3  -9 -12    2.27   10.10   0
  -4  -9 -12   -3.79   10.19   0
   4   9  12   12.49    9.38   0
   3   5 -13   19.65    9.46   0
   3   5 -13   19.60    7.45   0
  -3  -5  13   11.48    8.00   0
  -3  -5  13   17.45    9.47   0
   2   5 -13   24.56    9.51   0
   2   5 -13   18.15    5.34   0
  -2  -5  13   25.94    7.08   0
  -2  -5  13   18.95    5.55   0
   1   5 -13    9.43    9.51   0
  -1  -5  13    9.39    9.59   0
   1   5 -13    2.67    5.08   0
  -1  -5  13    6.64    5.28   0
   0  -5  13   41.49    6.97   0
   0   5 -13   27.23    5.18   0
   0  -5  13   46.49    7.88   0
   0   5 -13   46.11    6.80   0
  -1   5 -13   34.00    5.51   0
   1  -5  13   54.48    7.99   0
   1  -5  13   45.42    7.39   0
  -1   5 -13   74.04    9.43   0
   4   4 -13   18.32    9.26   0
   4   4 -13   17.46    7.77   0
  -4  -4  13   23.77    9.79   0
  -4  -4  13   26.78    7.98   0
  -3  -4  13   19.88    9.34   0
   3   4 -13   11.15    6.42   0
   3   4 -13    6.92    7.33   0
  -3  -4  13   20.57    7.45   0
   2   4 -13   96.86    6.97   0
   2   4 -13   91.38    5.59   0
  -2  -4  13  117.40    7.32   0
  -2  -4  13   99.48    5.58   0
   1   4 -13   46.93    9.20   0
  -1  -4  13   61.42    9.51   0
   1   4 -13   36.58    5.08   0
  -1  -4  13   44.20    7.47   0
   0  -4  13   14.77    6.52   0
   0   4 -13   19.50    5.06   0
   0  -4  13   14.94    7.19   0
   0   4 -13   19.01    8.55   0
  -1   4 -13   76.26    7.17   0
   1  -4  13   77.24    5.46   0
   1  -4  13  102.07    7.21   0
  -1   4 -13  129.03    9.47   0
   2  -4  13   16.07    7.67   0
   2  -4  13   23.33    9.71   0
  -2   4 -13   33.97    6.45   0
  -5  -3  13   -0.73    9.84   0
   5   3 -13   -2.34    5.56   0
   5   3 -13    3.88    9.87   0
  -5  -3  13   -2.59    8.12   0
   4   3 -13    4.69    9.21   0
  -4  -3  13   29.89    9.64   0
   4   3 -13    7.92    5.39   0
  -4  -3  13   14.12    7.40   0
   3   3 -13   20.80    8.77   0
  -3  -3  13   28.31    9.61   0
   3   3 -13   26.71    4.80   0
  -3  -3  13   36.45    7.12   0
   2   3 -13   13.39    8.61   0
   2   3 -13   27.97    6.89   0
  -2  -3  13    4.35    5.26   0
  -2  -3  13   14.67    8.71   0
   1   3 -13  162.31    9.52   0
  -1  -3  13  179.02    9.89   0
   1   3 -13  143.78    5.54   0
  -1  -3  13  144.39    7.52   0
   0  -3  13   43.08    6.37   0
   0   3 -13   51.62    6.69   0
   0  -3  13   41.29    4.92   0
   0   3 -13   49.58    8.57   0
  -1   3 -13   11.43    4.64   0
   1  -3  13    4.43    4.83   0
   1  -3  13   10.54    8.78   0
  -1   3 -13   16.04    8.19   0
  -2   3 -13   66.11    6.93   0
   2  -3  13   67.43    9.23   0
   2  -3  13   76.37    5.40   0
  -2   3 -13   96.89    6.60   0
   3  -3  13   29.43    8.09   0
   3  -3  13   27.81    9.51   0
   3  -3  13   48.64    7.50   0
  -3   3 -13   33.41    6.20   0
   5   2 -13    3.31    5.98   0
   5   2 -13    0.73    5.20   0
   5   2 -13   12.72    9.35   0
  -5  -2  13   -2.35    7.67   0
   4   2 -13   18.18    9.09   0
   4   2 -13   19.68    7.14   0
  -4  -2  13   24.63    9.33   0
  -4  -2  13    4.60    7.33   0
  -3  -2  13   47.43    9.47   0
   3   2 -13   24.40    8.88   0
   3   2 -13   43.87    5.09   0
  -3  -2  13   47.39    7.10   0
  -2  -2  13    8.01    8.64   0
   2   2 -13   14.26    8.63   0
   2   2 -13   13.76    6.62   0
  -2  -2  13   21.00    6.78   0
   1   2 -13   31.81    8.87   0
   1   2 -13   28.93    4.52   0
  -1  -2  13   30.49    8.70   0
  -1  -2  13   36.80    6.77   0
   0  -2  13  290.93   11.98   0
   0   2 -13  233.92    5.89   0
   0  -2  13  260.62    6.07   0
   0   2 -13  308.10   10.07   0
  -1   2 -13   19.76    4.73   0
   1  -2  13   25.15    6.79   0
   1  -2  13   33.26    6.43   0
  -1   2 -13   33.92    8.20   0
  -2   2 -13   34.96    4.71   0
   2  -2  13   43.25    8.80   0
   2  -2  13   44.77    5.16   0
  -2   2 -13   53.19    8.18   0
   3  -2  13   26.20    8.97   0
   3  -2  13   36.26    7.66   0
  -3   2 -13   40.07    6.24   0
   4  -2  13    9.51    9.10   0
   4  -2  13    9.81    5.77   0
  -4   2 -13    9.95    8.41   0
   4  -2  13   14.21    7.56   0
  -5  -1  13    7.71    5.30   0
   5   1 -13    5.60    8.72   0
   5   1 -13   11.59    7.46   0
   5   1 -13   12.23    9.66   0
   4   1 -13   10.58    8.13   0
   4   1 -13    2.51    6.91   0
   4   1 -13    5.76    9.36   0
  -4  -1  13    6.53    6.96   0
  -3  -1  13   37.99    9.15   0
   3   1 -13   19.80    8.69   0
   3   1 -13   31.08    6.78   0
  -3  -1  13   29.82    4.93   0
  -2  -1  13  168.66    9.82   0
   2   1 -13  112.33    9.50   0
   2   1 -13  132.71    5.47   0
  -2  -1  13  140.62    5.63   0
  -1  -1  13   11.67    8.72   0
   1   1 -13    7.88    8.29   0
   1   1 -13   18.05    6.78   0
  -1  -1  13    5.06    6.80   0
   0  -1  13  108.99    9.20   0
   0   1 -13   92.40    6.66   0
   0  -1  13   93.09    7.02   0
   0   1 -13   99.78    8.72   0
  -1   1 -13  121.66    6.96   0
   1  -1  13  129.19    7.20   0
  -1   1 -13  144.22    8.70   0
   1  -1  13  146.70    9.56   0
  -2   1 -13   37.08    4.80   0
   2  -1  13   32.89    8.45   0
   2  -1  13   43.05    7.01   0
  -2   1 -13   52.83    7.86   0
   3  -1  13   12.43    8.46   0
  -3   1 -13   10.56    8.27   0
   3  -1  13   24.86    7.25   0
   4  -1  13   38.79    9.06   0
   4  -1  13   34.74    5.88   0
  -4   1 -13   37.54    8.25   0
   4  -1  13   48.32    5.55   0
   5  -1  13    1.14    6.62   0
   5  -1  13   10.53    8.53   0
  -5   1 -13    6.90    9.04   0
   5  -1  13    5.03    7.81   0
  -5   0  13   -0.56    5.51   0
   5   0 -13    4.64    9.67   0
   5   0 -13    6.20    8.88   0
   5   0 -13   -7.57    7.51   0
   4   0 -13   44.71    8.71   0
   4   0 -13   46.70    5.20   0
   4   0 -13   40.35   11.81   0
  -4   0  13   36.84    7.44   0
   3   0 -13    1.78    9.27   0
   3   0 -13    3.60    8.86   0
   3   0 -13    3.76    6.87   0
  -3   0  13    4.37    4.81   0
   2   0 -13   89.26   11.29   0
   2   0 -13   88.53   10.34   0
   2   0 -13   98.75    5.29   0
  -2   0  13  122.25    7.46   0
   1   0 -13  102.12   11.25   0
  -1   0  13  106.95   11.30   0
   1   0 -13   98.65    7.12   0
  -1   0  13  114.80    7.32   0
   0   0 -13    8.62    4.75   0
   0   0  13    1.54    6.90   0
   0   0 -13   10.95    9.21   0
   0   0  13    4.30    9.99   0
   1   0  13   55.98   10.61   0
  -1   0 -13   28.80    6.54   0
  -1   0 -13   43.03    9.41   0
   1   0  13   42.81    7.04   0
  -2   0 -13   53.65    6.60   0
  -2   0 -13   89.35    8.26   0
   2   0  13   67.55   10.66   0
   2   0  13   79.89    6.70   0
   3   0  13    5.49    8.37   0
  -3   0 -13    2.42    4.29   0
  -3   0 -13    9.59    7.66   0
   3   0  13    3.47    4.87   0
   4   0  13   13.97    8.68   0
   4   0  13   15.20    7.65   0
  -4   0 -13   12.67    7.91   0
   4   0  13   21.32    5.15   0
   5   0  13    7.74    6.71   0
   5   0  13   -2.15    5.74   0
  -5   0 -13    1.47    8.38   0
   5   0  13   -0.18    7.68   0
  -5   1  13    2.17    5.70   0
   5  -1 -13    1.02    9.96   0
   5  -1 -13   -1.14    7.73   0
   5  -1 -13    3.85    8.74   0
  -4   1  13   10.93    5.38   0
   4  -1 -13   13.63   11.27   0
   4  -1 -13    9.67    6.96   0
   4  -1 -13   14.25    8.39   0
   3  -1 -13   -2.23    4.97   0
   3  -1 -13    2.66    9.39   0
   3  -1 -13    0.32   10.33   0
  -3   1  13   11.57    7.23   0
   2  -1 -13    3.67   11.93   0
   2  -1 -13   17.83    6.59   0
   2  -1 -13    6.77   12.24   0
  -2   1  13   14.09    6.65   0
   1  -1 -13   49.84    6.61   0
  -1   1  13   50.46    6.74   0
   0  -1 -13  128.88    5.38   0
   0   1  13  123.92    7.05   0
  -1  -1 -13    9.02    4.61   0
   1   1  13    7.43   13.15   0
   1   1  13    6.55    4.71   0
  -2  -1 -13   48.90    8.97   0
  -2  -1 -13   31.15    6.55   0
   2   1  13   39.27   10.47   0
   2   1  13   53.49    6.72   0
   3   1  13    6.75    8.43   0
  -3  -1 -13    4.96    6.01   0
  -3  -1 -13    1.31    7.54   0
   3   1  13   -6.89    6.23   0
   4   1  13   -0.70    9.07   0
   4   1  13    4.76    5.11   0
   4   1  13    3.28    5.14   0
   5   1  13    3.75    9.01   0
   5   1  13    7.20    5.56   0
   5   1  13   18.00    7.26   0
   5   1  13   10.75    9.33   0
   6   1  13   27.19    9.49   0
   6   1  13   11.33    8.46   0
   6   1  13   22.40    5.55   0
   6   1  13   21.26    9.92   0
  -5   2  13    4.03    8.26   0
   5  -2 -13   10.27   10.03   0
   5  -2 -13   -3.39    7.88   0
   5  -2 -13    2.30    9.39   0
  -4   2  13    7.08    7.69   0
   4  -2 -13   10.81    9.16   0
   4  -2 -13    9.21    5.26   0
   4  -2 -13    5.18    8.65   0
  -3   2  13  103.51    7.65   0
   3  -2 -13   94.83    5.65   0
   3  -2 -13  108.94   12.13   0
   3  -2 -13  100.90   12.15   0
   2  -2 -13   13.39    6.80   0
  -2   2  13    5.86    6.98   0
   1  -2 -13  124.62    5.50   0
  -1   2  13  108.59    5.62   0
   0  -2 -13   31.91    4.87   0
   0   2  13   26.09    7.13   0
  -1  -2 -13    0.58    6.72   0
   1   2  13   -0.23    6.70   0
   2   2  13    5.78   13.77   0
  -2  -2 -13    7.20    6.26   0
   2   2  13    0.19    6.85   0
   2   2  13    5.62   13.57   0
   3   2  13   40.22    8.74   0
   3   2  13   52.82    9.00   0
  -3  -2 -13   37.82    4.99   0
   3   2  13   44.22    7.03   0
   4   2  13    5.58    8.45   0
   4   2  13    6.56    7.53   0
   4   2  13   -6.31    7.30   0
   4   2  13    6.24    8.89   0
   5   2  13    7.12    8.80   0
   5   2  13    9.62    7.73   0
   5   2  13    4.32    7.37   0
   5   2  13    7.18    9.31   0
   6   2  13   10.59    9.80   0
   6   2  13   -7.20    5.80   0
   6   2  13   -0.16   10.01   0
   6   2  13    7.92    7.64   0
   4  -3 -13    5.82    8.88   0
  -4   3  13    0.06    5.42   0
   4  -3 -13   -2.19   11.69   0
   4  -3 -13   19.72    7.72   0
  -3   3  13   10.49    5.20   0
   3  -3 -13    5.69   11.00   0
   3  -3 -13    3.56   11.25   0
   3  -3 -13    5.51    7.24   0
   2  -3 -13   65.17    7.19   0
  -2   3  13   65.91    7.32   0
   1  -3 -13   60.16    6.82   0
  -1   3  13   54.10    5.01   0
   0  -3 -13  180.73    7.48   0
   0   3  13  154.48    7.85   0
  -1  -3 -13  265.87    8.05   0
   1   3  13  266.01    8.45   0
  -2  -3 -13    1.22    4.55   0
   2   3  13   -4.03    6.66   0
   3   3  13   62.27   12.61   0
  -3  -3 -13   59.67    6.64   0
   3   3  13   53.71    6.97   0
   3   3  13   80.62   11.47   0
   4   3  13   34.89    8.50   0
   4   3  13   28.74    9.15   0
   4   3  13   20.81    5.32   0
   4   3  13   19.06    7.12   0
   5   3  13    1.97    7.60   0
   5   3  13   -1.39    9.27   0
   5   3  13   16.65    7.31   0
   5   3  13   -1.21    8.87   0
   6   3  13    7.23    8.24   0
   6   3  13    8.76    7.60   0
   6   3  13   19.46    9.63   0
   6   3  13    4.69    9.37   0
  -4   4  13   12.31    8.40   0
   4  -4 -13    4.91   12.08   0
   4  -4 -13    7.40    7.85   0
   4  -4 -13    5.09   10.31   0
  -3   4  13    4.26    5.43   0
   3  -4 -13   -0.74   12.67   0
   3  -4 -13    7.21   11.29   0
   3  -4 -13    2.86    5.57   0
  -2   4  13   34.66    7.55   0
   2  -4 -13   29.79    5.05   0
   1  -4 -13   34.56    6.95   0
  -1   4  13   27.95    5.53   0
   0  -4 -13   12.55    6.78   0
   0   4  13   13.11    6.49   0
  -1  -4 -13   31.97    6.62   0
   1   4  13   24.43    6.92   0
  -2  -4 -13   92.32    6.88   0
   2   4  13  144.30    6.10   0
   3   4  13   15.66   13.83   0
   3   4  13   14.83    6.94   0
   3   4  13   15.74   14.23   0
   4   4  13   28.90    7.71   0
   4   4  13   33.33   10.97   0
   4   4  13   23.49    7.15   0
   4   4  13   35.84   10.23   0
   5   4  13   21.31    7.60   0
   5   4  13   16.45    7.05   0
   5   4  13   20.87    9.23   0
   5   4  13   17.95    8.44   0
   6   4  13    9.76    9.65   0
   6   4  13    3.19    7.88   0
   6   4  13    1.35    7.80   0
   6   4  13    5.75    9.02   0
  -3   5  13   14.79    7.93   0
   3  -5 -13    9.91   12.20   0
   3  -5 -13    1.97   13.32   0
   3  -5 -13   13.04    5.71   0
  -2   5  13    4.21    5.39   0
   2  -5 -13    5.87    7.22   0
  -1   5  13   35.71    7.55   0
   1  -5 -13   29.28    6.83   0
   0  -5 -13   35.14    7.36   0
   0   5  13   30.84    7.22   0
  -1  -5 -13    4.18    6.51   0
   1   5  13    5.30    7.00   0
  -2  -5 -13   19.61    6.55   0
   2   5  13   24.27    7.23   0
   3   5  13   50.16    7.81   0
   3   5  13   57.98    7.60   0
   4   5  13    3.05   10.85   0
   4   5  13    0.98    7.52   0
   4   5  13    1.88    8.61   0
   4   5  13    0.01    9.78   0
   5   5  13    2.71    7.79   0
   5   5  13    3.47    9.24   0
   5   5  13    2.92    7.23   0
   5   5  13    6.92    8.67   0
   6   5  13    9.37    7.87   0
   6   5  13   11.89    7.64   0
   6   5  13    2.80    9.53   0
   6   5  13    3.17    8.99   0
  -2   6  13   25.74    8.33   0
   2  -6 -13   24.96   14.04   0
   2  -6 -13   19.22    7.99   0
   2  -6 -13   22.70   14.13   0
  -1   6  13   -4.94    7.81   0
   1  -6 -13    6.22    7.31   0
   0   6  13   62.07    7.92   0
   0  -6 -13   64.64    7.73   0
   1   6  13   23.03    7.47   0
  -1  -6 -13   22.22    7.20   0
  -2  -6 -13    8.90    8.29   0
   2   6  13    5.19    8.71   0
   3   6  13    1.48    9.30   0
   3   6  13    2.40    8.55   0
   4   6  13    6.62    7.53   0
   4   6  13    9.75    8.69   0
   4   6  13   11.49    9.96   0
   4   6  13    8.61    8.99   0
   5   6  13    6.00   11.40   0
   5   6  13   10.25    9.83   0
   5   6  13    5.40    9.26   0
   5   6  13   11.88    8.55   0
   6   6  13    4.83    8.23   0
   6   6  13    8.17   11.95   0
   6   6  13    0.89    7.87   0
   6   6  13    9.56    9.03   0
  -1   7  13    2.66    8.36   0
   1  -7 -13    6.07   15.33   0
   1  -7 -13    1.14    7.80   0
   1  -7 -13    1.03   16.12   0
   0   7  13   -0.88    8.27   0
   0  -7 -13    5.15    8.98   0
   1   7  13    7.32    9.47   0
  -1  -7 -13    9.06    8.85   0
   2   7  13   13.93   11.20   0
   2   7  13   17.45   11.56   0
   3   7  13   -0.90   13.28   0
   3   7  13    1.55   13.93   0
   3   7  13    2.75   13.61   0
   3   7  13   -0.11   13.17   0
   4   7  13    5.92   12.29   0
   4   7  13    7.48   11.24   0
   4   7  13    4.58   10.39   0
   4   7  13    8.84   10.74   0
   5   7  13    5.28   10.06   0
   5   7  13    6.61    8.74   0
   5   7  13    9.10   11.52   0
   5   7  13    4.96    9.63   0
   0  -8 -13   -1.34   13.98   0
   0   8  13   -0.16   10.72   0
   0   8  13    2.77   13.61   0
   0  -8 -13    1.26    9.70   0
  -1  -8 -13    3.52   19.02   0
   1   8  13    3.90   15.29   0
   2   8  13    3.90   14.00   0
   3   8  13    2.25   11.09   0
   3   8  13    0.99   10.23   0
   4   8  13    1.67   11.32   0
   4   8  13    2.91   10.32   0
   5   8  13   10.80   11.53   0
   5   8  13    1.83   10.58   0
   3   4 -14   27.38    9.20   0
  -3  -4  14   29.89    9.97   0
   3   4 -14   28.22    7.64   0
  -3  -4  14   42.97    8.33   0
   2   4 -14   45.24    9.48   0
   2   4 -14   39.91    5.44   0
  -2  -4  14   49.34    9.71   0
  -2  -4  14   45.63    7.83   0
   1   4 -14    5.83    9.19   0
  -1  -4  14    5.44    9.23   0
   1   4 -14    1.97    7.25   0
  -1  -4  14   12.81    7.34   0
   0  -4  14   36.35    9.68   0
   0   4 -14   24.51    7.35   0
   0  -4  14   27.10    5.52   0
   0   4 -14   24.45    9.23   0
  -1   4 -14   50.34    5.64   0
   1  -4  14   76.81    7.82   0
  -1   4 -14   69.05    6.86   0
   1  -4  14   78.13   10.08   0
   4   3 -14   13.16    9.52   0
   4   3 -14   10.36    5.29   0
  -4  -3  14   15.61   10.49   0
  -4  -3  14   15.66    7.87   0
   3   3 -14   -5.54    9.19   0
   3   3 -14  -12.48    7.32   0
  -3  -3  14   -1.29    9.43   0
  -3  -3  14    0.72    5.24   0
  -2  -3  14  108.81    9.86   0
   2   3 -14   94.41    9.49   0
   2   3 -14   84.36    5.51   0
  -2  -3  14   85.51    7.68   0
   1   3 -14   80.48    9.33   0
   1   3 -14   73.51    5.16   0
  -1  -3  14   84.01    9.56   0
  -1  -3  14   78.24    7.72   0
   0  -3  14   11.77    9.31   0
   0   3 -14   -1.08    4.75   0
   0  -3  14   12.14    7.21   0
   0   3 -14    7.97    8.20   0
  -1   3 -14   52.06    6.99   0
   1  -3  14   32.49    5.20   0
  -1   3 -14   33.05    8.82   0
   1  -3  14   47.57    9.42   0
  -2   3 -14   18.22    5.06   0
   2  -3  14    7.14    5.22   0
   2  -3  14   13.50    9.48   0
  -2   3 -14   22.33    8.79   0
   4   2 -14   22.59    9.49   0
   4   2 -14   21.84    5.30   0
  -4  -2  14   20.87    7.63   0
   3   2 -14   10.81    8.92   0
  -3  -2  14   19.07    9.50   0
   3   2 -14   12.08    5.08   0
  -3  -2  14   18.02    5.11   0
   2   2 -14    8.57    8.88   0
  -2  -2  14    7.78    8.79   0
   2   2 -14    8.59    4.74   0
  -2  -2  14   14.08    7.14   0
   1   2 -14   94.10    9.23   0
   1   2 -14   84.70    5.23   0
  -1  -2  14   85.74    9.77   0
  -1  -2  14   79.21    7.23   0
   0  -2  14  157.69    9.68   0
   0   2 -14  128.38    7.31   0
   0  -2  14  135.65    7.71   0
   0   2 -14  154.69   10.98   0
  -1   2 -14   15.97    6.86   0
   1  -2  14   22.55    6.82   0
  -1   2 -14   17.17    8.34   0
   1  -2  14   11.04    8.66   0
  -2   2 -14   64.03    5.34   0
   2  -2  14   65.34    5.45   0
   2  -2  14   81.12    9.58   0
  -2   2 -14  110.77    9.18   0
   3  -2  14   12.63    6.36   0
  -3   2 -14   26.28    8.49   0
   3  -2  14   16.02    7.51   0
   4   1 -14    3.62    8.41   0
   4   1 -14    4.40    9.33   0
   4   1 -14    6.35    7.51   0
  -4  -1  14   13.42    7.44   0
   3   1 -14   26.93   10.88   0
   3   1 -14   38.69    5.31   0
  -3  -1  14   41.24    5.47   0
   2   1 -14   34.31    9.20   0
  -2  -1  14   43.06    9.59   0
   2   1 -14   42.76    7.18   0
  -2  -1  14   30.48    7.35   0
   1   1 -14   15.61   10.08   0
  -1  -1  14   20.64   10.59   0
   1   1 -14   27.83    6.98   0
  -1  -1  14   10.08    7.04   0
   0  -1  14   88.50   11.11   0
   0   1 -14   68.28    7.06   0
   0  -1  14   76.99    7.46   0
   0   1 -14   81.94   10.69   0
  -1   1 -14   71.63    6.87   0
   1  -1  14   52.32    7.28   0
  -1   1 -14   64.81    8.63   0
   1  -1  14   68.03    9.34   0
  -2   1 -14    4.48    6.64   0
  -2   1 -14   -1.48    9.53   0
   2  -1  14    6.05    8.79   0
   2  -1  14   -4.77    6.98   0
   3  -1  14   34.93    9.04   0
  -3   1 -14   61.42    8.55   0
   3  -1  14   42.15    7.75   0
   4  -1  14    6.24    9.42   0
   4  -1  14    5.92    5.93   0
  -4   1 -14   10.26    8.63   0
   4  -1  14    8.40    7.75   0
   4   0 -14    5.05    8.57   0
   4   0 -14  -11.81    7.50   0
   4   0 -14    1.22   11.48   0
  -4   0  14    6.88    7.81   0
   3   0 -14    0.88   10.87   0
   3   0 -14    5.18    8.12   0
   3   0 -14    4.82    7.00   0
  -3   0  14   11.69    5.09   0
   2   0 -14   51.72   11.07   0
   2   0 -14   38.92   11.32   0
   2   0 -14   41.98    5.20   0
  -2   0  14   51.43    5.41   0
  -1   0  14   27.37   11.10   0
   1   0 -14   31.66    6.96   0
  -1   0  14   22.58    4.79   0
   1   0 -14   29.21   11.84   0
   0   0  14   63.89   11.26   0
   0   0 -14   56.30    4.96   0
   0   0 -14   51.08   11.53   0
   0   0  14   54.87    4.93   0
   1   0  14  112.06   11.46   0
  -1   0 -14  100.80    6.98   0
  -1   0 -14   86.68    8.76   0
   1   0  14  103.86    5.62   0
  -2   0 -14   11.83    6.48   0
  -2   0 -14    9.88    9.26   0
   2   0  14    4.68    7.08   0
   2   0  14    2.42   10.76   0
  -3   0 -14    1.70    4.55   0
   3   0  14    3.78    8.65   0
  -3   0 -14    8.70    8.14   0
   3   0  14   -2.63    6.88   0
   4   0  14   26.89    9.12   0
   4   0  14   30.59    5.85   0
  -4   0 -14   30.12    8.42   0
   4   0  14   45.19    7.67   0
   5   0  14   -0.65    9.27   0
   5   0  14   12.70    8.42   0
  -5   0 -14   -0.10    8.38   0
   5   0  14    2.72    7.80   0
  -4   1  14    0.57    7.70   0
   4  -1 -14   10.91    5.45   0
   4  -1 -14    3.13    8.81   0
   4  -1 -14    6.32   11.84   0
   3  -1 -14    5.62   12.28   0
   3  -1 -14   -8.15    6.85   0
   3  -1 -14   -2.75    9.95   0
  -3   1  14    3.79    5.21   0
   2  -1 -14   51.72    7.09   0
  -2   1  14   38.20    7.06   0
   1  -1 -14   90.55    5.44   0
  -1   1  14   77.81    5.44   0
   0  -1 -14   -8.71    4.45   0
   0   1  14   -2.96    6.80   0
   1   1  14   51.65   17.00   0
  -1  -1 -14   48.42    6.76   0
   1   1  14   49.95    6.83   0
  -2  -1 -14   84.34    6.88   0
   2   1  14   98.43    7.66   0
   2   1  14  111.06   11.43   0
   3   1  14    9.65   10.56   0
  -3  -1 -14    4.25    6.63   0
   3   1  14    0.58    6.66   0
   4   1  14   14.52   11.01   0
   4   1  14   12.97    7.57   0
   4   1  14   -0.13    7.45   0
   5   1  14    5.79    9.42   0
   5   1  14    8.81    8.35   0
   5   1  14   13.17    9.98   0
   5   1  14    6.70    5.51   0
  -4   2  14    9.34    5.83   0
   4  -2 -14   11.52   11.80   0
   4  -2 -14   20.69    7.57   0
   4  -2 -14   15.57    9.59   0
   3  -2 -14   38.19   14.86   0
   3  -2 -14   21.45   13.29   0
   3  -2 -14   28.71    7.25   0
  -3   2  14   31.13    5.14   0
   2  -2 -14    7.94    6.86   0
  -2   2  14   -4.09    4.92   0
   1  -2 -14   47.61    4.81   0
  -1   2  14   43.42    5.29   0
   0  -2 -14  141.64    7.42   0
   0   2  14  138.71    7.64   0
  -1  -2 -14    8.82    6.41   0
   1   2  14   -1.50    7.32   0
  -2  -2 -14   86.91    6.95   0
   2   2  14   82.74    7.72   0
   3   2  14   37.30    9.10   0
   3   2  14   19.17   10.17   0
  -3  -2 -14   21.35    6.71   0
   3   2  14   33.01    6.99   0
   4   2  14    3.25    8.76   0
   4   2  14    7.20    9.01   0
   4   2  14    4.71    7.68   0
   4   2  14   -0.58    7.12   0
   5   2  14    3.00    9.26   0
   5   2  14    9.26    7.90   0
   5   2  14   -7.25   11.95   0
   5   2  14   -3.48    5.31   0
  -4   3  14    3.98    5.44   0
   4  -3 -14    0.47   11.83   0
   4  -3 -14    2.44   12.03   0
   4  -3 -14   -0.86    5.24   0
  -3   3  14   24.02    8.17   0
   3  -3 -14   12.87   17.47   0
   3  -3 -14   11.97    5.37   0
   3  -3 -14   11.02   17.62   0
   2  -3 -14   33.68    5.11   0
  -2   3  14   39.85    7.39   0
   1  -3 -14    7.77    6.63   0
  -1   3  14    4.76    6.96   0
   0  -3 -14   76.97    5.13   0
   0   3  14   72.32    5.91   0
  -1  -3 -14   10.54    6.83   0
   1   3  14    6.68    4.66   0
  -2  -3 -14    9.53    6.62   0
   2   3  14   12.07    4.95   0
  -3  -3 -14   -0.44    4.48   0
   3   3  14    1.73   11.89   0
   3   3  14    8.87   13.64   0
   3   3  14    3.69    6.76   0
   4   3  14   32.16    8.81   0
   4   3  14   30.98    9.05   0
   4   3  14   26.60    7.64   0
   4   3  14   16.66    5.22   0
   5   3  14   -4.52    8.89   0
   5   3  14    3.65    7.77   0
   5   3  14    2.03    9.50   0
   5   3  14    5.27    7.20   0
   6   3  14   -4.58    8.15   0
  -3   4  14    9.20    5.62   0
   3  -4 -14    3.85   19.34   0
   3  -4 -14    1.45   17.74   0
   3  -4 -14    0.66    7.70   0
  -2   4  14   20.36    5.46   0
   2  -4 -14    8.45    7.33   0
   1  -4 -14    2.30    6.93   0
  -1   4  14    3.59    7.12   0
   0  -4 -14   -2.30    4.87   0
   0   4  14    8.12    6.85   0
  -1  -4 -14  115.50    5.61   0
   1   4  14  108.63    7.80   0
  -2  -4 -14    1.68    6.71   0
   2   4  14    5.28    5.07   0
  -3  -4 -14   42.64    6.87   0
   3   4  14   53.14    7.27   0
   4   4  14    4.06   10.69   0
   4   4  14   -0.90    7.52   0
   4   4  14    3.86   10.80   0
   4   4  14   -1.18    7.05   0
   5   4  14    0.05    7.99   0
   5   4  14   -2.51    5.29   0
   5   4  14    5.28   11.68   0
   5   4  14    1.58    8.63   0
   6   4  14   -0.07    8.29   0
   6   4  14    4.01    5.45   0
   6   4  14   11.86    9.57   0
   6   4  14    8.68   12.48   0
  -3   5  14    2.56    8.15   0
   3  -5 -14    2.66   16.02   0
   3  -5 -14    3.71    5.40   0
  -2   5  14    1.00    7.86   0
   2  -5 -14   -3.06    5.45   0
  -1   5  14   57.60    7.98   0
   1  -5 -14   47.82    7.66   0
   0  -5 -14    3.21    7.12   0
   0   5  14    5.74    7.04   0
  -1  -5 -14   21.13    7.12   0
   1   5  14   12.23    7.32   0
  -2  -5 -14   24.88    6.71   0
   2   5  14   20.81    8.97   0
   3   5  14   28.30    7.37   0
   4   5  14   29.90   12.83   0
   4   5  14   26.02    8.26   0
   4   5  14   22.97    7.73   0
   4   5  14   31.30   13.10   0
   5   5  14   24.21    8.41   0
   5   5  14   31.30   11.92   0
   5   5  14   20.09    7.80   0
   5   5  14   28.17   11.01   0
   6   5  14    7.01    5.88   0
   6   5  14   10.07   10.13   0
   6   5  14    3.59    8.13   0
   6   5  14    7.57    9.26   0
  -2   6  14   -0.57    8.40   0
   2  -6 -14    3.08    8.06   0
  -1   6  14   11.23    8.24   0
   1  -6 -14   18.62    7.79   0
   0   6  14    6.69    7.76   0
   0  -6 -14   15.21    7.54   0
   1   6  14   10.78    9.28   0
  -1  -6 -14    5.85    7.41   0
  -2  -6 -14   11.24    7.03   0
   2   6  14   12.54    7.66   0
   3   6  14   11.84    7.92   0
   3   6  14   16.99    9.21   0
   4   6  14    3.97    9.95   0
   4   6  14    3.15   12.74   0
   4   6  14    3.32    7.65   0
   4   6  14    1.83   12.37   0
   5   6  14    2.31   10.23   0
   5   6  14   -0.97    7.70   0
   5   6  14    8.23   10.95   0
   5   6  14   -3.98    9.80   0
  -1   7  14    6.20    8.45   0
   1  -7 -14    6.24    7.84   0
   0   7  14   29.40   10.16   0
   0  -7 -14   32.34    9.70   0
   1   7  14   10.24    9.89   0
  -1  -7 -14   13.26    7.41   0
   2   7  14    4.06    9.47   0
   3   7  14    6.28   11.13   0
   3   7  14    1.34   11.30   0
   4   7  14    2.96   10.25   0
   4   7  14    0.20   13.19   0
   4   7  14    2.51   12.69   0
   4   7  14    2.54    9.86   0
   5   7  14    1.61   10.19   0
   5   7  14    1.11   12.13   0
   5   7  14    2.38    8.98   0
   5   7  14    1.29   10.06   0
  -1  -8 -14    2.40   13.40   0
   4   8  14    4.63   13.55   0
   4   8  14    4.95   10.67   0
   1   4 -15   11.64    9.81   0
  -1  -4  15    1.37    9.91   0
   1   4 -15   -0.69    7.60   0
   3   3 -15   15.89    9.85   0
   3   3 -15   23.21    5.60   0
  -3  -3  15   31.71    8.16   0
  -3  -3  15   26.09   10.20   0
   2   3 -15   67.79   11.92   0
  -2  -3  15   72.64   10.21   0
   2   3 -15   59.46    7.64   0
  -2  -3  15   65.29    7.84   0
   1   3 -15    9.42    9.11   0
   1   3 -15    3.85    5.12   0
  -1  -3  15    7.46    9.84   0
  -1  -3  15    5.47    7.27   0
   0  -3  15   81.08   10.56   0
   0   3 -15   52.24    5.52   0
   0  -3  15   67.20    7.75   0
   0   3 -15   80.81    9.54   0
  -1   3 -15   29.97    5.38   0
   1  -3  15   54.49    7.88   0
  -1   3 -15   45.64    9.24   0
   1  -3  15   56.13    9.87   0
  -3  -2  15    9.06    9.42   0
   3   2 -15    8.39   11.33   0
   3   2 -15   -1.36    7.54   0
  -3  -2  15    9.32    5.31   0
   2   2 -15   27.72    9.53   0
   2   2 -15   42.29    7.36   0
  -2  -2  15   37.68    9.93   0
  -2  -2  15   23.22    5.62   0
   1   2 -15  116.88    7.57   0
  -1  -2  15  125.79    7.69   0
  -1  -2  15  151.00   10.50   0
   1   2 -15  137.55   10.16   0
   0  -2  15   12.00    9.43   0
   0   2 -15   16.42    7.33   0
   0  -2  15   17.47    7.50   0
   0   2 -15   10.85    8.81   0
   1  -2  15   91.95    9.64   0
  -1   2 -15   60.63    5.42   0
   1  -2  15   58.36    5.47   0
  -1   2 -15   57.49    9.18   0
  -2   2 -15   41.64    7.46   0
  -2   2 -15   50.31    9.14   0
   2  -2  15   30.56    5.51   0
   2  -2  15   45.10    9.92   0
   4   1 -15   15.15   11.75   0
   4   1 -15    7.05    8.90   0
   4   1 -15   15.94    7.98   0
  -4  -1  15   16.78    8.13   0
   3   1 -15   20.99   11.41   0
   3   1 -15   22.76   10.24   0
   3   1 -15   24.20    5.29   0
  -3  -1  15   19.24    7.82   0
   2   1 -15   -2.26   11.04   0
  -2  -1  15    1.86   11.42   0
   2   1 -15   -1.34    5.16   0
  -2  -1  15    2.82    5.15   0
  -1  -1  15   51.18   11.84   0
   1   1 -15   47.66    5.38   0
  -1  -1  15   45.26    7.35   0
   1   1 -15   51.32   10.79   0
   0   1 -15   52.47    7.10   0
   0  -1  15   52.26    9.21   0
   0  -1  15   45.85    5.27   0
   0   1 -15   56.43   10.31   0
   1  -1  15   13.71   11.14   0
  -1   1 -15    6.06    4.86   0
  -1   1 -15    7.01    8.24   0
   1  -1  15   10.59    5.27   0
  -2   1 -15   43.72    7.24   0
  -2   1 -15   51.48    8.71   0
   2  -1  15   44.09    7.71   0
   2  -1  15   51.92    9.73   0
  -3   1 -15   32.16    8.85   0
   3  -1  15   30.42    9.55   0
   3  -1  15   35.57    7.74   0
   4   0 -15    4.09   11.98   0
   4   0 -15    1.23   10.96   0
   4   0 -15   16.12    7.78   0
  -4   0  15    2.91    5.47   0
   3   0 -15   19.08   11.44   0
   3   0 -15   21.19   10.37   0
   3   0 -15   37.39    7.33   0
  -3   0  15   23.87    5.67   0
   2   0 -15   28.84   12.82   0
   2   0 -15   18.56   11.64   0
   2   0 -15   25.78    5.13   0
  -2   0  15   10.94    7.54   0
   1   0 -15   12.07    6.97   0
   1   0 -15    2.05   13.06   0
  -1   0  15    8.46    7.47   0
   0   0  15  127.92   14.34   0
   0   0 -15  106.79    7.27   0
   0   0 -15   96.14   13.03   0
   0   0  15  115.06    5.44   0
   1   0  15   54.49   11.49   0
  -1   0 -15   43.39    5.04   0
  -1   0 -15   39.11   10.15   0
   1   0  15   39.07    7.38   0
  -2   0 -15   -1.59    4.80   0
  -2   0 -15    6.69    9.63   0
   2   0  15    3.52    7.07   0
   2   0  15   -3.67   11.01   0
  -3   0 -15    7.99    4.93   0
  -3   0 -15   19.48    8.43   0
   3   0  15   12.42   11.28   0
   3   0  15   20.88    7.39   0
   4   0  15   10.90    9.43   0
   4   0  15   19.29    5.73   0
  -4   0 -15   19.67    8.71   0
   4   0  15   37.58    7.73   0
  -4   1  15   15.76    8.01   0
   4  -1 -15   -4.28   12.00   0
   4  -1 -15    4.51    7.68   0
   4  -1 -15    3.24   11.20   0
   3  -1 -15    5.03   14.64   0
   3  -1 -15    7.78    7.41   0
   3  -1 -15    4.84   12.60   0
  -3   1  15    8.77    5.24   0
   2  -1 -15   51.34    7.40   0
  -2   1  15   63.39    7.47   0
   1  -1 -15   27.84    6.76   0
  -1   1  15   35.24    7.22   0
   0  -1 -15   18.08    7.02   0
   0   1  15   17.18    7.63   0
  -1  -1 -15   80.77    7.38   0
   1   1  15   74.94    7.37   0
   2   1  15   44.13   11.36   0
  -2  -1 -15   36.76    4.99   0
   2   1  15   38.33    7.41   0
  -3  -1 -15   -4.91    6.64   0
   3   1  15    7.74   10.76   0
   3   1  15    2.96    6.95   0
   4   1  15    1.87   11.35   0
   4   1  15   10.33    7.81   0
   4   1  15   17.10    7.60   0
   4   1  15   17.76    9.92   0
   3  -2 -15    2.91    5.09   0
  -3   2  15    3.02    7.90   0
   2  -2 -15   11.16    4.99   0
  -2   2  15    5.32    5.02   0
   1  -2 -15   49.65    5.27   0
  -1   2  15   35.68    7.34   0
   0  -2 -15   19.60    4.95   0
   0   2  15   19.69    5.20   0
  -1  -2 -15    9.98    6.89   0
   1   2  15   20.58    6.95   0
  -2  -2 -15   37.10    6.92   0
   2   2  15   25.26    5.18   0
  -3  -2 -15   12.84    6.88   0
   3   2  15   10.39   12.36   0
   3   2  15    6.90    7.21   0
   3   2  15   17.60   13.16   0
   4   2  15    7.97   11.78   0
   4   2  15    6.72    9.11   0
   4   2  15    1.34    7.56   0
   4   2  15   -2.32    5.12   0
   5   2  15    5.25   10.40   0
   5   2  15    6.32    9.69   0
   5   2  15    2.00    8.40   0
   5   2  15    9.99    7.71   0
  -3   3  15    5.43    7.83   0
   3  -3 -15   10.09    7.71   0
   2  -3 -15    2.57    7.30   0
  -2   3  15    5.28    7.48   0
   1  -3 -15   43.55    7.30   0
  -1   3  15   18.53    7.52   0
   0  -3 -15   47.81    7.14   0
   0   3  15   40.94    7.38   0
  -1  -3 -15   -6.46    6.83   0
   1   3  15    9.03    6.95   0
  -2  -3 -15   23.56    6.61   0
   2   3  15   25.99    7.21   0
  -3  -3 -15   10.85    6.70   0
   3   3  15   24.26    7.44   0
   4   3  15   -3.60   11.44   0
   4   3  15    0.98   11.28   0
   4   3  15    4.33    5.24   0
   4   3  15    0.94    7.39   0
   5   3  15    3.50   11.38   0
   5   3  15    3.44    5.77   0
   5   3  15    9.82   11.90   0
   5   3  15    5.29    5.35   0
  -3   4  15   15.47    8.46   0
   3  -4 -15   24.96    8.11   0
  -2   4  15   13.84    7.86   0
   2  -4 -15   14.93    7.54   0
   1  -4 -15    5.87    7.37   0
  -1   4  15    4.87    7.29   0
   0  -4 -15   37.56    7.12   0
   0   4  15   29.06    7.47   0
  -1  -4 -15   59.43    7.38   0
   1   4  15   42.36    5.92   0
  -2  -4 -15    2.02    6.79   0
   2   4  15    5.30    7.14   0
  -3  -4 -15    8.05    6.85   0
   3   4  15    6.83    7.74   0
   4   4  15   19.31   13.43   0
   4   4  15   16.00   12.63   0
   4   4  15   13.73    8.07   0
   4   4  15   14.04    7.77   0
   5   4  15   12.10   11.76   0
   5   4  15   -3.82    8.62   0
   5   4  15    6.81    7.50   0
   5   4  15   -3.69   12.06   0
  -2   5  15   13.91    8.21   0
   2  -5 -15   14.52    7.79   0
  -1   5  15   33.41    7.97   0
   1  -5 -15   36.03    7.71   0
   0  -5 -15    7.15    6.99   0
   0   5  15    3.87    7.59   0
  -1  -5 -15   24.25    7.25   0
   1   5  15   21.42    7.42   0
  -2  -5 -15   20.36    7.16   0
   2   5  15   26.94    7.79   0
   3   5  15    5.06    7.73   0
   4   5  15    2.39    8.30   0
   4   5  15    8.19    7.97   0
   5   5  15    3.00   11.38   0
   5   5  15   -3.12   12.24   0
   5   5  15   -1.92    8.50   0
   5   5  15    7.15    8.01   0
  -1   6  15    1.39    8.25   0
   1  -6 -15    5.45    7.85   0
   0   6  15   -1.53    7.92   0
   0  -6 -15    6.51    7.57   0
  -1  -6 -15   -3.93    7.37   0
   1   6  15    1.83    9.34   0
  -2  -6 -15   15.06    7.17   0
   2   6  15    9.63    9.69   0
   3   6  15    4.23    8.07   0
   3   6  15   -0.08    7.84   0
   4   6  15    2.77    8.28   0
   4   6  15   -0.45    8.04   0
   5   6  15    2.11    8.81   0
   5   6  15    2.05   10.07   0
   5   6  15    4.67   12.06   0
   5   6  15    5.12   11.66   0
   0   7  15    4.38    8.46   0
   0  -7 -15    6.05    7.98   0
   1   7  15    6.30   10.05   0
  -1  -7 -15    8.49    7.95   0
   2   7  15    0.87   10.34   0
   3   7  15    7.65   10.55   0
   3   7  15    7.80   10.06   0
   4   7  15    1.39   10.58   0
   4   7  15    3.33    9.93   0
   2   2 -16    9.63    9.95   0
  -2  -2  16   16.22   12.80   0
   2   2 -16   21.80    5.32   0
  -2  -2  16   22.87    7.95   0
  -1  -2  16   17.76    9.86   0
   1   2 -16   15.97    7.45   0
  -1  -2  16   21.02    7.73   0
   1   2 -16   18.12    9.16   0
   0   2 -16    1.77    7.45   0
   0  -2  16    0.36    9.98   0
   0  -2  16    7.18    5.45   0
   0   2 -16    6.33    9.01   0
   1  -2  16   47.42   10.03   0
  -1   2 -16   62.48    7.77   0
  -1   2 -16   37.98    9.38   0
   1  -2  16   41.25    8.13   0
   3   1 -16    5.87   11.61   0
   3   1 -16    8.48    8.89   0
   3   1 -16   -1.38    8.00   0
  -3  -1  16    8.67    8.19   0
   2   1 -16   14.69   11.38   0
   2   1 -16   19.02    7.40   0
  -2  -1  16    9.77   10.19   0
  -2  -1  16   18.60    7.74   0
   1   1 -16   92.25    7.84   0
  -1  -1  16   86.33    8.09   0
   1   1 -16   83.29   11.79   0
  -1  -1  16   98.48   12.89   0
   0   1 -16   -0.56    7.37   0
   0   1 -16    3.64   10.11   0
   0  -1  16    5.95    7.63   0
   0  -1  16    2.07   11.68   0
   1  -1  16   42.83    9.65   0
  -1   1 -16   43.25    7.32   0
  -1   1 -16   22.86    8.97   0
   1  -1  16   30.40    7.97   0
  -2   1 -16   28.06    5.25   0
  -2   1 -16   42.80   11.07   0
   2  -1  16   51.95    7.47   0
   2  -1  16   42.14   10.23   0
   3   0 -16   28.63   13.70   0
   3   0 -16   35.00    8.02   0
   3   0 -16   24.64   13.07   0
  -3   0  16   26.85    6.10   0
   2   0 -16   10.64    7.50   0
   2   0 -16    0.11   16.57   0
  -2   0  16   -0.64    5.62   0
   2   0 -16    0.12   16.97   0
   1   0 -16   43.24    7.63   0
  -1   0  16   25.95    7.84   0
   0   0 -16   62.67    7.20   0
   0   0  16   58.89   16.20   0
   0   0 -16   43.07   13.93   0
   0   0  16   61.84    5.65   0
  -1   0 -16   15.84    4.95   0
  -1   0 -16    9.14   11.39   0
   1   0  16   19.25   11.41   0
   1   0  16   14.16    5.52   0
   2   0  16   28.03   11.67   0
  -2   0 -16   27.62    7.16   0
  -2   0 -16   18.13   10.35   0
   2   0  16   25.93    7.52   0
  -3   0 -16   35.86    8.92   0
   3   0  16   38.53   12.05   0
   3   0  16   33.90    7.94   0
   3  -1 -16   14.80    7.79   0
  -3   1  16    9.28    5.65   0
   2  -1 -16   41.01    7.78   0
  -2   1  16   42.38    7.74   0
   1  -1 -16    8.02    7.24   0
  -1   1  16   -2.89    7.60   0
   0  -1 -16   53.93    7.35   0
   0   1  16   49.57    7.64   0
  -1  -1 -16   62.16    7.38   0
   1   1  16   54.83    5.36   0
   2   1  16    0.89   12.75   0
   2   1  16   -0.80   14.84   0
  -2  -1 -16   -4.92    7.10   0
   2   1  16    0.16    5.26   0
  -3  -1 -16    7.10    7.18   0
   3   1  16   10.09    7.49   0
   3   1  16    7.12   11.46   0
   3   1  16   14.80    9.86   0
   4   1  16   11.56    8.26   0
   4   1  16    1.96    9.82   0
   4   1  16    9.30    7.89   0
   4   1  16    5.80   10.58   0
   3  -2 -16    5.23    5.37   0
  -3   2  16   -2.58    7.99   0
   2  -2 -16   31.58    5.58   0
  -2   2  16   34.70    8.04   0
   1  -2 -16   12.38    7.44   0
  -1   2  16   18.91    7.80   0
   0  -2 -16    7.71    7.23   0
   0   2  16    1.92    7.53   0
  -1  -2 -16   38.99    7.28   0
   1   2  16   29.27    5.43   0
  -2  -2 -16   17.96    7.22   0
   2   2  16   20.18    7.40   0
   3   2  16    1.32   13.82   0
  -3  -2 -16    0.72    4.91   0
   3   2  16    3.61    7.70   0
   3   2  16   -1.65   14.88   0
   4   2  16    4.42    7.66   0
   4   2  16    3.44   12.05   0
   4   2  16    2.62    7.74   0
   4   2  16   16.38   10.46   0
   2  -3 -16   11.99    7.48   0
  -2   3  16    3.55    8.38   0
   1  -3 -16   45.76    7.88   0
  -1   3  16   41.42    7.69   0
   0  -3 -16   12.44    7.21   0
   0   3  16   20.50    7.35   0
  -1  -3 -16   15.44    7.12   0
   1   3  16   10.70    7.48   0
  -2  -3 -16   32.59    7.20   0
   2   3  16   27.47    7.64   0
  -3  -3 -16    8.75    5.06   0
   3   3  16    4.18    7.70   0
   4   3  16    3.86    7.81   0
   4   3  16    1.21   13.10   0
   4   3  16    5.89    7.79   0
   4   3  16   -0.38   11.89   0
  -2   4  16   11.74    5.82   0
   2  -4 -16    9.08    8.10   0
   1  -4 -16    8.14    7.61   0
  -1   4  16    9.58    7.75   0
   0  -4 -16   33.89    7.55   0
   0   4  16   23.29    7.53   0
  -1  -4 -16   17.68    7.12   0
   1   4  16   12.66    7.31   0
  -2  -4 -16    8.06    7.19   0
   2   4  16    7.73    7.55   0
  -3  -4 -16    4.36    7.09   0
   3   4  16    9.54    7.93   0
   4   4  16    5.52    8.34   0
   4   4  16    7.58    8.19   0
  -1   5  16   -7.83    8.12   0
   1  -5 -16    0.35    7.75   0
   0  -5 -16   18.47    7.74   0
   0   5  16    6.43    8.01   0
  -1  -5 -16    8.16    7.55   0
   1   5  16    7.24    7.99   0
  -2  -5 -16    2.78    7.58   0
   2   5  16    0.74    7.88   0
   3   5  16   12.43    8.09   0
   4   5  16    7.67    8.45   0
   4   5  16    3.11    8.14   0
   0   6  16    4.67   10.44   0
   0  -6 -16    0.75    8.14   0
  -1  -6 -16   33.23    8.05   0
   1   6  16   18.43    8.32   0
  -2  -6 -16   16.40    7.61   0
   2   6  16    7.51   10.09   0
   3   6  16    5.02    8.76   0
   3   6  16   -2.86    8.30   0
   1   1 -17   33.09    7.65   0
  -1  -1  17   47.20   12.97   0
   1   1 -17   35.19   11.37   0
  -1  -1  17   36.66    8.08   0
   0  -1  17    2.06   12.27   0
   0   1 -17   11.66    7.74   0
   0   1 -17    1.18   11.00   0
   0  -1  17   -0.87    8.16   0
   2   0 -17   -5.25    7.63   0
  -2   0  17   -1.66    8.11   0
   1   0 -17   19.38    7.70   0
  -1   0  17    8.94    8.02   0
   0   0 -17   51.41    7.67   0
   0   0  17   55.53    8.04   0
   1   0  17    6.63   15.77   0
  -1   0 -17    1.07   12.40   0
  -1   0 -17    5.22    7.38   0
   1   0  17    1.66    7.49   0
   2   0  17   17.51   12.25   0
  -2   0 -17   14.71    5.36   0
  -2   0 -17    1.91   11.04   0
   2   0  17    7.57    5.65   0
   2  -1 -17   -0.95    7.68   0
  -2   1  17    3.78    5.78   0
   1  -1 -17   20.69    5.32   0
  -1   1  17   26.18    5.91   0
   0  -1 -17    8.59    5.16   0
   0   1  17    3.79    7.69   0
  -1  -1 -17   -1.38    7.47   0
   1   1  17    9.00    7.71   0
  -2  -1 -17   -3.80    5.33   0
   2   1  17    7.30    7.75   0
   2  -2 -17    8.51    5.47   0
  -2   2  17    5.91    8.10   0
   1  -2 -17   -9.09    7.35   0
  -1   2  17    5.03    5.78   0
   0  -2 -17   16.03    7.67   0
   0   2  17   29.65    8.22   0
  -1  -2 -17   66.98    7.80   0
   1   2  17   52.44    8.15   0
  -2  -2 -17   -1.85    7.72   0
   2   2  17    7.57    5.62   0
  -3  -2 -17    7.91    7.59   0
   3   2  17   10.30    8.36   0
   1  -3 -17   30.77    8.03   0
  -1   3  17   26.51    6.14   0
   0  -3 -17    6.69    7.53   0
   0   3  17    1.83    7.91   0
  -1  -3 -17   23.39    7.80   0
   1   3  17   21.51    8.21   0
  -2  -3 -17   21.61    5.70   0
   2   3  17   28.32    8.06   0
  -3  -3 -17    6.61    7.46   0
   3   3  17    6.51    5.75   0
   1  -4 -17    3.56    7.76   0
  -1   4  17    8.23    8.13   0
   0  -4 -17   11.60    7.77   0
   0   4  17    8.09    5.79   0
  -1  -4 -17    1.43    7.22   0
   1   4  17    5.13    7.63   0
  -2  -4 -17   12.55    7.65   0
   2   4  17   17.51    7.95   0
  -3  -4 -17    4.73    7.58   0
   3   4  17    4.21    7.81   0
  -1  -5 -17   -3.64    8.27   0
   1   5  17    5.61    8.43   0
  -2  -5 -17    0.08    7.94   0
   2   5  17    2.34    8.45   0
   3   5  17    0.19    8.40   0
;
_shelx_hkl_checksum              53249
_shelx_res_file
;
TITL shelxt_a.res in P-1
    shelx.res
    created by SHELXL-2016/6 at 01:18:37 on 30-Nov-2017
CELL  0.71073   6.9218   8.4985  14.0644   78.298   85.513   69.102
ZERR     2.00   0.0034   0.0032   0.0049    0.029    0.034    0.032
LATT   1
SFAC  C    H    BR   N    O
UNIT  30 32 2 2 8
MERG   2
OMIT    -2.00  53.00
EQIV $1 -X,1-Y,1-Z
HTAB  O2 O1
HTAB  O2 N1
HTAB  C15 BR01_$1
HTAB O2 O1
HTAB O2 N1
HTAB C8 O4B
HTAB C10 O4A
HTAB C15 Br01_$1
FMAP   2
PLAN    5
ACTA
BOND
BOND   $H
CONF
LIST   6
WPDB   2
L.S.  10
WGHT    0.066200
FVAR       0.66711   0.27312
PART    1
O4A   5    0.267642    0.998037    0.522687    21.00000    0.04652    0.06948 =
         0.14818   -0.00082    0.00373   -0.03328
PART    2
O4B   5    0.266502    0.990936    0.473649   -21.00000    0.07471    0.04374 =
         0.25675    0.01859   -0.07726   -0.02237
PART    0
BR01  3    0.163833    0.867732    0.096330    11.00000    0.09490    0.04413 =
         0.03988    0.00424   -0.00083   -0.00311
O2    5    0.354439    0.300300    0.445832    11.00000    0.07809    0.03059 =
         0.03992   -0.00282   -0.00626   -0.00992
AFIX  83
H2    2    0.326710    0.340164    0.495697    11.00000   -1.50000
AFIX   0
O3    5    0.329097    0.494593    0.102869    11.00000    0.06831    0.04738 =
         0.03779   -0.00899    0.00032   -0.00970
O1    5    0.312816    0.259376    0.687050    11.00000    0.07968    0.03459 =
         0.04806   -0.00280   -0.00538   -0.01075
N1    4    0.223595    0.529629    0.553993    11.00000    0.04449    0.03659 =
         0.03584   -0.00561   -0.00467   -0.01275
C4    1    0.311871    0.423085    0.371799    11.00000    0.04412    0.03435 =
         0.03993   -0.00484   -0.00473   -0.01010
C5    1    0.229487    0.599179    0.382951    11.00000    0.04351    0.03187 =
         0.04017   -0.00393   -0.00374   -0.01062
C2    1    0.301924    0.517956    0.196592    11.00000    0.04379    0.04429 =
         0.03549   -0.00829   -0.00220   -0.00993
C8    1    0.187194    0.645273    0.474312    11.00000    0.04210    0.03394 =
         0.04196   -0.00532   -0.00489   -0.01190
AFIX  43
H8    2    0.131949    0.760763    0.478454    11.00000   -1.20000
AFIX   0
C14   1    0.241941    0.407397    0.722419    11.00000    0.04857    0.04040 =
         0.04222   -0.00564   -0.00581   -0.01197
C6    1    0.187542    0.730089    0.298800    11.00000    0.05286    0.02959 =
         0.04114   -0.00583   -0.00433   -0.00712
AFIX  43
H6    2    0.135573    0.844418    0.305509    11.00000   -1.20000
AFIX   0
C9    1    0.191281    0.556293    0.650973    11.00000    0.03835    0.04160 =
         0.03704   -0.00761   -0.00291   -0.01511
C10   1    0.116596    0.714650    0.677169    11.00000    0.05274    0.04011 =
         0.04489   -0.01020   -0.00452   -0.01259
AFIX  43
H10   2    0.082481    0.813821    0.629793    11.00000   -1.20000
AFIX   0
C3    1    0.345331    0.389041    0.276558    11.00000    0.05022    0.03189 =
         0.04680   -0.00868   -0.00479   -0.00600
AFIX  43
H3    2    0.398395    0.275763    0.267889    11.00000   -1.20000
AFIX   0
C7    1    0.222089    0.691041    0.208657    11.00000    0.05092    0.03232 =
         0.03920    0.00396   -0.00455   -0.00514
C11   1    0.092435    0.725584    0.774750    11.00000    0.06060    0.05254 =
         0.05667   -0.02242   -0.00059   -0.01624
AFIX  43
H11   2    0.042377    0.832531    0.792726    11.00000   -1.20000
AFIX   0
C1    1    0.415119    0.322432    0.086567    11.00000    0.07530    0.05615 =
         0.04573   -0.01943   -0.00117   -0.01139
AFIX  33
H1A   2    0.426318    0.323287    0.018012    11.00000   -1.50000
H1B   2    0.549855    0.268133    0.115233    11.00000   -1.50000
H1C   2    0.326988    0.260190    0.115503    11.00000   -1.50000
AFIX   0
C13   1    0.216309    0.419684    0.819277    11.00000    0.06091    0.05542 =
         0.04216    0.00288   -0.00616   -0.01790
AFIX  43
H13   2    0.248926    0.320906    0.866917    11.00000   -1.20000
AFIX   0
C12   1    0.142146    0.578950    0.845235    11.00000    0.06364    0.06678 =
         0.03819   -0.01444   -0.00256   -0.01797
AFIX  43
H12   2    0.125648    0.587391    0.910488    11.00000   -1.20000
AFIX   0
C15   1    0.372152    0.100043    0.752989    11.00000    0.09720    0.03885 =
         0.08139    0.00556   -0.00865   -0.01295
AFIX  33
H15A  2    0.418462    0.007972    0.717331    11.00000   -1.50000
H15C  2    0.482225    0.092343    0.793208    11.00000   -1.50000
H15B  2    0.255889    0.092080    0.793013    11.00000   -1.50000
AFIX   6
H4A   2    0.275360    1.089784    0.471441    11.00000   -1.50000
H4B   2    0.364529    0.912261    0.488679    11.00000   -1.50000
AFIX   0
HKLF 4
REM  shelxt_a.res in P-1
REM R1 =  0.0512 for    2179 Fo > 4sig(Fo)  and  0.0795 for all    3139 data
REM    206 parameters refined using      0 restraints
END
WGHT      0.0662      0.0000
REM Highest difference peak  0.729,  deepest hole -0.534,  1-sigma level  0.087
Q1    1   0.2393  0.9197  0.0377  11.00000  0.05    0.73
Q2    1   0.0485  0.9558  0.0211  11.00000  0.05    0.65
Q3    1   0.1457  0.8006  0.1574  11.00000  0.05    0.60
Q4    1   0.2373  0.7823  0.1626  11.00000  0.05    0.58
Q5    1   0.1493  0.7776  0.0681  11.00000  0.05    0.48
;
_shelx_res_checksum              80969
loop_
_space_group_symop_operation_xyz
'x, y, z'
'-x, -y, -z'
loop_
_atom_site_type_symbol
_atom_site_label
_atom_site_fract_x
_atom_site_fract_y
_atom_site_fract_z
_atom_site_U_iso_or_equiv
_atom_site_adp_type
_atom_site_calc_flag
_atom_site_occupancy
_atom_site_disorder_assembly
_atom_site_disorder_group
O O4A 0.268(7) 0.998(5) 0.523(5) 0.088(14) Uani d 0.27(9) A 1
O O4B 0.267(3) 0.9909(19) 0.474(4) 0.127(9) Uani d 0.73(9) A 2
Br Br01 0.16383(8) 0.86773(6) 0.09633(3) 0.0673(2) Uani d 1 . .
O O2 0.3544(4) 0.3003(3) 0.44583(18) 0.0523(7) Uani d 1 . .
H H2 0.326710 0.340164 0.495697 0.078 Uiso calc 1 . .
O O3 0.3291(4) 0.4946(4) 0.10287(19) 0.0540(7) Uani d 1 . .
O O1 0.3128(4) 0.2594(4) 0.6870(2) 0.0571(7) Uani d 1 . .
N N1 0.2236(4) 0.5296(4) 0.5540(2) 0.0393(7) Uani d 1 . .
C C4 0.3119(5) 0.4231(5) 0.3718(3) 0.0405(8) Uani d 1 . .
C C5 0.2295(5) 0.5992(5) 0.3830(2) 0.0394(8) Uani d 1 . .
C C2 0.3019(5) 0.5180(5) 0.1966(2) 0.0425(8) Uani d 1 . .
C C8 0.1872(5) 0.6453(5) 0.4743(3) 0.0397(8) Uani d 1 . .
H H8 0.131949 0.760763 0.478454 0.048 Uiso calc 1 . .
C C14 0.2419(5) 0.4074(5) 0.7224(3) 0.0447(9) Uani d 1 . .
C C6 0.1875(5) 0.7301(5) 0.2988(3) 0.0431(8) Uani d 1 . .
H H6 0.135573 0.844418 0.305509 0.052 Uiso calc 1 . .
C C9 0.1913(5) 0.5563(5) 0.6510(2) 0.0385(8) Uani d 1 . .
C C10 0.1166(6) 0.7147(5) 0.6772(3) 0.0463(9) Uani d 1 . .
H H10 0.082481 0.813821 0.629793 0.056 Uiso calc 1 . .
C C3 0.3453(6) 0.3890(5) 0.2766(3) 0.0448(9) Uani d 1 . .
H H3 0.398395 0.275763 0.267889 0.054 Uiso calc 1 . .
C C7 0.2221(6) 0.6910(5) 0.2087(3) 0.0448(9) Uani d 1 . .
C C11 0.0924(6) 0.7256(6) 0.7747(3) 0.0557(10) Uani d 1 . .
H H11 0.042377 0.832531 0.792726 0.067 Uiso calc 1 . .
C C1 0.4151(7) 0.3224(6) 0.0866(3) 0.0607(11) Uani d 1 . .
H H1A 0.426318 0.323287 0.018012 0.091 Uiso calc 1 . .
H H1B 0.549855 0.268133 0.115233 0.091 Uiso calc 1 . .
H H1C 0.326988 0.260190 0.115503 0.091 Uiso calc 1 . .
C C13 0.2163(6) 0.4197(6) 0.8193(3) 0.0550(10) Uani d 1 . .
H H13 0.248926 0.320906 0.866917 0.066 Uiso calc 1 . .
C C12 0.1421(6) 0.5790(6) 0.8452(3) 0.0567(11) Uani d 1 . .
H H12 0.125648 0.587391 0.910488 0.068 Uiso calc 1 . .
C C15 0.3722(9) 0.1000(6) 0.7530(4) 0.0776(15) Uani d 1 . .
H H15A 0.418462 0.007972 0.717331 0.116 Uiso calc 1 . .
H H15C 0.482225 0.092343 0.793208 0.116 Uiso calc 1 . .
H H15B 0.255889 0.092080 0.793013 0.116 Uiso calc 1 . .
H H4A 0.275360 1.089784 0.471441 0.116 Uiso d 1 . .
H H4B 0.364529 0.912261 0.488679 0.116 Uiso d 1 . .
loop_
_atom_site_aniso_label
_atom_site_aniso_U_11
_atom_site_aniso_U_22
_atom_site_aniso_U_33
_atom_site_aniso_U_12
_atom_site_aniso_U_13
_atom_site_aniso_U_23
O4A 0.047(15) 0.069(14) 0.15(3) -0.033(9) 0.004(14) -0.001(15)
O4B 0.075(6) 0.044(5) 0.26(2) -0.022(4) -0.077(9) 0.019(8)
Br01 0.0949(4) 0.0441(3) 0.0399(2) -0.0031(2) -0.00083(19) 0.00424(17)
O2 0.0781(18) 0.0306(13) 0.0399(13) -0.0099(12) -0.0063(12) -0.0028(11)
O3 0.0683(17) 0.0474(16) 0.0378(13) -0.0097(13) 0.0003(12) -0.0090(11)
O1 0.0797(19) 0.0346(15) 0.0481(15) -0.0107(13) -0.0054(13) -0.0028(12)
N1 0.0445(16) 0.0366(16) 0.0358(14) -0.0127(12) -0.0047(12) -0.0056(12)
C4 0.0441(19) 0.0344(19) 0.0399(18) -0.0101(15) -0.0047(14) -0.0048(14)
C5 0.0435(19) 0.0319(18) 0.0402(17) -0.0106(14) -0.0037(14) -0.0039(14)
C2 0.0438(19) 0.044(2) 0.0355(17) -0.0099(15) -0.0022(14) -0.0083(15)
C8 0.0421(18) 0.0339(18) 0.0420(18) -0.0119(14) -0.0049(14) -0.0053(14)
C14 0.049(2) 0.040(2) 0.0422(19) -0.0120(16) -0.0058(15) -0.0056(16)
C6 0.053(2) 0.0296(18) 0.0411(19) -0.0071(15) -0.0043(15) -0.0058(14)
C9 0.0384(18) 0.042(2) 0.0370(17) -0.0151(15) -0.0029(13) -0.0076(15)
C10 0.053(2) 0.040(2) 0.045(2) -0.0126(16) -0.0045(16) -0.0102(16)
C3 0.050(2) 0.0319(19) 0.047(2) -0.0060(15) -0.0048(15) -0.0087(15)
C7 0.051(2) 0.0323(18) 0.0392(18) -0.0051(15) -0.0046(15) 0.0040(15)
C11 0.061(2) 0.053(3) 0.057(2) -0.0162(19) -0.0006(19) -0.022(2)
C1 0.075(3) 0.056(3) 0.046(2) -0.011(2) -0.0012(19) -0.0194(19)
C13 0.061(2) 0.055(3) 0.042(2) -0.0179(19) -0.0062(17) 0.0029(18)
C12 0.064(2) 0.067(3) 0.038(2) -0.018(2) -0.0026(17) -0.0144(19)
C15 0.097(4) 0.039(2) 0.081(3) -0.013(2) -0.009(3) 0.006(2)
loop_
_atom_type_symbol
_atom_type_description
_atom_type_scat_dispersion_real
_atom_type_scat_dispersion_imag
_atom_type_scat_source
C C 0.0033 0.0016 'International Tables Vol C Tables 4.2.6.8 and 6.1.1.4'
H H 0.0000 0.0000 'International Tables Vol C Tables 4.2.6.8 and 6.1.1.4'
Br Br -0.2901 2.4595 'International Tables Vol C Tables 4.2.6.8 and 6.1.1.4'
N N 0.0061 0.0033 'International Tables Vol C Tables 4.2.6.8 and 6.1.1.4'
O O 0.0106 0.0060 'International Tables Vol C Tables 4.2.6.8 and 6.1.1.4'
loop_
_geom_angle_atom_site_label_1
_geom_angle_atom_site_label_2
_geom_angle_atom_site_label_3
_geom_angle
H4A O4A H4B 91.5
H4A O4B H4B 116.8
C4 O2 H2 109.5
C2 O3 C1 117.6(3)
C14 O1 C15 119.2(4)
C8 N1 C9 127.9(3)
O2 C4 C3 120.9(3)
O2 C4 C5 121.3(3)
C3 C4 C5 117.8(3)
C8 C5 C6 119.1(3)
C8 C5 C4 121.9(3)
C6 C5 C4 119.0(3)
O3 C2 C3 125.0(4)
O3 C2 C7 115.3(3)
C3 C2 C7 119.7(3)
N1 C8 C5 121.4(3)
N1 C8 H8 119.3
C5 C8 H8 119.3
O1 C14 C13 125.8(4)
O1 C14 C9 114.3(3)
C13 C14 C9 119.9(4)
C7 C6 C5 121.0(3)
C7 C6 H6 119.5
C5 C6 H6 119.5
C10 C9 C14 120.1(3)
C10 C9 N1 124.5(3)
C14 C9 N1 115.4(3)
C9 C10 C11 119.6(4)
C9 C10 H10 120.2
C11 C10 H10 120.2
C2 C3 C4 121.9(4)
C2 C3 H3 119.1
C4 C3 H3 119.1
C6 C7 C2 120.5(3)
C6 C7 Br01 120.6(3)
C2 C7 Br01 118.8(3)
C12 C11 C10 120.4(4)
C12 C11 H11 119.8
C10 C11 H11 119.8
O3 C1 H1A 109.5
O3 C1 H1B 109.5
H1A C1 H1B 109.5
O3 C1 H1C 109.5
H1A C1 H1C 109.5
H1B C1 H1C 109.5
C12 C13 C14 119.8(4)
C12 C13 H13 120.1
C14 C13 H13 120.1
C11 C12 C13 120.2(4)
C11 C12 H12 119.9
C13 C12 H12 119.9
O1 C15 H15A 109.5
O1 C15 H15C 109.5
H15A C15 H15C 109.5
O1 C15 H15B 109.5
H15A C15 H15B 109.5
H15C C15 H15B 109.5
loop_
_geom_bond_atom_site_label_1
_geom_bond_atom_site_label_2
_geom_bond_distance
O4A H4A 0.96(8)
O4A H4B 0.9759
O4B H4A 0.86(7)
O4B H4B 0.7704
Br01 C7 1.902(3)
O2 C4 1.284(4)
O2 H2 0.8200
O3 C2 1.361(4)
O3 C1 1.429(5)
O1 C14 1.359(5)
O1 C15 1.420(5)
N1 C8 1.306(4)
N1 C9 1.415(5)
C4 C3 1.412(5)
C4 C5 1.436(5)
C5 C8 1.398(5)
C5 C6 1.418(5)
C2 C3 1.369(5)
C2 C7 1.416(5)
C8 H8 0.9300
C14 C13 1.380(5)
C14 C9 1.399(5)
C6 C7 1.357(5)
C6 H6 0.9300
C9 C10 1.374(5)
C10 C11 1.387(6)
C10 H10 0.9300
C3 H3 0.9300
C11 C12 1.379(6)
C11 H11 0.9300
C1 H1A 0.9600
C1 H1B 0.9600
C1 H1C 0.9600
C13 C12 1.380(7)
C13 H13 0.9300
C12 H12 0.9300
C15 H15A 0.9600
C15 H15C 0.9600
C15 H15B 0.9600
loop_
_geom_hbond_atom_site_label_D
_geom_hbond_atom_site_label_H
_geom_hbond_atom_site_label_A
_geom_hbond_site_symmetry_A
_geom_hbond_distance_DH
_geom_hbond_distance_HA
_geom_hbond_distance_DA
_geom_hbond_angle_DHA
O2 H2 O1 . 0.82 2.64 3.340(4) 144
O2 H2 N1 . 0.82 1.84 2.581(4) 149
O4B H4A O2 1_565 0.86 2.01 2.85(2) 166
O4B H4B O2 2_666 0.77 2.23 2.99(3) 170
C8 H8 O4B . 0.93 2.44 3.18(2) 136
C10 H10 O4A . 0.93 2.56 3.31(6) 138
loop_
_geom_torsion_atom_site_label_1
_geom_torsion_atom_site_label_2
_geom_torsion_atom_site_label_3
_geom_torsion_atom_site_label_4
_geom_torsion
O2 C4 C5 C8 -1.6(5)
C3 C4 C5 C8 178.6(3)
O2 C4 C5 C6 179.2(3)
C3 C4 C5 C6 -0.6(5)
C1 O3 C2 C3 -1.9(6)
C1 O3 C2 C7 178.2(4)
C9 N1 C8 C5 179.3(3)
C6 C5 C8 N1 -179.8(3)
C4 C5 C8 N1 1.0(5)
C15 O1 C14 C13 -1.6(6)
C15 O1 C14 C9 179.0(4)
C8 C5 C6 C7 -178.6(4)
C4 C5 C6 C7 0.7(5)
O1 C14 C9 C10 179.6(3)
C13 C14 C9 C10 0.2(6)
O1 C14 C9 N1 -0.6(5)
C13 C14 C9 N1 179.9(3)
C8 N1 C9 C10 -1.1(6)
C8 N1 C9 C14 179.2(3)
C14 C9 C10 C11 0.2(6)
N1 C9 C10 C11 -179.5(3)
O3 C2 C3 C4 -179.6(3)
C7 C2 C3 C4 0.3(6)
O2 C4 C3 C2 -179.7(4)
C5 C4 C3 C2 0.1(5)
C5 C6 C7 C2 -0.3(6)
C5 C6 C7 Br01 179.7(3)
O3 C2 C7 C6 179.7(3)
C3 C2 C7 C6 -0.3(6)
O3 C2 C7 Br01 -0.2(5)
C3 C2 C7 Br01 179.8(3)
C9 C10 C11 C12 -0.2(6)
O1 C14 C13 C12 -179.9(4)
C9 C14 C13 C12 -0.5(6)
C10 C11 C12 C13 -0.1(7)
C14 C13 C12 C11 0.4(6)

_cod_database_fobs_code 1548788
