#------------------------------------------------------------------------------
#$Date: 2018-01-30 09:36:30 +0200 (Tue, 30 Jan 2018) $
#$Revision: 205882 $
#$URL: file:///home/coder/svn-repositories/cod/cif/1/54/88/1548830.cif $
#------------------------------------------------------------------------------
#
# This file is available in the Crystallography Open Database (COD),
# http://www.crystallography.net/. The original data for this entry
# were provided by IUCr Journals, http://journals.iucr.org/.
#
# The file may be used within the scientific community so long as
# proper attribution is given to the journal article from which the
# data were obtained.
#
data_1548830
loop_
_publ_author_name
'Baral, Nilofar'
'Nayak, Sabita'
'Pal, Satyanarayan'
'Mohapatra, Seetaram'
_publ_section_title
;
 5-(2-Chlorophenyl)-3-(2<i>H</i>-chromen-3-yl)-1,2,4-oxadiazole
;
_journal_coeditor_code           SJ4155
_journal_issue                   1
_journal_name_full               IUCrData
_journal_page_first              x180129
_journal_paper_doi               10.1107/S2414314618001293
_journal_volume                  3
_journal_year                    2018
_chemical_formula_iupac          'C17 H11 Cl N2 O2'
_chemical_formula_moiety         'C17 H11 Cl N2 O2'
_chemical_formula_sum            'C17 H11 Cl N2 O2'
_chemical_formula_weight         310.73
_chemical_name_systematic
;
5-(2-Chlorophenyl)-3-(2<i>H</i>-chromen-3-yl)-1,2,4-oxadiazole
;
_space_group_crystal_system      triclinic
_space_group_IT_number           2
_space_group_name_Hall           '-P 1'
_space_group_name_H-M_alt        'P -1'
_symmetry_space_group_name_Hall  '-P 1'
_symmetry_space_group_name_H-M   'P -1'
_atom_sites_solution_hydrogens   geom
_audit_creation_method           SHELXL-2014/7
_cell_angle_alpha                86.035(3)
_cell_angle_beta                 80.227(3)
_cell_angle_gamma                79.352(2)
_cell_formula_units_Z            2
_cell_length_a                   8.7208(4)
_cell_length_b                   8.7703(3)
_cell_length_c                   9.6278(4)
_cell_measurement_reflns_used    2986
_cell_measurement_temperature    296(2)
_cell_measurement_theta_max      26.64
_cell_measurement_theta_min      2.36
_cell_volume                     712.65(5)
_computing_cell_refinement
;
SAINT (Bruker 2014
;
_computing_data_collection
;
APEX2 (Bruker 2014)
;
_computing_data_reduction
;
SAINT (Bruker 2014)
;
_computing_molecular_graphics
;
ORTEP-3 for Windows (Farrugia, 2012) and Mercury (Macrae <i>et al.</i>,
2008)
;
_computing_publication_material
;
WinGX (Farrugia, 2012), publCIF (Westrip, 2010) and PLATON (Spek
2009)
;
_computing_structure_refinement
;
SHELXL2014 (Sheldrick, 2015b)
;
_computing_structure_solution
;
SHELXT2014 (Sheldrick, 2015a)
;
_diffrn_ambient_temperature      296(2)
_diffrn_measured_fraction_theta_full 1.000
_diffrn_measured_fraction_theta_max 0.990
_diffrn_measurement_device_type  'Bruker APEXII'
_diffrn_measurement_method       '\f and \w scans'
_diffrn_radiation_type           MoK\a
_diffrn_radiation_wavelength     0.71073
_diffrn_reflns_av_R_equivalents  0.0275
_diffrn_reflns_limit_h_max       11
_diffrn_reflns_limit_h_min       -11
_diffrn_reflns_limit_k_max       11
_diffrn_reflns_limit_k_min       -11
_diffrn_reflns_limit_l_max       12
_diffrn_reflns_limit_l_min       -12
_diffrn_reflns_number            11000
_diffrn_reflns_theta_full        25.242
_diffrn_reflns_theta_max         28.338
_diffrn_reflns_theta_min         2.148
_diffrn_standards_number         0
_exptl_absorpt_coefficient_mu    0.276
_exptl_absorpt_correction_type   none
_exptl_crystal_colour            colourless
_exptl_crystal_density_diffrn    1.448
_exptl_crystal_description       'rectangular block'
_exptl_crystal_F_000             320
_exptl_crystal_size_max          0.400
_exptl_crystal_size_mid          0.280
_exptl_crystal_size_min          0.200
_refine_diff_density_max         0.378
_refine_diff_density_min         -0.258
_refine_ls_extinction_method     none
_refine_ls_goodness_of_fit_ref   1.110
_refine_ls_hydrogen_treatment    constr
_refine_ls_matrix_type           full
_refine_ls_number_parameters     199
_refine_ls_number_reflns         3518
_refine_ls_number_restraints     0
_refine_ls_restrained_S_all      1.110
_refine_ls_R_factor_all          0.0684
_refine_ls_R_factor_gt           0.0457
_refine_ls_shift/su_max          0.000
_refine_ls_shift/su_mean         0.000
_refine_ls_structure_factor_coef Fsqd
_refine_ls_weighting_details
'w=1/[\s^2^(Fo^2^)+(0.0629P)^2^+0.0537P] where P=(Fo^2^+2Fc^2^)/3'
_refine_ls_weighting_scheme      calc
_refine_ls_wR_factor_gt          0.1222
_refine_ls_wR_factor_ref         0.1344
_reflns_number_gt                2452
_reflns_number_total             3518
_reflns_threshold_expression     'I > 2\s(I)'
_cod_data_source_file            sj4155sup1.cif
_cod_data_source_block           I
_cod_database_code               1548830
_shelx_space_group_comment
;
The symmetry employed for this shelxl refinement is uniquely defined
by the following loop, which should always be used as a source of
symmetry information in preference to the above space-group names.
They are only intended as comments.
;
_shelx_estimated_absorpt_t_min   0.898
_shelx_estimated_absorpt_t_max   0.947
_shelx_hkl_file
;
  -1   0   0   11.16    0.23
  -2   0   0    2.51    0.08
  -2   0   0    2.57    0.08
  -2   0   0    2.52    0.07
  -2   0   0    2.57    0.07
   2   0   0    2.56    0.08
   2   0   0    2.59    0.06
  -3   0   0    0.08    0.02
  -3   0   0    0.07    0.02
  -3   0   0    0.11    0.03
  -3   0   0    0.23    0.03
  -3   0   0    0.28    0.03
   3   0   0    0.10    0.02
   3   0   0    0.11    0.02
   3   0   0    0.13    0.02
   3   0   0    0.08    0.02
  -4   0   0    4.40    0.14
  -4   0   0    4.08    0.15
  -4   0   0    4.50    0.15
  -4   0   0    4.23    0.12
  -4   0   0    4.14    0.13
   4   0   0    4.17    0.14
   4   0   0    4.48    0.16
   4   0   0    4.42    0.16
   4   0   0    4.56    0.11
  -5   0   0    3.85    0.13
  -5   0   0    3.84    0.14
  -5   0   0    4.01    0.15
  -5   0   0    3.79    0.16
  -5   0   0    3.77    0.12
   5   0   0    3.76    0.10
   5   0   0    3.73    0.16
   5   0   0    3.69    0.16
   5   0   0    3.85    0.15
  -6   0   0    1.11    0.07
  -6   0   0    1.03    0.10
  -6   0   0    1.11    0.08
  -6   0   0    1.09    0.07
   6   0   0    1.05    0.09
   6   0   0    1.35    0.11
   6   0   0    1.25    0.09
  -7   0   0   -0.02    0.03
  -7   0   0    0.04    0.03
  -7   0   0    0.03    0.03
   7   0   0    0.05    0.04
   7   0   0    0.05    0.03
  -8   0   0    0.11    0.06
  -8   0   0    0.08    0.04
   8   0   0    0.19    0.06
  -9   0   0    0.31    0.08
   9   0   0    0.49    0.10
 -10   0   0    0.30    0.08
  10   0   0    0.39    0.10
 -11   0   0   -0.02    0.06
 -11   1   0    0.05    0.07
 -10   1   0    0.35    0.09
   9  -1   0    0.42    0.10
  -9   1   0    0.65    0.10
   8  -1   0    1.49    0.14
  -8   1   0    1.34    0.13
   7  -1   0    1.78    0.14
   7  -1   0    1.81    0.13
  -7   1   0    1.85    0.12
  -7   1   0    2.01    0.13
   6  -1   0    0.24    0.05
  -6   1   0    0.18    0.04
  -6   1   0    0.14    0.04
  -6   1   0    0.09    0.04
  -6   1   0    0.14    0.04
   5  -1   0    0.55    0.05
   5  -1   0    0.71    0.08
   5  -1   0    0.51    0.07
  -5   1   0    0.50    0.06
  -5   1   0    0.54    0.07
  -5   1   0    0.58    0.06
  -5   1   0    0.53    0.05
  -5   1   0    0.59    0.07
   4  -1   0    3.95    0.11
   4  -1   0    3.59    0.14
   4  -1   0    3.74    0.15
   4  -1   0    4.00    0.15
  -4   1   0    3.97    0.15
  -4   1   0    3.79    0.12
  -4   1   0    3.73    0.14
  -4   1   0    3.68    0.13
  -4   1   0    3.76    0.14
   3  -1   0    3.11    0.09
   3  -1   0    3.17    0.12
   3  -1   0    3.26    0.12
  -3   1   0    3.39    0.13
  -3   1   0    3.22    0.11
  -3   1   0    3.10    0.09
  -3   1   0    3.31    0.11
  -3   1   0    3.43    0.11
   2  -1   0   42.95    0.74
   2  -1   0   43.29    0.87
  -2   1   0   43.98    0.87
  -2   1   0   42.19    0.83
  -2   1   0   42.12    0.79
  -2   1   0   43.11    0.76
   1  -1   0   13.94    0.26
   1  -1   0   13.92    0.31
  -1   1   0   13.89    0.29
  -1   1   0   14.19    0.31
   0  -1   0   63.60    1.23
   0  -1   0   65.53    1.09
  -1  -1   0   10.94    0.22
  -1  -1   0   11.76    0.21
  -2  -1   0  167.20    2.93
   2   1   0  172.83    3.16
   2   1   0  167.53    3.22
  -3  -1   0    2.60    0.08
  -3  -1   0    2.73    0.08
  -3  -1   0    2.60    0.09
  -3  -1   0    2.56    0.10
   3   1   0    2.63    0.10
   3   1   0    2.57    0.08
  -4  -1   0   10.22    0.28
  -4  -1   0   10.70    0.22
  -4  -1   0   10.66    0.25
  -4  -1   0   10.71    0.24
  -4  -1   0   10.91    0.25
   4   1   0   10.88    0.28
   4   1   0   10.50    0.25
  -5  -1   0   16.71    0.36
  -5  -1   0   16.06    0.40
  -5  -1   0   15.61    0.37
  -5  -1   0   15.45    0.32
  -5  -1   0   16.47    0.36
   5   1   0   16.15    0.37
   5   1   0   15.95    0.41
  -6  -1   0    0.15    0.04
  -6  -1   0    0.14    0.05
  -6  -1   0    0.16    0.04
   6   1   0    0.16    0.05
   6   1   0    0.16    0.05
  -7  -1   0    7.19    0.22
  -7  -1   0    7.32    0.27
   7   1   0    7.42    0.29
   7   1   0    6.74    0.26
  -8  -1   0    0.02    0.04
  -8  -1   0    0.01    0.03
   8   1   0    0.07    0.05
  -9  -1   0    0.16    0.05
  -9  -1   0    0.11    0.06
   9   1   0    0.07    0.07
 -10  -1   0    0.42    0.10
  10   1   0    0.39    0.10
 -11  -1   0    0.37    0.11
  11   1   0    0.43    0.12
 -10   2   0    0.02    0.05
  -9   2   0    0.60    0.10
   8  -2   0    0.46    0.08
  -8   2   0    0.61    0.09
  -8   2   0    0.48    0.09
   7  -2   0    3.61    0.18
  -7   2   0    3.73    0.17
  -7   2   0    3.44    0.16
  -7   2   0    3.70    0.18
   6  -2   0    0.38    0.06
   6  -2   0    0.37    0.06
  -6   2   0    0.39    0.06
  -6   2   0    0.32    0.06
  -6   2   0    0.41    0.06
   5  -2   0    1.08    0.08
   5  -2   0    1.07    0.07
   5  -2   0    1.05    0.06
   5  -2   0    0.98    0.08
  -5   2   0    0.95    0.08
  -5   2   0    1.11    0.09
  -5   2   0    1.10    0.07
  -5   2   0    1.22    0.08
   4  -2   0    2.77    0.10
   4  -2   0    2.72    0.12
   4  -2   0    2.79    0.13
  -4   2   0    2.70    0.11
  -4   2   0    2.81    0.13
  -4   2   0    2.67    0.09
  -4   2   0    2.79    0.13
  -4   2   0    2.52    0.11
   3  -2   0   11.07    0.30
   3  -2   0   10.68    0.27
   3  -2   0   10.37    0.24
  -3   2   0   10.32    0.25
  -3   2   0   10.91    0.30
  -3   2   0   11.03    0.22
  -3   2   0   10.78    0.26
  -3   2   0   10.35    0.28
   2  -2   0    0.00    0.01
  -2   2   0    0.04    0.02
  -2   2   0    0.01    0.01
  -2   2   0    0.02    0.02
  -2   2   0    0.01    0.01
   1  -2   0    2.58    0.10
   1  -2   0    2.51    0.08
  -1   2   0    2.53    0.10
  -1   2   0    2.49    0.06
  -1   2   0    2.47    0.09
  -1   2   0    2.49    0.09
   0  -2   0    2.49    0.08
   0  -2   0    2.55    0.09
   0   2   0    2.50    0.08
   0   2   0    2.62    0.08
  -1  -2   0    4.60    0.10
  -1  -2   0    4.51    0.11
  -1  -2   0    4.60    0.11
   1   2   0    4.64    0.11
   1   2   0    4.62    0.11
  -2  -2   0    1.84    0.06
  -2  -2   0    1.90    0.07
   2   2   0    1.88    0.06
  -3  -2   0    3.10    0.10
  -3  -2   0    3.02    0.11
   3   2   0    3.12    0.11
  -4  -2   0    6.58    0.15
  -4  -2   0    6.72    0.18
  -4  -2   0    6.56    0.15
  -4  -2   0    6.48    0.20
   4   2   0    6.73    0.15
   4   2   0    7.02    0.20
  -5  -2   0   12.99    0.34
  -5  -2   0   12.35    0.28
  -5  -2   0   12.57    0.30
   5   2   0   12.56    0.28
   5   2   0   12.29    0.33
  -6  -2   0   11.45    0.29
  -6  -2   0   10.98    0.33
   6   2   0   10.96    0.33
  -7  -2   0    4.09    0.20
  -7  -2   0    4.26    0.16
   7   2   0    3.63    0.18
  -8  -2   0    1.02    0.10
  -8  -2   0    1.06    0.13
  -9  -2   0    0.26    0.08
  -9  -2   0    0.25    0.06
   9   2   0    0.29    0.09
 -10  -2   0    0.55    0.11
 -10  -2   0    0.29    0.06
  10   2   0    0.66    0.13
 -11  -2   0    0.07    0.08
  11   2   0    0.06    0.08
 -10   3   0   -0.01    0.05
  -9   3   0    0.71    0.10
  -9   3   0    0.73    0.12
  -8   3   0    0.11    0.06
  -8   3   0    0.13    0.05
  -7   3   0    2.13    0.15
  -7   3   0    2.23    0.13
  -7   3   0    2.20    0.13
   6  -3   0    0.44    0.07
   6  -3   0    0.38    0.07
  -6   3   0    0.51    0.08
  -6   3   0    0.38    0.06
  -6   3   0    0.50    0.07
   5  -3   0    2.95    0.13
   5  -3   0    2.60    0.14
   5  -3   0    2.88    0.12
   5  -3   0    2.80    0.11
  -5   3   0    2.92    0.14
  -5   3   0    2.73    0.15
  -5   3   0    3.01    0.13
   4  -3   0    1.54    0.08
   4  -3   0    1.60    0.09
   4  -3   0    1.73    0.08
   4  -3   0    1.81    0.10
  -4   3   0    1.55    0.10
  -4   3   0    1.74    0.10
  -4   3   0    1.63    0.07
   3  -3   0    5.45    0.16
   3  -3   0    5.43    0.17
   3  -3   0    5.64    0.16
  -3   3   0    5.68    0.19
  -3   3   0    5.70    0.13
  -3   3   0    5.58    0.18
   2  -3   0   18.11    0.46
   2  -3   0   18.92    0.38
   2  -3   0   18.52    0.39
  -2   3   0   17.95    0.43
  -2   3   0   18.70    0.41
  -2   3   0   18.60    0.34
   1  -3   0   19.47    0.40
   1  -3   0   19.42    0.40
   1  -3   0   19.21    0.46
  -1   3   0   19.41    0.41
  -1   3   0   19.37    0.43
   0  -3   0    0.36    0.04
   0  -3   0    0.33    0.04
   0   3   0    0.40    0.04
   0   3   0    0.34    0.04
  -1  -3   0    0.56    0.04
  -1  -3   0    0.55    0.04
   1   3   0    0.55    0.04
   1   3   0    0.59    0.04
  -2  -3   0   10.43    0.23
  -2  -3   0   10.20    0.23
  -2  -3   0   10.22    0.23
   2   3   0   10.30    0.22
   2   3   0   10.61    0.22
  -3  -3   0    3.27    0.11
  -3  -3   0    3.04    0.10
  -3  -3   0    2.89    0.08
  -3  -3   0    3.16    0.12
   3   3   0    3.03    0.10
  -4  -3   0    0.01    0.02
  -4  -3   0    0.05    0.02
   4   3   0    0.03    0.02
  -5  -3   0    1.28    0.10
  -5  -3   0    1.26    0.08
   5   3   0    1.24    0.06
   5   3   0    1.26    0.08
  -6  -3   0    0.53    0.06
  -6  -3   0    0.64    0.09
   6   3   0    0.61    0.07
  -7  -3   0    0.04    0.04
  -7  -3   0    0.03    0.03
   7   3   0    0.01    0.03
  -8  -3   0    0.05    0.05
  -8  -3   0    0.06    0.03
   8   3   0    0.07    0.04
  -9  -3   0    0.45    0.07
  -9  -3   0    0.35    0.09
   9   3   0    0.22    0.08
 -10  -3   0    0.56    0.08
 -10  -3   0    0.60    0.12
  10   3   0    0.57    0.12
 -11  -3   0    0.41    0.11
 -11  -3   0    0.19    0.07
  11   3   0    0.28    0.11
  -9   4   0    0.08    0.07
  -8   4   0    0.31    0.09
  -7   4   0    0.15    0.06
  -7   4   0    0.34    0.07
   6  -4   0    0.69    0.10
  -6   4   0    0.87    0.10
  -6   4   0    0.87    0.11
   5  -4   0   -0.01    0.02
   5  -4   0   -0.02    0.03
   5  -4   0    0.01    0.03
   5  -4   0    0.01    0.03
  -5   4   0    0.01    0.03
  -5   4   0    0.03    0.03
   4  -4   0    8.50    0.24
   4  -4   0    8.58    0.24
   4  -4   0    9.09    0.25
   4  -4   0    8.63    0.27
  -4   4   0    8.60    0.28
  -4   4   0    8.56    0.27
   3  -4   0    6.98    0.22
   3  -4   0    6.72    0.21
   3  -4   0    6.87    0.20
  -3   4   0    7.04    0.22
  -3   4   0    6.88    0.23
  -3   4   0    7.06    0.19
   2  -4   0    1.36    0.08
   2  -4   0    1.47    0.09
  -2   4   0    1.31    0.07
  -2   4   0    1.29    0.09
  -2   4   0    1.38    0.09
  -2   4   0    1.18    0.05
   1  -4   0    1.39    0.08
   1  -4   0    1.40    0.08
  -1   4   0    1.23    0.07
  -1   4   0    1.34    0.08
  -1   4   0    1.31    0.08
   0  -4   0   -0.02    0.02
   0  -4   0   -0.01    0.02
   0  -4   0    0.00    0.02
   0   4   0    0.00    0.01
   0   4   0    0.00    0.01
   0   4   0   -0.02    0.01
  -1  -4   0   14.14    0.31
  -1  -4   0   13.94    0.34
  -1  -4   0   13.69    0.31
   1   4   0   13.14    0.30
   1   4   0   13.74    0.32
   1   4   0   13.25    0.31
  -2  -4   0    3.56    0.12
  -2  -4   0    3.57    0.12
  -2  -4   0    3.65    0.13
   2   4   0    3.57    0.11
   2   4   0    3.63    0.13
  -3  -4   0    0.04    0.02
  -3  -4   0    0.04    0.02
  -3  -4   0    0.04    0.02
   3   4   0    0.07    0.02
   3   4   0    0.03    0.02
   3   4   0    0.02    0.01
  -4  -4   0    6.31    0.21
  -4  -4   0    6.35    0.18
  -4  -4   0    6.30    0.14
   4   4   0    6.18    0.18
   4   4   0    6.24    0.17
  -5  -4   0    0.14    0.04
  -5  -4   0    0.12    0.03
   5   4   0    0.11    0.03
   5   4   0    0.06    0.02
  -6  -4   0    0.41    0.08
  -6  -4   0    0.30    0.05
   6   4   0    0.34    0.05
  -7  -4   0    0.04    0.03
  -7  -4   0    0.01    0.04
   7   4   0    0.00    0.03
  -8  -4   0   -0.01    0.03
  -8  -4   0    0.01    0.04
   8   4   0    0.04    0.04
  -9  -4   0   -0.01    0.05
  -9  -4   0    0.00    0.03
 -10  -4   0   -0.01    0.06
 -10  -4   0    0.03    0.04
  10   4   0    0.01    0.07
 -11  -4   0    0.20    0.09
 -11  -4   0    0.35    0.07
  11   4   0    0.18    0.09
  -9   5   0    0.00    0.06
  -8   5   0    0.04    0.05
  -8   5   0    0.05    0.05
  -7   5   0    0.46    0.09
  -7   5   0    0.48    0.10
  -6   5   0    0.81    0.12
  -6   5   0    0.55    0.09
   5  -5   0    7.59    0.25
   5  -5   0    7.66    0.26
   5  -5   0    7.31    0.27
  -5   5   0    8.05    0.30
  -5   5   0    7.81    0.28
   4  -5   0    0.53    0.07
   4  -5   0    0.58    0.08
   4  -5   0    0.64    0.09
  -4   5   0    0.61    0.08
  -4   5   0    0.47    0.08
   3  -5   0    4.54    0.17
   3  -5   0    4.19    0.16
   3  -5   0    4.40    0.18
  -3   5   0    4.29    0.18
  -3   5   0    4.57    0.19
  -3   5   0    4.38    0.15
   2  -5   0    1.29    0.07
   2  -5   0    1.30    0.09
   2  -5   0    1.19    0.09
  -2   5   0    1.17    0.09
  -2   5   0    1.28    0.09
  -2   5   0    1.25    0.08
   1  -5   0    0.07    0.02
   1  -5   0    0.09    0.03
   1  -5   0    0.11    0.04
  -1   5   0    0.08    0.03
  -1   5   0    0.13    0.03
  -1   5   0    0.12    0.03
   0  -5   0    5.37    0.13
   0  -5   0    5.58    0.19
   0  -5   0    5.66    0.19
   0   5   0    5.37    0.18
   0   5   0    5.75    0.18
   0   5   0    5.35    0.18
  -1  -5   0   21.52    0.48
  -1  -5   0   22.35    0.53
  -1  -5   0   22.48    0.49
   1   5   0   22.33    0.47
   1   5   0   22.28    0.49
   1   5   0   21.84    0.49
  -2  -5   0    0.97    0.07
  -2  -5   0    1.08    0.07
  -2  -5   0    1.13    0.08
   2   5   0    1.07    0.06
   2   5   0    1.12    0.08
  -3  -5   0    1.40    0.07
  -3  -5   0    1.37    0.08
  -3  -5   0    1.39    0.09
   3   5   0    1.33    0.08
   3   5   0    1.36    0.06
  -4  -5   0    1.75    0.09
  -4  -5   0    1.70    0.10
   4   5   0    1.87    0.10
  -5  -5   0    1.34    0.11
  -5  -5   0    1.45    0.09
   5   5   0    1.29    0.08
  -6  -5   0    0.65    0.09
  -6  -5   0    0.54    0.07
   6   5   0    0.55    0.07
  -7  -5   0    2.42    0.17
  -7  -5   0    2.36    0.13
  -8  -5   0    0.29    0.06
  -8  -5   0    0.11    0.07
  -9  -5   0    0.24    0.06
  -9  -5   0    0.15    0.08
 -10  -5   0    0.06    0.06
 -10  -5   0    0.17    0.06
 -11  -5   0    0.05    0.08
  11   5   0    0.02    0.07
  -8   6   0    0.48    0.10
  -8   6   0    0.65    0.13
  -7   6   0    0.21    0.07
  -7   6   0    0.17    0.07
   6  -6   0    0.02    0.05
  -6   6   0   -0.02    0.04
  -6   6   0    0.00    0.03
   5  -6   0    0.14    0.05
   5  -6   0    0.01    0.04
  -5   6   0    0.04    0.04
  -5   6   0    0.05    0.04
   4  -6   0    0.07    0.05
   4  -6   0   -0.01    0.04
  -4   6   0    0.00    0.03
  -4   6   0    0.05    0.04
   3  -6   0   38.18    0.80
   3  -6   0   37.89    0.81
  -3   6   0   37.07    0.82
  -3   6   0   38.70    0.87
   2  -6   0    0.22    0.06
   2  -6   0    0.26    0.06
  -2   6   0    0.19    0.05
  -2   6   0    0.14    0.04
  -2   6   0    0.25    0.06
   1  -6   0    0.77    0.09
   1  -6   0    0.89    0.10
  -1   6   0    0.93    0.09
  -1   6   0    0.76    0.09
  -1   6   0    0.87    0.09
   0  -6   0    3.24    0.15
   0  -6   0    2.78    0.14
   0   6   0    3.28    0.14
   0   6   0    3.13    0.14
   0   6   0    3.10    0.14
  -1  -6   0    2.56    0.13
  -1  -6   0    2.32    0.13
   1   6   0    2.38    0.12
   1   6   0    2.88    0.12
  -2  -6   0    4.20    0.17
  -2  -6   0    4.03    0.16
   2   6   0    3.94    0.16
   2   6   0    4.07    0.14
  -3  -6   0    0.01    0.04
  -3  -6   0    0.02    0.03
   3   6   0    0.03    0.03
  -4  -6   0    0.48    0.07
   4   6   0    0.42    0.07
  -5  -6   0    0.68    0.10
   5   6   0    0.85    0.09
  -6  -6   0    0.81    0.11
   6   6   0    0.80    0.09
  -7  -6   0    0.62    0.08
  -7  -6   0    0.82    0.12
  -8  -6   0    0.04    0.04
  -8  -6   0    0.01    0.06
  -9  -6   0    0.18    0.09
 -10  -6   0    0.54    0.12
  -7   7   0    0.38    0.09
  -7   7   0    0.51    0.11
   6  -7   0    0.03    0.05
  -6   7   0    0.06    0.06
  -6   7   0    0.00    0.04
   5  -7   0    0.37    0.08
   5  -7   0    0.60    0.10
  -5   7   0    0.45    0.09
  -5   7   0    0.32    0.08
   4  -7   0    0.77    0.10
   4  -7   0    0.65    0.10
  -4   7   0    0.60    0.10
  -4   7   0    0.71    0.10
   3  -7   0    2.65    0.16
   3  -7   0    2.17    0.14
  -3   7   0    2.81    0.16
  -3   7   0    2.61    0.16
   2  -7   0    1.07    0.12
   2  -7   0    1.05    0.11
  -2   7   0    1.19    0.12
  -2   7   0    1.35    0.13
  -2   7   0    1.28    0.11
   1  -7   0    2.94    0.16
   1  -7   0    3.13    0.16
  -1   7   0    3.36    0.16
  -1   7   0    3.52    0.17
  -1   7   0    3.27    0.16
   0  -7   0    1.59    0.11
   0  -7   0    1.58    0.12
   0   7   0    1.70    0.11
   0   7   0    1.64    0.11
   0   7   0    1.49    0.10
  -1  -7   0    3.34    0.16
  -1  -7   0    3.01    0.16
   1   7   0    3.19    0.15
   1   7   0    3.00    0.14
   1   7   0    3.34    0.15
  -2  -7   0    6.19    0.23
  -2  -7   0    5.75    0.22
   2   7   0    6.25    0.22
  -3  -7   0    0.41    0.08
  -3  -7   0    0.29    0.06
   3   7   0    0.51    0.08
  -4  -7   0    6.54    0.24
   4   7   0    6.48    0.23
  -5  -7   0    0.77    0.10
   5   7   0    0.53    0.08
  -6  -7   0    1.27    0.14
   6   7   0    1.32    0.10
  -7  -7   0    0.19    0.08
   7   7   0    0.16    0.05
  -8  -7   0    0.01    0.06
  -9  -7   0    0.06    0.08
 -10  -7   0    0.33    0.12
   6  -8   0    0.11    0.05
  -6   8   0    0.17    0.08
  -6   8   0    0.11    0.06
   5  -8   0    0.05    0.04
   5  -8   0    0.10    0.07
  -5   8   0    0.09    0.06
  -5   8   0    0.16    0.06
   4  -8   0   -0.04    0.05
   4  -8   0    0.05    0.05
  -4   8   0    0.03    0.04
  -4   8   0    0.06    0.05
   3  -8   0    0.13    0.06
   3  -8   0    0.09    0.06
  -3   8   0    0.09    0.05
  -3   8   0    0.06    0.04
   2  -8   0    1.40    0.14
   2  -8   0    1.68    0.15
  -2   8   0    1.43    0.13
  -2   8   0    1.54    0.13
  -2   8   0    1.27    0.13
   1  -8   0   -0.05    0.04
   1  -8   0   -0.04    0.04
  -1   8   0    0.02    0.03
  -1   8   0   -0.01    0.03
  -1   8   0    0.02    0.03
   0  -8   0    0.72    0.11
   0  -8   0    0.87    0.11
   0   8   0    0.95    0.11
   0   8   0    0.84    0.11
   0   8   0    1.01    0.11
  -1  -8   0    0.12    0.05
  -1  -8   0    0.18    0.06
   1   8   0    0.15    0.05
   1   8   0    0.22    0.05
  -2  -8   0    4.30    0.21
  -2  -8   0    4.26    0.20
   2   8   0    4.80    0.20
  -3  -8   0    6.87    0.27
  -3  -8   0    7.66    0.27
   3   8   0    7.43    0.27
  -4  -8   0    4.08    0.20
   4   8   0    4.56    0.20
  -5  -8   0    0.05    0.06
   5   8   0    0.04    0.04
  -6  -8   0    0.61    0.11
   6   8   0    0.58    0.09
  -7  -8   0    0.41    0.11
   7   8   0    0.26    0.07
  -8  -8   0   -0.04    0.06
  -9  -8   0    0.00    0.07
   5  -9   0    0.21    0.09
   5  -9   0    0.08    0.07
  -5   9   0    0.24    0.08
   4  -9   0    0.53    0.11
  -4   9   0    0.63    0.11
   3  -9   0    0.31    0.07
   3  -9   0    0.44    0.09
  -3   9   0    0.49    0.10
  -3   9   0    0.29    0.07
   2  -9   0    0.42    0.10
   2  -9   0    0.34    0.09
  -2   9   0    0.57    0.10
  -2   9   0    0.45    0.09
   1  -9   0   -0.01    0.05
   1  -9   0    0.02    0.05
  -1   9   0    0.01    0.04
  -1   9   0    0.07    0.05
   0  -9   0    0.14    0.07
   0  -9   0    0.11    0.06
   0   9   0    0.12    0.06
   0   9   0    0.14    0.06
  -1  -9   0    0.01    0.06
  -1  -9   0   -0.02    0.05
   1   9   0    0.06    0.05
  -2  -9   0    0.17    0.07
  -2  -9   0    0.20    0.07
   2   9   0    0.17    0.06
  -3  -9   0    0.30    0.08
  -3  -9   0    0.12    0.06
   3   9   0    0.15    0.06
  -4  -9   0    0.07    0.07
   4   9   0    0.05    0.04
   5   9   0    0.06    0.05
  -6  -9   0    0.22    0.08
   6   9   0    0.28    0.07
  -7  -9   0    1.02    0.16
   7   9   0    0.81    0.11
  -8  -9   0    0.02    0.08
   8   9   0   -0.05    0.04
   4 -10   0    0.05    0.04
   3 -10   0   -0.02    0.06
  -3  10   0    0.00    0.05
   2 -10   0    0.19    0.07
   2 -10   0    0.39    0.09
  -2  10   0    0.27    0.08
   1 -10   0    0.10    0.07
   1 -10   0   -0.01    0.05
  -1  10   0    0.18    0.07
  -1  10   0    0.10    0.06
   0 -10   0    0.26    0.09
   0 -10   0    0.08    0.07
   0  10   0    0.23    0.07
  -1 -10   0   -0.01    0.06
  -1 -10   0   -0.04    0.06
   1  10   0    0.04    0.05
  -2 -10   0    0.32    0.09
  -2 -10   0    0.45    0.11
   2  10   0    0.53    0.10
  -3 -10   0    1.07    0.15
  -3 -10   0    0.96    0.14
   3  10   0    0.95    0.13
  -4 -10   0    0.45    0.11
   4  10   0    0.42    0.09
   5  10   0   -0.03    0.04
  -6 -10   0    0.74    0.14
   6  10   0    0.35    0.09
  -7 -10   0    0.11    0.09
   7  10   0    0.11    0.06
   1 -11   0    0.05    0.07
   0 -11   0    0.41    0.11
   0  11   0    0.41    0.10
  -1 -11   0    0.47    0.11
   1  11   0    0.63    0.12
  -2 -11   0    0.65    0.13
  -2 -11   0    0.50    0.12
   2  11   0    0.45    0.10
  -3 -11   0    0.05    0.08
  -3 -11   0    0.40    0.11
   3  11   0    0.01    0.05
  -4 -11   0    0.37    0.11
   4  11   0    0.29    0.09
   5  11   0   -0.06    0.04
   5  11  -1    0.15    0.07
   4  11  -1    0.01    0.05
   3  11  -1    0.14    0.07
  -3 -11   1    0.12    0.09
   2  11  -1    0.17    0.07
  -2 -11   1    0.09    0.08
  -2 -11   1    0.10    0.08
   1  11  -1    0.24    0.08
  -1 -11   1    0.27    0.10
   0  11  -1    0.19    0.07
   0 -11   1    0.13    0.09
   1 -11   1    0.02    0.07
   7  10  -1    0.04    0.05
  -7 -10   1   -0.03    0.08
   6  10  -1    0.01    0.05
  -6 -10   1    0.03    0.08
   5  10  -1    0.17    0.07
   4  10  -1    0.23    0.07
  -4 -10   1    0.14    0.08
   3  10  -1    3.17    0.19
  -3 -10   1    3.06    0.20
  -3 -10   1    2.89    0.20
   2  10  -1    0.20    0.07
  -2 -10   1    0.09    0.07
  -2 -10   1    0.06    0.07
   1  10  -1    0.26    0.08
  -1 -10   1    0.15    0.07
  -1 -10   1    0.12    0.07
   0  10  -1    0.11    0.06
   0 -10   1    0.15    0.08
   0 -10   1    0.17    0.08
  -1  10  -1    0.54    0.10
  -1  10  -1    0.48    0.09
   1 -10   1    0.56    0.11
   1 -10   1    0.48    0.11
  -2  10  -1    0.03    0.04
  -2  10  -1    0.07    0.06
   2 -10   1   -0.04    0.05
   2 -10   1   -0.05    0.05
  -3  10  -1   -0.02    0.05
  -3  10  -1    0.05    0.05
   3 -10   1    0.03    0.07
   4 -10   1    0.07    0.05
   8   9  -1    0.03    0.05
  -8  -9   1    0.07    0.08
   7   9  -1    0.11    0.05
  -7  -9   1    0.11    0.08
   6   9  -1    0.07    0.05
  -6  -9   1   -0.02    0.06
   5   9  -1    0.33    0.08
   4   9  -1    0.52    0.09
  -4  -9   1    0.49    0.10
   3   9  -1    0.27    0.07
  -3  -9   1    0.31    0.08
  -3  -9   1    0.26    0.08
   2   9  -1    0.81    0.11
  -2  -9   1    0.80    0.12
  -2  -9   1    0.54    0.10
   1   9  -1    2.00    0.14
   1   9  -1    1.94    0.13
  -1  -9   1    1.80    0.17
  -1  -9   1    1.93    0.18
   0   9  -1   -0.02    0.04
   0   9  -1    0.02    0.03
   0  -9   1   -0.02    0.05
   0  -9   1    0.00    0.05
  -1   9  -1    0.21    0.06
  -1   9  -1    0.22    0.07
  -1   9  -1    0.32    0.07
   1  -9   1    0.38    0.09
   1  -9   1    0.28    0.08
  -2   9  -1    1.24    0.15
  -2   9  -1    0.93    0.12
   2  -9   1    0.95    0.12
   2  -9   1    0.89    0.12
  -3   9  -1    1.42    0.16
  -3   9  -1    1.44    0.15
   3  -9   1    1.22    0.15
  -4   9  -1    0.03    0.05
  -4   9  -1    0.12    0.05
   4  -9   1    0.15    0.08
   4  -9   1    0.05    0.05
  -5   9  -1    0.45    0.10
  -5   9  -1    0.30    0.08
   5  -9   1    0.12    0.05
  -9  -8   1    0.16    0.10
  -8  -8   1    0.48    0.12
   7   8  -1    1.00    0.12
  -7  -8   1    1.07    0.15
   6   8  -1    0.45    0.08
  -6  -8   1    0.67    0.12
   5   8  -1    2.88    0.16
   4   8  -1    1.16    0.13
  -4  -8   1    1.09    0.13
   3   8  -1    0.03    0.04
  -3  -8   1   -0.03    0.05
  -3  -8   1    0.06    0.05
   2   8  -1    2.69    0.14
   2   8  -1    2.54    0.15
  -2  -8   1    2.46    0.16
  -2  -8   1    2.86    0.16
   1   8  -1    0.00    0.03
   1   8  -1    0.03    0.03
  -1  -8   1    0.00    0.04
  -1  -8   1   -0.04    0.04
   0   8  -1    0.26    0.06
   0   8  -1    0.20    0.06
   0   8  -1    0.39    0.07
   0  -8   1    0.22    0.07
   0  -8   1    0.21    0.07
  -1   8  -1    2.91    0.16
  -1   8  -1    2.87    0.16
  -1   8  -1    3.03    0.17
   1  -8   1    2.81    0.17
   1  -8   1    2.86    0.17
  -2   8  -1    1.98    0.14
  -2   8  -1    2.09    0.15
  -2   8  -1    2.05    0.13
   2  -8   1    2.10    0.15
   2  -8   1    1.61    0.15
  -3   8  -1    1.94    0.14
  -3   8  -1    1.79    0.15
   3  -8   1    1.85    0.14
   3  -8   1    1.80    0.14
  -4   8  -1    1.20    0.15
  -4   8  -1    0.83    0.11
   4  -8   1    0.74    0.10
   4  -8   1    0.89    0.12
  -5   8  -1    0.32    0.09
  -5   8  -1    0.17    0.06
   5  -8   1    0.16    0.06
   5  -8   1    0.23    0.08
  -6   8  -1    0.05    0.06
  -6   8  -1    0.09    0.06
   6  -8   1    0.03    0.07
   6  -8   1    0.03    0.06
 -10  -7   1   -0.05    0.07
  -9  -7   1    0.40    0.11
  -8  -7   1    0.03    0.07
   7   7  -1    0.05    0.04
  -7  -7   1   -0.01    0.06
   6   7  -1    0.15    0.05
  -6  -7   1    0.23    0.08
   5   7  -1    0.81    0.10
   4   7  -1    0.21    0.06
  -4  -7   1    0.26    0.06
   3   7  -1    0.94    0.11
  -3  -7   1    1.12    0.12
  -3  -7   1    1.06    0.11
   2   7  -1    1.34    0.13
   2   7  -1    1.24    0.09
  -2  -7   1    1.24    0.12
  -2  -7   1    1.40    0.13
   1   7  -1    1.33    0.13
   1   7  -1    1.12    0.09
   1   7  -1    1.09    0.10
  -1  -7   1    1.27    0.12
  -1  -7   1    1.18    0.12
   0   7  -1    0.58    0.08
   0   7  -1    0.43    0.07
   0   7  -1    0.46    0.07
   0  -7   1    0.52    0.08
   0  -7   1    0.55    0.08
  -1   7  -1    2.53    0.14
  -1   7  -1    2.80    0.15
  -1   7  -1    2.59    0.14
   1  -7   1    2.84    0.16
   1  -7   1    2.80    0.15
  -2   7  -1    4.69    0.21
  -2   7  -1    4.77    0.21
  -2   7  -1    4.63    0.19
   2  -7   1    4.67    0.21
   2  -7   1    4.57    0.21
  -3   7  -1    0.05    0.04
  -3   7  -1    0.06    0.04
   3  -7   1    0.19    0.06
   3  -7   1    0.09    0.05
  -4   7  -1    0.13    0.05
  -4   7  -1    0.14    0.05
   4  -7   1    0.07    0.05
   4  -7   1    0.25    0.07
  -5   7  -1    0.21    0.07
  -5   7  -1    0.27    0.08
   5  -7   1    0.12    0.06
   5  -7   1    0.27    0.08
  -6   7  -1    1.82    0.19
  -6   7  -1    1.92    0.15
   6  -7   1    2.15    0.16
  -7   7  -1    0.48    0.10
  -7   7  -1    0.41    0.10
  10   6  -1    0.17    0.09
 -10  -6   1    0.26    0.09
  -9  -6   1    0.07    0.08
  -8  -6   1    0.04    0.06
   7   6  -1    0.95    0.10
  -7  -6   1    1.05    0.14
   6   6  -1    1.44    0.10
  -6  -6   1    1.45    0.15
   5   6  -1    0.55    0.07
  -5  -6   1    0.52    0.09
   4   6  -1    0.03    0.03
  -4  -6   1    0.02    0.04
   3   6  -1    0.02    0.03
  -3  -6   1   -0.01    0.03
  -3  -6   1   -0.04    0.03
   2   6  -1   10.97    0.29
   2   6  -1   11.34    0.31
  -2  -6   1   11.79    0.32
  -2  -6   1   11.27    0.31
   1   6  -1    2.02    0.11
   1   6  -1    1.85    0.11
   1   6  -1    1.93    0.10
  -1  -6   1    1.67    0.11
  -1  -6   1    1.99    0.12
   0   6  -1   -0.01    0.02
   0   6  -1   -0.01    0.02
   0   6  -1    0.00    0.02
   0  -6   1   -0.01    0.03
   0  -6   1    0.03    0.03
  -1   6  -1    1.33    0.10
  -1   6  -1    1.28    0.09
  -1   6  -1    1.12    0.09
   1  -6   1    1.21    0.11
   1  -6   1    1.28    0.10
  -2   6  -1    0.55    0.08
  -2   6  -1    0.52    0.07
  -2   6  -1    0.74    0.09
   2  -6   1    0.52    0.08
   2  -6   1    0.54    0.08
  -3   6  -1    0.00    0.03
  -3   6  -1    0.04    0.03
   3  -6   1   -0.01    0.03
   3  -6   1   -0.11    0.04
  -4   6  -1    0.18    0.05
  -4   6  -1    0.24    0.06
   4  -6   1    0.18    0.06
   4  -6   1    0.11    0.05
  -5   6  -1    0.37    0.07
  -5   6  -1    0.46    0.09
   5  -6   1    0.40    0.08
   5  -6   1    0.35    0.07
  -6   6  -1    1.35    0.15
  -6   6  -1    1.17    0.13
   6  -6   1    1.10    0.13
   6  -6   1    1.13    0.12
  -7   6  -1    0.64    0.11
  -7   6  -1    0.47    0.10
  -8   6  -1    0.26    0.09
  -8   6  -1    0.29    0.08
  10   5  -1    0.64    0.13
 -10  -5   1    0.66    0.12
  -9  -5   1    1.24    0.16
  -8  -5   1    3.98    0.23
  -7  -5   1    0.11    0.06
   6   5  -1    1.03    0.08
  -6  -5   1    0.84    0.11
   5   5  -1    0.28    0.05
  -5  -5   1    0.29    0.06
   4   5  -1    0.20    0.04
  -4  -5   1    0.18    0.04
   3   5  -1    1.69    0.09
  -3  -5   1    1.59    0.09
  -3  -5   1    1.75    0.09
   2   5  -1    0.09    0.02
   2   5  -1    0.04    0.02
   2   5  -1    0.03    0.02
  -2  -5   1    0.03    0.03
  -2  -5   1   -0.01    0.02
   1   5  -1   31.19    0.64
   1   5  -1   31.46    0.63
   1   5  -1   30.60    0.65
  -1  -5   1   32.53    0.64
  -1  -5   1   31.17    0.70
  -1  -5   1   31.39    0.65
   0   5  -1    0.40    0.06
   0   5  -1    0.40    0.05
   0   5  -1    0.28    0.05
   0  -5   1    0.33    0.06
   0  -5   1    0.37    0.06
  -1   5  -1    0.99    0.08
  -1   5  -1    1.00    0.07
  -1   5  -1    1.04    0.08
   1  -5   1    1.13    0.05
   1  -5   1    1.19    0.09
   1  -5   1    0.99    0.08
  -2   5  -1    0.10    0.03
  -2   5  -1    0.11    0.04
  -2   5  -1    0.02    0.02
  -2   5  -1    0.05    0.02
   2  -5   1    0.09    0.03
   2  -5   1    0.11    0.04
   2  -5   1    0.09    0.03
  -3   5  -1    1.14    0.11
  -3   5  -1    1.18    0.08
  -3   5  -1    1.21    0.10
   3  -5   1    1.11    0.09
   3  -5   1    1.05    0.08
   3  -5   1    1.08    0.08
  -4   5  -1    2.51    0.15
  -4   5  -1    2.16    0.13
   4  -5   1    2.55    0.13
   4  -5   1    2.31    0.13
   4  -5   1    2.31    0.13
  -5   5  -1    4.52    0.21
  -5   5  -1    5.23    0.24
   5  -5   1    4.82    0.20
   5  -5   1    4.96    0.21
   5  -5   1    5.10    0.19
  -6   5  -1    1.32    0.13
  -6   5  -1    1.62    0.16
   6  -5   1    1.90    0.14
   6  -5   1    1.57    0.12
  -7   5  -1    0.07    0.05
  -7   5  -1   -0.01    0.04
  -8   5  -1    0.19    0.06
  -8   5  -1    0.03    0.05
  -9   5  -1    0.27    0.09
  11   4  -1    0.87    0.15
 -11  -4   1    0.96    0.15
  10   4  -1    0.08    0.07
 -10  -4   1    0.06    0.07
   9   4  -1    0.08    0.06
  -9  -4   1    0.16    0.07
  -8  -4   1    2.45    0.17
  -8  -4   1    2.57    0.14
   7   4  -1    1.15    0.09
  -7  -4   1    0.85    0.11
  -7  -4   1    0.90    0.09
   6   4  -1    7.63    0.25
   6   4  -1    7.62    0.22
  -6  -4   1    7.91    0.28
  -6  -4   1    7.95    0.23
   5   4  -1    0.27    0.04
   5   4  -1    0.25    0.04
  -5  -4   1    0.16    0.05
   4   4  -1    5.86    0.18
   4   4  -1    6.14    0.18
  -4  -4   1    6.00    0.20
  -4  -4   1    6.10    0.17
  -4  -4   1    6.37    0.17
   3   4  -1   10.38    0.26
   3   4  -1   10.36    0.24
  -3  -4   1   10.37    0.26
  -3  -4   1   10.24    0.25
  -3  -4   1   10.33    0.25
   2   4  -1   10.34    0.26
   2   4  -1   10.20    0.23
   2   4  -1   10.53    0.24
  -2  -4   1   10.94    0.26
  -2  -4   1   10.55    0.25
   1   4  -1    1.81    0.08
   1   4  -1    1.82    0.09
   1   4  -1    1.75    0.08
  -1  -4   1    1.74    0.09
  -1  -4   1    1.68    0.09
   0   4  -1    1.13    0.07
   0   4  -1    1.08    0.07
   0   4  -1    1.21    0.07
   0  -4   1    1.10    0.07
   0  -4   1    1.21    0.07
  -1   4  -1   13.04    0.30
  -1   4  -1   12.81    0.33
  -1   4  -1   13.17    0.32
   1  -4   1   13.03    0.29
   1  -4   1   12.88    0.31
   1  -4   1   13.04    0.31
  -2   4  -1   13.53    0.35
  -2   4  -1   12.70    0.30
  -2   4  -1   13.18    0.33
  -2   4  -1   12.87    0.27
   2  -4   1   12.55    0.31
   2  -4   1   13.24    0.32
   2  -4   1   13.14    0.31
  -3   4  -1    2.70    0.14
  -3   4  -1    2.67    0.13
  -3   4  -1    2.68    0.10
  -3   4  -1    2.74    0.09
   3  -4   1    2.71    0.12
   3  -4   1    2.76    0.12
   3  -4   1    2.84    0.12
  -4   4  -1    0.18    0.05
  -4   4  -1    0.21    0.05
   4  -4   1    0.25    0.05
   4  -4   1    0.22    0.05
   4  -4   1    0.19    0.04
  -5   4  -1    5.35    0.23
  -5   4  -1    5.38    0.21
   5  -4   1    5.68    0.22
   5  -4   1    5.30    0.18
   5  -4   1    5.58    0.20
  -6   4  -1    6.36    0.24
  -6   4  -1    5.71    0.25
   6  -4   1    6.45    0.22
   6  -4   1    6.01    0.25
  -7   4  -1    0.70    0.11
  -7   4  -1    0.77    0.10
  -8   4  -1    1.48    0.16
  -8   4  -1    1.27    0.13
  -9   4  -1   -0.05    0.05
  11   3  -1    0.00    0.07
 -11  -3   1   -0.09    0.06
  10   3  -1   -0.04    0.06
 -10  -3   1    0.01    0.06
 -10  -3   1   -0.02    0.04
   9   3  -1    0.06    0.06
  -9  -3   1    0.10    0.07
  -9  -3   1    0.05    0.04
   8   3  -1    0.36    0.09
   8   3  -1    0.53    0.08
  -8  -3   1    0.44    0.09
  -8  -3   1    0.41    0.06
   7   3  -1    1.44    0.11
  -7  -3   1    1.40    0.09
  -7  -3   1    1.50    0.12
   6   3  -1    3.20    0.15
  -6  -3   1    3.01    0.16
  -6  -3   1    3.21    0.13
   5   3  -1    3.39    0.14
   5   3  -1    3.28    0.11
  -5  -3   1    3.40    0.15
  -5  -3   1    3.16    0.12
   4   3  -1   35.26    0.73
   4   3  -1   34.93    0.66
  -4  -3   1   35.49    0.68
  -4  -3   1   33.55    0.70
  -4  -3   1   35.33    0.73
   3   3  -1   16.97    0.36
  -3  -3   1   16.46    0.37
  -3  -3   1   17.56    0.34
   2   3  -1   23.23    0.46
   2   3  -1   23.80    0.44
  -2  -3   1   22.17    0.44
   1   3  -1    4.63    0.12
   1   3  -1    4.99    0.13
   1   3  -1    4.78    0.14
  -1  -3   1    4.62    0.13
   0   3  -1    3.27    0.11
   0   3  -1    3.26    0.11
   0  -3   1    3.32    0.11
   0  -3   1    3.36    0.11
  -1   3  -1    0.01    0.02
  -1   3  -1    0.03    0.02
   1  -3   1    0.02    0.01
   1  -3   1    0.03    0.02
   1  -3   1    0.03    0.02
  -2   3  -1   18.76    0.44
  -2   3  -1   19.26    0.42
  -2   3  -1   19.45    0.37
   2  -3   1   19.80    0.40
   2  -3   1   19.24    0.43
   2  -3   1   19.34    0.47
   2  -3   1   19.22    0.40
  -3   3  -1   35.37    0.66
  -3   3  -1   35.59    0.76
  -3   3  -1   35.70    0.72
   3  -3   1   35.69    0.68
   3  -3   1   35.69    0.68
   3  -3   1   35.69    0.75
   3  -3   1   34.45    0.75
  -4   3  -1    6.31    0.23
  -4   3  -1    6.28    0.21
  -4   3  -1    6.56    0.17
   4  -3   1    6.46    0.18
   4  -3   1    6.67    0.19
   4  -3   1    6.54    0.22
   4  -3   1    6.57    0.19
  -5   3  -1    0.98    0.08
  -5   3  -1    1.11    0.09
  -5   3  -1    1.04    0.08
  -5   3  -1    1.07    0.07
   5  -3   1    1.11    0.07
   5  -3   1    0.87    0.09
   5  -3   1    1.01    0.07
   5  -3   1    1.12    0.08
  -6   3  -1    1.65    0.10
  -6   3  -1    1.47    0.11
  -6   3  -1    1.62    0.13
   6  -3   1    1.58    0.12
   6  -3   1    1.50    0.10
  -7   3  -1    0.57    0.08
  -7   3  -1    0.58    0.10
  -7   3  -1    0.57    0.08
  -8   3  -1    0.22    0.07
  -8   3  -1    0.21    0.06
  -9   3  -1    0.13    0.06
  -9   3  -1    0.09    0.07
 -10   3  -1    0.02    0.06
  11   2  -1    0.12    0.09
 -11  -2   1    0.13    0.08
  10   2  -1    0.07    0.07
 -10  -2   1    0.12    0.08
   9   2  -1    0.84    0.14
  -9  -2   1    0.83    0.09
  -9  -2   1    0.82    0.12
   8   2  -1    2.33    0.18
  -8  -2   1    2.36    0.12
  -8  -2   1    2.58    0.17
   7   2  -1    0.07    0.05
  -7  -2   1    0.06    0.03
  -7  -2   1    0.09    0.05
   6   2  -1    0.54    0.07
   6   2  -1    0.53    0.09
  -6  -2   1    0.57    0.06
  -6  -2   1    0.63    0.08
   5   2  -1    1.82    0.10
   5   2  -1    1.97    0.09
  -5  -2   1    2.03    0.12
  -5  -2   1    1.87    0.09
  -5  -2   1    1.92    0.08
   4   2  -1    5.56    0.15
  -4  -2   1    5.50    0.18
  -4  -2   1    5.59    0.16
  -4  -2   1    5.52    0.15
   3   2  -1    0.01    0.01
  -3  -2   1    0.01    0.02
  -3  -2   1    0.02    0.01
  -3  -2   1    0.01    0.01
  -3  -2   1    0.04    0.01
  -2  -2   1   24.43    0.44
  -2  -2   1   24.46    0.50
   1   2  -1   22.14    0.40
  -1  -2   1   21.08    0.40
   0   2  -1   31.14    0.58
   0   2  -1   30.95    0.60
   0   2  -1   31.78    0.59
   0  -2   1   30.33    0.56
  -1   2  -1   28.68    0.58
  -1   2  -1   29.36    0.57
  -1   2  -1   28.78    0.51
  -1   2  -1   27.59    0.55
   1  -2   1   27.94    0.53
   1  -2   1   29.11    0.57
  -2   2  -1    3.41    0.09
  -2   2  -1    3.45    0.12
  -2   2  -1    3.31    0.11
   2  -2   1    3.31    0.11
   2  -2   1    3.45    0.13
   2  -2   1    3.33    0.11
  -3   2  -1   11.11    0.27
  -3   2  -1   11.00    0.26
  -3   2  -1   11.30    0.24
  -3   2  -1   11.14    0.29
   3  -2   1   11.64    0.29
   3  -2   1   11.27    0.26
   3  -2   1   11.09    0.31
  -4   2  -1    1.07    0.07
  -4   2  -1    1.01    0.08
  -4   2  -1    1.26    0.08
  -4   2  -1    1.23    0.06
   4  -2   1    1.06    0.07
   4  -2   1    1.24    0.07
   4  -2   1    1.22    0.08
  -5   2  -1   -0.02    0.02
  -5   2  -1    0.02    0.03
  -5   2  -1   -0.01    0.02
  -5   2  -1    0.01    0.02
   5  -2   1    0.04    0.03
   5  -2   1    0.03    0.03
   5  -2   1    0.00    0.02
  -6   2  -1    0.15    0.04
  -6   2  -1    0.23    0.05
  -6   2  -1    0.17    0.05
  -6   2  -1    0.22    0.05
   6  -2   1    0.29    0.06
   6  -2   1    0.23    0.05
   6  -2   1    0.20    0.04
  -7   2  -1    7.86    0.25
  -7   2  -1    7.44    0.26
  -7   2  -1    8.04    0.29
   7  -2   1    6.91    0.28
  -8   2  -1    5.51    0.25
  -8   2  -1    5.55    0.23
  -9   2  -1    1.06    0.14
  -9   2  -1    0.91    0.12
 -10   2  -1    0.03    0.05
  11   1  -1    0.10    0.08
 -11  -1   1    0.13    0.08
  10   1  -1    0.17    0.08
 -10  -1   1    0.14    0.08
   9   1  -1    1.05    0.15
  -9  -1   1    1.37    0.15
   8   1  -1    0.31    0.08
  -8  -1   1    0.25    0.05
  -8  -1   1    0.32    0.07
   7   1  -1    0.17    0.05
   7   1  -1    0.19    0.06
  -7  -1   1    0.20    0.04
  -7  -1   1    0.20    0.06
   6   1  -1    0.24    0.06
   6   1  -1    0.29    0.06
  -6  -1   1    0.21    0.05
  -6  -1   1    0.26    0.04
   5   1  -1    0.12    0.03
   5   1  -1    0.16    0.05
  -5  -1   1    0.18    0.03
  -5  -1   1    0.12    0.04
  -5  -1   1    0.13    0.03
  -5  -1   1    0.13    0.03
   4   1  -1    3.21    0.14
   4   1  -1    3.11    0.11
  -4  -1   1    3.17    0.10
  -4  -1   1    3.22    0.11
  -4  -1   1    3.06    0.13
  -4  -1   1    3.15    0.11
   3   1  -1    0.09    0.02
  -3  -1   1    0.10    0.03
  -3  -1   1    0.08    0.01
  -3  -1   1    0.06    0.02
  -3  -1   1    0.11    0.02
   2   1  -1   47.29    0.94
  -2  -1   1   48.47    0.94
  -2  -1   1   48.41    0.85
   1   1  -1   98.26    1.89
  -1  -1   1  102.42    1.89
  -1  -1   1   98.79    1.67
  -1   1  -1   17.76    0.33
  -1   1  -1   17.90    0.36
   1  -1   1   17.54    0.36
   1  -1   1   17.79    0.33
  -2   1  -1    1.19    0.06
  -2   1  -1    1.15    0.05
  -2   1  -1    1.19    0.06
  -2   1  -1    1.25    0.06
  -2   1  -1    1.08    0.05
   2  -1   1    1.11    0.05
   2  -1   1    1.20    0.06
  -3   1  -1   20.18    0.43
  -3   1  -1   20.25    0.45
  -3   1  -1   20.47    0.40
  -3   1  -1   20.33    0.42
   3  -1   1   20.06    0.39
   3  -1   1   20.22    0.46
   3  -1   1   20.98    0.46
  -4   1  -1    0.52    0.06
  -4   1  -1    0.61    0.05
  -4   1  -1    0.53    0.05
  -4   1  -1    0.53    0.06
   4  -1   1    0.67    0.06
   4  -1   1    0.52    0.06
   4  -1   1    0.51    0.06
   4  -1   1    0.60    0.05
  -5   1  -1    1.82    0.10
  -5   1  -1    1.92    0.11
  -5   1  -1    2.02    0.10
  -5   1  -1    1.86    0.09
   5  -1   1    1.82    0.08
   5  -1   1    1.78    0.11
   5  -1   1    1.96    0.11
  -6   1  -1    3.02    0.13
  -6   1  -1    3.34    0.16
  -6   1  -1    3.41    0.14
  -6   1  -1    3.34    0.15
   6  -1   1    3.58    0.16
   6  -1   1    3.38    0.12
   6  -1   1    3.22    0.16
  -7   1  -1    2.04    0.14
  -7   1  -1    2.04    0.11
  -7   1  -1    2.16    0.14
   7  -1   1    1.89    0.13
   7  -1   1    2.16    0.14
  -8   1  -1    2.62    0.16
  -8   1  -1    2.38    0.16
   8  -1   1    2.93    0.18
  -9   1  -1    2.41    0.17
 -10   1  -1   -0.06    0.04
 -11   1  -1   -0.02    0.06
  11   0  -1    0.13    0.08
 -11   0   1    0.17    0.09
  10   0  -1    0.21    0.09
 -10   0   1    0.24    0.08
   9   0  -1    0.47    0.11
  -9   0   1    0.35    0.08
   8   0  -1    0.01    0.05
  -8   0   1   -0.01    0.04
   7   0  -1    1.81    0.14
   7   0  -1    1.57    0.12
  -7   0   1    1.71    0.09
  -7   0   1    1.77    0.13
   6   0  -1    3.90    0.18
   6   0  -1    4.35    0.20
  -6   0   1    4.17    0.16
  -6   0   1    3.97    0.17
  -6   0   1    4.19    0.17
  -6   0   1    4.06    0.14
   5   0  -1   14.72    0.38
   5   0  -1   15.29    0.42
  -5   0   1   14.91    0.38
  -5   0   1   15.19    0.33
  -5   0   1   15.49    0.38
  -5   0   1   14.98    0.36
   4   0  -1   11.85    0.31
   4   0  -1   11.57    0.33
   4   0  -1   12.07    0.22
  -4   0   1   11.52    0.30
  -4   0   1   11.70    0.29
  -4   0   1   12.00    0.26
  -4   0   1   12.16    0.29
   3   0  -1    0.04    0.02
   3   0  -1    0.02    0.02
  -3   0   1    0.08    0.02
  -3   0   1    0.02    0.02
  -3   0   1    0.04    0.01
  -3   0   1    0.04    0.02
   2   0  -1    8.50    0.23
   2   0  -1    8.76    0.22
  -2   0   1    9.01    0.21
  -2   0   1    8.72    0.18
  -2   0   1    8.65    0.20
   1   0  -1    0.67    0.04
  -1   0   1    0.66    0.04
  -1   0   1    0.70    0.03
   0   0  -1   21.19    0.42
  -1   0  -1    1.15    0.04
  -1   0  -1    1.18    0.04
  -1   0  -1    1.19    0.04
  -2   0  -1   16.72    0.36
  -2   0  -1   16.20    0.34
  -2   0  -1   16.11    0.32
   2   0   1   17.05    0.36
  -3   0  -1   19.37    0.41
  -3   0  -1   18.61    0.41
  -3   0  -1   19.18    0.38
   3   0   1   18.62    0.41
   3   0   1   20.16    0.43
  -4   0  -1    0.55    0.06
  -4   0  -1    0.49    0.05
  -4   0  -1    0.55    0.04
  -4   0  -1    0.48    0.06
   4   0   1    0.51    0.04
   4   0   1    0.49    0.06
  -5   0  -1    0.34    0.04
  -5   0  -1    0.33    0.05
  -5   0  -1    0.36    0.05
  -5   0  -1    0.32    0.05
   5   0   1    0.33    0.05
   5   0   1    0.26    0.05
   5   0   1    0.30    0.04
   5   0   1    0.28    0.05
  -6   0  -1   11.80    0.29
  -6   0  -1   11.89    0.32
  -6   0  -1   12.11    0.34
  -6   0  -1   11.87    0.30
   6   0   1   12.36    0.37
   6   0   1   11.59    0.35
   6   0   1   11.84    0.33
   6   0   1   12.60    0.28
  -7   0  -1    0.71    0.10
  -7   0  -1    0.67    0.07
  -7   0  -1    0.90    0.09
   7   0   1    0.58    0.08
   7   0   1    0.95    0.11
  -8   0  -1   -0.02    0.04
  -8   0  -1    0.01    0.03
   8   0   1   -0.03    0.04
  -9   0  -1    0.08    0.05
   9   0   1    0.05    0.06
 -10   0  -1    0.02    0.06
 -11   0  -1   -0.07    0.06
  10  -1  -1    0.04    0.07
 -10   1   1    0.01    0.05
   9  -1  -1    0.02    0.05
  -9   1   1    0.05    0.05
   8  -1  -1    0.16    0.06
  -8   1   1    0.18    0.06
   7  -1  -1    0.04    0.04
   7  -1  -1    0.00    0.03
  -7   1   1    0.03    0.04
  -7   1   1    0.05    0.04
   6  -1  -1    0.03    0.04
  -6   1   1    0.04    0.03
  -6   1   1    0.01    0.02
  -6   1   1   -0.01    0.03
  -6   1   1    0.03    0.03
  -6   1   1   -0.01    0.02
   5  -1  -1    0.02    0.03
  -5   1   1   -0.02    0.02
  -5   1   1    0.00    0.02
  -5   1   1   -0.01    0.02
  -5   1   1    0.02    0.02
  -5   1   1    0.00    0.01
   4  -1  -1   38.41    0.83
   4  -1  -1   38.75    0.87
   4  -1  -1   37.71    0.68
  -4   1   1   38.78    0.71
  -4   1   1   38.59    0.83
  -4   1   1   38.29    0.77
  -4   1   1   39.05    0.80
  -4   1   1   38.77    0.74
   3  -1  -1    1.71    0.09
   3  -1  -1    1.57    0.06
   3  -1  -1    1.65    0.09
  -3   1   1    1.78    0.07
  -3   1   1    1.75    0.06
  -3   1   1    1.61    0.08
  -3   1   1    1.70    0.08
  -3   1   1    1.69    0.09
   2  -1  -1    0.01    0.01
   2  -1  -1   -0.01    0.01
   2  -1  -1    0.00    0.01
  -2   1   1    0.00    0.01
  -2   1   1    0.01    0.01
  -2   1   1    0.02    0.01
  -2   1   1    0.00    0.01
   1  -1  -1   19.82    0.35
   1  -1  -1   19.10    0.42
  -1   1   1   19.72    0.42
  -1   1   1   19.54    0.40
   0  -1  -1   49.87    0.83
   0  -1  -1   51.13    0.94
   0   1   1   48.32    0.91
   0   1   1   44.59    0.94
  -1  -1  -1    2.21    0.06
  -1  -1  -1    2.31    0.06
  -2  -1  -1   40.77    0.82
  -2  -1  -1   41.14    0.79
  -2  -1  -1   41.50    0.76
   2   1   1   42.40    0.82
   2   1   1   42.56    0.80
  -3  -1  -1    9.53    0.22
  -3  -1  -1    9.17    0.24
  -3  -1  -1    9.18    0.22
   3   1   1    9.94    0.21
   3   1   1    9.77    0.24
  -4  -1  -1    0.19    0.04
  -4  -1  -1    0.18    0.03
  -4  -1  -1    0.24    0.03
   4   1   1    0.37    0.03
   4   1   1    0.20    0.04
  -5  -1  -1    0.28    0.05
  -5  -1  -1    0.26    0.03
  -5  -1  -1    0.31    0.04
  -5  -1  -1    0.31    0.05
   5   1   1    0.27    0.04
   5   1   1    0.28    0.04
  -6  -1  -1    1.05    0.08
  -6  -1  -1    1.32    0.11
  -6  -1  -1    1.21    0.08
   6   1   1    1.03    0.08
  -7  -1  -1    2.37    0.12
  -7  -1  -1    2.34    0.15
   7   1   1    2.08    0.13
   7   1   1    2.37    0.16
  -8  -1  -1    0.74    0.11
  -8  -1  -1    0.67    0.08
   8   1   1    0.91    0.12
  -9  -1  -1    0.45    0.09
  -9  -1  -1    0.43    0.07
   9   1   1    0.41    0.10
 -10  -1  -1   -0.02    0.06
  10   1   1    0.06    0.07
 -11  -1  -1    0.13    0.08
 -10   2   1   -0.03    0.05
   9  -2  -1    0.59    0.10
  -9   2   1    0.59    0.10
   8  -2  -1    0.01    0.04
  -8   2   1   -0.02    0.04
  -8   2   1   -0.04    0.04
   7  -2  -1    2.60    0.16
  -7   2   1    2.42    0.14
  -7   2   1    2.49    0.15
   6  -2  -1    5.95    0.23
  -6   2   1    5.89    0.23
  -6   2   1    5.93    0.21
  -6   2   1    6.02    0.20
  -6   2   1    5.74    0.24
   5  -2  -1    7.33    0.18
   5  -2  -1    7.19    0.24
   5  -2  -1    7.33    0.19
  -5   2   1    6.93    0.21
  -5   2   1    7.01    0.21
  -5   2   1    6.99    0.24
  -5   2   1    6.81    0.25
   4  -2  -1   11.38    0.31
   4  -2  -1   11.19    0.26
   4  -2  -1   11.31    0.25
  -4   2   1   11.42    0.28
  -4   2   1   11.41    0.33
  -4   2   1   11.48    0.28
  -4   2   1   11.08    0.24
  -4   2   1   11.36    0.31
   3  -2  -1    0.10    0.02
   3  -2  -1    0.07    0.03
   3  -2  -1    0.09    0.02
  -3   2   1    0.09    0.02
  -3   2   1    0.06    0.02
  -3   2   1    0.11    0.03
  -3   2   1    0.08    0.01
  -3   2   1    0.09    0.03
   2  -2  -1   11.76    0.25
   2  -2  -1   11.86    0.29
   2  -2  -1   12.23    0.31
  -2   2   1   11.43    0.29
  -2   2   1   11.65    0.27
  -2   2   1   11.72    0.31
   1  -2  -1   22.64    0.50
   1  -2  -1   21.77    0.43
  -1   2   1   22.56    0.47
  -1   2   1   22.71    0.45
  -1   2   1   23.91    0.50
   0  -2  -1    5.03    0.14
   0   2   1    5.00    0.14
   0   2   1    5.14    0.13
  -1  -2  -1   42.76    0.78
  -1  -2  -1   43.41    0.78
  -1  -2  -1   44.69    0.86
   1   2   1   44.56    0.84
   1   2   1   44.93    0.86
  -2  -2  -1  267.29    4.98
  -2  -2  -1  264.45    4.57
  -2  -2  -1  259.34    5.04
   2   2   1  269.68    5.02
  -3  -2  -1   85.24    1.63
  -3  -2  -1   81.40    1.57
  -3  -2  -1   84.63    1.50
   3   2   1   86.10    1.62
  -4  -2  -1    9.03    0.21
  -4  -2  -1    8.74    0.26
  -4  -2  -1    9.50    0.23
   4   2   1    9.47    0.25
  -5  -2  -1    0.92    0.06
  -5  -2  -1    0.91    0.09
  -5  -2  -1    1.00    0.07
   5   2   1    0.93    0.07
   5   2   1    0.91    0.04
  -6  -2  -1    0.49    0.08
  -6  -2  -1    0.33    0.05
   6   2   1    0.42    0.06
  -7  -2  -1    0.14    0.04
  -7  -2  -1    0.18    0.06
   7   2   1    0.23    0.05
  -8  -2  -1    0.46    0.09
  -8  -2  -1    0.25    0.05
   8   2   1    0.28    0.06
  -9  -2  -1    0.17    0.05
  -9  -2  -1    0.13    0.07
   9   2   1    0.16    0.07
 -10  -2  -1   -0.01    0.04
 -10  -2  -1    0.01    0.06
  10   2   1   -0.05    0.05
 -11  -2  -1    0.51    0.12
  11   2   1    0.66    0.13
 -10   3   1   -0.07    0.05
  -9   3   1    0.11    0.06
  -8   3   1    0.56    0.10
  -8   3   1    0.39    0.07
   7  -3  -1    6.75    0.26
  -7   3   1    6.38    0.27
  -7   3   1    6.90    0.24
  -7   3   1    6.46    0.24
   6  -3  -1   14.08    0.40
   6  -3  -1   12.91    0.41
  -6   3   1   13.79    0.41
  -6   3   1   13.38    0.36
  -6   3   1   14.11    0.36
   5  -3  -1   13.74    0.33
   5  -3  -1   14.55    0.33
   5  -3  -1   14.51    0.39
  -5   3   1   13.87    0.40
  -5   3   1   13.87    0.36
  -5   3   1   14.10    0.42
  -5   3   1   14.23    0.35
   4  -3  -1    2.72    0.11
   4  -3  -1    2.80    0.12
   4  -3  -1    2.43    0.11
  -4   3   1    2.65    0.14
  -4   3   1    2.61    0.12
  -4   3   1    2.39    0.14
   3  -3  -1    0.07    0.02
   3  -3  -1    0.11    0.03
   3  -3  -1    0.11    0.03
  -3   3   1    0.08    0.03
  -3   3   1    0.06    0.03
  -3   3   1    0.07    0.03
  -3   3   1    0.12    0.02
   2  -3  -1    4.53    0.14
   2  -3  -1    4.55    0.14
   2  -3  -1    4.58    0.18
  -2   3   1    4.57    0.18
  -2   3   1    4.70    0.15
  -2   3   1    4.59    0.16
   1  -3  -1    3.12    0.11
   1  -3  -1    3.19    0.13
   1  -3  -1    3.20    0.11
  -1   3   1    3.08    0.13
  -1   3   1    3.59    0.12
   0  -3  -1    1.66    0.08
   0  -3  -1    1.59    0.07
   0  -3  -1    1.65    0.07
   0   3   1    1.71    0.08
   0   3   1    1.66    0.07
  -1  -3  -1   13.95    0.30
  -1  -3  -1   13.27    0.27
  -1  -3  -1   13.36    0.31
   1   3   1   14.16    0.32
   1   3   1   13.55    0.30
  -2  -3  -1   17.11    0.35
  -2  -3  -1   16.48    0.34
  -2  -3  -1   16.40    0.35
  -2  -3  -1   16.67    0.35
   2   3   1   16.74    0.35
   2   3   1   17.11    0.35
  -3  -3  -1   16.08    0.34
  -3  -3  -1   15.18    0.36
  -3  -3  -1   15.62    0.35
   3   3   1   15.56    0.32
  -4  -3  -1    1.30    0.07
  -4  -3  -1    1.35    0.09
   4   3   1    1.38    0.07
  -5  -3  -1    1.87    0.10
  -5  -3  -1    1.85    0.12
   5   3   1    1.95    0.10
  -6  -3  -1    0.63    0.09
  -6  -3  -1    0.41    0.06
   6   3   1    0.62    0.07
  -7  -3  -1    1.72    0.11
  -7  -3  -1    1.51    0.14
   7   3   1    1.67    0.11
  -8  -3  -1    0.27    0.07
  -8  -3  -1    0.13    0.04
   8   3   1    0.09    0.05
  -9  -3  -1    0.54    0.11
  -9  -3  -1    0.42    0.07
 -10  -3  -1    0.81    0.13
 -10  -3  -1    0.72    0.10
  10   3   1    1.11    0.16
 -11  -3  -1    0.27    0.10
 -11  -3  -1    0.24    0.07
  11   3   1    0.34    0.11
  -9   4   1    0.09    0.07
  -8   4   1   -0.03    0.04
  -7   4   1    0.63    0.10
   6  -4  -1    0.32    0.06
   6  -4  -1    0.26    0.06
  -6   4   1    0.24    0.06
  -6   4   1    0.24    0.07
   5  -4  -1    1.04    0.08
   5  -4  -1    0.87    0.08
   5  -4  -1    1.04    0.10
  -5   4   1    0.99    0.10
  -5   4   1    1.14    0.12
   4  -4  -1    2.45    0.11
   4  -4  -1    2.54    0.12
   4  -4  -1    2.55    0.12
  -4   4   1    2.47    0.14
  -4   4   1    2.54    0.15
  -4   4   1    2.25    0.12
   3  -4  -1    0.98    0.07
   3  -4  -1    0.97    0.09
  -3   4   1    1.02    0.09
  -3   4   1    0.87    0.06
  -3   4   1    0.86    0.10
  -3   4   1    1.02    0.10
   2  -4  -1   17.45    0.39
   2  -4  -1   17.56    0.39
  -2   4   1   17.01    0.46
  -2   4   1   17.35    0.43
  -2   4   1   17.03    0.38
  -2   4   1   17.43    0.41
   1  -4  -1   28.31    0.57
   1  -4  -1   28.85    0.57
  -1   4   1   27.97    0.57
  -1   4   1   27.39    0.58
  -1   4   1   28.31    0.65
  -1   4   1   28.16    0.61
   0  -4  -1   31.80    0.63
   0  -4  -1   31.51    0.70
   0  -4  -1   32.33    0.63
   0   4   1   31.21    0.66
   0   4   1   31.79    0.63
   0   4   1   31.79    0.70
  -1  -4  -1    0.57    0.06
  -1  -4  -1    0.41    0.05
  -1  -4  -1    0.44    0.05
   1   4   1    0.43    0.05
   1   4   1    0.43    0.05
   1   4   1    0.51    0.05
  -2  -4  -1    1.29    0.07
  -2  -4  -1    1.31    0.06
  -2  -4  -1    1.31    0.07
  -2  -4  -1    1.35    0.08
  -2  -4  -1    1.25    0.05
   2   4   1    1.05    0.07
   2   4   1    1.24    0.06
  -3  -4  -1    4.45    0.15
  -3  -4  -1    4.39    0.14
  -3  -4  -1    4.30    0.12
  -3  -4  -1    4.46    0.13
   3   4   1    4.16    0.12
   3   4   1    4.25    0.14
  -4  -4  -1    7.31    0.23
  -4  -4  -1    7.62    0.21
   4   4   1    7.39    0.20
   4   4   1    7.33    0.18
  -5  -4  -1    5.17    0.20
  -5  -4  -1    4.72    0.17
   5   4   1    4.85    0.16
   5   4   1    4.80    0.15
  -6  -4  -1    3.43    0.15
  -6  -4  -1    3.44    0.18
   6   4   1    3.36    0.14
  -7  -4  -1    0.98    0.12
  -7  -4  -1    0.93    0.09
   7   4   1    0.94    0.08
  -8  -4  -1    0.19    0.07
  -8  -4  -1    0.23    0.06
   8   4   1    0.21    0.05
  -9  -4  -1    0.06    0.06
  -9  -4  -1    0.07    0.05
 -10  -4  -1    0.56    0.12
 -10  -4  -1    0.49    0.08
 -11  -4  -1    0.30    0.10
 -11  -4  -1    0.21    0.07
  11   4   1    0.24    0.10
  -9   5   1    0.03    0.06
  -8   5   1    0.55    0.11
  -7   5   1    0.00    0.05
   6  -5  -1    2.18    0.13
  -6   5   1    2.50    0.17
  -6   5   1    2.24    0.15
   5  -5  -1    0.54    0.08
   5  -5  -1    0.53    0.08
   5  -5  -1    0.59    0.09
  -5   5   1    0.62    0.09
  -5   5   1    0.55    0.08
   4  -5  -1    7.86    0.25
   4  -5  -1    8.67    0.26
  -4   5   1    8.04    0.27
  -4   5   1    7.85    0.29
   3  -5  -1    0.56    0.07
   3  -5  -1    0.66    0.08
  -3   5   1    0.64    0.09
  -3   5   1    0.55    0.08
  -3   5   1    0.72    0.07
  -3   5   1    0.60    0.08
   2  -5  -1    1.77    0.10
   2  -5  -1    1.89    0.11
  -2   5   1    2.01    0.12
  -2   5   1    1.72    0.11
  -2   5   1    1.80    0.10
  -2   5   1    1.62    0.11
   1  -5  -1    4.64    0.17
   1  -5  -1    4.85    0.18
  -1   5   1    4.76    0.19
  -1   5   1    4.61    0.18
  -1   5   1    4.98    0.18
  -1   5   1    4.81    0.17
   0  -5  -1   30.61    0.63
   0  -5  -1   31.02    0.64
   0   5   1   30.68    0.67
   0   5   1   30.25    0.63
  -1  -5  -1    5.75    0.19
  -1  -5  -1    5.73    0.19
  -1  -5  -1    5.30    0.19
   1   5   1    5.66    0.18
   1   5   1    5.87    0.19
  -2  -5  -1    0.15    0.04
  -2  -5  -1    0.16    0.03
  -2  -5  -1    0.16    0.04
  -2  -5  -1    0.12    0.03
  -2  -5  -1    0.15    0.02
   2   5   1    0.17    0.03
   2   5   1    0.20    0.04
  -3  -5  -1    0.63    0.07
  -3  -5  -1    0.47    0.05
  -3  -5  -1    0.57    0.06
  -3  -5  -1    0.46    0.05
   3   5   1    0.44    0.04
   3   5   1    0.45    0.06
  -4  -5  -1    1.98    0.10
   4   5   1    2.07    0.10
  -5  -5  -1    4.08    0.18
  -5  -5  -1    4.17    0.16
   5   5   1    4.08    0.15
  -6  -5  -1    2.79    0.13
  -6  -5  -1    2.62    0.16
   6   5   1    2.72    0.12
  -7  -5  -1    0.06    0.04
  -7  -5  -1   -0.01    0.04
  -8  -5  -1    1.09    0.11
  -8  -5  -1    1.38    0.16
  -9  -5  -1    0.16    0.05
  -9  -5  -1    0.16    0.08
 -10  -5  -1    0.51    0.09
 -10  -5  -1    0.57    0.12
 -11  -5  -1   -0.02    0.07
  11   5   1   -0.04    0.07
  -8   6   1    0.13    0.07
  -7   6   1    0.38    0.10
   6  -6  -1    0.08    0.06
  -6   6   1    0.08    0.05
   5  -6  -1    0.11    0.05
   5  -6  -1    0.08    0.05
  -5   6   1    0.05    0.04
  -5   6   1    0.05    0.04
   4  -6  -1    1.62    0.14
   4  -6  -1    1.62    0.12
  -4   6   1    1.74    0.13
  -4   6   1    1.87    0.14
   3  -6  -1    2.69    0.15
   3  -6  -1    2.69    0.14
  -3   6   1    2.77    0.16
  -3   6   1    2.51    0.14
   2  -6  -1    5.13    0.20
   2  -6  -1    5.13    0.20
  -2   6   1    5.66    0.22
  -2   6   1    5.36    0.21
  -2   6   1    5.10    0.19
   1  -6  -1    0.23    0.05
   1  -6  -1    0.31    0.06
  -1   6   1    0.29    0.06
  -1   6   1    0.38    0.06
   0  -6  -1    0.17    0.05
   0  -6  -1    0.19    0.05
   0   6   1    0.17    0.05
   0   6   1    0.14    0.04
  -1  -6  -1    0.24    0.05
  -1  -6  -1    0.16    0.05
   1   6   1    0.21    0.04
   1   6   1    0.16    0.04
  -2  -6  -1    0.68    0.08
  -2  -6  -1    0.57    0.08
  -2  -6  -1    0.57    0.07
   2   6   1    0.49    0.06
   2   6   1    0.56    0.07
  -3  -6  -1   13.23    0.33
  -3  -6  -1   13.36    0.35
   3   6   1   12.73    0.34
  -4  -6  -1    0.71    0.09
  -4  -6  -1    0.70    0.07
   4   6   1    0.69    0.08
  -5  -6  -1    0.30    0.05
  -5  -6  -1    0.38    0.07
   5   6   1    0.30    0.06
  -6  -6  -1    0.08    0.04
  -6  -6  -1    0.03    0.04
   6   6   1    0.16    0.04
  -7  -6  -1    0.17    0.05
  -7  -6  -1    0.26    0.08
  -8  -6  -1    0.21    0.06
  -8  -6  -1    0.10    0.07
  -9  -6  -1    0.08    0.08
  -9  -6  -1    0.03    0.04
 -10  -6  -1    0.99    0.16
 -10  -6  -1    0.63    0.10
  -7   7   1    1.47    0.18
   6  -7  -1    0.22    0.07
  -6   7   1    0.30    0.08
   5  -7  -1    0.53    0.09
   5  -7  -1    0.35    0.07
  -5   7   1    0.52    0.10
   4  -7  -1    0.89    0.11
   4  -7  -1    0.83    0.11
  -4   7   1    0.82    0.11
   3  -7  -1    0.00    0.04
   3  -7  -1    0.01    0.04
  -3   7   1   -0.02    0.02
   2  -7  -1    1.19    0.12
   2  -7  -1    1.30    0.13
  -2   7   1    1.31    0.13
  -2   7   1    1.28    0.10
   1  -7  -1    0.33    0.07
   1  -7  -1    0.20    0.07
  -1   7   1    0.38    0.07
  -1   7   1    0.29    0.06
   0  -7  -1    0.06    0.04
   0  -7  -1    0.14    0.05
   0   7   1    0.07    0.04
   0   7   1    0.08    0.03
  -1  -7  -1    0.66    0.09
  -1  -7  -1    0.66    0.09
   1   7   1    0.57    0.07
   1   7   1    0.64    0.09
  -2  -7  -1    0.51    0.08
  -2  -7  -1    0.54    0.08
   2   7   1    0.56    0.08
   2   7   1    0.66    0.07
  -3  -7  -1    0.06    0.05
  -3  -7  -1    0.06    0.04
   3   7   1    0.05    0.04
  -4  -7  -1    2.06    0.14
   4   7   1    1.93    0.12
  -5  -7  -1    0.14    0.06
   5   7   1    0.04    0.04
  -6  -7  -1    0.02    0.03
  -6  -7  -1    0.00    0.05
   6   7   1    0.03    0.03
  -7  -7  -1    0.10    0.06
  -7  -7  -1    0.12    0.05
   7   7   1    0.15    0.05
  -8  -7  -1    0.11    0.05
  -8  -7  -1    0.25    0.09
  -9  -7  -1    0.33    0.07
  -9  -7  -1    0.36    0.11
 -10  -7  -1    0.00    0.08
   6  -8  -1    0.04    0.06
  -6   8   1   -0.03    0.04
   5  -8  -1    1.20    0.15
  -5   8   1    1.17    0.15
   4  -8  -1    2.99    0.19
  -4   8   1    2.79    0.19
   3  -8  -1    0.46    0.09
   3  -8  -1    0.50    0.09
  -3   8   1    0.48    0.09
   2  -8  -1    0.24    0.07
   2  -8  -1    0.25    0.07
  -2   8   1    0.20    0.06
  -2   8   1    0.31    0.07
   1  -8  -1    2.81    0.17
   1  -8  -1    3.03    0.17
  -1   8   1    3.20    0.17
  -1   8   1    2.77    0.16
   0  -8  -1    4.25    0.21
   0  -8  -1    4.57    0.21
   0   8   1    4.76    0.20
   0   8   1    4.65    0.21
  -1  -8  -1    0.97    0.12
  -1  -8  -1    0.96    0.12
   1   8   1    0.93    0.10
   1   8   1    1.03    0.12
  -2  -8  -1    0.05    0.04
  -2  -8  -1    0.09    0.05
   2   8   1    0.04    0.04
  -3  -8  -1    0.46    0.09
  -3  -8  -1    0.56    0.09
   3   8   1    0.56    0.09
  -4  -8  -1    0.20    0.07
   4   8   1    0.14    0.05
   5   8   1    0.53    0.09
  -6  -8  -1    0.10    0.07
   6   8   1    0.11    0.05
  -7  -8  -1    0.05    0.07
   7   8   1    0.03    0.04
  -8  -8  -1    0.17    0.08
  -9  -8  -1    0.01    0.07
   5  -9  -1    0.03    0.06
   5  -9  -1    0.04    0.08
   4  -9  -1    0.07    0.07
   4  -9  -1    0.01    0.06
  -4   9   1    0.08    0.06
   3  -9  -1    0.09    0.07
   3  -9  -1    0.11    0.06
  -3   9   1    0.11    0.06
   2  -9  -1    0.94    0.13
   2  -9  -1    0.76    0.11
  -2   9   1    0.84    0.12
   1  -9  -1    0.94    0.13
   1  -9  -1    1.11    0.13
  -1   9   1    1.26    0.14
  -1   9   1    1.23    0.13
   0  -9  -1    1.95    0.15
   0  -9  -1    1.60    0.16
   0   9   1    2.02    0.14
   0   9   1    1.70    0.13
  -1  -9  -1    0.27    0.08
  -1  -9  -1    0.31    0.09
   1   9   1    0.18    0.06
  -2  -9  -1    0.36    0.09
  -2  -9  -1    0.21    0.07
   2   9   1    0.32    0.08
  -3  -9  -1    0.02    0.06
  -3  -9  -1   -0.01    0.05
   3   9   1    0.02    0.04
  -4  -9  -1    1.90    0.18
   4   9   1    1.82    0.14
  -5  -9  -1    0.08    0.07
   5   9   1    0.02    0.04
  -6  -9  -1    0.01    0.06
   6   9   1   -0.02    0.04
  -7  -9  -1    0.81    0.14
   7   9   1    0.66    0.10
  -8  -9  -1    0.06    0.08
   8   9   1    0.13    0.06
   3 -10  -1    0.14    0.06
  -3  10   1    0.44    0.10
   2 -10  -1    0.12    0.06
   2 -10  -1    0.19    0.08
  -2  10   1    0.17    0.07
   1 -10  -1    1.11    0.15
   1 -10  -1    1.01    0.14
  -1  10   1    1.12    0.14
  -1  10   1    1.16    0.14
   0 -10  -1    0.97    0.14
   0 -10  -1    1.48    0.17
   0  10   1    1.26    0.15
  -1 -10  -1    0.21    0.08
  -1 -10  -1    0.24    0.09
   1  10   1    0.24    0.07
  -2 -10  -1   -0.04    0.05
  -2 -10  -1   -0.05    0.06
   2  10   1    0.02    0.04
  -3 -10  -1    0.26    0.09
  -3 -10  -1    0.47    0.11
   3  10   1    0.46    0.09
  -4 -10  -1    0.58    0.12
   4  10   1    0.59    0.10
  -5 -10  -1    0.05    0.08
   5  10   1    0.03    0.05
  -6 -10  -1    0.09    0.08
   6  10   1   -0.03    0.04
  -7 -10  -1    0.30    0.11
   7  10   1    0.19    0.07
   1 -11  -1    0.08    0.08
   0 -11  -1    0.04    0.07
   0  11   1    0.04    0.06
  -1 -11  -1    0.19    0.09
   1  11   1    0.24    0.08
  -2 -11  -1    0.10    0.08
  -2 -11  -1   -0.02    0.08
   2  11   1    0.10    0.06
  -3 -11  -1    0.03    0.07
  -3 -11  -1    0.17    0.09
   3  11   1    0.13    0.07
  -4 -11  -1   -0.01    0.08
   4  11   1    0.05    0.05
   5  11   1    0.68    0.12
   4  11  -2   -0.01    0.05
   3  11  -2    0.08    0.06
  -3 -11   2    0.15    0.09
   2  11  -2    0.19    0.08
  -2 -11   2    0.36    0.11
  -2 -11   2    0.33    0.11
   1  11  -2    0.65    0.12
  -1 -11   2    0.56    0.12
   0  11  -2    0.27    0.08
   0 -11   2    0.38    0.11
  -1  11  -2    0.17    0.07
   1 -11   2    0.13    0.08
   6  10  -2    0.10    0.06
  -6 -10   2    0.07    0.08
   5  10  -2    0.33    0.09
   4  10  -2   -0.01    0.04
   3  10  -2    0.05    0.05
  -3 -10   2    0.05    0.06
  -3 -10   2    0.11    0.08
   2  10  -2    0.31    0.08
  -2 -10   2    0.39    0.10
  -2 -10   2    0.27    0.09
   1  10  -2    0.67    0.11
  -1 -10   2    0.74    0.12
  -1 -10   2    0.52    0.11
   0  10  -2    1.28    0.14
   0  10  -2    1.05    0.13
   0 -10   2    1.02    0.15
   0 -10   2    1.07    0.15
  -1  10  -2    0.88    0.12
  -1  10  -2    0.88    0.13
   1 -10   2    0.66    0.13
   1 -10   2    0.90    0.14
  -2  10  -2    1.17    0.15
  -2  10  -2    0.92    0.13
   2 -10   2    0.98    0.14
   2 -10   2    0.57    0.10
  -3  10  -2    0.25    0.09
  -3  10  -2    0.26    0.07
   3 -10   2    0.05    0.05
   8   9  -2    0.00    0.05
  -8  -9   2    0.13    0.10
   7   9  -2    0.96    0.13
  -7  -9   2    0.99    0.16
   6   9  -2    0.46    0.09
  -6  -9   2    0.58    0.12
   5   9  -2   -0.02    0.04
   4   9  -2    0.65    0.11
   3   9  -2   -0.02    0.03
  -3  -9   2    0.04    0.06
  -3  -9   2    0.08    0.06
   2   9  -2    0.88    0.12
  -2  -9   2    0.85    0.12
  -2  -9   2    0.99    0.13
   1   9  -2    2.54    0.16
   1   9  -2    2.25    0.15
  -1  -9   2    2.60    0.18
  -1  -9   2    2.50    0.17
   0   9  -2    1.48    0.15
   0   9  -2    1.60    0.15
   0  -9   2    1.42    0.16
   0  -9   2    1.20    0.14
  -1   9  -2    0.52    0.10
  -1   9  -2    0.46    0.09
  -1   9  -2    0.51    0.09
   1  -9   2    0.36    0.09
   1  -9   2    0.40    0.09
  -2   9  -2    0.60    0.10
  -2   9  -2    0.69    0.11
   2  -9   2    0.69    0.11
   2  -9   2    0.52    0.10
  -3   9  -2    0.32    0.08
  -3   9  -2    0.14    0.07
   3  -9   2    0.11    0.07
   3  -9   2    0.14    0.06
  -4   9  -2    1.17    0.15
  -4   9  -2    0.94    0.13
   4  -9   2    0.95    0.14
  -5   9  -2    0.00    0.04
  -5   9  -2    0.01    0.05
   5  -9   2    0.03    0.07
  -8  -8   2    0.27    0.10
   7   8  -2    0.38    0.08
  -7  -8   2    0.34    0.10
   6   8  -2    0.05    0.05
  -6  -8   2    0.11    0.07
   5   8  -2    3.68    0.19
   4   8  -2    0.35    0.08
   3   8  -2    0.10    0.05
  -3  -8   2    0.12    0.06
  -3  -8   2    0.11    0.06
   2   8  -2    0.01    0.03
  -2  -8   2    0.00    0.04
  -2  -8   2   -0.01    0.04
   1   8  -2    2.32    0.13
   1   8  -2    2.27    0.14
  -1  -8   2    2.27    0.15
  -1  -8   2    2.18    0.15
   0   8  -2    0.22    0.06
   0   8  -2    0.14    0.05
   0  -8   2    0.15    0.06
   0  -8   2    0.10    0.06
  -1   8  -2    0.05    0.04
  -1   8  -2    0.05    0.04
  -1   8  -2    0.03    0.04
   1  -8   2    0.04    0.05
   1  -8   2    0.02    0.05
  -2   8  -2    0.06    0.05
  -2   8  -2    0.10    0.05
  -2   8  -2    0.10    0.04
   2  -8   2    0.09    0.06
   2  -8   2    0.04    0.05
  -3   8  -2    0.03    0.04
  -3   8  -2    0.01    0.04
   3  -8   2    0.11    0.06
   3  -8   2    0.01    0.05
  -4   8  -2    0.34    0.07
  -4   8  -2    0.33    0.08
   4  -8   2    0.22    0.06
   4  -8   2    0.17    0.07
  -5   8  -2    0.36    0.08
  -5   8  -2    0.37    0.09
   5  -8   2    0.28    0.08
   5  -8   2    0.22    0.06
  -6   8  -2    1.18    0.14
  -6   8  -2    1.67    0.19
   6  -8   2    1.29    0.16
   6  -8   2    0.64    0.10
  -9  -7   2    0.51    0.13
  -8  -7   2    0.61    0.13
   7   7  -2   -0.01    0.03
  -7  -7   2    0.03    0.06
   6   7  -2    0.08    0.04
  -6  -7   2    0.08    0.06
   5   7  -2    0.64    0.09
   4   7  -2    0.26    0.06
  -4  -7   2    0.17    0.06
   3   7  -2    0.05    0.04
  -3  -7   2    0.03    0.04
  -3  -7   2    0.02    0.04
   2   7  -2    4.45    0.17
   2   7  -2    4.16    0.19
  -2  -7   2    4.53    0.19
  -2  -7   2    4.31    0.19
   1   7  -2    9.51    0.28
   1   7  -2    9.59    0.30
  -1  -7   2    8.93    0.30
  -1  -7   2    9.29    0.30
   0   7  -2    7.20    0.25
   0   7  -2    7.10    0.25
   0   7  -2    6.47    0.23
   0  -7   2    6.72    0.25
   0  -7   2    6.70    0.25
  -1   7  -2    0.25    0.06
  -1   7  -2    0.40    0.07
  -1   7  -2    0.32    0.06
   1  -7   2    0.28    0.07
   1  -7   2    0.20    0.06
  -2   7  -2    2.06    0.14
  -2   7  -2    1.78    0.12
  -2   7  -2    1.82    0.13
   2  -7   2    1.88    0.13
   2  -7   2    1.80    0.13
  -3   7  -2   -0.03    0.02
  -3   7  -2    0.01    0.03
   3  -7   2    0.07    0.05
   3  -7   2   -0.02    0.04
  -4   7  -2    3.12    0.18
  -4   7  -2    3.21    0.19
   4  -7   2    2.87    0.17
   4  -7   2    3.33    0.18
  -5   7  -2    0.64    0.11
  -5   7  -2    0.54    0.10
   5  -7   2    0.45    0.09
   5  -7   2    0.41    0.08
  -6   7  -2    0.01    0.04
  -6   7  -2    0.06    0.05
   6  -7   2    0.05    0.06
   6  -7   2   -0.04    0.05
  -7   7  -2    0.03    0.05
  -7   7  -2   -0.02    0.05
  10   6  -2    0.09    0.08
 -10  -6   2    0.09    0.08
   9   6  -2    0.05    0.07
  -9  -6   2    0.00    0.07
  -8  -6   2    0.06    0.07
   7   6  -2    0.16    0.05
  -7  -6   2    0.12    0.07
   6   6  -2    0.06    0.04
  -6  -6   2    0.03    0.05
   5   6  -2    1.06    0.11
  -5  -6   2    1.17    0.13
   4   6  -2    4.35    0.18
  -4  -6   2    4.27    0.17
   3   6  -2    1.21    0.11
  -3  -6   2    1.22    0.11
  -3  -6   2    1.23    0.11
   2   6  -2    8.67    0.27
   2   6  -2    8.37    0.24
  -2  -6   2    8.55    0.26
  -2  -6   2    8.57    0.27
   1   6  -2    5.31    0.20
   1   6  -2    5.23    0.18
   1   6  -2    5.40    0.19
  -1  -6   2    5.33    0.20
  -1  -6   2    5.45    0.20
   0   6  -2   11.84    0.33
   0   6  -2   11.72    0.32
   0   6  -2   11.59    0.32
   0  -6   2   11.73    0.33
   0  -6   2   11.68    0.33
  -1   6  -2    2.34    0.13
  -1   6  -2    2.42    0.13
  -1   6  -2    2.28    0.13
   1  -6   2    2.45    0.13
   1  -6   2    2.42    0.13
  -2   6  -2    2.25    0.14
  -2   6  -2    1.90    0.09
  -2   6  -2    2.12    0.13
  -2   6  -2    1.99    0.11
   2  -6   2    1.94    0.12
   2  -6   2    2.30    0.13
  -3   6  -2    0.04    0.03
  -3   6  -2    0.03    0.03
   3  -6   2    0.03    0.04
   3  -6   2    0.10    0.04
  -4   6  -2    0.53    0.09
  -4   6  -2    0.66    0.10
   4  -6   2    0.58    0.09
   4  -6   2    0.70    0.10
  -5   6  -2    0.70    0.11
  -5   6  -2    0.89    0.11
   5  -6   2    0.62    0.09
   5  -6   2    1.00    0.11
  -6   6  -2    0.00    0.04
  -6   6  -2    0.01    0.04
   6  -6   2   -0.02    0.04
   6  -6   2    0.03    0.05
  -7   6  -2    0.26    0.09
  -7   6  -2    0.14    0.06
  -8   6  -2    0.13    0.08
  -8   6  -2    0.04    0.05
  10   5  -2    0.24    0.10
 -10  -5   2    0.07    0.07
   9   5  -2    0.07    0.07
  -9  -5   2    0.07    0.07
   8   5  -2    0.63    0.12
  -8  -5   2    0.42    0.10
  -7  -5   2    0.71    0.12
   6   5  -2    0.20    0.05
  -6  -5   2    0.13    0.06
   5   5  -2    2.26    0.12
  -5  -5   2    2.25    0.14
   4   5  -2    2.88    0.13
  -4  -5   2    2.82    0.12
   3   5  -2    5.54    0.19
  -3  -5   2    5.41    0.19
  -3  -5   2    5.44    0.18
  -3  -5   2    5.43    0.19
   2   5  -2    4.28    0.14
   2   5  -2    4.72    0.15
   2   5  -2    4.63    0.17
  -2  -5   2    4.62    0.17
  -2  -5   2    4.85    0.17
   1   5  -2    0.61    0.07
   1   5  -2    0.47    0.05
   1   5  -2    0.48    0.06
  -1  -5   2    0.41    0.06
  -1  -5   2    0.52    0.06
   0   5  -2    3.49    0.14
   0   5  -2    3.14    0.13
   0   5  -2    3.08    0.13
   0  -5   2    3.24    0.14
   0  -5   2    3.24    0.14
  -1   5  -2    3.90    0.15
  -1   5  -2    3.93    0.16
  -1   5  -2    3.64    0.15
   1  -5   2    3.75    0.15
   1  -5   2    3.75    0.16
  -2   5  -2    3.86    0.12
  -2   5  -2    3.91    0.15
  -2   5  -2    3.88    0.17
  -2   5  -2    4.19    0.17
   2  -5   2    4.24    0.17
   2  -5   2    3.72    0.16
   2  -5   2    3.99    0.13
  -3   5  -2    0.81    0.09
  -3   5  -2    0.77    0.10
  -3   5  -2    0.71    0.06
   3  -5   2    0.77    0.06
   3  -5   2    0.66    0.08
   3  -5   2    0.69    0.08
  -4   5  -2    0.19    0.05
  -4   5  -2    0.10    0.04
   4  -5   2    0.15    0.04
   4  -5   2    0.18    0.05
   4  -5   2    0.13    0.05
  -5   5  -2   17.25    0.48
  -5   5  -2   18.23    0.51
   5  -5   2   17.43    0.47
   5  -5   2   17.57    0.45
   5  -5   2   17.85    0.44
  -6   5  -2    0.09    0.05
  -6   5  -2    0.08    0.04
   6  -5   2    0.04    0.04
   6  -5   2    0.07    0.05
  -7   5  -2    0.00    0.04
  -7   5  -2    0.04    0.04
  -8   5  -2    0.31    0.08
  -8   5  -2    0.31    0.09
  -9   5  -2    0.12    0.08
  10   4  -2    0.00    0.07
 -10  -4   2    0.10    0.08
   9   4  -2   -0.01    0.05
  -9  -4   2   -0.01    0.05
   8   4  -2    0.80    0.13
  -8  -4   2    0.74    0.11
   7   4  -2    0.46    0.10
  -7  -4   2    0.34    0.08
   6   4  -2    0.01    0.03
   6   4  -2    0.01    0.03
  -6  -4   2   -0.02    0.04
   5   4  -2    6.45    0.20
  -5  -4   2    6.83    0.24
   4   4  -2    0.12    0.03
  -4  -4   2    0.09    0.03
  -4  -4   2    0.11    0.04
  -4  -4   2    0.07    0.03
   3   4  -2    1.42    0.08
   3   4  -2    1.73    0.07
  -3  -4   2    1.70    0.08
  -3  -4   2    1.67    0.09
  -3  -4   2    1.76    0.09
   2   4  -2    2.39    0.11
   2   4  -2    2.23    0.08
   2   4  -2    2.43    0.09
  -2  -4   2    2.32    0.10
  -2  -4   2    2.27    0.10
   1   4  -2    6.37    0.18
   1   4  -2    6.19    0.17
   1   4  -2    6.30    0.19
  -1  -4   2    6.47    0.20
  -1  -4   2    6.65    0.18
   0   4  -2    0.20    0.02
   0   4  -2    0.15    0.04
   0   4  -2    0.17    0.03
   0   4  -2    0.14    0.03
   0  -4   2    0.20    0.04
   0  -4   2    0.17    0.04
  -1   4  -2   40.78    0.80
  -1   4  -2   39.75    0.83
  -1   4  -2   40.31    0.78
  -1   4  -2   40.62    0.80
   1  -4   2   39.71    0.79
   1  -4   2   40.40    0.77
  -2   4  -2    9.53    0.24
  -2   4  -2    9.01    0.27
  -2   4  -2    9.37    0.27
  -2   4  -2    9.34    0.22
   2  -4   2    9.64    0.26
   2  -4   2    9.65    0.24
   2  -4   2    9.67    0.26
  -3   4  -2    0.03    0.03
  -3   4  -2   -0.02    0.02
  -3   4  -2   -0.02    0.02
  -3   4  -2   -0.01    0.01
   3  -4   2    0.04    0.03
   3  -4   2   -0.02    0.02
   3  -4   2    0.00    0.02
  -4   4  -2    1.74    0.11
  -4   4  -2    1.72    0.12
  -4   4  -2    1.57    0.08
   4  -4   2    1.56    0.10
   4  -4   2    1.56    0.09
   4  -4   2    1.51    0.10
  -5   4  -2    4.07    0.19
  -5   4  -2    4.29    0.20
   5  -4   2    4.21    0.16
   5  -4   2    4.44    0.18
   5  -4   2    4.28    0.19
  -6   4  -2    0.06    0.04
  -6   4  -2    0.16    0.06
   6  -4   2    0.06    0.05
   6  -4   2    0.04    0.04
  -7   4  -2    2.25    0.15
  -7   4  -2    2.47    0.17
  -8   4  -2    0.06    0.05
  -8   4  -2    0.00    0.04
  -9   4  -2    0.14    0.07
 -10   4  -2   -0.01    0.07
  10   3  -2    0.71    0.14
 -10  -3   2    0.89    0.14
   9   3  -2    1.07    0.15
  -9  -3   2    1.07    0.14
   8   3  -2    0.46    0.10
  -8  -3   2    0.38    0.08
   7   3  -2    0.01    0.04
   7   3  -2    0.00    0.04
  -7  -3   2    0.01    0.04
   6   3  -2    0.15    0.05
  -6  -3   2    0.17    0.06
   5   3  -2    0.75    0.06
  -5  -3   2    0.77    0.09
   4   3  -2    0.12    0.03
  -4  -3   2    0.17    0.03
  -4  -3   2    0.12    0.04
  -4  -3   2    0.14    0.02
   3   3  -2    1.32    0.07
   3   3  -2    1.39    0.05
  -3  -3   2    1.44    0.08
  -3  -3   2    1.33    0.06
   2   3  -2    9.27    0.23
   2   3  -2    8.86    0.20
   2   3  -2    9.18    0.20
  -2  -3   2    9.51    0.23
  -2  -3   2    9.08    0.21
  -2  -3   2    8.97    0.24
   1   3  -2    0.34    0.04
   1   3  -2    0.32    0.03
   1   3  -2    0.29    0.03
  -1  -3   2    0.21    0.03
  -1  -3   2    0.29    0.04
   0   3  -2   10.17    0.25
   0   3  -2   10.77    0.25
   0   3  -2   10.29    0.26
   0  -3   2   11.16    0.25
   0  -3   2   10.78    0.26
  -1   3  -2   68.69    1.24
  -1   3  -2   68.79    1.27
  -1   3  -2   70.67    1.33
  -1   3  -2   67.19    1.34
   1  -3   2   69.30    1.25
   1  -3   2   70.15    1.23
  -2   3  -2    1.67    0.07
  -2   3  -2    1.62    0.09
  -2   3  -2    1.63    0.09
   2  -3   2    1.52    0.08
   2  -3   2    1.66    0.08
   2  -3   2    1.50    0.08
  -3   3  -2    3.49    0.15
  -3   3  -2    3.40    0.11
  -3   3  -2    3.55    0.14
   3  -3   2    3.47    0.12
   3  -3   2    3.36    0.13
   3  -3   2    3.56    0.13
  -4   3  -2    2.21    0.10
  -4   3  -2    2.31    0.12
  -4   3  -2    2.44    0.13
   4  -3   2    2.64    0.11
   4  -3   2    2.47    0.12
   4  -3   2    2.72    0.12
  -5   3  -2    3.06    0.13
  -5   3  -2    2.87    0.14
  -5   3  -2    2.82    0.12
  -5   3  -2    2.75    0.15
   5  -3   2    2.76    0.11
   5  -3   2    2.71    0.14
   5  -3   2    3.07    0.13
  -6   3  -2    6.21    0.23
  -6   3  -2    6.40    0.22
  -6   3  -2    6.31    0.25
   6  -3   2    6.80    0.22
   6  -3   2    6.05    0.24
  -7   3  -2    0.21    0.06
  -7   3  -2    0.19    0.06
  -7   3  -2    0.21    0.06
  -8   3  -2    0.06    0.05
  -8   3  -2    0.22    0.06
  -8   3  -2    0.17    0.06
  -9   3  -2    0.19    0.08
  -9   3  -2    0.35    0.08
 -10   3  -2    0.04    0.05
 -10   3  -2    0.01    0.06
  11   2  -2    0.09    0.08
  10   2  -2   -0.02    0.06
 -10  -2   2    0.02    0.06
   9   2  -2    1.46    0.18
  -9  -2   2    1.23    0.15
   8   2  -2    5.32    0.27
  -8  -2   2    5.13    0.24
   7   2  -2    1.02    0.11
   7   2  -2    1.07    0.13
  -7  -2   2    1.10    0.12
   6   2  -2    0.05    0.04
  -6  -2   2    0.12    0.05
   5   2  -2    0.02    0.02
   5   2  -2   -0.01    0.02
   5   2  -2    0.01    0.03
  -5  -2   2    0.01    0.02
  -5  -2   2    0.01    0.03
   4   2  -2    1.55    0.07
   4   2  -2    1.48    0.10
   4   2  -2    1.54    0.08
  -4  -2   2    1.50    0.08
  -4  -2   2    1.50    0.05
  -4  -2   2    1.58    0.09
   3   2  -2   12.60    0.27
   3   2  -2   12.30    0.30
  -3  -2   2   12.55    0.30
  -3  -2   2   12.49    0.24
  -3  -2   2   12.26    0.29
  -2  -2   2    2.09    0.09
  -2  -2   2    2.01    0.06
   1   2  -2    5.34    0.13
  -1  -2   2    5.39    0.13
  -1  -2   2    5.34    0.16
   0   2  -2   10.96    0.25
   0  -2   2   10.56    0.23
  -1   2  -2    0.07    0.01
  -1   2  -2    0.08    0.02
  -1   2  -2    0.05    0.02
   1  -2   2    0.10    0.02
  -2   2  -2    0.03    0.02
  -2   2  -2    0.03    0.01
  -2   2  -2    0.05    0.02
   2  -2   2    0.03    0.01
   2  -2   2    0.04    0.02
  -3   2  -2   37.91    0.72
  -3   2  -2   38.25    0.75
  -3   2  -2   39.75    0.76
  -3   2  -2   38.33    0.80
   3  -2   2   36.68    0.71
   3  -2   2   38.01    0.79
  -4   2  -2    9.85    0.29
  -4   2  -2    9.75    0.27
  -4   2  -2   10.18    0.24
  -4   2  -2    9.74    0.26
   4  -2   2    9.66    0.25
   4  -2   2   10.07    0.28
   4  -2   2    9.91    0.23
   4  -2   2    9.44    0.25
  -5   2  -2    4.54    0.19
  -5   2  -2    4.61    0.17
  -5   2  -2    4.49    0.16
  -5   2  -2    4.61    0.17
   5  -2   2    5.02    0.16
   5  -2   2    4.81    0.14
   5  -2   2    4.57    0.18
   5  -2   2    4.50    0.16
  -6   2  -2    1.92    0.12
  -6   2  -2    1.79    0.11
  -6   2  -2    1.85    0.10
  -6   2  -2    1.78    0.12
   6  -2   2    1.75    0.12
   6  -2   2    1.92    0.10
  -7   2  -2    0.60    0.07
  -7   2  -2    0.47    0.08
  -7   2  -2    0.69    0.10
  -7   2  -2    0.58    0.08
   7  -2   2    0.47    0.08
  -8   2  -2    2.01    0.14
  -8   2  -2    2.10    0.15
  -9   2  -2    1.86    0.16
  -9   2  -2    1.76    0.15
 -10   2  -2    0.17    0.07
  10   1  -2    0.18    0.08
 -10  -1   2    0.09    0.07
   9   1  -2    0.29    0.09
  -9  -1   2    0.26    0.08
   8   1  -2    1.96    0.17
  -8  -1   2    1.86    0.15
   7   1  -2    0.12    0.05
  -7  -1   2    0.12    0.05
   6   1  -2    0.32    0.07
  -6  -1   2    0.39    0.07
  -6  -1   2    0.40    0.05
   5   1  -2    5.48    0.15
   5   1  -2    5.48    0.22
   5   1  -2    5.36    0.19
  -5  -1   2    5.44    0.19
  -5  -1   2    5.16    0.19
  -5  -1   2    5.20    0.16
   4   1  -2   14.27    0.41
   4   1  -2   14.81    0.36
  -4  -1   2   14.38    0.35
  -4  -1   2   14.72    0.36
  -4  -1   2   14.92    0.32
   3   1  -2   34.24    0.80
   3   1  -2   35.06    0.74
  -3  -1   2   34.65    0.68
  -3  -1   2   35.32    0.73
  -3  -1   2   35.41    0.69
   2   1  -2    3.80    0.13
   2   1  -2    3.69    0.13
  -2  -1   2    3.67    0.08
  -2  -1   2    3.72    0.12
  -2  -1   2    3.70    0.10
   1   1  -2   17.89    0.39
  -1  -1   2   17.32    0.32
  -1  -1   2   17.73    0.39
   0   1  -2    8.60    0.20
   0  -1   2    8.44    0.18
   0  -1   2    9.11    0.22
  -1   1  -2   27.56    0.56
  -1   1  -2   28.12    0.51
  -2   1  -2    0.84    0.05
  -2   1  -2    0.91    0.05
  -2   1  -2    1.00    0.05
  -2   1  -2    1.00    0.05
   2  -1   2    0.87    0.05
  -3   1  -2    0.10    0.02
  -3   1  -2    0.12    0.03
  -3   1  -2    0.12    0.03
   3  -1   2    0.08    0.02
   3  -1   2    0.16    0.03
  -4   1  -2    1.43    0.09
  -4   1  -2    1.52    0.09
  -4   1  -2    1.41    0.07
  -4   1  -2    1.55    0.08
   4  -1   2    1.57    0.08
   4  -1   2    1.50    0.08
   4  -1   2    1.53    0.09
  -5   1  -2   10.85    0.30
  -5   1  -2   10.50    0.28
  -5   1  -2   10.20    0.27
  -5   1  -2   10.53    0.29
   5  -1   2   10.30    0.30
   5  -1   2   10.54    0.26
   5  -1   2   10.71    0.30
  -6   1  -2   -0.01    0.03
  -6   1  -2   -0.02    0.03
  -6   1  -2   -0.02    0.02
  -6   1  -2    0.00    0.02
   6  -1   2    0.01    0.02
   6  -1   2    0.01    0.03
   6  -1   2    0.05    0.03
  -7   1  -2   -0.01    0.03
  -7   1  -2   -0.02    0.03
  -7   1  -2   -0.01    0.02
  -7   1  -2   -0.01    0.03
   7  -1   2    0.03    0.04
   7  -1   2   -0.01    0.03
  -8   1  -2    0.26    0.07
  -8   1  -2    0.32    0.07
  -8   1  -2    0.29    0.06
  -9   1  -2    0.48    0.10
 -10   1  -2    0.71    0.12
 -11   1  -2    0.09    0.07
  10   0  -2    0.00    0.06
   9   0  -2    1.29    0.16
  -9   0   2    1.19    0.13
   8   0  -2    2.42    0.18
  -8   0   2    2.38    0.16
   7   0  -2    0.30    0.07
  -7   0   2    0.37    0.07
   6   0  -2    0.08    0.04
  -6   0   2    0.02    0.03
  -6   0   2    0.04    0.03
  -6   0   2    0.03    0.03
  -6   0   2    0.03    0.02
   5   0  -2   11.03    0.35
   5   0  -2   11.05    0.25
  -5   0   2   11.04    0.32
  -5   0   2   10.85    0.29
  -5   0   2   11.08    0.25
  -5   0   2   11.34    0.29
   4   0  -2    4.80    0.17
   4   0  -2    4.54    0.18
  -4   0   2    4.62    0.15
  -4   0   2    4.61    0.17
  -4   0   2    4.53    0.15
   3   0  -2   49.99    1.12
   3   0  -2   51.51    1.05
  -3   0   2   51.03    0.97
  -3   0   2   52.14    1.05
  -3   0   2   51.22    0.99
   2   0  -2   18.10    0.44
   2   0  -2   18.37    0.42
  -2   0   2   19.07    0.43
  -2   0   2   19.00    0.39
   1   0  -2   18.57    0.41
  -1   0   2   18.12    0.41
  -1   0   2   18.66    0.38
   0   0  -2   47.98    0.85
   0   0  -2   48.34    0.97
   0   0   2   50.20    0.97
  -1   0  -2    5.04    0.14
  -1   0  -2    5.03    0.12
   1   0   2    5.42    0.15
  -2   0  -2   24.52    0.46
  -2   0  -2   24.08    0.50
  -2   0  -2   24.55    0.51
  -3   0  -2   -0.01    0.02
  -3   0  -2    0.09    0.03
  -3   0  -2    0.01    0.01
   3   0   2    0.03    0.02
  -4   0  -2   12.48    0.31
  -4   0  -2   12.45    0.32
  -4   0  -2   12.83    0.30
   4   0   2   12.95    0.33
  -5   0  -2    0.10    0.03
  -5   0  -2    0.15    0.04
  -5   0  -2    0.05    0.02
  -5   0  -2    0.08    0.03
   5   0   2    0.09    0.03
   5   0   2    0.07    0.03
  -6   0  -2    1.24    0.08
  -6   0  -2    1.29    0.10
  -6   0  -2    1.29    0.09
  -6   0  -2    1.28    0.09
   6   0   2    1.22    0.09
   6   0   2    1.36    0.09
   6   0   2    1.18    0.08
  -7   0  -2    0.12    0.04
  -7   0  -2    0.19    0.05
  -7   0  -2    0.16    0.05
   7   0   2    0.16    0.05
   7   0   2    0.15    0.06
  -8   0  -2    0.27    0.06
  -8   0  -2    0.26    0.07
  -8   0  -2    0.36    0.06
   8   0   2    0.30    0.08
  -9   0  -2    2.06    0.16
  -9   0  -2    2.02    0.13
 -10   0  -2    0.96    0.14
 -11   0  -2    0.22    0.09
  10  -1  -2    0.01    0.06
   9  -1  -2    0.07    0.06
  -9   1   2   -0.04    0.05
   8  -1  -2    0.83    0.12
  -8   1   2    0.73    0.10
   7  -1  -2    1.35    0.12
  -7   1   2    1.60    0.12
   6  -1  -2    3.09    0.16
  -6   1   2    2.72    0.14
  -6   1   2    2.72    0.14
  -6   1   2    2.56    0.15
   5  -1  -2    1.02    0.09
   5  -1  -2    0.85    0.06
  -5   1   2    0.74    0.08
  -5   1   2    0.90    0.08
  -5   1   2    0.90    0.08
  -5   1   2    0.94    0.05
   4  -1  -2    0.09    0.02
   4  -1  -2    0.05    0.03
   4  -1  -2    0.06    0.02
  -4   1   2    0.10    0.03
  -4   1   2    0.15    0.03
  -4   1   2    0.11    0.03
   3  -1  -2    9.54    0.20
   3  -1  -2    9.05    0.27
   3  -1  -2    9.71    0.28
  -3   1   2    9.12    0.27
  -3   1   2    9.47    0.22
  -3   1   2    9.54    0.25
   2  -1  -2    7.97    0.17
   2  -1  -2    7.63    0.22
   2  -1  -2    7.62    0.22
  -2   1   2    7.80    0.22
  -2   1   2    7.88    0.20
   1  -1  -2    1.57    0.07
   1  -1  -2    1.55    0.08
  -1   1   2    1.69    0.08
  -1   1   2    1.66    0.07
   0  -1  -2    4.42    0.13
   0  -1  -2    4.10    0.09
   0   1   2    4.48    0.13
   0   1   2    4.38    0.12
  -1  -1  -2   12.44    0.28
  -1  -1  -2   12.35    0.25
   1   1   2   12.95    0.28
  -2  -1  -2  972.61   16.89
  -2  -1  -2  954.40   18.35
   2   1   2 1000.00   18.41
  -3  -1  -2   12.62    0.28
  -3  -1  -2   12.68    0.30
  -3  -1  -2   12.54    0.29
   3   1   2   12.93    0.30
  -4  -1  -2    0.00    0.02
  -4  -1  -2    0.01    0.02
  -4  -1  -2    0.03    0.02
   4   1   2    0.02    0.02
  -5  -1  -2    0.45    0.05
  -5  -1  -2    0.48    0.06
  -5  -1  -2    0.49    0.07
   5   1   2    0.56    0.06
   5   1   2    0.49    0.04
  -6  -1  -2    2.71    0.15
  -6  -1  -2    2.45    0.11
  -6  -1  -2    2.35    0.12
  -6  -1  -2    2.76    0.13
   6   1   2    2.31    0.13
  -7  -1  -2    0.01    0.04
  -7  -1  -2    0.01    0.03
  -7  -1  -2   -0.04    0.02
   7   1   2    0.00    0.02
  -8  -1  -2    0.39    0.07
  -8  -1  -2    0.59    0.10
   8   1   2    0.52    0.10
  -9  -1  -2    0.04    0.04
  -9  -1  -2   -0.05    0.04
   9   1   2    0.04    0.06
 -10  -1  -2    0.01    0.06
 -10  -1  -2    0.06    0.05
 -11  -1  -2   -0.03    0.06
  10  -2  -2    0.11    0.08
   9  -2  -2    0.05    0.06
  -9   2   2    0.00    0.04
   8  -2  -2    1.98    0.16
  -8   2   2    1.75    0.13
   7  -2  -2    0.04    0.05
  -7   2   2    0.07    0.05
  -7   2   2    0.09    0.04
   6  -2  -2    0.37    0.07
  -6   2   2    0.38    0.07
  -6   2   2    0.43    0.07
  -6   2   2    0.45    0.06
   5  -2  -2    0.82    0.06
   5  -2  -2    0.77    0.09
  -5   2   2    0.75    0.07
  -5   2   2    0.78    0.09
  -5   2   2    1.04    0.11
   4  -2  -2    1.55    0.08
   4  -2  -2    1.76    0.10
   4  -2  -2    1.51    0.07
  -4   2   2    1.65    0.10
  -4   2   2    1.51    0.08
  -4   2   2    1.46    0.10
   3  -2  -2    8.14    0.20
   3  -2  -2    8.12    0.19
   3  -2  -2    7.86    0.23
  -3   2   2    7.69    0.19
  -3   2   2    8.08    0.23
  -3   2   2    7.73    0.25
   2  -2  -2   10.14    0.23
   2  -2  -2    9.58    0.22
   2  -2  -2   10.05    0.26
   2  -2  -2   10.02    0.29
  -2   2   2   10.04    0.28
  -2   2   2   10.29    0.26
   1  -2  -2   11.88    0.26
   1  -2  -2   12.08    0.31
   1  -2  -2   12.16    0.29
  -1   2   2   12.16    0.29
  -1   2   2   12.75    0.32
   0  -2  -2   21.58    0.42
   0  -2  -2   21.76    0.40
   0  -2  -2   21.91    0.48
   0   2   2   21.76    0.46
   0   2   2   22.50    0.48
  -1  -2  -2   27.43    0.50
  -1  -2  -2   26.91    0.57
   1   2   2   26.89    0.55
   1   2   2   27.67    0.57
  -2  -2  -2   48.10    0.96
  -2  -2  -2   48.67    0.93
  -2  -2  -2   49.59    0.90
   2   2   2   51.52    0.97
  -3  -2  -2    0.04    0.02
  -3  -2  -2    0.00    0.02
   3   2   2    0.00    0.01
  -4  -2  -2   54.14    1.02
  -4  -2  -2   53.53    1.07
   4   2   2   54.41    1.09
   4   2   2   55.13    1.05
  -5  -2  -2    0.00    0.02
  -5  -2  -2   -0.04    0.03
  -5  -2  -2   -0.03    0.02
   5   2   2    0.00    0.01
   5   2   2    0.02    0.02
   5   2   2    0.01    0.01
  -6  -2  -2    2.76    0.15
  -6  -2  -2    2.67    0.13
  -6  -2  -2    2.74    0.12
   6   2   2    2.83    0.13
  -7  -2  -2    1.84    0.14
  -7  -2  -2    1.85    0.11
   7   2   2    1.63    0.11
  -8  -2  -2    0.02    0.03
  -8  -2  -2   -0.02    0.04
  -9  -2  -2    1.07    0.11
  -9  -2  -2    1.19    0.14
 -10  -2  -2   -0.05    0.05
 -10  -2  -2    0.05    0.05
  10   2   2    0.04    0.07
 -11  -2  -2    0.09    0.08
 -11  -2  -2    0.00    0.05
  11   2   2    0.12    0.09
   8  -3  -2    0.12    0.06
  -8   3   2    0.11    0.05
  -8   3   2    0.06    0.06
   7  -3  -2    0.35    0.07
  -7   3   2    0.36    0.08
  -7   3   2    0.42    0.07
   6  -3  -2    0.07    0.04
  -6   3   2    0.09    0.04
  -6   3   2    0.05    0.04
   5  -3  -2    8.57    0.23
   5  -3  -2    8.42    0.27
  -5   3   2    7.59    0.28
  -5   3   2    8.04    0.30
   4  -3  -2    0.11    0.03
   4  -3  -2    0.14    0.03
   4  -3  -2    0.08    0.03
  -4   3   2    0.18    0.05
  -4   3   2    0.14    0.04
   3  -3  -2    2.16    0.10
   3  -3  -2    2.22    0.10
   3  -3  -2    2.19    0.10
  -3   3   2    1.99    0.11
  -3   3   2    2.10    0.12
   2  -3  -2   34.11    0.65
   2  -3  -2   33.83    0.75
   2  -3  -2   34.66    0.66
  -2   3   2   34.42    0.66
  -2   3   2   33.73    0.76
  -2   3   2   34.28    0.73
   1  -3  -2   13.53    0.30
   1  -3  -2   13.12    0.36
   1  -3  -2   13.71    0.31
  -1   3   2   13.38    0.33
  -1   3   2   14.05    0.36
  -1   3   2   13.66    0.31
  -1   3   2   13.78    0.30
   0  -3  -2    2.54    0.11
   0  -3  -2    2.56    0.09
   0  -3  -2    2.33    0.06
   0  -3  -2    2.64    0.10
   0   3   2    2.49    0.10
   0   3   2    2.54    0.11
   0   3   2    2.40    0.10
  -1  -3  -2   11.97    0.29
  -1  -3  -2   12.07    0.27
  -1  -3  -2   12.04    0.25
  -1  -3  -2   11.83    0.28
   1   3   2   11.76    0.28
   1   3   2   12.25    0.30
   1   3   2   11.91    0.27
  -2  -3  -2    0.02    0.01
  -2  -3  -2    0.01    0.01
   2   3   2    0.00    0.02
   2   3   2    0.02    0.01
   2   3   2    0.02    0.01
  -3  -3  -2    0.93    0.04
  -3  -3  -2    1.03    0.06
  -3  -3  -2    0.93    0.07
   3   3   2    0.92    0.06
   3   3   2    0.94    0.06
   3   3   2    1.00    0.04
  -4  -3  -2    0.18    0.04
  -4  -3  -2    0.29    0.04
   4   3   2    0.27    0.04
  -5  -3  -2    0.17    0.04
  -5  -3  -2    0.24    0.06
   5   3   2    0.17    0.03
   5   3   2    0.24    0.04
  -6  -3  -2    6.39    0.24
  -6  -3  -2    5.79    0.20
   6   3   2    5.79    0.20
  -7  -3  -2    2.35    0.15
  -7  -3  -2    2.33    0.13
   7   3   2    2.07    0.12
  -8  -3  -2    3.16    0.16
  -8  -3  -2    3.34    0.19
   8   3   2    3.19    0.17
  -9  -3  -2    1.04    0.11
  -9  -3  -2    1.17    0.15
 -10  -3  -2    0.54    0.09
 -10  -3  -2    0.26    0.09
 -11  -3  -2    0.04    0.07
 -11  -3  -2    0.14    0.06
  11   3   2    0.05    0.08
  -8   4   2    0.18    0.07
   7  -4  -2    0.42    0.08
  -7   4   2    0.47    0.09
   6  -4  -2    0.01    0.03
  -6   4   2    0.00    0.03
   5  -4  -2    2.45    0.12
   5  -4  -2    2.51    0.13
  -5   4   2    2.59    0.16
   4  -4  -2    1.59    0.09
   4  -4  -2    1.52    0.10
   4  -4  -2    1.59    0.10
  -4   4   2    1.60    0.12
   3  -4  -2    3.03    0.13
   3  -4  -2    2.78    0.12
  -3   4   2    2.72    0.11
  -3   4   2    2.97    0.15
  -3   4   2    2.85    0.16
   2  -4  -2    0.01    0.02
   2  -4  -2    0.03    0.02
  -2   4   2    0.01    0.02
  -2   4   2    0.03    0.02
  -2   4   2    0.02    0.02
   1  -4  -2    5.32    0.17
   1  -4  -2    5.10    0.17
  -1   4   2    4.93    0.19
  -1   4   2    5.19    0.18
  -1   4   2    5.01    0.16
   0  -4  -2    1.50    0.09
   0  -4  -2    1.40    0.09
   0  -4  -2    1.21    0.07
   0   4   2    1.34    0.08
   0   4   2    1.34    0.08
   0   4   2    1.48    0.09
   0   4   2    1.34    0.08
  -1  -4  -2    3.39    0.12
  -1  -4  -2    3.37    0.13
  -1  -4  -2    3.26    0.10
  -1  -4  -2    3.37    0.13
   1   4   2    3.31    0.12
   1   4   2    3.21    0.12
   1   4   2    3.36    0.13
   1   4   2    3.37    0.13
  -2  -4  -2    0.16    0.03
  -2  -4  -2    0.08    0.02
  -2  -4  -2    0.08    0.02
  -2  -4  -2    0.06    0.03
   2   4   2    0.05    0.02
   2   4   2    0.09    0.02
   2   4   2    0.07    0.03
  -3  -4  -2    0.00    0.01
  -3  -4  -2    0.11    0.03
  -3  -4  -2    0.02    0.02
   3   4   2    0.00    0.01
   3   4   2    0.03    0.02
   3   4   2    0.02    0.01
  -4  -4  -2    0.23    0.04
  -4  -4  -2    0.29    0.05
   4   4   2    0.21    0.03
   4   4   2    0.22    0.04
  -5  -4  -2   12.27    0.35
  -5  -4  -2   11.62    0.31
   5   4   2   11.84    0.29
  -6  -4  -2   -0.01    0.03
  -6  -4  -2    0.01    0.02
  -7  -4  -2    0.08    0.04
  -7  -4  -2    0.00    0.05
   7   4   2    0.08    0.03
  -8  -4  -2    0.88    0.12
  -8  -4  -2    0.81    0.09
   8   4   2    0.74    0.09
  -9  -4  -2   -0.02    0.04
  -9  -4  -2    0.03    0.06
 -10  -4  -2    0.10    0.07
 -10  -4  -2    0.02    0.04
 -11  -4  -2    0.06    0.08
 -11  -4  -2    0.03    0.05
  11   4   2    0.01    0.08
  -8   5   2    0.37    0.10
  -7   5   2    0.48    0.10
   6  -5  -2    1.03    0.10
   6  -5  -2    1.05    0.11
  -6   5   2    0.94    0.12
   5  -5  -2    0.51    0.08
  -5   5   2    0.81    0.11
   4  -5  -2    1.38    0.10
   4  -5  -2    1.59    0.11
  -4   5   2    1.45    0.12
   3  -5  -2    0.10    0.04
   3  -5  -2    0.09    0.04
  -3   5   2    0.09    0.04
   2  -5  -2    2.84    0.13
   2  -5  -2    2.83    0.14
  -2   5   2    2.89    0.15
  -2   5   2    2.59    0.15
  -2   5   2    2.95    0.13
   1  -5  -2    7.38    0.23
   1  -5  -2    7.27    0.23
  -1   5   2    7.33    0.24
  -1   5   2    7.19    0.26
  -1   5   2    7.12    0.22
   0  -5  -2   -0.04    0.02
   0  -5  -2    0.01    0.03
   0   5   2    0.03    0.03
   0   5   2    0.03    0.02
   0   5   2    0.04    0.02
  -1  -5  -2    1.04    0.08
  -1  -5  -2    0.99    0.05
  -1  -5  -2    1.02    0.09
  -1  -5  -2    0.90    0.08
   1   5   2    0.92    0.07
   1   5   2    0.93    0.07
   1   5   2    1.05    0.09
  -2  -5  -2    0.07    0.03
  -2  -5  -2    0.06    0.03
  -2  -5  -2    0.05    0.03
  -2  -5  -2    0.07    0.02
   2   5   2    0.09    0.03
   2   5   2    0.05    0.02
   2   5   2    0.05    0.03
   2   5   2    0.07    0.03
  -3  -5  -2    0.60    0.07
  -3  -5  -2    0.42    0.05
  -3  -5  -2    0.52    0.05
  -3  -5  -2    0.47    0.05
   3   5   2    0.51    0.06
   3   5   2    0.45    0.06
   3   5   2    0.38    0.05
  -4  -5  -2   -0.01    0.02
  -4  -5  -2    0.01    0.03
   4   5   2    0.04    0.03
   4   5   2    0.01    0.02
   4   5   2    0.00    0.02
  -5  -5  -2    0.36    0.07
  -5  -5  -2    0.26    0.05
   5   5   2    0.24    0.05
   5   5   2    0.35    0.06
  -6  -5  -2    0.72    0.10
  -6  -5  -2    0.46    0.07
   6   5   2    0.59    0.07
   6   5   2    0.63    0.07
  -7  -5  -2    0.72    0.11
  -7  -5  -2    0.51    0.07
  -8  -5  -2    0.20    0.07
  -8  -5  -2    0.04    0.04
  -9  -5  -2   -0.02    0.05
  -9  -5  -2    0.04    0.04
 -10  -5  -2    0.00    0.04
 -10  -5  -2    0.01    0.06
 -11  -5  -2    0.02    0.08
  -8   6   2    1.46    0.18
  -7   6   2    0.02    0.05
   6  -6  -2    0.30    0.07
  -6   6   2    0.23    0.07
   5  -6  -2    0.77    0.10
  -5   6   2    0.88    0.12
   4  -6  -2    1.81    0.13
  -4   6   2    1.62    0.13
   3  -6  -2    4.50    0.19
   3  -6  -2    4.03    0.19
  -3   6   2    4.64    0.21
   2  -6  -2    0.21    0.06
   2  -6  -2    0.24    0.06
  -2   6   2    0.34    0.07
  -2   6   2    0.39    0.07
   1  -6  -2    2.90    0.15
   1  -6  -2    3.03    0.15
  -1   6   2    3.04    0.17
  -1   6   2    3.29    0.15
  -1   6   2    3.06    0.15
   0  -6  -2    0.00    0.03
   0  -6  -2    0.03    0.03
   0   6   2    0.03    0.02
   0   6   2    0.06    0.03
   0   6   2    0.08    0.03
  -1  -6  -2    0.00    0.03
  -1  -6  -2    0.04    0.04
   1   6   2    0.04    0.03
   1   6   2    0.02    0.03
   1   6   2    0.04    0.03
  -2  -6  -2    0.00    0.03
  -2  -6  -2    0.02    0.03
  -2  -6  -2   -0.03    0.02
   2   6   2    0.00    0.02
   2   6   2    0.02    0.02
  -3  -6  -2    6.89    0.22
  -3  -6  -2    7.21    0.20
  -3  -6  -2    6.95    0.24
   3   6   2    7.02    0.23
   3   6   2    6.84    0.21
  -4  -6  -2    0.37    0.05
   4   6   2    0.31    0.06
  -5  -6  -2    0.00    0.02
  -5  -6  -2    0.00    0.04
   5   6   2    0.03    0.03
  -6  -6  -2    0.88    0.09
  -6  -6  -2    1.08    0.13
   6   6   2    0.96    0.10
  -7  -6  -2    0.56    0.08
  -7  -6  -2    0.75    0.11
  -8  -6  -2    0.04    0.06
  -8  -6  -2    0.11    0.05
  -9  -6  -2    0.17    0.05
  -9  -6  -2    0.31    0.09
 -10  -6  -2    0.00    0.07
  -7   7   2    0.49    0.11
   6  -7  -2    0.90    0.11
  -6   7   2    1.54    0.17
   5  -7  -2    0.32    0.07
  -5   7   2    0.13    0.06
   4  -7  -2    0.25    0.07
   4  -7  -2    0.29    0.07
   3  -7  -2    0.10    0.05
   3  -7  -2    0.05    0.05
  -3   7   2    0.11    0.05
   2  -7  -2    0.14    0.05
   2  -7  -2    0.07    0.05
  -2   7   2    0.12    0.05
  -2   7   2    0.12    0.05
   1  -7  -2   27.64    0.65
   1  -7  -2   26.67    0.64
  -1   7   2   28.04    0.67
  -1   7   2   28.00    0.63
   0  -7  -2    0.01    0.04
   0  -7  -2    0.09    0.05
   0   7   2    0.10    0.04
   0   7   2   -0.01    0.03
  -1  -7  -2    0.14    0.05
  -1  -7  -2    0.20    0.05
   1   7   2    0.28    0.05
   1   7   2    0.22    0.05
  -2  -7  -2    0.07    0.05
  -2  -7  -2    0.13    0.05
   2   7   2    0.09    0.03
   2   7   2    0.08    0.04
  -3  -7  -2    1.78    0.13
  -3  -7  -2    1.98    0.12
   3   7   2    1.82    0.12
  -4  -7  -2    0.45    0.06
   4   7   2    0.73    0.09
  -5  -7  -2   -0.01    0.03
  -5  -7  -2    0.00    0.04
   5   7   2    0.00    0.04
  -6  -7  -2    0.02    0.04
  -6  -7  -2    0.00    0.04
   6   7   2    0.05    0.04
  -7  -7  -2   -0.01    0.03
  -7  -7  -2   -0.01    0.05
   7   7   2    0.04    0.04
  -8  -7  -2    0.07    0.07
  -8  -7  -2    0.04    0.04
  -9  -7  -2    0.22    0.09
  -9  -7  -2    0.10    0.05
 -10  -7  -2    0.07    0.08
   6  -8  -2    0.04    0.06
  -5   8   2    0.72    0.12
   4  -8  -2   -0.02    0.05
   4  -8  -2    0.04    0.07
  -4   8   2    0.08    0.05
   3  -8  -2    0.34    0.08
   3  -8  -2    0.27    0.08
  -3   8   2    0.39    0.09
   2  -8  -2    1.68    0.13
   2  -8  -2    1.69    0.16
  -2   8   2    1.78    0.12
  -2   8   2    1.83    0.14
   1  -8  -2    2.80    0.17
   1  -8  -2    2.27    0.15
  -1   8   2    2.40    0.16
  -1   8   2    2.63    0.15
   0  -8  -2    0.68    0.10
   0  -8  -2    0.86    0.12
   0   8   2    0.97    0.12
   0   8   2    1.09    0.12
  -1  -8  -2    4.38    0.20
  -1  -8  -2    4.09    0.21
   1   8   2    4.39    0.19
   1   8   2    4.11    0.20
  -2  -8  -2    0.39    0.08
  -2  -8  -2    0.50    0.09
   2   8   2    0.56    0.09
   2   8   2    0.45    0.07
  -3  -8  -2    1.33    0.14
  -3  -8  -2    1.37    0.13
   3   8   2    1.62    0.12
  -4  -8  -2    1.35    0.15
   4   8   2    1.51    0.14
   5   8   2   -0.01    0.03
  -6  -8  -2    2.01    0.16
  -6  -8  -2    1.61    0.12
   6   8   2    1.55    0.12
  -7  -8  -2    0.16    0.08
  -7  -8  -2    0.20    0.05
   7   8   2    0.22    0.06
  -8  -8  -2    0.34    0.07
  -8  -8  -2    0.18    0.09
  -9  -8  -2    0.08    0.09
  -9  -8  -2   -0.06    0.04
   5  -9  -2    0.04    0.04
   4  -9  -2    0.09    0.07
   4  -9  -2    0.03    0.07
  -4   9   2    0.04    0.05
   3  -9  -2    0.37    0.10
   3  -9  -2    0.24    0.07
  -3   9   2    0.50    0.10
   2  -9  -2    0.14    0.06
   2  -9  -2    0.20    0.08
  -2   9   2    0.30    0.08
   1  -9  -2   -0.05    0.04
   1  -9  -2   -0.01    0.05
  -1   9   2    0.06    0.05
  -1   9   2    0.01    0.04
   0  -9  -2    0.08    0.06
   0  -9  -2    0.04    0.06
   0   9   2    0.06    0.04
   0   9   2    0.06    0.05
  -1  -9  -2    0.01    0.05
  -1  -9  -2    0.01    0.05
   1   9   2   -0.01    0.04
   1   9   2    0.00    0.03
  -2  -9  -2    0.12    0.07
  -2  -9  -2    0.09    0.06
   2   9   2    0.11    0.05
  -3  -9  -2    0.71    0.11
  -3  -9  -2    0.66    0.11
   3   9   2    0.69    0.11
  -4  -9  -2    1.40    0.16
   4   9   2    1.11    0.13
   5   9   2    2.47    0.16
  -6  -9  -2    1.68    0.18
   6   9   2    1.71    0.14
  -7  -9  -2    0.10    0.08
   7   9   2    0.11    0.06
  -8  -9  -2    0.26    0.10
   8   9   2    0.23    0.07
   3 -10  -2   -0.01    0.06
  -3  10   2    0.00    0.05
   2 -10  -2    0.08    0.08
   2 -10  -2   -0.01    0.06
  -2  10   2   -0.01    0.05
   1 -10  -2    0.21    0.08
   1 -10  -2    0.13    0.08
  -1  10   2    0.26    0.08
  -1  10   2    0.09    0.06
   0 -10  -2    0.16    0.08
   0 -10  -2    0.46    0.11
   0  10   2    0.39    0.09
   0  10   2    0.41    0.09
  -1 -10  -2   -0.05    0.06
  -1 -10  -2   -0.01    0.05
   1  10   2    0.02    0.05
  -2 -10  -2    0.81    0.13
  -2 -10  -2    0.94    0.14
   2  10   2    0.89    0.13
  -3 -10  -2    0.02    0.07
  -3 -10  -2   -0.02    0.06
   3  10   2    0.00    0.04
  -4 -10  -2    0.05    0.08
   4  10   2    0.10    0.05
   5  10   2    0.01    0.05
  -6 -10  -2    0.02    0.07
   6  10   2    0.08    0.06
  -7 -10  -2    0.15    0.09
   7  10   2    0.13    0.07
   1 -11  -2   -0.09    0.06
  -1  11   2    0.06    0.06
   0 -11  -2    0.03    0.07
   0  11   2   -0.01    0.05
  -1 -11  -2    0.02    0.07
   1  11   2   -0.01    0.05
  -2 -11  -2   -0.03    0.06
   2  11   2    0.02    0.05
  -3 -11  -2   -0.05    0.08
   3  11   2   -0.01    0.05
  -4 -11  -2    0.03    0.08
   4  11   2   -0.03    0.05
   5  11   2    0.29    0.09
   3  11  -3    0.01    0.05
   2  11  -3    0.03    0.06
  -2 -11   3    0.00    0.07
   1  11  -3    0.07    0.06
  -1 -11   3    0.19    0.09
   0  11  -3   -0.05    0.04
   0 -11   3    0.02    0.08
   6  10  -3    0.16    0.07
  -6 -10   3    0.15    0.09
   5  10  -3    0.18    0.07
   4  10  -3    0.25    0.08
   3  10  -3    0.08    0.06
  -3 -10   3    0.21    0.09
   2  10  -3    0.03    0.05
  -2 -10   3   -0.01    0.06
  -2 -10   3    0.03    0.07
   1  10  -3    0.00    0.05
  -1 -10   3    0.14    0.08
  -1 -10   3    0.16    0.08
   0  10  -3    0.03    0.04
   0  10  -3    0.01    0.05
   0 -10   3    0.02    0.07
   0 -10   3    0.05    0.07
  -1  10  -3    0.20    0.07
  -1  10  -3    0.27    0.07
   1 -10   3    0.15    0.08
   1 -10   3    0.19    0.09
  -2  10  -3    0.18    0.07
   2 -10   3    0.10    0.06
  -3  10  -3   -0.05    0.04
  -3  10  -3    0.07    0.07
   3 -10   3    0.12    0.08
   7   9  -3   -0.04    0.04
  -7  -9   3   -0.03    0.07
   6   9  -3    0.66    0.11
  -6  -9   3    1.03    0.16
   5   9  -3   -0.02    0.04
   4   9  -3    0.08    0.05
   3   9  -3    0.11    0.06
  -3  -9   3    0.17    0.07
  -3  -9   3    0.04    0.06
   2   9  -3    0.47    0.09
  -2  -9   3    0.65    0.11
  -2  -9   3    0.42    0.10
   1   9  -3    3.15    0.18
  -1  -9   3    3.01    0.19
  -1  -9   3    3.15    0.19
   0   9  -3    0.21    0.06
   0   9  -3    0.20    0.07
   0  -9   3    0.40    0.09
   0  -9   3    0.29    0.08
  -1   9  -3    0.14    0.05
  -1   9  -3    0.15    0.06
   1  -9   3    0.14    0.07
   1  -9   3    0.19    0.08
  -2   9  -3    0.02    0.05
  -2   9  -3    0.12    0.04
   2  -9   3   -0.03    0.05
   2  -9   3    0.02    0.06
  -3   9  -3    0.65    0.12
  -3   9  -3    0.34    0.08
   3  -9   3    0.54    0.11
   3  -9   3    0.18    0.06
  -4   9  -3    0.04    0.06
  -4   9  -3    0.01    0.04
   4  -9   3    0.00    0.06
   4  -9   3   -0.01    0.06
   5  -9   3    0.07    0.08
   8   8  -3   -0.04    0.05
  -8  -8   3    0.01    0.08
   7   8  -3    0.47    0.09
  -7  -8   3    0.29    0.10
   6   8  -3    0.08    0.05
  -6  -8   3    0.07    0.07
   5   8  -3    0.39    0.08
   4   8  -3    0.28    0.07
   3   8  -3    0.88    0.11
  -3  -8   3    0.88    0.11
  -3  -8   3    0.67    0.10
   2   8  -3    1.67    0.13
  -2  -8   3    1.64    0.15
  -2  -8   3    1.78    0.16
   1   8  -3    0.85    0.10
   1   8  -3    1.13    0.13
  -1  -8   3    1.01    0.12
  -1  -8   3    0.90    0.12
   0   8  -3    0.22    0.07
   0   8  -3    0.10    0.04
   0  -8   3    0.09    0.06
   0  -8   3    0.06    0.05
  -1   8  -3    1.74    0.14
  -1   8  -3    2.03    0.14
  -1   8  -3    1.88    0.13
   1  -8   3    1.91    0.15
   1  -8   3    1.84    0.17
  -2   8  -3    0.02    0.04
  -2   8  -3    0.02    0.03
  -2   8  -3    0.04    0.04
   2  -8   3   -0.04    0.03
   2  -8   3    0.06    0.06
  -3   8  -3    0.14    0.06
  -3   8  -3    0.19    0.06
   3  -8   3    0.15    0.06
   3  -8   3    0.16    0.07
  -4   8  -3    0.20    0.07
  -4   8  -3    0.18    0.07
   4  -8   3    0.12    0.06
   4  -8   3    0.11    0.05
  -5   8  -3    0.65    0.12
  -5   8  -3    0.52    0.10
   5  -8   3    0.72    0.12
  -6   8  -3    0.05    0.06
  -6   8  -3   -0.06    0.04
   6  -8   3   -0.05    0.06
   6  -8   3   -0.04    0.06
   9   7  -3    0.20    0.09
  -9  -7   3    0.21    0.10
   8   7  -3    0.00    0.05
  -8  -7   3   -0.06    0.07
   7   7  -3    0.32    0.07
  -7  -7   3    0.37    0.10
   6   7  -3    1.27    0.13
  -6  -7   3    1.85    0.18
   5   7  -3    4.17    0.19
   4   7  -3    1.18    0.12
   3   7  -3    6.66    0.25
  -3  -7   3    6.74    0.24
  -3  -7   3    6.89    0.26
   2   7  -3    6.46    0.24
  -2  -7   3    6.03    0.23
  -2  -7   3    6.69    0.25
   1   7  -3    0.10    0.04
   1   7  -3    0.06    0.04
  -1  -7   3    0.03    0.05
  -1  -7   3    0.02    0.04
   0   7  -3    2.05    0.13
   0   7  -3    2.07    0.13
   0   7  -3    2.17    0.13
   0  -7   3    1.94    0.14
   0  -7   3    2.06    0.14
  -1   7  -3    0.03    0.04
  -1   7  -3    0.07    0.04
  -1   7  -3    0.00    0.03
   1  -7   3   -0.02    0.03
   1  -7   3   -0.02    0.04
  -2   7  -3    0.24    0.06
  -2   7  -3    0.31    0.07
  -2   7  -3    0.14    0.05
   2  -7   3    0.18    0.06
   2  -7   3    0.19    0.06
  -3   7  -3    3.32    0.19
  -3   7  -3    3.43    0.19
   3  -7   3    3.55    0.19
   3  -7   3    3.33    0.18
  -4   7  -3    1.14    0.13
  -4   7  -3    1.55    0.16
   4  -7   3    0.96    0.12
   4  -7   3    1.08    0.12
  -5   7  -3    1.06    0.13
  -5   7  -3    1.47    0.16
   5  -7   3    1.15    0.13
   5  -7   3    1.05    0.12
  -6   7  -3    0.24    0.08
  -6   7  -3    0.30    0.08
   6  -7   3    0.18    0.07
   6  -7   3    0.30    0.09
  -7   7  -3    0.36    0.10
  -7   7  -3    0.27    0.08
   7  -7   3    0.29    0.09
   9   6  -3    0.14    0.08
   8   6  -3    0.07    0.07
  -8  -6   3    0.07    0.07
   7   6  -3    1.30    0.12
  -7  -6   3    1.72    0.18
   6   6  -3    0.11    0.04
  -6  -6   3    0.16    0.07
   5   6  -3    0.44    0.07
  -5  -6   3    0.60    0.10
   4   6  -3    0.13    0.04
   3   6  -3    8.46    0.27
  -3  -6   3    8.79    0.28
  -3  -6   3    8.50    0.26
   2   6  -3    0.44    0.07
   2   6  -3    0.47    0.06
  -2  -6   3    0.44    0.07
  -2  -6   3    0.52    0.08
   1   6  -3    1.48    0.09
   1   6  -3    1.28    0.10
   1   6  -3    1.26    0.09
  -1  -6   3    1.30    0.10
  -1  -6   3    1.40    0.10
   0   6  -3    3.73    0.17
   0   6  -3    3.80    0.16
   0   6  -3    3.89    0.17
   0  -6   3    3.97    0.17
   0  -6   3    3.72    0.17
  -1   6  -3    0.89    0.10
  -1   6  -3    0.96    0.10
  -1   6  -3    1.07    0.11
   1  -6   3    0.89    0.10
   1  -6   3    0.93    0.10
  -2   6  -3    2.55    0.14
  -2   6  -3    2.66    0.13
  -2   6  -3    2.85    0.16
  -2   6  -3    2.49    0.11
   2  -6   3    2.94    0.15
   2  -6   3    2.67    0.15
  -3   6  -3    2.48    0.15
  -3   6  -3    2.03    0.14
   3  -6   3    2.19    0.13
   3  -6   3    2.16    0.14
  -4   6  -3    2.65    0.17
  -4   6  -3    3.11    0.18
   4  -6   3    2.65    0.15
   4  -6   3    3.06    0.16
  -5   6  -3    0.44    0.08
  -5   6  -3    0.47    0.09
   5  -6   3    0.54    0.09
   5  -6   3    0.49    0.09
  -6   6  -3    0.01    0.04
  -6   6  -3    0.04    0.05
   6  -6   3    0.08    0.05
   6  -6   3    0.01    0.05
  -7   6  -3    0.11    0.06
  -7   6  -3    0.05    0.05
   7  -6   3    0.10    0.06
  -8   6  -3    0.42    0.11
  -8   6  -3    0.42    0.09
  10   5  -3    0.01    0.07
   9   5  -3    0.17    0.09
   8   5  -3    0.22    0.09
  -8  -5   3    0.14    0.08
   7   5  -3    0.55    0.11
  -7  -5   3    0.74    0.12
   6   5  -3    0.08    0.04
  -6  -5   3    0.05    0.05
   5   5  -3    0.58    0.08
  -5  -5   3    0.60    0.09
   4   5  -3    2.90    0.14
   3   5  -3    1.08    0.08
  -3  -5   3    1.13    0.09
  -3  -5   3    1.23    0.09
  -3  -5   3    1.29    0.08
   2   5  -3    0.04    0.03
   2   5  -3    0.03    0.02
  -2  -5   3    0.02    0.03
  -2  -5   3    0.02    0.03
   1   5  -3    2.88    0.12
   1   5  -3    3.08    0.14
   1   5  -3    3.25    0.13
  -1  -5   3    3.09    0.13
  -1  -5   3    2.84    0.14
   0   5  -3   18.25    0.43
   0   5  -3   18.12    0.43
   0   5  -3   18.02    0.44
   0  -5   3   18.50    0.45
   0  -5   3   18.56    0.43
  -1   5  -3    6.38    0.22
  -1   5  -3    6.39    0.21
  -1   5  -3    6.67    0.22
   1  -5   3    6.62    0.22
   1  -5   3    6.26    0.22
  -2   5  -3    2.27    0.13
  -2   5  -3    2.19    0.10
  -2   5  -3    2.23    0.13
  -2   5  -3    2.20    0.11
   2  -5   3    2.48    0.13
   2  -5   3    2.23    0.12
  -3   5  -3    0.60    0.09
  -3   5  -3    0.56    0.08
  -3   5  -3    0.51    0.06
   3  -5   3    0.60    0.08
   3  -5   3    0.52    0.07
  -4   5  -3    4.68    0.22
  -4   5  -3    4.84    0.21
  -4   5  -3    4.63    0.16
   4  -5   3    4.85    0.18
   4  -5   3    4.49    0.19
   4  -5   3    4.20    0.18
  -5   5  -3    0.01    0.04
  -5   5  -3    0.04    0.04
   5  -5   3    0.03    0.04
   5  -5   3    0.07    0.04
   5  -5   3    0.00    0.04
  -6   5  -3    0.12    0.05
  -6   5  -3    0.18    0.06
   6  -5   3    0.09    0.05
   6  -5   3    0.12    0.05
  -7   5  -3    0.50    0.10
  -7   5  -3    0.40    0.08
   7  -5   3    0.45    0.09
  -8   5  -3    0.57    0.11
  -8   5  -3    0.67    0.11
  -9   5  -3    0.29    0.10
  -9   5  -3    0.21    0.08
  10   4  -3    0.05    0.07
   9   4  -3    0.05    0.06
   8   4  -3    1.68    0.19
  -8  -4   3    1.58    0.16
   7   4  -3    4.10    0.24
  -7  -4   3    3.94    0.21
   6   4  -3    6.67    0.22
   6   4  -3    6.47    0.29
  -6  -4   3    6.94    0.26
   5   4  -3    0.53    0.07
   5   4  -3    0.42    0.08
  -5  -4   3    0.43    0.07
   4   4  -3    2.05    0.11
  -4  -4   3    1.99    0.11
  -4  -4   3    2.26    0.12
   3   4  -3    0.27    0.05
  -3  -4   3    0.26    0.05
  -3  -4   3    0.18    0.04
  -3  -4   3    0.24    0.04
   2   4  -3    0.41    0.04
   2   4  -3    0.46    0.06
   2   4  -3    0.46    0.05
  -2  -4   3    0.43    0.05
  -2  -4   3    0.38    0.06
  -2  -4   3    0.39    0.06
   1   4  -3    7.06    0.21
   1   4  -3    7.08    0.20
   1   4  -3    6.88    0.19
  -1  -4   3    6.83    0.21
  -1  -4   3    6.82    0.19
   0   4  -3    0.56    0.04
   0   4  -3    0.65    0.06
   0   4  -3    0.65    0.07
   0   4  -3    0.65    0.07
   0  -4   3    0.59    0.06
   0  -4   3    0.66    0.07
  -1   4  -3   11.35    0.29
  -1   4  -3   10.89    0.26
  -1   4  -3   10.72    0.30
  -1   4  -3   10.72    0.28
   1  -4   3   10.98    0.29
   1  -4   3   10.49    0.28
  -2   4  -3    2.60    0.11
  -2   4  -3    2.42    0.10
  -2   4  -3    2.42    0.13
   2  -4   3    2.42    0.12
   2  -4   3    2.62    0.12
  -3   4  -3    1.02    0.10
  -3   4  -3    0.91    0.06
  -3   4  -3    0.90    0.07
  -3   4  -3    1.03    0.10
   3  -4   3    0.95    0.09
   3  -4   3    1.04    0.08
  -4   4  -3    1.86    0.12
  -4   4  -3    1.70    0.12
  -4   4  -3    1.66    0.09
   4  -4   3    1.62    0.10
   4  -4   3    1.79    0.10
   4  -4   3    1.72    0.10
  -5   4  -3    0.18    0.06
  -5   4  -3    0.17    0.04
  -5   4  -3    0.13    0.04
   5  -4   3    0.26    0.06
   5  -4   3    0.19    0.05
   5  -4   3    0.20    0.05
  -6   4  -3    0.02    0.03
  -6   4  -3    0.09    0.05
   6  -4   3    0.01    0.04
   6  -4   3    0.04    0.04
  -7   4  -3    2.90    0.19
  -7   4  -3    2.50    0.16
   7  -4   3    3.00    0.16
  -8   4  -3    0.42    0.09
  -8   4  -3    0.55    0.11
  -9   4  -3    0.15    0.08
  10   3  -3    0.03    0.06
   9   3  -3    2.66    0.21
   8   3  -3    0.02    0.05
  -8  -3   3   -0.02    0.05
   7   3  -3    1.26    0.15
  -7  -3   3    1.00    0.12
   6   3  -3    6.47    0.28
   6   3  -3    6.18    0.20
  -6  -3   3    6.32    0.24
   5   3  -3    3.78    0.14
   5   3  -3    4.09    0.20
  -5  -3   3    3.92    0.17
   4   3  -3   12.51    0.30
   4   3  -3   12.48    0.38
  -4  -3   3   12.74    0.32
  -4  -3   3   12.49    0.34
   3   3  -3    0.77    0.06
   3   3  -3    0.66    0.08
  -3  -3   3    0.79    0.06
  -3  -3   3    0.79    0.07
  -3  -3   3    0.66    0.05
   2   3  -3    9.08    0.24
  -2  -3   3    9.02    0.21
  -2  -3   3    9.38    0.24
  -2  -3   3    9.05    0.26
   1   3  -3    1.41    0.07
   1   3  -3    1.48    0.08
  -1  -3   3    1.42    0.09
  -1  -3   3    1.31    0.08
  -1  -3   3    1.41    0.07
   0   3  -3   15.85    0.35
   0   3  -3   15.26    0.36
   0  -3   3   15.87    0.34
   0  -3   3   16.29    0.36
  -1   3  -3    1.54    0.07
  -1   3  -3    1.66    0.09
  -1   3  -3    1.43    0.08
   1  -3   3    1.39    0.08
   1  -3   3    1.54    0.08
  -2   3  -3    1.72    0.10
  -2   3  -3    1.66    0.07
  -2   3  -3    1.48    0.08
  -2   3  -3    1.67    0.10
   2  -3   3    1.72    0.09
   2  -3   3    1.72    0.09
  -3   3  -3    4.94    0.15
  -3   3  -3    4.80    0.18
  -3   3  -3    5.11    0.19
   3  -3   3    4.90    0.16
   3  -3   3    4.85    0.17
  -4   3  -3    0.46    0.07
  -4   3  -3    0.51    0.06
  -4   3  -3    0.50    0.07
   4  -3   3    0.46    0.06
   4  -3   3    0.57    0.06
   4  -3   3    0.53    0.07
  -5   3  -3    0.53    0.08
  -5   3  -3    0.65    0.07
  -5   3  -3    0.59    0.07
  -5   3  -3    0.70    0.08
   5  -3   3    0.65    0.07
   5  -3   3    0.60    0.08
   5  -3   3    0.62    0.08
  -6   3  -3    0.08    0.04
  -6   3  -3    0.15    0.05
  -6   3  -3    0.15    0.04
  -6   3  -3    0.08    0.05
   6  -3   3    0.10    0.04
   6  -3   3    0.07    0.04
  -7   3  -3    4.77    0.20
  -7   3  -3    4.49    0.21
  -7   3  -3    4.44    0.22
   7  -3   3    4.51    0.19
  -8   3  -3    1.12    0.12
  -8   3  -3    1.05    0.12
  -8   3  -3    1.40    0.16
  -9   3  -3    0.48    0.10
  -9   3  -3    0.36    0.08
 -10   3  -3    0.28    0.08
 -10   3  -3    0.19    0.09
  10   2  -3    0.12    0.08
   9   2  -3    0.03    0.06
   8   2  -3    0.19    0.08
   7   2  -3    0.16    0.06
  -7  -2   3    0.07    0.05
   6   2  -3    0.23    0.07
  -6  -2   3    0.29    0.06
   5   2  -3    7.00    0.27
   5   2  -3    7.10    0.20
  -5  -2   3    6.75    0.23
  -5  -2   3    7.09    0.23
   4   2  -3    7.75    0.27
   4   2  -3    7.00    0.23
   4   2  -3    7.30    0.20
  -4  -2   3    7.13    0.22
  -4  -2   3    7.12    0.23
   3   2  -3    3.87    0.13
   3   2  -3    3.67    0.16
   3   2  -3    3.80    0.15
  -3  -2   3    3.64    0.13
  -3  -2   3    3.94    0.15
  -3  -2   3    3.98    0.11
  -3  -2   3    3.74    0.09
   2   2  -3   79.09    1.54
   2   2  -3   76.45    1.64
   2   2  -3   75.91    1.38
  -2  -2   3   77.82    1.38
  -2  -2   3   75.69    1.32
  -2  -2   3   77.89    1.54
   1   2  -3   25.28    0.50
   1   2  -3   24.82    0.57
  -1  -2   3   26.17    0.51
  -1  -2   3   25.31    0.57
  -1  -2   3   24.75    0.47
   0   2  -3   39.86    0.80
   0   2  -3   40.72    0.76
   0  -2   3   40.05    0.73
   0  -2   3   40.36    0.76
  -1   2  -3    0.00    0.01
  -1   2  -3    0.01    0.02
  -1   2  -3    0.01    0.01
   1  -2   3    0.01    0.01
   1  -2   3   -0.01    0.01
  -2   2  -3    2.36    0.11
  -2   2  -3    2.39    0.09
   2  -2   3    2.42    0.10
   2  -2   3    2.60    0.11
  -3   2  -3    1.72    0.10
  -3   2  -3    1.84    0.08
  -3   2  -3    1.88    0.09
   3  -2   3    1.85    0.08
   3  -2   3    1.89    0.10
  -4   2  -3    3.51    0.16
  -4   2  -3    3.65    0.13
  -4   2  -3    3.34    0.15
  -4   2  -3    3.57    0.14
   4  -2   3    3.66    0.14
   4  -2   3    3.78    0.13
   4  -2   3    3.63    0.15
  -5   2  -3   15.27    0.37
  -5   2  -3   16.29    0.39
  -5   2  -3   15.72    0.40
  -5   2  -3   15.95    0.43
   5  -2   3   14.71    0.41
   5  -2   3   15.63    0.37
   5  -2   3   16.45    0.35
  -6   2  -3    0.24    0.05
  -6   2  -3    0.33    0.06
  -6   2  -3    0.33    0.06
  -6   2  -3    0.19    0.06
   6  -2   3    0.34    0.06
   6  -2   3    0.30    0.06
  -7   2  -3    0.15    0.05
  -7   2  -3    0.08    0.04
  -7   2  -3    0.09    0.04
  -7   2  -3    0.19    0.06
   7  -2   3    0.18    0.05
  -8   2  -3    0.54    0.09
  -8   2  -3    0.48    0.08
  -8   2  -3    0.44    0.08
  -9   2  -3    0.90    0.13
  -9   2  -3    0.77    0.11
 -10   2  -3    0.12    0.07
  10   1  -3    0.10    0.07
   9   1  -3    0.24    0.08
   8   1  -3    0.22    0.07
   7   1  -3    3.51    0.21
  -7  -1   3    3.43    0.18
   6   1  -3    3.68    0.20
  -6  -1   3    4.20    0.17
   5   1  -3    5.87    0.18
   5   1  -3    6.03    0.24
  -5  -1   3    6.22    0.20
  -5  -1   3    5.76    0.21
   4   1  -3    1.38    0.10
   4   1  -3    1.77    0.10
   4   1  -3    1.73    0.08
  -4  -1   3    1.49    0.08
  -4  -1   3    1.61    0.08
  -4  -1   3    1.47    0.09
   3   1  -3    0.00    0.02
   3   1  -3    0.02    0.02
   3   1  -3    0.03    0.02
  -3  -1   3    0.02    0.02
  -3  -1   3    0.03    0.01
  -3  -1   3    0.04    0.02
  -3  -1   3    0.03    0.02
   2   1  -3    9.12    0.25
   2   1  -3    8.91    0.22
   2   1  -3    8.61    0.25
  -2  -1   3    9.30    0.26
  -2  -1   3    8.87    0.21
  -2  -1   3    8.85    0.18
   1   1  -3    0.56    0.05
   1   1  -3    0.65    0.05
   1   1  -3    0.66    0.05
  -1  -1   3    0.51    0.05
   0   1  -3   77.86    1.47
   0  -1   3   77.36    1.54
  -1   1  -3   10.51    0.22
  -1   1  -3   10.34    0.26
  -2   1  -3   11.92    0.26
  -2   1  -3   11.54    0.26
  -2   1  -3   11.78    0.29
  -3   1  -3    3.90    0.13
  -3   1  -3    3.99    0.15
  -3   1  -3    3.75    0.12
  -4   1  -3    7.05    0.22
  -4   1  -3    6.17    0.20
  -4   1  -3    6.58    0.19
   4  -1   3    7.00    0.20
   4  -1   3    6.90    0.21
  -5   1  -3    1.93    0.12
  -5   1  -3    2.12    0.11
  -5   1  -3    2.13    0.12
  -5   1  -3    2.17    0.11
   5  -1   3    2.19    0.11
   5  -1   3    2.29    0.11
   5  -1   3    2.05    0.12
  -6   1  -3    0.04    0.03
  -6   1  -3    0.10    0.04
  -6   1  -3    0.03    0.03
  -6   1  -3    0.06    0.04
   6  -1   3    0.00    0.02
   6  -1   3    0.04    0.03
  -7   1  -3    0.00    0.04
  -7   1  -3    0.04    0.04
  -7   1  -3   -0.02    0.03
  -7   1  -3   -0.01    0.03
   7  -1   3    0.05    0.04
   7  -1   3    0.04    0.03
  -8   1  -3    0.19    0.06
  -8   1  -3    0.06    0.05
  -8   1  -3    0.14    0.05
  -9   1  -3    2.69    0.17
  -9   1  -3    2.80    0.18
  -9   1  -3    2.58    0.16
 -10   1  -3    1.03    0.14
 -11   1  -3    0.05    0.07
  10   0  -3    0.16    0.08
   9   0  -3    0.18    0.07
   8   0  -3    0.32    0.08
   7   0  -3    1.81    0.14
  -7   0   3    1.57    0.12
   6   0  -3    6.30    0.26
  -6   0   3    6.53    0.24
  -6   0   3    6.16    0.22
   5   0  -3    0.16    0.04
   5   0  -3    0.16    0.05
  -5   0   3    0.25    0.05
  -5   0   3    0.12    0.04
  -5   0   3    0.15    0.04
   4   0  -3    0.01    0.02
   4   0  -3    0.07    0.03
  -4   0   3    0.01    0.02
  -4   0   3    0.03    0.02
  -4   0   3    0.05    0.03
   3   0  -3    0.58    0.07
   3   0  -3    0.69    0.05
   3   0  -3    0.80    0.07
  -3   0   3    0.73    0.05
  -3   0   3    0.67    0.05
  -3   0   3    0.64    0.07
   2   0  -3    4.28    0.15
   2   0  -3    4.44    0.16
   2   0  -3    4.49    0.13
  -2   0   3    4.46    0.16
  -2   0   3    4.36    0.13
   1   0  -3    8.76    0.23
   1   0  -3    9.00    0.25
  -1   0   3    9.12    0.25
  -1   0   3    9.20    0.22
   0   0  -3   26.29    0.48
   0   0  -3   25.64    0.57
   0   0   3   26.35    0.57
  -1   0  -3   25.78    0.49
  -1   0  -3   25.82    0.56
   1   0   3   26.82    0.57
  -2   0  -3    0.07    0.02
  -2   0  -3    0.06    0.02
  -2   0  -3    0.06    0.02
   2   0   3    0.06    0.02
  -3   0  -3    0.59    0.05
  -3   0  -3    0.43    0.05
  -3   0  -3    0.43    0.05
  -4   0  -3    0.30    0.04
  -4   0  -3    0.29    0.05
  -4   0  -3    0.31    0.05
  -5   0  -3    1.51    0.09
  -5   0  -3    1.66    0.10
  -5   0  -3    1.41    0.09
   5   0   3    1.40    0.09
  -6   0  -3    0.14    0.05
  -6   0  -3    0.10    0.04
  -6   0  -3    0.16    0.04
  -6   0  -3    0.12    0.04
   6   0   3    0.20    0.05
  -7   0  -3    0.36    0.07
  -7   0  -3    0.31    0.06
  -7   0  -3    0.33    0.07
  -7   0  -3    0.23    0.05
   7   0   3    0.45    0.06
   7   0   3    0.25    0.06
  -8   0  -3    0.37    0.07
  -8   0  -3    0.38    0.07
  -8   0  -3    0.37    0.08
  -9   0  -3    0.49    0.10
  -9   0  -3    0.38    0.07
 -10   0  -3    0.23    0.07
 -10   0  -3    0.30    0.09
 -11   0  -3    1.72    0.18
  10  -1  -3   -0.01    0.07
   9  -1  -3    0.17    0.08
   8  -1  -3    0.11    0.06
   7  -1  -3    1.00    0.12
   6  -1  -3    0.00    0.03
  -6   1   3    0.05    0.04
  -6   1   3    0.00    0.03
  -6   1   3    0.01    0.03
   5  -1  -3    5.35    0.22
   5  -1  -3    5.05    0.16
  -5   1   3    4.93    0.19
  -5   1   3    5.21    0.17
  -5   1   3    5.29    0.22
   4  -1  -3    1.85    0.09
   4  -1  -3    1.57    0.10
  -4   1   3    1.82    0.10
  -4   1   3    1.76    0.11
  -4   1   3    1.77    0.09
   3  -1  -3   26.71    0.64
   3  -1  -3   27.00    0.53
  -3   1   3   26.36    0.62
  -3   1   3   27.33    0.58
  -3   1   3   26.51    0.52
   2  -1  -3   21.04    0.50
   2  -1  -3   20.78    0.50
   2  -1  -3   21.35    0.43
  -2   1   3   21.27    0.46
  -2   1   3   21.70    0.51
   1  -1  -3    5.82    0.12
   1  -1  -3    5.79    0.19
   1  -1  -3    5.86    0.16
   1  -1  -3    5.93    0.17
  -1   1   3    6.03    0.17
  -1   1   3    5.89    0.19
   0  -1  -3    3.55    0.13
   0  -1  -3    3.58    0.09
   0   1   3    3.43    0.12
   0   1   3    3.67    0.13
  -1  -1  -3   29.73    0.64
  -1  -1  -3   29.57    0.56
   1   1   3   31.24    0.64
  -2  -1  -3    4.76    0.15
  -2  -1  -3    4.78    0.13
   2   1   3    4.95    0.15
  -3  -1  -3   11.22    0.29
  -3  -1  -3   11.65    0.27
  -3  -1  -3   11.54    0.28
   3   1   3   12.00    0.29
  -4  -1  -3   -0.03    0.02
  -4  -1  -3   -0.01    0.02
  -4  -1  -3    0.00    0.02
   4   1   3    0.00    0.02
  -5  -1  -3    3.87    0.15
  -5  -1  -3    4.05    0.15
  -5  -1  -3    3.84    0.16
   5   1   3    3.88    0.15
  -6  -1  -3    0.39    0.07
  -6  -1  -3    0.42    0.06
  -6  -1  -3    0.43    0.06
   6   1   3    0.40    0.06
  -7  -1  -3    0.02    0.03
  -7  -1  -3    0.06    0.04
  -7  -1  -3    0.04    0.04
   7   1   3    0.04    0.03
  -8  -1  -3    2.49    0.15
  -8  -1  -3    2.06    0.15
  -9  -1  -3    0.31    0.07
  -9  -1  -3    0.42    0.09
 -10  -1  -3    0.04    0.06
 -10  -1  -3   -0.08    0.04
 -11  -1  -3    0.05    0.07
 -11  -1  -3   -0.03    0.05
  10  -2  -3    0.17    0.08
   9  -2  -3    1.91    0.17
   8  -2  -3    0.14    0.06
   7  -2  -3    0.17    0.06
  -7   2   3    0.20    0.06
   6  -2  -3    0.04    0.04
  -6   2   3    0.02    0.03
  -6   2   3    0.02    0.03
   5  -2  -3    0.63    0.07
   5  -2  -3    0.68    0.09
  -5   2   3    0.67    0.07
  -5   2   3    0.75    0.10
  -5   2   3    0.82    0.09
   4  -2  -3    0.61    0.06
   4  -2  -3    0.48    0.06
  -4   2   3    0.63    0.08
  -4   2   3    0.53    0.05
  -4   2   3    0.49    0.07
   3  -2  -3    0.86    0.06
   3  -2  -3    0.84    0.07
   3  -2  -3    0.88    0.06
  -3   2   3    0.86    0.07
  -3   2   3    0.75    0.08
   2  -2  -3   24.09    0.49
   2  -2  -3   24.07    0.56
   2  -2  -3   23.93    0.42
  -2   2   3   24.18    0.57
  -2   2   3   23.65    0.53
  -2   2   3   23.83    0.48
   1  -2  -3   15.14    0.37
   1  -2  -3   15.73    0.40
   1  -2  -3   15.10    0.29
   1  -2  -3   15.37    0.33
  -1   2   3   16.32    0.40
  -1   2   3   15.74    0.34
  -1   2   3   15.17    0.36
   0  -2  -3   -0.01    0.01
   0  -2  -3    0.02    0.02
   0  -2  -3    0.01    0.01
   0   2   3    0.01    0.01
   0   2   3    0.01    0.02
   0   2   3    0.02    0.01
  -1  -2  -3    0.70    0.04
  -1  -2  -3    0.76    0.06
   1   2   3    0.77    0.05
   1   2   3    0.74    0.05
   1   2   3    0.75    0.05
  -2  -2  -3    8.35    0.22
  -2  -2  -3    8.42    0.20
  -2  -2  -3    8.45    0.21
   2   2   3    8.44    0.21
   2   2   3    8.65    0.22
  -3  -2  -3    0.19    0.03
  -3  -2  -3    0.23    0.04
  -3  -2  -3    0.21    0.03
   3   2   3    0.23    0.03
  -4  -2  -3   18.33    0.41
  -4  -2  -3   17.88    0.43
   4   2   3   18.08    0.40
  -5  -2  -3    1.09    0.10
  -5  -2  -3    1.23    0.08
  -5  -2  -3    1.10    0.08
   5   2   3    1.17    0.06
  -6  -2  -3    0.63    0.07
  -6  -2  -3    0.68    0.08
  -6  -2  -3    0.74    0.09
   6   2   3    0.66    0.07
  -7  -2  -3    0.02    0.04
  -7  -2  -3    0.02    0.03
  -7  -2  -3    0.05    0.04
   7   2   3    0.05    0.03
  -8  -2  -3   -0.02    0.04
  -8  -2  -3    0.01    0.03
  -9  -2  -3    0.20    0.08
  -9  -2  -3    0.29    0.07
 -10  -2  -3    0.08    0.07
 -10  -2  -3    0.04    0.04
  10   2   3    0.01    0.06
 -11  -2  -3    0.03    0.06
 -11  -2  -3   -0.05    0.06
   9  -3  -3    0.78    0.11
   8  -3  -3    0.20    0.07
   7  -3  -3    1.82    0.14
  -7   3   3    1.20    0.14
   6  -3  -3   -0.01    0.04
  -6   3   3    0.00    0.04
   5  -3  -3    2.22    0.13
   5  -3  -3    2.08    0.11
  -5   3   3    2.10    0.14
   4  -3  -3    2.38    0.13
   4  -3  -3    2.36    0.11
   4  -3  -3    2.51    0.11
  -4   3   3    2.27    0.14
  -4   3   3    2.54    0.14
   3  -3  -3   10.88    0.28
   3  -3  -3   11.75    0.31
   3  -3  -3   10.86    0.27
  -3   3   3   11.39    0.27
  -3   3   3   11.27    0.32
  -3   3   3   10.96    0.34
   2  -3  -3   10.40    0.26
   2  -3  -3   10.57    0.28
   2  -3  -3   10.14    0.25
  -2   3   3   10.15    0.31
  -2   3   3   10.10    0.25
  -2   3   3   10.26    0.29
  -2   3   3    9.99    0.26
   1  -3  -3    0.98    0.07
   1  -3  -3    0.96    0.06
  -1   3   3    0.96    0.06
  -1   3   3    0.89    0.07
  -1   3   3    0.79    0.06
   0  -3  -3   14.31    0.37
   0  -3  -3   14.58    0.32
   0  -3  -3   14.48    0.28
   0   3   3   14.27    0.35
   0   3   3   14.21    0.37
   0   3   3   14.42    0.33
  -1  -3  -3    2.61    0.09
  -1  -3  -3    2.73    0.10
  -1  -3  -3    2.68    0.12
   1   3   3    2.56    0.10
   1   3   3    2.74    0.12
   1   3   3    2.53    0.11
  -2  -3  -3    1.77    0.08
  -2  -3  -3    1.70    0.08
  -2  -3  -3    1.72    0.08
   2   3   3    1.67    0.08
   2   3   3    1.68    0.08
   2   3   3    1.78    0.08
  -3  -3  -3   19.46    0.44
  -3  -3  -3   19.85    0.43
  -3  -3  -3   20.69    0.42
   3   3   3   19.99    0.44
   3   3   3   19.57    0.42
  -4  -3  -3  103.46    1.97
  -4  -3  -3  106.75    1.89
   4   3   3  102.96    2.00
   4   3   3  105.04    1.84
  -5  -3  -3   14.14    0.38
  -5  -3  -3   13.61    0.35
   5   3   3   13.75    0.31
  -6  -3  -3    0.34    0.07
  -6  -3  -3    0.41    0.06
  -7  -3  -3    0.22    0.05
  -7  -3  -3    0.34    0.08
  -8  -3  -3    0.00    0.04
  -8  -3  -3    0.00    0.03
  -9  -3  -3    0.01    0.04
  -9  -3  -3    0.06    0.06
 -10  -3  -3    0.04    0.05
 -10  -3  -3    0.00    0.06
 -11  -3  -3    0.04    0.06
 -11  -3  -3    0.06    0.08
  11   3   3    0.06    0.08
   8  -4  -3    0.18    0.06
  -8   4   3    0.08    0.06
   7  -4  -3    0.07    0.04
  -7   4   3    0.09    0.05
   6  -4  -3    1.11    0.11
   6  -4  -3    0.97    0.10
  -6   4   3    1.05    0.13
   5  -4  -3   13.02    0.35
   5  -4  -3   13.96    0.39
  -5   4   3   12.89    0.40
   4  -4  -3   17.77    0.45
   4  -4  -3   16.76    0.40
   4  -4  -3   17.08    0.41
  -4   4   3   17.03    0.47
   3  -4  -3   17.56    0.41
   3  -4  -3   17.24    0.40
  -3   4   3   17.20    0.45
  -3   4   3   16.86    0.39
  -3   4   3   17.38    0.49
   2  -4  -3    2.22    0.11
   2  -4  -3    2.13    0.11
  -2   4   3    2.05    0.10
  -2   4   3    1.90    0.12
  -2   4   3    1.98    0.12
   1  -4  -3    2.43    0.11
   1  -4  -3    2.42    0.12
  -1   4   3    2.30    0.12
  -1   4   3    2.36    0.11
  -1   4   3    2.48    0.13
  -1   4   3    2.46    0.11
   0  -4  -3    0.79    0.04
   0  -4  -3    0.75    0.07
   0  -4  -3    0.75    0.08
   0   4   3    0.85    0.07
   0   4   3    0.88    0.07
   0   4   3    0.89    0.07
  -1  -4  -3    0.05    0.03
  -1  -4  -3    0.07    0.03
  -1  -4  -3    0.05    0.02
   1   4   3    0.15    0.04
   1   4   3    0.11    0.03
   1   4   3    0.06    0.02
  -2  -4  -3    1.01    0.07
  -2  -4  -3    0.88    0.07
  -2  -4  -3    0.92    0.06
   2   4   3    0.92    0.06
   2   4   3    0.89    0.06
   2   4   3    0.86    0.06
  -3  -4  -3    0.08    0.02
  -3  -4  -3    0.06    0.04
  -3  -4  -3    0.13    0.03
  -3  -4  -3    0.12    0.03
   3   4   3    0.08    0.03
   3   4   3    0.11    0.03
   3   4   3    0.11    0.02
  -4  -4  -3    1.44    0.10
  -4  -4  -3    1.51    0.09
   4   4   3    1.43    0.08
   4   4   3    1.57    0.07
  -5  -4  -3    2.43    0.14
  -5  -4  -3    2.69    0.13
   5   4   3    2.88    0.12
  -6  -4  -3    3.06    0.17
  -6  -4  -3    3.05    0.14
   6   4   3    2.99    0.12
  -7  -4  -3    0.77    0.11
  -7  -4  -3    1.06    0.10
  -8  -4  -3    0.00    0.03
  -8  -4  -3   -0.01    0.04
  -9  -4  -3    0.47    0.09
  -9  -4  -3    0.44    0.08
 -10  -4  -3    0.04    0.07
 -10  -4  -3    0.00    0.04
 -11  -4  -3    0.14    0.09
 -11  -4  -3    0.15    0.07
  -8   5   3    0.03    0.06
   7  -5  -3    0.12    0.05
  -7   5   3    0.10    0.06
   6  -5  -3    0.42    0.07
   6  -5  -3    0.38    0.07
  -6   5   3    0.39    0.09
   5  -5  -3    1.22    0.11
  -5   5   3    1.67    0.13
   4  -5  -3    0.33    0.07
   4  -5  -3    0.42    0.07
  -4   5   3    0.47    0.08
   3  -5  -3    8.69    0.26
   3  -5  -3    8.16    0.26
  -3   5   3    8.22    0.29
   2  -5  -3    2.09    0.12
   2  -5  -3    2.15    0.12
  -2   5   3    2.09    0.14
  -2   5   3    2.00    0.12
  -2   5   3    1.88    0.11
   1  -5  -3    0.27    0.05
   1  -5  -3    0.22    0.05
  -1   5   3    0.23    0.05
  -1   5   3    0.21    0.05
  -1   5   3    0.32    0.06
   0  -5  -3    5.22    0.19
   0  -5  -3    5.19    0.18
   0   5   3    5.13    0.19
   0   5   3    4.97    0.20
   0   5   3    5.13    0.18
   0   5   3    4.90    0.18
  -1  -5  -3   18.12    0.44
  -1  -5  -3   18.16    0.43
  -1  -5  -3   18.70    0.37
   1   5   3   18.30    0.43
   1   5   3   18.59    0.43
   1   5   3   18.95    0.45
   1   5   3   18.30    0.47
  -2  -5  -3    8.58    0.22
  -2  -5  -3    8.43    0.26
  -2  -5  -3    9.19    0.25
   2   5   3    8.55    0.25
   2   5   3    8.69    0.26
   2   5   3    9.11    0.25
  -3  -5  -3    0.01    0.03
  -3  -5  -3    0.00    0.02
  -3  -5  -3    0.00    0.02
   3   5   3    0.06    0.03
   3   5   3    0.02    0.03
   3   5   3    0.05    0.02
  -4  -5  -3    1.09    0.08
  -4  -5  -3    1.17    0.11
   4   5   3    1.09    0.08
   4   5   3    1.04    0.08
  -5  -5  -3    0.36    0.06
  -5  -5  -3    0.25    0.06
   5   5   3    0.45    0.06
  -6  -5  -3    3.24    0.15
  -6  -5  -3    2.92    0.17
   6   5   3    2.55    0.13
  -7  -5  -3    0.66    0.11
  -7  -5  -3    0.71    0.09
  -8  -5  -3    0.03    0.04
  -8  -5  -3    0.06    0.06
  -9  -5  -3    0.21    0.06
  -9  -5  -3    0.20    0.08
 -10  -5  -3   -0.04    0.06
 -10  -5  -3    0.03    0.05
 -11  -5  -3   -0.04    0.07
  -7   6   3    0.07    0.05
   6  -6  -3    0.04    0.05
  -6   6   3    0.06    0.05
   5  -6  -3    0.17    0.06
  -5   6   3    0.15    0.06
   4  -6  -3    0.55    0.09
   4  -6  -3    0.74    0.09
  -4   6   3    0.59    0.10
   3  -6  -3    0.48    0.08
   3  -6  -3    0.69    0.10
  -3   6   3    0.70    0.10
   2  -6  -3    2.75    0.15
   2  -6  -3    3.00    0.15
  -2   6   3    2.99    0.15
  -2   6   3    3.13    0.17
   1  -6  -3    0.97    0.10
   1  -6  -3    1.03    0.11
  -1   6   3    0.92    0.10
  -1   6   3    1.16    0.11
   0  -6  -3    1.58    0.10
   0  -6  -3    1.41    0.11
   0   6   3    1.56    0.11
   0   6   3    1.45    0.11
   0   6   3    1.64    0.11
  -1  -6  -3    4.59    0.19
  -1  -6  -3    4.50    0.18
   1   6   3    4.57    0.18
   1   6   3    4.60    0.20
   1   6   3    4.65    0.18
  -2  -6  -3   12.63    0.29
  -2  -6  -3   13.04    0.35
  -2  -6  -3   13.19    0.37
   2   6   3   12.95    0.35
   2   6   3   13.04    0.37
   2   6   3   12.79    0.35
   2   6   3   12.56    0.35
  -3  -6  -3    2.64    0.13
  -3  -6  -3    2.54    0.11
   3   6   3    2.72    0.13
   3   6   3    2.41    0.13
   3   6   3    2.55    0.13
  -4  -6  -3    0.49    0.06
   4   6   3    0.42    0.06
   4   6   3    0.87    0.10
   4   6   3    0.48    0.07
  -5  -6  -3    0.03    0.03
  -5  -6  -3    0.02    0.04
   5   6   3    0.03    0.03
   5   6   3    0.09    0.04
  -6  -6  -3    0.37    0.06
  -6  -6  -3    0.42    0.08
   6   6   3    0.47    0.07
   6   6   3    0.50    0.08
  -7  -6  -3    0.08    0.06
  -7  -6  -3    0.13    0.05
  -8  -6  -3    1.23    0.15
  -8  -6  -3    1.06    0.11
  -9  -6  -3   -0.03    0.04
  -9  -6  -3    0.02    0.06
 -10  -6  -3    0.08    0.05
   6  -7  -3    0.06    0.06
  -6   7   3   -0.01    0.04
   5  -7  -3    0.20    0.07
  -5   7   3    0.19    0.07
   4  -7  -3    0.01    0.05
   4  -7  -3    0.01    0.04
  -4   7   3    0.02    0.04
   3  -7  -3    0.04    0.04
   3  -7  -3    0.03    0.05
  -3   7   3    0.01    0.03
   2  -7  -3    0.11    0.05
   2  -7  -3    0.13    0.06
  -2   7   3    0.30    0.07
  -2   7   3    0.13    0.05
   1  -7  -3    0.66    0.10
   1  -7  -3    0.36    0.08
  -1   7   3    0.61    0.09
  -1   7   3    0.66    0.09
   0  -7  -3    2.42    0.14
   0  -7  -3    2.17    0.15
   0   7   3    2.40    0.14
   0   7   3    2.68    0.15
  -1  -7  -3    0.35    0.07
  -1  -7  -3    0.18    0.06
   1   7   3    0.31    0.06
   1   7   3    0.23    0.06
   1   7   3    0.35    0.07
  -2  -7  -3    0.12    0.05
  -2  -7  -3    0.20    0.06
   2   7   3    0.21    0.06
   2   7   3    0.21    0.05
  -3  -7  -3    0.01    0.04
  -3  -7  -3    0.05    0.03
   3   7   3    0.09    0.04
   3   7   3    0.06    0.03
  -4  -7  -3    0.45    0.06
   4   7   3    0.60    0.09
  -5  -7  -3    2.36    0.13
  -5  -7  -3    2.31    0.15
   5   7   3    2.22    0.13
  -6  -7  -3    0.29    0.08
  -6  -7  -3    0.22    0.06
   6   7   3    0.32    0.07
  -7  -7  -3    0.02    0.05
  -7  -7  -3    0.13    0.05
   7   7   3    0.03    0.04
  -8  -7  -3   -0.01    0.06
  -8  -7  -3    0.00    0.04
  -9  -7  -3    0.00    0.07
  -9  -7  -3    0.02    0.04
 -10  -7  -3   -0.02    0.07
   6  -8  -3    0.09    0.05
  -5   8   3    1.46    0.17
   4  -8  -3    0.05    0.06
   4  -8  -3   -0.02    0.06
  -4   8   3    0.10    0.06
   3  -8  -3    0.05    0.05
   3  -8  -3    0.07    0.07
  -3   8   3    0.17    0.07
   2  -8  -3    0.00    0.04
   2  -8  -3    0.09    0.06
  -2   8   3    0.00    0.04
  -2   8   3    0.06    0.04
   1  -8  -3    0.11    0.06
   1  -8  -3   -0.03    0.04
  -1   8   3    0.06    0.04
  -1   8   3    0.06    0.05
   0  -8  -3    0.56    0.10
   0   8   3    0.55    0.09
   0   8   3    0.58    0.09
  -1  -8  -3    0.47    0.09
  -1  -8  -3    0.53    0.10
   1   8   3    0.47    0.08
   1   8   3    0.43    0.09
  -2  -8  -3    0.02    0.05
  -2  -8  -3    0.06    0.06
   2   8   3    0.14    0.05
   2   8   3    0.11    0.05
  -3  -8  -3    0.02    0.04
  -3  -8  -3    0.03    0.05
   3   8   3    0.03    0.04
  -4  -8  -3    0.19    0.05
   4   8   3    0.12    0.05
  -5  -8  -3    0.06    0.05
  -5  -8  -3    0.05    0.04
   5   8   3    0.01    0.04
  -6  -8  -3    0.26    0.08
  -6  -8  -3    0.23    0.06
   6   8   3    0.28    0.07
  -7  -8  -3    0.01    0.04
  -7  -8  -3   -0.02    0.06
   7   8   3    0.03    0.04
  -8  -8  -3    0.04    0.07
  -8  -8  -3    0.01    0.05
  -9  -8  -3    0.06    0.06
  -9  -8  -3    0.12    0.09
   4  -9  -3    0.05    0.06
   4  -9  -3   -0.04    0.07
  -4   9   3    0.13    0.06
   3  -9  -3    1.19    0.15
  -3   9   3    1.10    0.14
   2  -9  -3    0.92    0.12
   2  -9  -3    1.30    0.15
  -2   9   3    0.93    0.13
   1  -9  -3    0.36    0.09
   1  -9  -3    0.33    0.09
  -1   9   3    0.45    0.09
  -1   9   3    0.50    0.09
   0  -9  -3    0.46    0.10
   0  -9  -3    0.27    0.08
   0   9   3    0.31    0.08
   0   9   3    0.30    0.07
  -1  -9  -3    3.98    0.23
  -1  -9  -3    4.45    0.22
   1   9   3    4.72    0.22
   1   9   3    4.15    0.22
  -2  -9  -3    2.18    0.19
  -2  -9  -3    1.97    0.15
   2   9   3    2.25    0.16
  -3  -9  -3    0.22    0.08
  -3  -9  -3    0.11    0.06
   3   9   3    0.21    0.06
   4   9   3    0.13    0.05
   5   9   3   -0.01    0.04
  -6  -9  -3    0.08    0.07
   6   9   3   -0.01    0.04
  -7  -9  -3    0.09    0.05
  -7  -9  -3    0.19    0.09
   7   9   3    0.05    0.05
  -8  -9  -3   -0.05    0.05
  -8  -9  -3    0.11    0.08
   8   9   3    0.00    0.05
   3 -10  -3    0.12    0.08
   2 -10  -3   -0.02    0.08
   2 -10  -3    0.02    0.06
  -2  10   3    0.00    0.05
   1 -10  -3    0.08    0.08
   1 -10  -3    0.11    0.06
  -1  10   3    0.06    0.06
  -1  10   3    0.04    0.05
   0 -10  -3   -0.01    0.06
   0 -10  -3    0.07    0.07
   0  10   3    0.06    0.06
   0  10   3    0.06    0.05
  -1 -10  -3    0.68    0.12
  -1 -10  -3    0.54    0.12
   1  10   3    0.56    0.11
  -2 -10  -3    0.63    0.13
  -2 -10  -3    0.65    0.12
   2  10   3    0.91    0.13
  -3 -10  -3    0.05    0.06
  -3 -10  -3    0.13    0.09
   3  10   3    0.09    0.06
   4  10   3    0.18    0.07
   5  10   3   -0.03    0.04
   6  10   3    0.56    0.11
  -7 -10  -3    0.04    0.07
   7  10   3   -0.03    0.05
  -1  11   3    0.08    0.07
   0 -11  -3    0.04    0.07
   0  11   3    0.02    0.06
  -1 -11  -3    0.56    0.12
   1  11   3    0.46    0.11
  -2 -11  -3    0.35    0.10
   2  11   3    0.43    0.10
   3  11   3    0.11    0.07
   4  11   3   -0.02    0.05
   5  11   3    0.03    0.06
   5  10  -4    0.12    0.07
   4  10  -4    0.11    0.06
   3  10  -4    0.19    0.07
   2  10  -4    0.01    0.05
  -2 -10   4    0.00    0.07
  -2 -10   4    0.06    0.07
   1  10  -4    0.45    0.10
  -1 -10   4    0.50    0.11
  -1 -10   4    0.58    0.12
   0  10  -4    0.72    0.12
   0 -10   4    0.69    0.13
   0 -10   4    0.60    0.12
  -1  10  -4    1.15    0.14
  -1  10  -4    0.93    0.13
   1 -10   4    0.81    0.13
  -2  10  -4    0.04    0.05
   2 -10   4   -0.01    0.06
   6   9  -4    0.04    0.05
  -6  -9   4   -0.01    0.07
   5   9  -4    0.12    0.06
   4   9  -4    0.38    0.09
   3   9  -4    0.71    0.12
  -3  -9   4    0.76    0.12
   2   9  -4    0.10    0.06
  -2  -9   4    0.12    0.07
  -2  -9   4    0.10    0.07
   1   9  -4    0.27    0.08
  -1  -9   4    0.13    0.07
  -1  -9   4    0.20    0.08
   0   9  -4    0.34    0.07
   0   9  -4    0.48    0.10
   0  -9   4    0.54    0.11
   0  -9   4    0.41    0.09
  -1   9  -4    1.25    0.14
  -1   9  -4    1.41    0.16
   1  -9   4    1.27    0.15
   1  -9   4    1.48    0.17
  -2   9  -4    0.99    0.13
  -2   9  -4    1.07    0.14
   2  -9   4    0.71    0.11
   2  -9   4    1.09    0.15
  -3   9  -4    0.81    0.12
  -3   9  -4    0.80    0.13
   3  -9   4    0.61    0.12
  -4   9  -4    0.52    0.11
  -4   9  -4    0.31    0.08
   4  -9   4    0.11    0.05
   8   8  -4    0.01    0.05
   7   8  -4   -0.01    0.04
   7   8  -4    0.09    0.07
   6   8  -4    0.02    0.04
  -6  -8   4    0.08    0.07
   5   8  -4    1.05    0.13
   4   8  -4    1.33    0.15
   3   8  -4    0.26    0.07
  -3  -8   4    0.30    0.08
   2   8  -4    0.10    0.05
  -2  -8   4    0.09    0.06
  -2  -8   4    0.15    0.07
   1   8  -4    0.01    0.04
  -1  -8   4    0.08    0.06
  -1  -8   4    0.01    0.05
   0   8  -4    1.36    0.14
   0   8  -4    1.19    0.12
   0  -8   4    1.44    0.16
   0  -8   4    1.16    0.13
  -1   8  -4    2.80    0.17
  -1   8  -4    3.15    0.18
  -1   8  -4    3.27    0.14
  -1   8  -4    3.09    0.18
   1  -8   4    2.67    0.17
   1  -8   4    3.04    0.19
  -2   8  -4    1.36    0.14
  -2   8  -4    1.79    0.17
  -2   8  -4    1.62    0.12
   2  -8   4    1.41    0.15
   2  -8   4    1.44    0.15
  -3   8  -4    1.60    0.16
  -3   8  -4    1.67    0.17
   3  -8   4    1.47    0.15
   3  -8   4    1.14    0.13
  -4   8  -4    0.91    0.14
  -4   8  -4    0.92    0.13
   4  -8   4    0.91    0.13
   4  -8   4    0.46    0.09
  -5   8  -4    0.33    0.09
  -5   8  -4    0.23    0.08
   5  -8   4    0.10    0.06
   5  -8   4    0.30    0.09
   8   7  -4    0.01    0.07
   7   7  -4    0.00    0.04
   7   7  -4   -0.03    0.05
   6   7  -4    0.71    0.12
   6   7  -4    0.63    0.09
  -6  -7   4    0.68    0.12
   5   7  -4    0.45    0.08
   4   7  -4    0.15    0.06
   3   7  -4    5.70    0.24
  -3  -7   4    5.61    0.24
   2   7  -4    0.18    0.06
  -2  -7   4    0.14    0.06
   1   7  -4    0.05    0.04
   1   7  -4   -0.01    0.03
  -1  -7   4    0.04    0.05
  -1  -7   4    0.04    0.04
   0   7  -4    1.03    0.11
   0   7  -4    1.09    0.12
   0  -7   4    0.79    0.11
   0  -7   4    1.07    0.12
  -1   7  -4    4.93    0.22
  -1   7  -4    4.72    0.16
  -1   7  -4    4.68    0.21
  -1   7  -4    4.71    0.21
   1  -7   4    4.21    0.21
   1  -7   4    4.56    0.21
  -2   7  -4    0.09    0.05
  -2   7  -4    0.07    0.03
  -2   7  -4    0.07    0.04
  -2   7  -4   -0.02    0.03
   2  -7   4    0.03    0.05
   2  -7   4    0.06    0.05
  -3   7  -4    0.49    0.09
  -3   7  -4    0.39    0.09
   3  -7   4    0.35    0.08
   3  -7   4    0.51    0.09
  -4   7  -4    0.19    0.06
  -4   7  -4    0.26    0.07
   4  -7   4    0.18    0.07
   4  -7   4    0.15    0.06
  -5   7  -4    0.48    0.10
  -5   7  -4    0.42    0.09
   5  -7   4    0.20    0.06
   5  -7   4    0.49    0.09
  -6   7  -4    0.21    0.08
  -6   7  -4    0.13    0.06
   6  -7   4    0.14    0.07
   6  -7   4    0.14    0.06
  -7   7  -4    0.13    0.07
   7  -7   4    0.13    0.08
   9   6  -4    0.32    0.11
   8   6  -4    0.11    0.08
   7   6  -4    1.08    0.12
   7   6  -4    1.10    0.16
   6   6  -4    1.41    0.16
   6   6  -4    1.39    0.11
  -6  -6   4    1.84    0.17
   5   6  -4    0.00    0.04
   5   6  -4    0.06    0.04
  -5  -6   4    0.01    0.05
   4   6  -4    0.63    0.09
   3   6  -4    0.51    0.08
  -3  -6   4    0.38    0.08
  -3  -6   4    0.50    0.07
   2   6  -4    0.05    0.03
  -2  -6   4    0.01    0.04
  -2  -6   4   -0.03    0.04
  -2  -6   4    0.02    0.04
   1   6  -4    0.47    0.07
   1   6  -4    0.47    0.08
  -1  -6   4    0.39    0.07
  -1  -6   4    0.45    0.08
   0   6  -4    0.90    0.09
   0   6  -4    0.89    0.09
   0   6  -4    0.87    0.10
   0  -6   4    0.80    0.09
   0  -6   4    0.80    0.10
  -1   6  -4    4.89    0.20
  -1   6  -4    5.68    0.22
  -1   6  -4    5.01    0.20
   1  -6   4    5.14    0.22
   1  -6   4    5.39    0.21
  -2   6  -4    3.18    0.17
  -2   6  -4    3.12    0.16
  -2   6  -4    3.33    0.16
  -2   6  -4    2.81    0.13
   2  -6   4    3.38    0.17
   2  -6   4    3.40    0.18
  -3   6  -4    1.14    0.13
  -3   6  -4    1.05    0.08
   3  -6   4    1.20    0.13
   3  -6   4    1.08    0.12
  -4   6  -4    0.82    0.11
  -4   6  -4    1.21    0.14
   4  -6   4    1.18    0.13
   4  -6   4    1.01    0.12
  -5   6  -4    0.19    0.07
  -5   6  -4    0.11    0.06
   5  -6   4    0.16    0.06
   5  -6   4    0.11    0.05
  -6   6  -4    1.82    0.19
  -6   6  -4    2.25    0.17
   6  -6   4    1.91    0.15
   6  -6   4    2.16    0.15
  -7   6  -4    0.81    0.12
  -7   6  -4    0.83    0.14
   7  -6   4    0.86    0.13
  -8   6  -4    0.02    0.05
   9   5  -4    0.11    0.08
   8   5  -4    0.52    0.12
   7   5  -4    0.52    0.08
   7   5  -4    0.49    0.11
   6   5  -4    0.09    0.06
   6   5  -4    0.10    0.04
  -6  -5   4    0.15    0.06
   5   5  -4    0.28    0.06
   5   5  -4    0.33    0.08
  -5  -5   4    0.34    0.07
   4   5  -4    0.12    0.04
   4   5  -4    0.11    0.05
   3   5  -4    0.93    0.10
  -3  -5   4    0.81    0.08
  -3  -5   4    0.73    0.09
  -3  -5   4    0.79    0.09
   2   5  -4   10.54    0.28
   2   5  -4   10.66    0.30
  -2  -5   4   10.53    0.33
  -2  -5   4   10.57    0.28
  -2  -5   4   10.41    0.31
   1   5  -4    0.00    0.02
   1   5  -4    0.01    0.03
   1   5  -4    0.00    0.02
  -1  -5   4    0.03    0.04
  -1  -5   4    0.01    0.03
   0   5  -4    2.54    0.12
   0   5  -4    2.18    0.12
   0   5  -4    2.23    0.12
   0  -5   4    2.35    0.13
   0  -5   4    2.43    0.12
  -1   5  -4   13.80    0.37
  -1   5  -4   13.45    0.35
  -1   5  -4   13.58    0.37
   1  -5   4   13.33    0.35
   1  -5   4   13.44    0.37
  -2   5  -4    8.10    0.22
  -2   5  -4    7.79    0.25
  -2   5  -4    8.34    0.27
  -2   5  -4    9.14    0.29
   2  -5   4    7.28    0.26
   2  -5   4    7.48    0.25
  -3   5  -4    1.76    0.13
  -3   5  -4    1.56    0.11
  -3   5  -4    1.69    0.10
   3  -5   4    1.78    0.12
   3  -5   4    1.67    0.11
  -4   5  -4    0.68    0.08
  -4   5  -4    0.52    0.08
  -4   5  -4    0.54    0.09
   4  -5   4    0.66    0.09
   4  -5   4    0.59    0.08
  -5   5  -4    0.70    0.11
  -5   5  -4    0.58    0.09
   5  -5   4    0.66    0.09
   5  -5   4    0.47    0.08
  -6   5  -4    0.24    0.07
  -6   5  -4    0.21    0.07
   6  -5   4    0.27    0.07
   6  -5   4    0.37    0.08
  -7   5  -4    0.04    0.05
  -7   5  -4    0.01    0.04
   7  -5   4    0.01    0.05
  -8   5  -4    0.03    0.06
  -8   5  -4   -0.01    0.04
  -9   5  -4    0.01    0.05
  10   4  -4    0.50    0.12
   9   4  -4    0.05    0.07
   8   4  -4    0.49    0.10
   7   4  -4    0.06    0.05
   6   4  -4    0.67    0.11
   6   4  -4    0.62    0.08
  -6  -4   4    0.63    0.10
   5   4  -4    1.09    0.13
   5   4  -4    1.23    0.09
  -5  -4   4    1.33    0.11
   4   4  -4    2.60    0.13
   4   4  -4    2.18    0.15
  -4  -4   4    2.60    0.13
  -4  -4   4    2.73    0.14
   3   4  -4    2.35    0.14
   3   4  -4    2.65    0.13
  -3  -4   4    2.45    0.13
  -3  -4   4    2.61    0.11
  -3  -4   4    2.47    0.14
   2   4  -4    7.16    0.23
   2   4  -4    7.07    0.24
  -2  -4   4    7.51    0.23
  -2  -4   4    7.26    0.20
  -2  -4   4    7.19    0.25
   1   4  -4    4.60    0.16
   1   4  -4    4.70    0.17
   1   4  -4    4.33    0.15
  -1  -4   4    4.38    0.15
  -1  -4   4    4.43    0.19
  -1  -4   4    4.68    0.18
   0   4  -4   15.78    0.38
   0   4  -4   15.83    0.38
   0   4  -4   15.85    0.39
   0  -4   4   16.19    0.40
   0  -4   4   15.46    0.37
  -1   4  -4    0.95    0.09
  -1   4  -4    0.98    0.06
  -1   4  -4    0.95    0.08
  -1   4  -4    1.13    0.08
   1  -4   4    0.99    0.10
   1  -4   4    1.07    0.09
  -2   4  -4    0.01    0.02
  -2   4  -4   -0.01    0.02
  -2   4  -4    0.01    0.02
  -2   4  -4   -0.02    0.02
   2  -4   4    0.01    0.03
   2  -4   4    0.01    0.03
  -3   4  -4    4.47    0.19
  -3   4  -4    4.61    0.16
  -3   4  -4    4.78    0.16
  -3   4  -4    4.62    0.19
   3  -4   4    4.67    0.18
   3  -4   4    4.47    0.18
  -4   4  -4    0.59    0.07
  -4   4  -4    0.71    0.10
  -4   4  -4    0.57    0.08
   4  -4   4    0.66    0.08
   4  -4   4    0.59    0.08
  -5   4  -4    0.40    0.08
  -5   4  -4    0.33    0.06
   5  -4   4    0.50    0.08
   5  -4   4    0.34    0.07
  -6   4  -4    0.02    0.03
  -6   4  -4    0.02    0.04
  -6   4  -4    0.00    0.04
   6  -4   4    0.04    0.05
  -7   4  -4    3.23    0.20
  -7   4  -4    2.95    0.18
   7  -4   4    3.49    0.18
  -8   4  -4    0.18    0.07
  -8   4  -4    0.20    0.06
  -9   4  -4    0.00    0.06
  -9   4  -4   -0.01    0.05
  10   3  -4    0.01    0.07
   9   3  -4    0.03    0.06
   8   3  -4    0.04    0.06
   7   3  -4    0.17    0.07
   6   3  -4    1.32    0.10
   6   3  -4    1.27    0.14
   5   3  -4    0.17    0.05
   5   3  -4    0.04    0.04
  -5  -3   4    0.14    0.05
   4   3  -4    1.36    0.11
   4   3  -4    1.10    0.08
  -4  -3   4    1.20    0.09
  -4  -3   4    1.44    0.09
   3   3  -4    8.79    0.30
   3   3  -4    9.47    0.26
  -3  -3   4    9.46    0.21
  -3  -3   4    9.50    0.29
  -3  -3   4    9.32    0.26
   2   3  -4    7.76    0.22
   2   3  -4    7.23    0.24
  -2  -3   4    7.33    0.23
  -2  -3   4    7.70    0.19
  -2  -3   4    7.66    0.25
   1   3  -4    1.10    0.07
   1   3  -4    1.06    0.07
   1   3  -4    1.00    0.07
  -1  -3   4    1.13    0.08
  -1  -3   4    1.20    0.09
  -1  -3   4    1.21    0.07
   0   3  -4    0.32    0.05
   0   3  -4    0.24    0.04
   0  -3   4    0.25    0.04
   0  -3   4    0.29    0.05
  -1   3  -4    2.53    0.11
  -1   3  -4    2.50    0.12
  -1   3  -4    2.65    0.10
   1  -3   4    2.54    0.12
   1  -3   4    2.37    0.11
  -2   3  -4    0.00    0.02
  -2   3  -4    0.00    0.02
  -2   3  -4    0.02    0.02
   2  -3   4    0.00    0.02
   2  -3   4   -0.01    0.02
  -3   3  -4   23.47    0.49
  -3   3  -4   23.71    0.50
  -3   3  -4   23.47    0.55
  -3   3  -4   24.14    0.57
   3  -3   4   24.30    0.52
   3  -3   4   23.34    0.52
  -4   3  -4    1.68    0.11
  -4   3  -4    1.58    0.11
  -4   3  -4    1.60    0.10
   4  -3   4    1.70    0.10
   4  -3   4    1.69    0.10
  -5   3  -4    0.37    0.06
  -5   3  -4    0.26    0.05
  -5   3  -4    0.28    0.06
  -5   3  -4    0.22    0.05
   5  -3   4    0.23    0.05
   5  -3   4    0.29    0.06
  -6   3  -4    0.02    0.03
  -6   3  -4    0.06    0.04
  -6   3  -4    0.00    0.03
  -6   3  -4    0.01    0.03
   6  -3   4    0.03    0.03
  -7   3  -4    2.65    0.16
  -7   3  -4    3.57    0.17
  -7   3  -4    3.23    0.19
  -7   3  -4    2.88    0.15
   7  -3   4    2.94    0.16
  -8   3  -4    0.00    0.04
  -8   3  -4    0.02    0.04
  -8   3  -4   -0.01    0.04
  -9   3  -4    0.14    0.06
  -9   3  -4    0.18    0.08
 -10   3  -4    0.00    0.05
 -10   3  -4   -0.04    0.06
  10   2  -4    0.00    0.06
   9   2  -4    0.02    0.06
   8   2  -4    2.06    0.18
   7   2  -4    2.02    0.17
   6   2  -4    2.73    0.18
   6   2  -4    2.75    0.13
   5   2  -4    1.86    0.14
   5   2  -4    1.75    0.10
  -5  -2   4    1.78    0.12
   4   2  -4    1.09    0.11
   4   2  -4    1.00    0.07
  -4  -2   4    1.07    0.08
  -4  -2   4    1.01    0.09
   3   2  -4    0.61    0.07
   3   2  -4    0.70    0.08
  -3  -2   4    0.72    0.05
  -3  -2   4    0.87    0.08
  -3  -2   4    0.78    0.08
  -3  -2   4    0.69    0.04
  -3  -2   4    0.76    0.06
   2   2  -4    4.23    0.15
   2   2  -4    4.30    0.17
  -2  -2   4    4.31    0.12
  -2  -2   4    4.31    0.17
  -2  -2   4    4.23    0.15
   1   2  -4    0.49    0.05
   1   2  -4    0.47    0.06
  -1  -2   4    0.52    0.06
  -1  -2   4    0.46    0.06
  -1  -2   4    0.49    0.05
   0   2  -4    1.57    0.08
   0   2  -4    1.54    0.08
   0  -2   4    1.62    0.08
   0  -2   4    1.66    0.10
   0  -2   4    1.58    0.09
  -1   2  -4    0.37    0.04
  -1   2  -4    0.35    0.05
  -1   2  -4    0.42    0.05
   1  -2   4    0.34    0.04
   1  -2   4    0.32    0.05
  -2   2  -4    6.86    0.19
  -2   2  -4    7.08    0.22
  -2   2  -4    7.15    0.19
   2  -2   4    7.18    0.21
   2  -2   4    6.79    0.20
  -3   2  -4   46.59    0.88
  -3   2  -4   46.62    0.90
  -3   2  -4   45.67    0.97
   3  -2   4   45.84    0.88
   3  -2   4   47.33    0.89
  -4   2  -4    0.54    0.07
  -4   2  -4    0.68    0.07
  -4   2  -4    0.73    0.07
   4  -2   4    0.68    0.07
   4  -2   4    0.63    0.07
  -5   2  -4    3.02    0.16
  -5   2  -4    3.10    0.14
  -5   2  -4    3.02    0.15
  -5   2  -4    2.93    0.14
   5  -2   4    3.09    0.12
   5  -2   4    2.91    0.14
  -6   2  -4    0.53    0.08
  -6   2  -4    0.35    0.06
  -6   2  -4    0.46    0.08
  -6   2  -4    0.40    0.07
   6  -2   4    0.44    0.07
  -7   2  -4    1.34    0.11
  -7   2  -4    1.03    0.11
  -7   2  -4    0.99    0.12
  -7   2  -4    1.19    0.12
   7  -2   4    1.25    0.11
  -8   2  -4    1.15    0.12
  -8   2  -4    0.90    0.11
  -8   2  -4    0.93    0.12
  -8   2  -4    0.91    0.11
  -9   2  -4    0.11    0.06
  -9   2  -4    0.10    0.06
 -10   2  -4    0.03    0.06
 -10   2  -4    0.01    0.06
  10   1  -4    0.02    0.06
   9   1  -4    0.46    0.11
   8   1  -4    0.07    0.06
   7   1  -4    4.00    0.22
   6   1  -4   11.89    0.40
   6   1  -4   11.48    0.31
   5   1  -4    0.40    0.06
   5   1  -4    0.49    0.08
  -5  -1   4    0.72    0.09
   4   1  -4    0.54    0.06
   4   1  -4    0.54    0.08
  -4  -1   4    0.57    0.08
  -4  -1   4    0.56    0.06
  -4  -1   4    0.60    0.06
   3   1  -4    1.39    0.10
   3   1  -4    1.30    0.08
  -3  -1   4    1.31    0.07
  -3  -1   4    1.22    0.07
  -3  -1   4    1.25    0.09
  -3  -1   4    1.26    0.05
  -3  -1   4    1.31    0.08
   2   1  -4    7.37    0.23
   2   1  -4    7.52    0.21
  -2  -1   4    7.49    0.24
  -2  -1   4    7.48    0.21
  -2  -1   4    7.53    0.20
   1   1  -4   12.54    0.32
   1   1  -4   12.97    0.30
   1   1  -4   12.91    0.34
  -1  -1   4   12.85    0.31
  -1  -1   4   13.08    0.35
   0   1  -4    9.02    0.26
   0   1  -4    8.37    0.21
   0   1  -4    8.32    0.22
   0  -1   4    8.51    0.23
   0  -1   4    8.76    0.26
  -1   1  -4    7.10    0.19
  -1   1  -4    7.34    0.21
  -1   1  -4    7.26    0.18
   1  -1   4    7.57    0.21
   1  -1   4    7.59    0.24
  -2   1  -4    0.12    0.02
  -2   1  -4    0.12    0.03
  -2   1  -4    0.11    0.02
   2  -1   4    0.09    0.03
   2  -1   4    0.08    0.03
  -3   1  -4    0.25    0.05
  -3   1  -4    0.20    0.04
  -3   1  -4    0.17    0.03
   3  -1   4    0.24    0.04
  -4   1  -4    0.05    0.03
  -4   1  -4    0.02    0.02
  -4   1  -4   -0.01    0.02
   4  -1   4    0.00    0.02
  -5   1  -4   17.50    0.42
  -5   1  -4   17.34    0.46
  -5   1  -4   17.45    0.43
   5  -1   4   17.70    0.42
   5  -1   4   17.81    0.38
  -6   1  -4    1.49    0.11
  -6   1  -4    1.45    0.11
  -6   1  -4    1.29    0.10
  -6   1  -4    1.51    0.11
   6  -1   4    1.76    0.11
  -7   1  -4    2.41    0.14
  -7   1  -4    2.64    0.16
  -7   1  -4    2.69    0.16
  -7   1  -4    2.74    0.15
   7  -1   4    2.86    0.14
  -8   1  -4    0.40    0.08
  -8   1  -4    0.43    0.08
  -8   1  -4    0.51    0.09
  -8   1  -4    0.32    0.07
  -9   1  -4    0.06    0.05
  -9   1  -4    0.00    0.05
  -9   1  -4    0.05    0.05
 -10   1  -4    0.80    0.12
 -11   1  -4    0.58    0.11
  10   0  -4    0.21    0.09
   9   0  -4    0.25    0.08
   8   0  -4    0.36    0.09
   7   0  -4    1.38    0.13
   6   0  -4    2.29    0.12
   6   0  -4    2.80    0.17
  -6   0   4    2.68    0.16
   5   0  -4    0.01    0.03
   5   0  -4    0.04    0.04
  -5   0   4    0.05    0.04
  -5   0   4    0.05    0.03
   4   0  -4    0.46    0.06
   4   0  -4    0.45    0.07
  -4   0   4    0.54    0.06
  -4   0   4    0.50    0.07
   3   0  -4    0.48    0.06
   3   0  -4    0.38    0.06
  -3   0   4    0.60    0.06
  -3   0   4    0.59    0.06
  -3   0   4    0.47    0.07
   2   0  -4    9.71    0.25
   2   0  -4    9.18    0.27
  -2   0   4    9.48    0.24
  -2   0   4    9.72    0.25
  -2   0   4    9.45    0.29
   1   0  -4   18.58    0.46
   1   0  -4   18.14    0.44
   1   0  -4   18.60    0.40
  -1   0   4   18.93    0.41
  -1   0   4   19.46    0.42
  -1   0   4   18.78    0.46
   0   0  -4   26.36    0.52
   0   0  -4   26.25    0.59
   0   0  -4   26.24    0.49
   0   0  -4   24.65    0.56
   0   0   4   24.95    0.52
   0   0   4   26.36    0.60
  -1   0  -4   10.20    0.28
  -1   0  -4   10.20    0.24
  -1   0  -4   10.17    0.23
   1   0   4   10.09    0.25
   1   0   4   10.28    0.29
  -2   0  -4    0.33    0.04
  -2   0  -4    0.39    0.04
  -2   0  -4    0.25    0.04
   2   0   4    0.40    0.05
   2   0   4    0.33    0.05
  -3   0  -4    6.15    0.18
  -3   0  -4    5.99    0.18
  -3   0  -4    6.07    0.20
   3   0   4    6.07    0.17
   3   0   4    5.85    0.20
  -4   0  -4    0.64    0.07
  -4   0  -4    0.58    0.07
  -4   0  -4    0.47    0.06
   4   0   4    0.63    0.06
  -5   0  -4    0.21    0.05
  -5   0  -4    0.13    0.04
  -5   0  -4    0.06    0.03
   5   0   4    0.14    0.03
  -6   0  -4    1.46    0.10
  -6   0  -4    1.40    0.11
  -6   0  -4    1.23    0.10
  -7   0  -4    6.75    0.26
  -7   0  -4    6.53    0.24
  -7   0  -4    6.74    0.24
  -7   0  -4    7.18    0.26
  -8   0  -4   -0.02    0.03
  -8   0  -4    0.03    0.04
  -8   0  -4    0.00    0.04
  -9   0  -4    0.23    0.07
  -9   0  -4    0.31    0.08
 -10   0  -4    0.17    0.07
 -10   0  -4    0.17    0.06
 -11   0  -4   -0.07    0.06
   9  -1  -4   -0.01    0.06
   8  -1  -4    0.02    0.05
   7  -1  -4    2.34    0.17
   6  -1  -4    3.62    0.19
   6  -1  -4    3.33    0.15
   5  -1  -4    2.54    0.15
   5  -1  -4    2.31    0.11
  -5   1   4    2.33    0.13
  -5   1   4    2.34    0.15
   4  -1  -4    0.45    0.06
   4  -1  -4    0.40    0.06
  -4   1   4    0.54    0.07
  -4   1   4    0.50    0.08
   3  -1  -4    1.20    0.09
   3  -1  -4    1.45    0.08
  -3   1   4    1.23    0.10
  -3   1   4    1.34    0.07
  -3   1   4    1.35    0.08
   2  -1  -4   20.53    0.43
   2  -1  -4   19.49    0.48
  -2   1   4   19.93    0.45
  -2   1   4   20.15    0.42
  -2   1   4   19.79    0.50
   1  -1  -4   32.35    0.63
   1  -1  -4   31.19    0.70
   1  -1  -4   31.82    0.58
   1  -1  -4   31.20    0.72
  -1   1   4   31.81    0.63
  -1   1   4   32.47    0.72
  -1   1   4   31.70    0.67
   0  -1  -4   11.19    0.31
   0  -1  -4   11.34    0.24
   0  -1  -4   11.49    0.27
   0   1   4   11.31    0.28
   0   1   4   11.19    0.29
   0   1   4   11.50    0.31
  -1  -1  -4   11.91    0.26
  -1  -1  -4   11.68    0.32
  -1  -1  -4   12.64    0.28
   1   1   4   12.48    0.33
   1   1   4   11.63    0.28
  -2  -1  -4    0.79    0.05
  -2  -1  -4    0.66    0.05
  -2  -1  -4    0.78    0.06
   2   1   4    0.78    0.06
   2   1   4    0.76    0.05
  -3  -1  -4    0.00    0.02
  -3  -1  -4    0.01    0.02
   3   1   4    0.01    0.02
   3   1   4    0.00    0.02
  -4  -1  -4    1.43    0.09
  -4  -1  -4    1.28    0.10
  -4  -1  -4    1.60    0.09
   4   1   4    1.34    0.08
   4   1   4    1.60    0.08
  -5  -1  -4    0.33    0.06
  -5  -1  -4    0.21    0.05
  -5  -1  -4    0.33    0.05
   5   1   4    0.27    0.04
   5   1   4    0.29    0.05
  -6  -1  -4    0.53    0.07
  -6  -1  -4    0.63    0.08
  -6  -1  -4    0.58    0.08
  -7  -1  -4    0.26    0.06
  -7  -1  -4    0.29    0.06
  -7  -1  -4    0.25    0.07
  -8  -1  -4    0.23    0.06
  -8  -1  -4    0.14    0.05
  -8  -1  -4    0.24    0.07
  -9  -1  -4    0.14    0.07
  -9  -1  -4    0.20    0.06
 -10  -1  -4    0.09    0.07
 -10  -1  -4    0.04    0.05
 -11  -1  -4    0.86    0.12
 -11  -1  -4    0.81    0.14
   9  -2  -4   -0.02    0.05
   8  -2  -4   -0.02    0.05
   7  -2  -4    0.63    0.10
   6  -2  -4    1.51    0.10
   6  -2  -4    1.38    0.12
  -6   2   4    1.37    0.11
   5  -2  -4    2.81    0.13
   5  -2  -4    3.37    0.17
  -5   2   4    2.79    0.15
   4  -2  -4    2.98    0.13
   4  -2  -4    3.39    0.16
  -4   2   4    2.99    0.15
  -4   2   4    3.04    0.17
   3  -2  -4    4.83    0.18
   3  -2  -4    4.59    0.16
  -3   2   4    4.96    0.18
  -3   2   4    4.92    0.21
  -3   2   4    4.76    0.15
   2  -2  -4    1.44    0.08
   2  -2  -4    1.51    0.09
   2  -2  -4    1.50    0.05
  -2   2   4    1.45    0.09
  -2   2   4    1.45    0.08
  -2   2   4    1.56    0.11
   1  -2  -4    0.74    0.06
   1  -2  -4    0.79    0.06
   1  -2  -4    0.84    0.04
  -1   2   4    0.83    0.07
  -1   2   4    0.79    0.06
  -1   2   4    0.76    0.06
   0  -2  -4    8.91    0.20
   0  -2  -4    9.05    0.27
   0  -2  -4    9.04    0.23
   0   2   4    9.61    0.28
   0   2   4    8.65    0.25
   0   2   4    8.85    0.23
  -1  -2  -4    0.27    0.04
  -1  -2  -4    0.30    0.03
  -1  -2  -4    0.22    0.04
   1   2   4    0.26    0.04
   1   2   4    0.25    0.04
   1   2   4    0.28    0.05
  -2  -2  -4    0.73    0.05
  -2  -2  -4    0.59    0.06
  -2  -2  -4    0.74    0.06
  -2  -2  -4    0.71    0.05
   2   2   4    0.78    0.06
   2   2   4    0.71    0.06
  -3  -2  -4    4.91    0.16
  -3  -2  -4    4.59    0.16
  -3  -2  -4    4.37    0.15
   3   2   4    4.50    0.16
   3   2   4    4.75    0.15
  -4  -2  -4  100.08    1.85
  -4  -2  -4  101.05    1.93
   4   2   4  104.16    1.81
   4   2   4  103.93    2.00
  -5  -2  -4    4.65    0.18
  -5  -2  -4    4.77    0.19
   5   2   4    4.72    0.16
   5   2   4    4.78    0.15
  -6  -2  -4    0.25    0.05
  -6  -2  -4    0.26    0.06
  -7  -2  -4    0.18    0.06
  -7  -2  -4    0.23    0.05
  -7  -2  -4    0.21    0.05
  -8  -2  -4    0.60    0.10
  -8  -2  -4    0.41    0.08
  -9  -2  -4    0.16    0.07
  -9  -2  -4    0.11    0.05
 -10  -2  -4    0.10    0.07
 -10  -2  -4    0.13    0.06
 -11  -2  -4    0.00    0.05
 -11  -2  -4    0.13    0.08
   9  -3  -4    0.00    0.06
   8  -3  -4    0.11    0.07
   7  -3  -4    0.43    0.08
  -7   3   4    0.14    0.06
   6  -3  -4    1.96    0.12
   6  -3  -4    1.85    0.14
  -6   3   4    1.77    0.13
   5  -3  -4    0.88    0.09
   5  -3  -4    0.77    0.09
  -5   3   4    0.85    0.11
   4  -3  -4    0.04    0.03
   4  -3  -4    0.03    0.03
  -4   3   4    0.03    0.03
   3  -3  -4    0.00    0.03
   3  -3  -4    0.05    0.03
  -3   3   4   -0.01    0.03
  -3   3   4    0.04    0.03
  -3   3   4    0.05    0.03
  -3   3   4    0.05    0.03
   2  -3  -4    3.08    0.13
   2  -3  -4    3.04    0.13
  -2   3   4    2.70    0.13
  -2   3   4    3.07    0.12
  -2   3   4    2.82    0.15
   1  -3  -4    9.50    0.19
   1  -3  -4    9.51    0.25
  -1   3   4    9.44    0.30
  -1   3   4    9.15    0.25
  -1   3   4    9.30    0.27
   0  -3  -4    8.25    0.18
   0  -3  -4    7.99    0.22
   0   3   4    8.05    0.23
   0   3   4    8.09    0.24
   0   3   4    8.35    0.27
  -1  -3  -4    2.94    0.14
  -1  -3  -4    2.90    0.10
  -1  -3  -4    3.03    0.12
   1   3   4    2.77    0.13
   1   3   4    2.75    0.12
   1   3   4    3.13    0.13
  -2  -3  -4    3.95    0.13
  -2  -3  -4    3.39    0.14
  -2  -3  -4    3.50    0.12
  -2  -3  -4    3.46    0.12
   2   3   4    3.54    0.14
   2   3   4    3.52    0.14
   2   3   4    3.48    0.13
  -3  -3  -4    3.77    0.12
  -3  -3  -4    3.60    0.13
  -3  -3  -4    3.66    0.14
  -3  -3  -4    3.43    0.14
   3   3   4    3.56    0.13
   3   3   4    3.47    0.14
  -4  -3  -4   22.10    0.48
  -4  -3  -4   20.60    0.50
   4   3   4   20.69    0.46
   4   3   4   22.77    0.49
  -5  -3  -4    1.79    0.10
  -5  -3  -4    1.76    0.12
   5   3   4    1.53    0.09
  -6  -3  -4    5.95    0.24
  -6  -3  -4    5.32    0.20
  -7  -3  -4    0.03    0.04
  -7  -3  -4   -0.02    0.04
  -8  -3  -4    0.24    0.06
  -8  -3  -4    0.49    0.09
  -9  -3  -4    0.20    0.06
  -9  -3  -4    0.16    0.07
 -10  -3  -4    0.03    0.05
 -10  -3  -4    0.04    0.06
 -11  -3  -4    0.12    0.06
 -11  -3  -4    0.11    0.08
   8  -4  -4    0.15    0.06
   7  -4  -4    0.50    0.09
  -7   4   4    0.43    0.09
   6  -4  -4    0.10    0.05
   6  -4  -4    0.04    0.05
  -6   4   4    0.13    0.06
   5  -4  -4    0.03    0.04
   5  -4  -4   -0.01    0.03
  -5   4   4    0.03    0.04
   4  -4  -4    0.01    0.03
   4  -4  -4    0.06    0.03
  -4   4   4    0.01    0.03
   3  -4  -4    4.66    0.18
   3  -4  -4    4.54    0.17
  -3   4   4    4.83    0.17
  -3   4   4    4.71    0.20
   2  -4  -4    0.10    0.04
   2  -4  -4    0.13    0.04
  -2   4   4    0.14    0.04
  -2   4   4    0.08    0.03
  -2   4   4    0.12    0.04
  -2   4   4    0.09    0.04
   1  -4  -4    1.47    0.09
  -1   4   4    1.49    0.09
  -1   4   4    1.21    0.10
  -1   4   4    1.49    0.10
   0  -4  -4   33.31    0.61
   0  -4  -4   32.07    0.67
   0   4   4   32.92    0.76
   0   4   4   32.65    0.67
   0   4   4   33.45    0.72
  -1  -4  -4    6.98    0.18
  -1  -4  -4    7.11    0.21
   1   4   4    6.82    0.21
   1   4   4    7.26    0.23
   1   4   4    6.80    0.24
  -2  -4  -4    4.48    0.14
  -2  -4  -4    4.05    0.16
  -2  -4  -4    4.54    0.15
   2   4   4    4.24    0.16
   2   4   4    4.19    0.17
   2   4   4    3.98    0.16
  -3  -4  -4    3.77    0.14
  -3  -4  -4    4.00    0.14
  -3  -4  -4    3.79    0.15
  -3  -4  -4    3.81    0.15
   3   4   4    3.94    0.16
   3   4   4    3.88    0.15
   3   4   4    3.84    0.15
  -4  -4  -4    0.00    0.03
  -4  -4  -4    0.03    0.03
   4   4   4    0.01    0.02
   4   4   4    0.01    0.02
   4   4   4    0.09    0.03
  -5  -4  -4    0.19    0.05
  -5  -4  -4    0.09    0.04
   5   4   4    0.17    0.04
  -6  -4  -4    0.21    0.06
  -6  -4  -4    0.11    0.04
   6   4   4    0.10    0.04
  -7  -4  -4    0.12    0.05
  -7  -4  -4    0.14    0.06
  -8  -4  -4    0.87    0.12
  -8  -4  -4    0.57    0.08
  -9  -4  -4    0.38    0.09
  -9  -4  -4    0.37    0.07
 -10  -4  -4    0.34    0.08
 -10  -4  -4    0.47    0.11
 -11  -4  -4    0.34    0.08
 -11  -4  -4    0.25    0.10
   8  -5  -4   -0.01    0.05
  -8   5   4    0.01    0.05
   7  -5  -4   -0.03    0.05
  -7   5   4   -0.01    0.05
   6  -5  -4    0.13    0.05
  -6   5   4    0.12    0.06
   5  -5  -4    0.10    0.05
  -5   5   4   -0.01    0.03
   4  -5  -4    0.16    0.05
  -4   5   4    0.20    0.06
   3  -5  -4    2.35    0.13
   3  -5  -4    2.40    0.13
  -3   5   4    2.33    0.15
   2  -5  -4    2.76    0.14
   2  -5  -4    2.91    0.15
  -2   5   4    2.89    0.14
  -2   5   4    2.68    0.15
   1  -5  -4    0.04    0.03
   1  -5  -4    0.01    0.03
  -1   5   4    0.07    0.03
  -1   5   4    0.01    0.03
  -1   5   4    0.10    0.04
  -1   5   4    0.07    0.03
   0  -5  -4    0.20    0.05
   0   5   4    0.30    0.05
   0   5   4    0.31    0.06
   0   5   4    0.33    0.06
  -1  -5  -4    1.38    0.09
  -1  -5  -4    1.63    0.07
   1   5   4    1.45    0.10
   1   5   4    1.66    0.11
   1   5   4    1.42    0.10
  -2  -5  -4    1.28    0.09
  -2  -5  -4    1.15    0.07
   2   5   4    1.12    0.09
   2   5   4    1.12    0.09
   2   5   4    1.34    0.09
  -3  -5  -4    1.13    0.08
  -3  -5  -4    1.04    0.08
   3   5   4    1.05    0.08
   3   5   4    1.18    0.09
   3   5   4    1.11    0.08
  -4  -5  -4    0.12    0.05
  -4  -5  -4    0.18    0.04
   4   5   4    0.20    0.04
   4   5   4    0.21    0.05
  -5  -5  -4    0.46    0.07
  -5  -5  -4    0.51    0.08
   5   5   4    0.45    0.07
   5   5   4    0.37    0.06
  -6  -5  -4    0.36    0.06
  -6  -5  -4    0.54    0.09
   6   5   4    0.51    0.08
  -7  -5  -4    5.36    0.22
  -7  -5  -4    4.97    0.24
  -8  -5  -4    0.17    0.07
  -8  -5  -4    0.12    0.05
  -9  -5  -4    0.01    0.04
  -9  -5  -4   -0.02    0.05
 -10  -5  -4    0.32    0.09
 -10  -5  -4    0.17    0.07
 -11  -5  -4   -0.03    0.07
  -7   6   4    0.16    0.08
   6  -6  -4    0.10    0.05
  -6   6   4    0.11    0.06
   5  -6  -4    0.67    0.09
  -5   6   4    0.76    0.12
   4  -6  -4    0.80    0.10
  -4   6   4    1.05    0.13
   3  -6  -4    4.64    0.20
   3  -6  -4    4.17    0.19
  -3   6   4    4.29    0.22
   2  -6  -4    1.77    0.12
   2  -6  -4    1.66    0.12
  -2   6   4    1.73    0.13
  -2   6   4    1.79    0.12
   1  -6  -4    0.09    0.04
   1  -6  -4    0.04    0.04
  -1   6   4    0.06    0.04
  -1   6   4    0.07    0.04
   0  -6  -4    0.32    0.07
   0  -6  -4    0.36    0.07
   0   6   4    0.43    0.07
   0   6   4    0.29    0.06
   0   6   4    0.45    0.08
   0   6   4    0.32    0.06
  -1  -6  -4    1.35    0.10
   1   6   4    1.39    0.10
   1   6   4    1.34    0.10
   1   6   4    1.50    0.11
   1   6   4    1.31    0.11
  -2  -6  -4   -0.02    0.02
  -2  -6  -4   -0.01    0.03
   2   6   4    0.01    0.02
   2   6   4    0.05    0.04
   2   6   4    0.00    0.02
  -3  -6  -4    0.76    0.07
  -3  -6  -4    0.67    0.08
   3   6   4    0.60    0.07
   3   6   4    0.74    0.09
  -4  -6  -4    0.48    0.08
  -4  -6  -4    0.42    0.06
   4   6   4    0.33    0.06
   4   6   4    0.44    0.07
  -5  -6  -4    0.03    0.04
  -5  -6  -4    0.09    0.05
   5   6   4    0.20    0.06
  -6  -6  -4    0.37    0.08
  -6  -6  -4    0.26    0.06
   6   6   4    0.30    0.07
  -7  -6  -4    0.14    0.06
  -7  -6  -4    0.34    0.07
   7   6   4    0.26    0.07
  -8  -6  -4    0.08    0.04
  -8  -6  -4    0.03    0.05
  -9  -6  -4    0.67    0.12
  -9  -6  -4    0.45    0.08
 -10  -6  -4    0.06    0.07
 -10  -6  -4    0.09    0.06
  -6   7   4    0.50    0.11
   5  -7  -4   -0.02    0.05
  -5   7   4    0.01    0.05
   4  -7  -4    0.00    0.04
  -4   7   4    0.03    0.04
   3  -7  -4    0.67    0.10
   3  -7  -4    0.47    0.08
  -3   7   4    0.57    0.10
   2  -7  -4    1.60    0.12
   2  -7  -4    1.33    0.14
  -2   7   4    1.67    0.13
  -2   7   4    1.74    0.12
   1  -7  -4    0.14    0.06
   1  -7  -4    0.10    0.05
  -1   7   4    0.12    0.05
  -1   7   4    0.11    0.05
   0  -7  -4    0.01    0.04
   0  -7  -4   -0.04    0.04
   0   7   4    0.04    0.04
   0   7   4   -0.02    0.03
  -1  -7  -4    1.05    0.12
  -1  -7  -4    0.99    0.12
   1   7   4    1.01    0.12
   1   7   4    1.10    0.12
   1   7   4    0.94    0.10
  -2  -7  -4    0.34    0.07
   2   7   4    0.33    0.06
   2   7   4    0.61    0.09
   2   7   4    0.53    0.08
  -3  -7  -4    0.16    0.06
   3   7   4    0.18    0.06
   3   7   4    0.17    0.05
   3   7   4    0.28    0.07
  -4  -7  -4    0.23    0.05
   4   7   4    0.27    0.07
   4   7   4    0.30    0.07
  -5  -7  -4    1.61    0.15
  -5  -7  -4    1.37    0.11
   5   7   4    1.54    0.11
   5   7   4    1.44    0.11
  -6  -7  -4   -0.03    0.03
  -6  -7  -4    0.00    0.05
   6   7   4    0.01    0.04
   6   7   4   -0.03    0.03
  -7  -7  -4    0.00    0.04
  -7  -7  -4   -0.06    0.04
   7   7   4    0.04    0.05
   7   7   4    0.01    0.04
  -8  -7  -4    0.48    0.08
  -8  -7  -4    0.40    0.10
  -9  -7  -4    0.14    0.08
  -9  -7  -4    0.08    0.05
 -10  -7  -4    0.02    0.07
  -5   8   4    0.47    0.10
  -4   8   4    1.04    0.14
   3  -8  -4    0.10    0.05
   3  -8  -4    0.21    0.08
  -3   8   4    0.26    0.07
   2  -8  -4    0.41    0.09
   2  -8  -4    0.34    0.08
  -2   8   4    0.56    0.10
  -2   8   4    0.45    0.09
   1  -8  -4    0.25    0.08
   1  -8  -4    0.10    0.06
  -1   8   4    0.22    0.07
  -1   8   4    0.27    0.07
   0  -8  -4   -0.03    0.04
   0  -8  -4    0.09    0.05
   0   8   4    0.06    0.05
   0   8   4    0.02    0.04
  -1  -8  -4    7.16    0.30
  -1  -8  -4    7.45    0.28
   1   8   4    7.83    0.29
   1   8   4    7.87    0.29
  -2  -8  -4    0.03    0.05
   2   8   4    0.01    0.03
   2   8   4   -0.05    0.03
  -3  -8  -4   -0.01    0.04
   3   8   4   -0.01    0.03
   3   8   4    0.00    0.03
   4   8   4    0.15    0.06
  -5  -8  -4    0.33    0.06
  -5  -8  -4    0.47    0.09
   5   8   4    0.32    0.07
  -6  -8  -4    0.03    0.04
  -6  -8  -4   -0.03    0.05
   6   8   4    0.00    0.04
  -7  -8  -4    0.04    0.05
  -7  -8  -4   -0.04    0.05
   7   8   4   -0.01    0.04
  -8  -8  -4    0.00    0.05
  -8  -8  -4   -0.05    0.06
  -9  -8  -4   -0.09    0.06
  -9  -8  -4    0.03    0.05
   4  -9  -4    0.07    0.07
   3  -9  -4    0.67    0.12
  -3   9   4    0.76    0.12
   2  -9  -4    0.12    0.07
   2  -9  -4    0.02    0.05
  -2   9   4    0.02    0.04
   1  -9  -4    0.04    0.06
   1  -9  -4    0.00    0.06
  -1   9   4    0.07    0.05
   0  -9  -4    0.40    0.10
   0  -9  -4    0.51    0.10
   0   9   4    0.81    0.12
   0   9   4    0.78    0.12
  -1  -9  -4    1.50    0.16
  -1  -9  -4    1.48    0.17
   1   9   4    1.36    0.15
   1   9   4    1.84    0.14
  -2  -9  -4    0.18    0.07
   2   9   4    0.24    0.07
   2   9   4    0.35    0.08
  -3  -9  -4    1.54    0.16
   3   9   4    1.28    0.15
   4   9   4    0.08    0.05
  -5  -9  -4    0.32    0.09
   5   9   4    0.37    0.08
  -6  -9  -4    0.11    0.07
  -6  -9  -4    0.10    0.06
   6   9   4    0.10    0.06
  -7  -9  -4    0.16    0.08
  -7  -9  -4    0.03    0.05
   7   9   4    0.05    0.05
  -8  -9  -4    0.37    0.10
  -8  -9  -4    0.32    0.08
   8   9   4    0.16    0.07
   2 -10  -4    0.04    0.06
  -2  10   4    0.01    0.05
   1 -10  -4    0.41    0.10
   1 -10  -4    0.45    0.11
  -1  10   4    0.46    0.10
  -1  10   4    0.47    0.10
   0 -10  -4    0.12    0.07
   0 -10  -4    0.14    0.09
   0  10   4    0.08    0.06
   0  10   4    0.16    0.07
  -1 -10  -4    0.11    0.08
  -1 -10  -4    0.03    0.06
   1  10   4    0.01    0.04
   1  10   4    0.03    0.05
  -2 -10  -4    0.01    0.06
   2  10   4   -0.03    0.04
  -3 -10  -4    0.02    0.06
   3  10   4   -0.01    0.05
   4  10   4   -0.01    0.05
  -5 -10  -4    0.29    0.10
   5  10   4    0.16    0.07
  -6 -10  -4    0.20    0.09
   6  10   4    0.35    0.09
  -7 -10  -4    0.47    0.12
   7  10   4    0.53    0.11
   0 -11  -4    0.03    0.07
   0  11   4    0.01    0.06
   0  11   4    0.00    0.06
  -1 -11  -4   -0.02    0.06
   1  11   4   -0.01    0.06
  -2 -11  -4    0.24    0.09
   2  11   4    0.32    0.10
   3  11   4    0.01    0.06
   4  11   4    0.90    0.15
  -5 -11  -4    0.09    0.08
   5  11   4    0.05    0.06
   4  10  -5    0.05    0.06
   3  10  -5    0.06    0.06
   2  10  -5    0.66    0.12
  -2 -10   5    0.58    0.12
   1  10  -5    0.22    0.08
  -1 -10   5    0.25    0.10
  -1 -10   5    0.28    0.10
   0  10  -5    0.00    0.06
   0 -10   5    0.09    0.08
  -1  10  -5    0.01    0.05
   1 -10   5   -0.01    0.06
   6   9  -5    0.25    0.08
   5   9  -5    0.13    0.06
   4   9  -5    0.07    0.06
   3   9  -5    0.39    0.10
  -3  -9   5    0.14    0.08
   2   9  -5    0.12    0.06
  -2  -9   5    0.09    0.07
   1   9  -5    0.06    0.05
  -1  -9   5    0.12    0.07
  -1  -9   5    0.10    0.07
   0   9  -5    0.03    0.05
   0  -9   5    0.02    0.07
   0  -9   5   -0.03    0.06
  -1   9  -5    0.07    0.05
  -1   9  -5   -0.01    0.05
   1  -9   5   -0.01    0.06
   1  -9   5    0.04    0.07
  -2   9  -5    0.21    0.07
   2  -9   5    0.09    0.06
   2  -9   5    0.11    0.08
  -3   9  -5    0.04    0.05
  -3   9  -5    0.03    0.06
   3  -9   5    0.03    0.07
  -4   9  -5    0.05    0.06
   4  -9   5    0.03    0.07
   7   8  -5    0.16    0.07
   7   8  -5   -0.02    0.06
   6   8  -5    0.49    0.10
   5   8  -5    0.08    0.05
   4   8  -5    0.69    0.11
   3   8  -5    0.18    0.06
  -3  -8   5    0.13    0.07
   2   8  -5    0.08    0.05
  -2  -8   5    0.03    0.05
  -2  -8   5    0.02    0.06
   1   8  -5    0.05    0.05
  -1  -8   5    0.06    0.06
  -1  -8   5    0.16    0.07
   0   8  -5    0.37    0.08
   0   8  -5    0.50    0.09
   0  -8   5    0.36    0.08
   0  -8   5    0.46    0.10
  -1   8  -5    0.98    0.09
  -1   8  -5    0.94    0.12
  -1   8  -5    1.41    0.15
   1  -8   5    1.25    0.15
   1  -8   5    1.22    0.14
  -2   8  -5    0.09    0.05
  -2   8  -5    0.09    0.05
   2  -8   5    0.01    0.05
   2  -8   5   -0.03    0.06
  -3   8  -5   -0.01    0.03
  -3   8  -5   -0.02    0.04
   3  -8   5    0.05    0.06
   3  -8   5   -0.04    0.05
  -4   8  -5    0.01    0.05
  -4   8  -5    0.04    0.04
   4  -8   5    0.06    0.06
   4  -8   5    0.07    0.07
  -5   8  -5    0.01    0.05
  -5   8  -5   -0.02    0.04
   5  -8   5   -0.04    0.06
   8   7  -5    0.07    0.06
   8   7  -5    0.18    0.09
   7   7  -5    0.05    0.05
   7   7  -5    0.05    0.07
   6   7  -5    0.40    0.08
   6   7  -5    0.47    0.10
   5   7  -5    0.57    0.10
   4   7  -5    0.43    0.09
   3   7  -5    0.97    0.12
  -3  -7   5    1.20    0.14
   2   7  -5    0.09    0.05
  -2  -7   5    0.14    0.06
  -2  -7   5    0.11    0.05
   1   7  -5    1.12    0.13
   1   7  -5    1.06    0.11
  -1  -7   5    1.23    0.14
  -1  -7   5    0.80    0.10
   0   7  -5    1.47    0.15
   0   7  -5    1.39    0.13
   0  -7   5    1.58    0.14
   0  -7   5    1.73    0.16
  -1   7  -5    1.17    0.12
  -1   7  -5    1.25    0.13
  -1   7  -5    1.02    0.09
  -1   7  -5    1.17    0.13
   1  -7   5    1.22    0.13
   1  -7   5    1.10    0.13
  -2   7  -5    0.00    0.03
  -2   7  -5    0.04    0.05
  -2   7  -5    0.05    0.03
  -2   7  -5    0.02    0.04
   2  -7   5    0.00    0.04
   2  -7   5   -0.05    0.04
  -3   7  -5    0.46    0.09
  -3   7  -5    0.47    0.09
  -3   7  -5    0.38    0.06
   3  -7   5    0.29    0.07
   3  -7   5    0.58    0.10
  -4   7  -5   -0.01    0.04
  -4   7  -5    0.07    0.05
   4  -7   5    0.03    0.05
   4  -7   5    0.00    0.05
  -5   7  -5   -0.05    0.04
  -5   7  -5    0.01    0.04
   5  -7   5    0.08    0.07
   5  -7   5    0.03    0.06
  -6   7  -5    0.00    0.05
  -6   7  -5   -0.03    0.04
   6  -7   5    0.07    0.07
   6  -7   5   -0.01    0.06
   8   6  -5    0.10    0.08
   7   6  -5    0.26    0.07
   7   6  -5    0.57    0.12
   6   6  -5    0.02    0.05
   6   6  -5    0.05    0.05
   5   6  -5    0.73    0.12
   5   6  -5    0.83    0.11
   4   6  -5    2.82    0.16
   4   6  -5    2.79    0.18
   3   6  -5    9.09    0.30
  -3  -6   5    8.54    0.30
   2   6  -5    1.58    0.12
  -2  -6   5    1.86    0.12
  -2  -6   5    1.73    0.13
   1   6  -5   10.52    0.31
   1   6  -5   10.29    0.32
  -1  -6   5    9.83    0.33
  -1  -6   5   10.11    0.31
   0   6  -5    8.42    0.28
   0   6  -5    8.32    0.28
   0   6  -5    8.83    0.28
   0  -6   5    8.03    0.27
   0  -6   5    7.83    0.29
  -1   6  -5    0.70    0.09
  -1   6  -5    0.72    0.07
  -1   6  -5    0.82    0.10
  -1   6  -5    0.52    0.08
   1  -6   5    0.63    0.09
   1  -6   5    0.68    0.10
  -2   6  -5    1.77    0.12
  -2   6  -5    1.67    0.12
  -2   6  -5    1.46    0.10
  -2   6  -5    1.56    0.12
   2  -6   5    1.59    0.15
   2  -6   5    1.81    0.13
  -3   6  -5    0.11    0.05
  -3   6  -5    0.14    0.05
  -3   6  -5    0.14    0.05
   3  -6   5    0.18    0.06
   3  -6   5    0.08    0.05
  -4   6  -5    0.06    0.04
  -4   6  -5    0.05    0.04
  -4   6  -5    0.07    0.05
   4  -6   5    0.07    0.05
   4  -6   5    0.07    0.05
  -5   6  -5    0.62    0.11
  -5   6  -5    0.59    0.10
   5  -6   5    0.70    0.10
   5  -6   5    0.58    0.10
  -6   6  -5    0.23    0.07
  -6   6  -5    0.33    0.09
   6  -6   5    0.32    0.08
   6  -6   5    0.25    0.07
  -7   6  -5    0.37    0.09
  -7   6  -5    0.29    0.09
   7  -6   5    0.52    0.10
   9   5  -5    0.01    0.07
   8   5  -5    0.09    0.07
   7   5  -5    0.11    0.07
   7   5  -5    0.03    0.05
   6   5  -5    0.26    0.08
   6   5  -5    0.32    0.07
   5   5  -5    1.65    0.12
   5   5  -5    1.98    0.16
   4   5  -5    1.56    0.14
   4   5  -5    1.68    0.12
   3   5  -5    1.51    0.12
   3   5  -5    1.53    0.11
  -3  -5   5    1.46    0.12
  -3  -5   5    1.63    0.12
   2   5  -5   -0.03    0.02
  -2  -5   5   -0.04    0.03
  -2  -5   5    0.02    0.03
  -2  -5   5   -0.01    0.03
   1   5  -5   23.30    0.55
   1   5  -5   23.94    0.54
  -1  -5   5   23.18    0.52
  -1  -5   5   23.61    0.62
  -1  -5   5   23.30    0.57
   0   5  -5    0.84    0.10
   0   5  -5    0.70    0.08
   0   5  -5    0.51    0.07
   0  -5   5    0.68    0.09
   0  -5   5    0.57    0.08
  -1   5  -5    2.77    0.15
  -1   5  -5    2.80    0.15
  -1   5  -5    2.53    0.11
  -1   5  -5    2.97    0.15
   1  -5   5    2.83    0.15
   1  -5   5    2.62    0.14
  -2   5  -5    1.73    0.11
  -2   5  -5    1.58    0.09
  -2   5  -5    1.76    0.12
  -2   5  -5    1.65    0.12
   2  -5   5    1.52    0.11
   2  -5   5    1.54    0.11
  -3   5  -5    0.35    0.06
  -3   5  -5    0.41    0.07
  -3   5  -5    0.47    0.08
   3  -5   5    0.30    0.07
   3  -5   5    0.29    0.07
  -4   5  -5    2.06    0.12
  -4   5  -5    1.90    0.14
  -4   5  -5    1.99    0.15
   4  -5   5    1.79    0.13
   4  -5   5    1.99    0.13
  -5   5  -5    0.75    0.11
  -5   5  -5    0.51    0.08
  -5   5  -5    0.64    0.10
   5  -5   5    0.69    0.10
   5  -5   5    0.58    0.09
  -6   5  -5    1.29    0.14
  -6   5  -5    0.88    0.13
   6  -5   5    1.48    0.14
   6  -5   5    1.14    0.13
  -7   5  -5    0.14    0.07
  -7   5  -5    0.19    0.07
   7  -5   5    0.15    0.07
  -8   5  -5   -0.03    0.05
  -8   5  -5    0.03    0.05
   8  -5   5    0.08    0.07
   9   4  -5    0.19    0.09
   8   4  -5    0.05    0.06
   7   4  -5    0.12    0.05
   7   4  -5    0.05    0.05
   6   4  -5    0.06    0.04
   6   4  -5    0.10    0.06
   5   4  -5    1.71    0.12
   5   4  -5    2.13    0.16
   4   4  -5    0.51    0.09
   4   4  -5    0.34    0.06
   3   4  -5    0.25    0.06
   3   4  -5    0.20    0.05
  -3  -4   5    0.32    0.07
  -3  -4   5    0.24    0.06
   2   4  -5    0.85    0.09
   2   4  -5    0.92    0.09
  -2  -4   5    0.93    0.07
  -2  -4   5    0.95    0.10
  -2  -4   5    0.81    0.10
   1   4  -5    1.84    0.10
  -1  -4   5    1.48    0.12
  -1  -4   5    1.68    0.11
  -1  -4   5    1.77    0.10
   0   4  -5    0.31    0.06
   0   4  -5    0.18    0.04
   0  -4   5    0.16    0.04
   0  -4   5    0.20    0.05
   0  -4   5    0.21    0.05
  -1   4  -5   11.60    0.33
  -1   4  -5   11.64    0.32
  -1   4  -5   11.55    0.28
   1  -4   5   11.58    0.31
   1  -4   5   11.48    0.33
  -2   4  -5    7.82    0.23
  -2   4  -5    8.47    0.28
  -2   4  -5    8.55    0.28
  -2   4  -5    8.21    0.25
   2  -4   5    8.16    0.26
  -3   4  -5    8.64    0.25
  -3   4  -5    8.72    0.29
  -3   4  -5    8.87    0.30
  -3   4  -5    9.03    0.25
   3  -4   5    8.73    0.28
   3  -4   5    8.80    0.28
  -4   4  -5    3.22    0.17
  -4   4  -5    2.89    0.14
  -4   4  -5    2.74    0.16
   4  -4   5    3.13    0.16
   4  -4   5    3.02    0.15
  -5   4  -5    0.10    0.04
  -5   4  -5    0.13    0.05
  -5   4  -5    0.15    0.06
   5  -4   5    0.10    0.05
   5  -4   5    0.12    0.05
  -6   4  -5    4.38    0.22
  -6   4  -5    4.71    0.20
  -6   4  -5    4.22    0.23
   6  -4   5    4.74    0.21
   6  -4   5    4.54    0.20
  -7   4  -5    0.08    0.05
  -7   4  -5    0.15    0.06
   7  -4   5    0.18    0.06
  -8   4  -5    0.25    0.07
  -8   4  -5    0.43    0.10
   8  -4   5    0.40    0.09
  -9   4  -5    0.01    0.06
  -9   4  -5    0.07    0.06
   9   3  -5    0.20    0.09
   8   3  -5   -0.06    0.05
   7   3  -5    0.00    0.04
   6   3  -5    1.67    0.15
   6   3  -5    1.62    0.11
   5   3  -5    5.41    0.25
   5   3  -5    5.38    0.21
   4   3  -5    5.34    0.23
   4   3  -5    5.24    0.20
  -4  -3   5    5.13    0.22
   3   3  -5    1.96    0.11
   3   3  -5    1.86    0.12
  -3  -3   5    1.64    0.12
  -3  -3   5    1.65    0.11
   2   3  -5    0.87    0.09
   2   3  -5    0.98    0.10
  -2  -3   5    0.98    0.10
  -2  -3   5    0.88    0.06
  -2  -3   5    0.85    0.10
   1   3  -5    1.62    0.09
   1   3  -5    1.28    0.09
  -1  -3   5    1.33    0.08
  -1  -3   5    1.43    0.10
  -1  -3   5    1.36    0.11
   0   3  -5    2.32    0.12
   0   3  -5    2.27    0.11
   0  -3   5    2.04    0.10
   0  -3   5    2.07    0.12
   0  -3   5    2.02    0.13
  -1   3  -5    5.92    0.20
  -1   3  -5    6.16    0.18
  -1   3  -5    6.56    0.21
   1  -3   5    6.05    0.21
   1  -3   5    5.95    0.24
   1  -3   5    6.17    0.20
  -2   3  -5    1.61    0.08
  -2   3  -5    1.55    0.09
  -2   3  -5    1.44    0.10
   2  -3   5    1.31    0.09
   2  -3   5    1.38    0.10
  -3   3  -5    0.52    0.06
  -3   3  -5    0.48    0.06
  -3   3  -5    0.56    0.08
   3  -3   5    0.55    0.07
   3  -3   5    0.65    0.08
  -4   3  -5    1.57    0.12
  -4   3  -5    1.52    0.10
   4  -3   5    1.53    0.11
   4  -3   5    1.65    0.10
  -5   3  -5    1.06    0.10
  -5   3  -5    0.78    0.10
  -5   3  -5    0.68    0.10
   5  -3   5    0.88    0.10
   5  -3   5    0.96    0.10
  -6   3  -5    1.46    0.15
  -6   3  -5    1.24    0.13
  -6   3  -5    1.31    0.10
  -6   3  -5    1.31    0.10
   6  -3   5    1.31    0.12
  -7   3  -5    0.02    0.05
  -7   3  -5    0.02    0.04
  -7   3  -5   -0.02    0.04
  -7   3  -5   -0.01    0.04
   7  -3   5    0.00    0.04
  -8   3  -5    0.16    0.07
  -8   3  -5    0.17    0.07
  -8   3  -5    0.13    0.06
   8  -3   5    0.09    0.06
  -9   3  -5    0.70    0.13
  -9   3  -5    0.40    0.08
  -9   3  -5    0.70    0.11
 -10   3  -5    0.07    0.06
 -10   3  -5    0.04    0.07
   9   2  -5   -0.04    0.05
   8   2  -5    0.29    0.09
   7   2  -5    2.57    0.19
   6   2  -5    0.06    0.05
   6   2  -5    0.06    0.04
   5   2  -5    2.66    0.17
   5   2  -5    2.68    0.14
  -5  -2   5    2.37    0.15
   4   2  -5    9.26    0.32
   4   2  -5    9.37    0.28
  -4  -2   5    9.33    0.31
   3   2  -5    6.88    0.25
   3   2  -5    7.49    0.23
  -3  -2   5    7.23    0.22
  -3  -2   5    7.30    0.21
  -3  -2   5    7.39    0.27
   2   2  -5    3.78    0.16
   2   2  -5    3.76    0.15
  -2  -2   5    3.80    0.18
  -2  -2   5    3.71    0.15
  -2  -2   5    4.02    0.13
   1   2  -5    0.19    0.04
   1   2  -5    0.20    0.04
  -1  -2   5    0.14    0.04
  -1  -2   5    0.16    0.03
  -1  -2   5    0.18    0.05
   0   2  -5    1.69    0.09
   0   2  -5    1.54    0.07
   0  -2   5    1.79    0.11
   0  -2   5    1.84    0.11
   0  -2   5    1.74    0.09
  -1   2  -5    0.36    0.04
  -1   2  -5    0.30    0.05
  -1   2  -5    0.27    0.05
   1  -2   5    0.32    0.05
   1  -2   5    0.48    0.07
   1  -2   5    0.37    0.06
  -2   2  -5    1.61    0.08
  -2   2  -5    1.55    0.09
  -2   2  -5    1.54    0.10
   2  -2   5    1.66    0.10
   2  -2   5    1.34    0.10
   2  -2   5    1.60    0.10
  -3   2  -5    0.51    0.06
  -3   2  -5    0.49    0.07
  -3   2  -5    0.60    0.06
   3  -2   5    0.52    0.07
   3  -2   5    0.50    0.07
  -4   2  -5    0.08    0.03
  -4   2  -5    0.07    0.03
  -4   2  -5    0.14    0.05
   4  -2   5    0.10    0.04
   4  -2   5    0.06    0.03
  -5   2  -5    0.01    0.03
  -5   2  -5    0.00    0.03
  -5   2  -5    0.00    0.03
   5  -2   5   -0.02    0.03
   5  -2   5    0.06    0.04
  -6   2  -5    0.02    0.04
  -6   2  -5    0.03    0.03
  -6   2  -5   -0.03    0.03
  -6   2  -5    0.03    0.04
   6  -2   5   -0.04    0.03
  -7   2  -5    0.03    0.04
  -7   2  -5    0.01    0.04
  -7   2  -5    0.02    0.04
  -7   2  -5   -0.02    0.03
   7  -2   5    0.01    0.04
  -8   2  -5    0.05    0.05
  -8   2  -5    0.06    0.05
  -8   2  -5    0.05    0.04
  -8   2  -5    0.03    0.05
   8  -2   5   -0.02    0.04
  -9   2  -5    1.38    0.16
  -9   2  -5    1.44    0.15
  -9   2  -5    1.69    0.14
 -10   2  -5    0.03    0.07
 -10   2  -5    0.05    0.06
   9   1  -5    0.14    0.07
   8   1  -5    0.45    0.10
   7   1  -5    0.03    0.05
   6   1  -5    1.10    0.11
   6   1  -5    0.76    0.11
   5   1  -5    0.26    0.06
   5   1  -5    0.33    0.07
  -5  -1   5    0.27    0.06
   4   1  -5    0.35    0.06
   4   1  -5    0.46    0.08
  -4  -1   5    0.48    0.08
   3   1  -5    9.02    0.26
   3   1  -5    8.22    0.28
  -3  -1   5    8.32    0.23
  -3  -1   5    8.23    0.24
  -3  -1   5    7.91    0.28
   2   1  -5    5.82    0.20
   2   1  -5    5.77    0.19
  -2  -1   5    5.43    0.22
  -2  -1   5    6.06    0.19
  -2  -1   5    5.60    0.18
   1   1  -5    1.20    0.08
   1   1  -5    0.99    0.07
  -1  -1   5    1.01    0.09
  -1  -1   5    1.18    0.08
   0   1  -5   28.35    0.64
   0   1  -5   29.88    0.56
   0   1  -5   28.65    0.60
   0  -1   5   29.32    0.69
   0  -1   5   29.01    0.61
  -1   1  -5   20.50    0.42
  -1   1  -5   20.56    0.45
   1  -1   5   20.50    0.52
   1  -1   5   20.40    0.46
  -2   1  -5   14.38    0.30
  -2   1  -5   14.00    0.32
  -2   1  -5   13.91    0.33
  -2   1  -5   13.97    0.37
   2  -1   5   13.76    0.34
   2  -1   5   13.30    0.39
  -3   1  -5    0.26    0.04
  -3   1  -5    0.23    0.04
  -3   1  -5    0.25    0.05
  -3   1  -5    0.26    0.04
   3  -1   5    0.17    0.05
   3  -1   5    0.25    0.05
  -4   1  -5    0.25    0.05
  -4   1  -5    0.25    0.05
  -4   1  -5    0.14    0.04
   4  -1   5    0.20    0.04
  -5   1  -5    2.79    0.14
  -5   1  -5    3.16    0.14
  -5   1  -5    2.53    0.15
   5  -1   5    2.93    0.13
  -6   1  -5    1.14    0.11
  -6   1  -5    0.98    0.11
  -6   1  -5    1.03    0.10
   6  -1   5    0.97    0.10
  -7   1  -5    2.00    0.13
  -7   1  -5    2.24    0.15
  -7   1  -5    1.82    0.13
  -7   1  -5    2.35    0.14
   7  -1   5    2.05    0.13
  -8   1  -5    0.04    0.05
  -8   1  -5   -0.03    0.04
  -8   1  -5   -0.04    0.04
  -8   1  -5   -0.06    0.03
   8  -1   5    0.04    0.05
  -9   1  -5    0.08    0.06
  -9   1  -5    0.06    0.05
  -9   1  -5    0.07    0.06
 -10   1  -5    0.19    0.07
 -10   1  -5    0.13    0.07
 -10   1  -5   -0.01    0.06
   9   0  -5   -0.08    0.05
   8   0  -5    0.14    0.07
   7   0  -5    0.02    0.04
   6   0  -5    2.58    0.17
   6   0  -5    2.40    0.13
   5   0  -5    7.74    0.25
   5   0  -5    7.57    0.29
  -5   0   5    7.77    0.30
   4   0  -5    5.10    0.22
   4   0  -5    5.20    0.19
  -4   0   5    5.16    0.19
  -4   0   5    5.60    0.23
   3   0  -5    8.91    0.29
   3   0  -5    9.03    0.26
  -3   0   5    8.83    0.30
  -3   0   5    9.15    0.25
  -3   0   5    8.87    0.25
   2   0  -5    4.55    0.17
   2   0  -5    4.63    0.17
  -2   0   5    4.66    0.20
  -2   0   5    4.12    0.16
  -2   0   5    4.51    0.16
   1   0  -5    1.17    0.07
   1   0  -5    1.22    0.08
  -1   0   5    1.27    0.08
  -1   0   5    1.26    0.09
  -1   0   5    1.18    0.08
   0   0  -5    2.08    0.08
   0   0  -5    2.05    0.10
   0   0  -5    2.13    0.09
   0   0   5    2.08    0.10
   0   0   5    1.92    0.12
  -1   0  -5    0.93    0.06
  -1   0  -5    0.95    0.06
   1   0   5    0.98    0.08
   1   0   5    0.86    0.07
  -2   0  -5   21.16    0.43
  -2   0  -5   22.13    0.45
  -2   0  -5   21.52    0.45
   2   0   5   21.28    0.47
   2   0   5   20.87    0.53
  -3   0  -5    3.58    0.15
  -3   0  -5    3.60    0.12
  -3   0  -5    3.53    0.13
  -3   0  -5    3.39    0.13
   3   0   5    3.42    0.13
   3   0   5    3.43    0.16
  -4   0  -5    1.28    0.09
  -4   0  -5    1.26    0.10
  -4   0  -5    1.25    0.08
   4   0   5    1.27    0.09
   4   0   5    1.28    0.08
  -5   0  -5    0.26    0.05
  -5   0  -5    0.18    0.04
  -5   0  -5    0.19    0.05
   5   0   5    0.18    0.05
   5   0   5    0.22    0.04
  -6   0  -5    3.10    0.16
  -6   0  -5    2.95    0.16
  -6   0  -5    3.03    0.16
  -7   0  -5   -0.01    0.04
  -7   0  -5   -0.03    0.03
  -7   0  -5    0.00    0.03
  -8   0  -5   -0.01    0.04
  -8   0  -5   -0.03    0.04
  -8   0  -5    0.03    0.04
   8   0   5    0.08    0.05
  -9   0  -5    0.05    0.05
  -9   0  -5   -0.02    0.04
  -9   0  -5    0.12    0.05
 -10   0  -5   -0.02    0.05
 -10   0  -5   -0.03    0.05
 -11   0  -5    0.70    0.12
 -11   0  -5    0.67    0.12
   9  -1  -5    0.03    0.06
   8  -1  -5    0.10    0.06
   7  -1  -5    0.07    0.05
   6  -1  -5    0.40    0.08
   6  -1  -5    0.29    0.06
   5  -1  -5    2.31    0.13
   5  -1  -5    2.25    0.15
  -5   1   5    2.25    0.13
   4  -1  -5   29.29    0.62
   4  -1  -5   28.86    0.72
  -4   1   5   28.05    0.65
  -4   1   5   28.00    0.72
   3  -1  -5    0.81    0.08
   3  -1  -5    0.82    0.08
  -3   1   5    0.80    0.08
  -3   1   5    0.80    0.08
  -3   1   5    0.91    0.10
   2  -1  -5    0.56    0.07
   2  -1  -5    0.52    0.06
  -2   1   5    0.58    0.07
  -2   1   5    0.53    0.08
  -2   1   5    0.60    0.07
   1  -1  -5    1.13    0.08
   1  -1  -5    1.05    0.07
   1  -1  -5    1.11    0.05
  -1   1   5    1.17    0.08
  -1   1   5    1.13    0.09
  -1   1   5    1.14    0.08
   0  -1  -5    1.43    0.09
   0  -1  -5    1.39    0.06
   0   1   5    1.34    0.09
   0   1   5    1.50    0.10
   0   1   5    1.52    0.09
  -1  -1  -5   15.88    0.36
  -1  -1  -5   15.56    0.33
   1   1   5   15.83    0.37
   1   1   5   15.00    0.41
  -2  -1  -5    1.56    0.08
  -2  -1  -5    1.55    0.08
  -2  -1  -5    1.56    0.07
   2   1   5    1.48    0.09
   2   1   5    1.48    0.10
  -3  -1  -5    5.01    0.15
  -3  -1  -5    5.18    0.17
  -3  -1  -5    5.23    0.17
   3   1   5    5.08    0.19
   3   1   5    5.36    0.17
  -4  -1  -5    1.19    0.09
  -4  -1  -5    1.23    0.09
   4   1   5    1.17    0.09
   4   1   5    1.15    0.08
  -5  -1  -5    0.12    0.04
  -5  -1  -5    0.01    0.03
  -5  -1  -5    0.02    0.03
   5   1   5    0.06    0.03
   5   1   5    0.10    0.03
  -6  -1  -5    0.02    0.04
  -6  -1  -5    0.08    0.04
  -6  -1  -5    0.09    0.04
  -7  -1  -5    0.17    0.06
  -7  -1  -5    0.07    0.04
  -7  -1  -5    0.08    0.05
  -8  -1  -5    0.10    0.05
  -8  -1  -5    0.08    0.05
  -8  -1  -5    0.10    0.05
  -9  -1  -5    0.06    0.06
  -9  -1  -5    0.05    0.05
 -10  -1  -5   -0.02    0.05
 -10  -1  -5    0.01    0.05
 -11  -1  -5    0.30    0.10
 -11  -1  -5    0.07    0.06
   9  -2  -5    0.06    0.07
   8  -2  -5    0.13    0.07
   7  -2  -5    0.04    0.04
   6  -2  -5    0.12    0.05
   6  -2  -5    0.06    0.05
  -6   2   5    0.12    0.06
   5  -2  -5    0.45    0.08
   5  -2  -5    0.44    0.07
  -5   2   5    0.49    0.08
   4  -2  -5    0.30    0.06
   4  -2  -5    0.46    0.07
  -4   2   5    0.44    0.07
   3  -2  -5    8.02    0.26
   3  -2  -5    8.01    0.24
  -3   2   5    8.02    0.23
  -3   2   5    7.90    0.30
  -3   2   5    7.77    0.26
   2  -2  -5    1.54    0.09
   2  -2  -5    1.59    0.06
   2  -2  -5    1.52    0.09
  -2   2   5    1.46    0.11
  -2   2   5    1.27    0.08
  -2   2   5    1.47    0.10
   1  -2  -5   10.69    0.23
   1  -2  -5   10.45    0.28
  -1   2   5   10.52    0.28
  -1   2   5   10.66    0.34
  -1   2   5   11.16    0.30
   0  -2  -5   12.59    0.27
   0  -2  -5   12.48    0.31
   0   2   5   12.68    0.34
   0   2   5   12.62    0.32
   0   2   5   12.33    0.36
  -1  -2  -5    7.74    0.20
  -1  -2  -5    7.60    0.22
   1   2   5    7.84    0.24
   1   2   5    7.70    0.23
   1   2   5    7.44    0.25
  -2  -2  -5    0.04    0.03
  -2  -2  -5    0.03    0.02
  -2  -2  -5    0.06    0.02
   2   2   5    0.09    0.03
   2   2   5    0.03    0.02
  -3  -2  -5   26.71    0.53
  -3  -2  -5   26.72    0.61
  -3  -2  -5   26.14    0.56
  -3  -2  -5   26.37    0.55
   3   2   5   25.33    0.61
   3   2   5   27.09    0.56
  -4  -2  -5    0.99    0.09
  -4  -2  -5    1.15    0.09
   4   2   5    0.93    0.08
   4   2   5    0.99    0.08
  -5  -2  -5    3.36    0.15
  -5  -2  -5    3.14    0.15
   5   2   5    3.48    0.15
   5   2   5    3.40    0.14
  -6  -2  -5    0.02    0.04
  -6  -2  -5    0.10    0.04
  -7  -2  -5    0.79    0.09
  -7  -2  -5    0.71    0.10
  -8  -2  -5    0.00    0.05
  -8  -2  -5   -0.03    0.03
  -9  -2  -5    0.05    0.05
  -9  -2  -5    0.06    0.06
 -10  -2  -5    0.51    0.09
 -10  -2  -5    0.53    0.11
 -11  -2  -5   -0.04    0.05
 -11  -2  -5   -0.07    0.06
   8  -3  -5    0.19    0.08
   7  -3  -5    1.82    0.15
   6  -3  -5    0.25    0.07
   6  -3  -5    0.23    0.06
  -6   3   5    0.20    0.07
   5  -3  -5    0.03    0.04
   5  -3  -5    0.07    0.04
  -5   3   5    0.08    0.05
   4  -3  -5    0.15    0.05
   4  -3  -5    0.30    0.06
  -4   3   5    0.33    0.07
   3  -3  -5    0.73    0.08
   3  -3  -5    0.76    0.08
  -3   3   5    0.82    0.09
  -3   3   5    0.98    0.09
   2  -3  -5    0.38    0.06
  -2   3   5    0.39    0.06
  -2   3   5    0.48    0.07
  -2   3   5    0.47    0.08
   1  -3  -5    0.47    0.06
  -1   3   5    0.53    0.07
  -1   3   5    0.55    0.08
  -1   3   5    0.44    0.06
   0  -3  -5    0.03    0.03
   0   3   5    0.06    0.03
   0   3   5    0.10    0.04
   0   3   5    0.12    0.04
  -1  -3  -5    9.34    0.22
  -1  -3  -5    9.12    0.22
  -1  -3  -5    9.02    0.25
   1   3   5    8.83    0.29
   1   3   5    9.12    0.27
   1   3   5    8.85    0.26
  -2  -3  -5    0.30    0.04
  -2  -3  -5    0.45    0.06
  -2  -3  -5    0.33    0.05
   2   3   5    0.40    0.06
   2   3   5    0.33    0.05
   2   3   5    0.24    0.05
  -3  -3  -5    0.41    0.06
  -3  -3  -5    0.52    0.07
  -3  -3  -5    0.45    0.05
  -3  -3  -5    0.42    0.05
   3   3   5    0.60    0.07
   3   3   5    0.51    0.06
  -4  -3  -5    0.15    0.04
  -4  -3  -5    0.07    0.03
  -4  -3  -5    0.01    0.02
   4   3   5    0.06    0.03
   4   3   5    0.07    0.03
  -5  -3  -5    1.73    0.11
  -5  -3  -5    1.73    0.12
   5   3   5    1.65    0.10
  -6  -3  -5    2.65    0.14
  -6  -3  -5    2.84    0.16
   6   3   5    2.67    0.13
  -7  -3  -5    0.09    0.04
  -7  -3  -5    0.03    0.05
  -8  -3  -5    0.28    0.08
  -8  -3  -5    0.28    0.07
  -9  -3  -5    0.15    0.05
  -9  -3  -5   -0.03    0.05
 -10  -3  -5   -0.06    0.04
 -10  -3  -5   -0.05    0.05
 -11  -3  -5    0.12    0.07
   8  -4  -5    0.11    0.07
   7  -4  -5    1.18    0.14
  -7   4   5    1.09    0.14
   6  -4  -5    0.66    0.10
   6  -4  -5    0.55    0.08
  -6   4   5    0.70    0.11
   5  -4  -5    0.85    0.10
   5  -4  -5    0.68    0.09
  -5   4   5    0.95    0.12
   4  -4  -5   -0.02    0.03
   4  -4  -5   -0.01    0.03
  -4   4   5    0.01    0.03
   3  -4  -5    0.63    0.08
  -3   4   5    0.57    0.08
   2  -4  -5    0.02    0.03
  -2   4   5    0.01    0.03
  -2   4   5    0.00    0.02
   1  -4  -5    3.11    0.15
  -1   4   5    3.80    0.17
  -1   4   5    3.33    0.18
  -1   4   5    3.49    0.15
   0  -4  -5    2.76    0.13
   0   4   5    2.84    0.14
   0   4   5    2.85    0.14
   0   4   5    2.97    0.16
  -1  -4  -5    0.00    0.02
  -1  -4  -5    0.02    0.03
   1   4   5    0.02    0.02
   1   4   5   -0.02    0.02
   1   4   5    0.02    0.03
  -2  -4  -5    0.87    0.06
  -2  -4  -5    0.93    0.07
  -2  -4  -5    0.97    0.09
   2   4   5    0.95    0.08
   2   4   5    0.78    0.09
   2   4   5    1.01    0.10
  -3  -4  -5    0.20    0.05
  -3  -4  -5    0.15    0.04
  -3  -4  -5    0.21    0.05
   3   4   5    0.14    0.04
   3   4   5    0.17    0.04
   3   4   5    0.17    0.04
  -4  -4  -5    0.10    0.04
  -4  -4  -5    0.09    0.03
   4   4   5    0.06    0.04
   4   4   5    0.05    0.03
  -5  -4  -5    5.32    0.22
  -5  -4  -5    5.26    0.20
   5   4   5    5.49    0.19
  -6  -4  -5   19.74    0.49
  -6  -4  -5   19.14    0.52
   6   4   5   19.97    0.46
  -7  -4  -5    0.55    0.09
  -7  -4  -5    0.41    0.09
  -8  -4  -5   -0.06    0.04
  -8  -4  -5   -0.03    0.03
  -9  -4  -5    0.01    0.04
  -9  -4  -5   -0.01    0.06
 -10  -4  -5    0.00    0.04
 -10  -4  -5    0.04    0.06
 -11  -4  -5    0.08    0.08
  -7   5   5    0.02    0.06
   6  -5  -5    0.21    0.06
  -6   5   5    0.43    0.10
   5  -5  -5    0.01    0.04
  -5   5   5    0.02    0.04
   4  -5  -5    0.50    0.08
  -4   5   5    0.62    0.10
   3  -5  -5    7.26    0.25
  -3   5   5    6.95    0.28
   2  -5  -5   10.79    0.32
  -2   5   5   10.96    0.32
  -2   5   5   11.39    0.35
  -2   5   5   10.93    0.32
   1  -5  -5    8.95    0.28
  -1   5   5    9.45    0.29
  -1   5   5    9.26    0.31
   0  -5  -5    0.41    0.07
   0   5   5    0.28    0.06
   0   5   5    0.40    0.07
   0   5   5    0.29    0.06
  -1  -5  -5    3.11    0.14
   1   5   5    3.06    0.15
   1   5   5    3.15    0.15
   1   5   5    3.24    0.17
  -2  -5  -5    0.19    0.05
  -2  -5  -5    0.21    0.04
   2   5   5    0.18    0.05
   2   5   5    0.17    0.04
   2   5   5    0.23    0.05
  -3  -5  -5    0.00    0.03
  -3  -5  -5    0.11    0.04
  -3  -5  -5    0.06    0.04
   3   5   5    0.00    0.02
   3   5   5    0.03    0.03
   3   5   5    0.00    0.02
  -4  -5  -5    0.09    0.04
  -4  -5  -5    0.09    0.04
   4   5   5    0.15    0.05
  -5  -5  -5    0.32    0.06
  -5  -5  -5    0.36    0.07
   5   5   5    0.23    0.05
   5   5   5    0.46    0.07
  -6  -5  -5    0.19    0.05
  -6  -5  -5    0.13    0.06
   6   5   5    0.15    0.06
  -7  -5  -5    0.16    0.05
  -7  -5  -5    0.28    0.08
  -8  -5  -5    0.55    0.09
  -8  -5  -5    0.68    0.11
  -9  -5  -5    0.10    0.07
  -9  -5  -5    0.10    0.05
 -10  -5  -5   -0.01    0.05
 -10  -5  -5    0.04    0.06
   6  -6  -5   -0.02    0.05
  -6   6   5    0.05    0.05
   5  -6  -5    0.07    0.06
  -5   6   5    0.17    0.07
   4  -6  -5    0.53    0.08
  -4   6   5    0.75    0.11
   3  -6  -5    0.73    0.09
  -3   6   5    0.96    0.12
   2  -6  -5    0.85    0.10
  -2   6   5    0.88    0.11
  -2   6   5    0.62    0.09
   1  -6  -5    8.06    0.28
  -1   6   5    8.36    0.28
  -1   6   5    8.47    0.29
  -1   6   5    8.91    0.31
   0  -6  -5    1.20    0.12
   0   6   5    1.76    0.12
   0   6   5    1.51    0.12
   0   6   5    1.63    0.15
  -1  -6  -5    0.03    0.03
   1   6   5    0.09    0.05
   1   6   5    0.03    0.03
   1   6   5    0.01    0.03
  -2  -6  -5   -0.02    0.04
   2   6   5    0.07    0.03
   2   6   5    0.02    0.03
   2   6   5    0.05    0.04
  -3  -6  -5    7.48    0.23
  -3  -6  -5    7.98    0.26
   3   6   5    8.18    0.27
   3   6   5    7.25    0.26
  -4  -6  -5    0.45    0.07
  -4  -6  -5    0.53    0.08
   4   6   5    0.35    0.06
   4   6   5    0.50    0.08
  -5  -6  -5    0.04    0.05
  -5  -6  -5   -0.02    0.03
   5   6   5   -0.02    0.03
   5   6   5    0.02    0.04
  -6  -6  -5    0.31    0.06
  -6  -6  -5    0.27    0.07
   6   6   5    0.44    0.08
  -7  -6  -5    0.08    0.06
  -7  -6  -5    0.00    0.04
   7   6   5    0.02    0.04
  -8  -6  -5    0.71    0.12
  -8  -6  -5    0.39    0.08
  -9  -6  -5    0.03    0.05
  -9  -6  -5    0.00    0.06
 -10  -6  -5    0.01    0.05
 -10  -6  -5   -0.05    0.06
   6  -7  -5    0.01    0.05
   5  -7  -5    0.01    0.05
  -5   7   5    0.01    0.05
   4  -7  -5    0.05    0.04
  -4   7   5    0.04    0.05
   3  -7  -5    0.09    0.05
   3  -7  -5    0.17    0.07
  -3   7   5    0.12    0.06
   2  -7  -5   -0.02    0.04
  -2   7   5   -0.01    0.03
  -2   7   5   -0.01    0.04
   1  -7  -5    0.62    0.10
  -1   7   5    0.63    0.10
  -1   7   5    0.73    0.10
   0  -7  -5    0.58    0.09
   0   7   5    0.66    0.10
   0   7   5    0.57    0.09
  -1  -7  -5    1.01    0.12
   1   7   5    1.39    0.14
   1   7   5    1.29    0.14
   1   7   5    1.11    0.12
  -2  -7  -5    0.55    0.09
   2   7   5    0.86    0.11
   2   7   5    0.57    0.09
   2   7   5    0.75    0.10
  -3  -7  -5    1.97    0.13
   3   7   5    1.63    0.12
   3   7   5    1.83    0.13
   3   7   5    1.78    0.13
  -4  -7  -5    2.35    0.13
  -4  -7  -5    2.20    0.14
   4   7   5    1.88    0.13
   4   7   5    1.96    0.14
  -5  -7  -5    1.07    0.10
  -5  -7  -5    1.01    0.12
   5   7   5    1.25    0.13
  -6  -7  -5    0.15    0.07
  -6  -7  -5    0.03    0.04
   6   7   5    0.09    0.05
  -7  -7  -5    0.04    0.04
  -7  -7  -5   -0.07    0.04
   7   7   5    0.05    0.05
  -8  -7  -5    0.17    0.06
  -8  -7  -5    0.15    0.07
  -9  -7  -5    0.01    0.05
  -9  -7  -5    0.29    0.10
 -10  -7  -5    0.36    0.11
   5  -8  -5    0.01    0.06
   4  -8  -5   -0.05    0.04
  -4   8   5   -0.01    0.04
   3  -8  -5   -0.02    0.06
   3  -8  -5    0.10    0.06
  -3   8   5    0.02    0.04
   2  -8  -5    0.00    0.06
   2  -8  -5   -0.02    0.04
  -2   8   5   -0.02    0.04
   1  -8  -5    0.30    0.08
  -1   8   5    0.23    0.07
  -1   8   5    0.39    0.08
   0  -8  -5    0.03    0.05
   0   8   5    0.17    0.07
   0   8   5    0.13    0.06
  -1  -8  -5    0.09    0.06
   1   8   5    0.08    0.05
   1   8   5    0.14    0.06
  -2  -8  -5    0.54    0.10
   2   8   5    0.46    0.08
   2   8   5    0.46    0.09
  -3  -8  -5    0.41    0.08
   3   8   5    0.38    0.08
   3   8   5    0.43    0.08
   3   8   5    0.34    0.07
  -4  -8  -5    0.27    0.07
   4   8   5    0.25    0.07
   4   8   5    0.19    0.06
  -5  -8  -5    0.16    0.07
   5   8   5    0.05    0.05
   5   8   5    0.12    0.06
  -6  -8  -5    0.03    0.05
  -6  -8  -5    0.25    0.08
   6   8   5    0.20    0.06
   6   8   5    0.06    0.05
  -7  -8  -5    0.52    0.09
  -7  -8  -5    0.30    0.09
   7   8   5    0.46    0.09
  -8  -8  -5    0.00    0.05
  -8  -8  -5    0.03    0.07
  -9  -8  -5    0.06    0.06
  -9  -8  -5    0.00    0.07
   3  -9  -5    0.65    0.13
  -3   9   5    0.64    0.12
   2  -9  -5    0.01    0.06
   2  -9  -5    0.01    0.07
  -2   9   5   -0.05    0.03
   1  -9  -5   -0.02    0.05
  -1   9   5   -0.02    0.04
  -1   9   5   -0.03    0.04
   0  -9  -5    0.02    0.06
   0   9   5    0.01    0.04
   0   9   5    0.09    0.06
  -1  -9  -5    0.03    0.06
   1   9   5    0.05    0.05
   1   9   5    0.02    0.05
  -2  -9  -5   -0.01    0.05
   2   9   5   -0.02    0.04
   2   9   5    0.07    0.05
  -3  -9  -5    0.36    0.08
   3   9   5    0.36    0.09
   4   9   5    0.01    0.04
  -5  -9  -5    0.03    0.06
   5   9   5    0.00    0.04
  -6  -9  -5    0.04    0.07
   6   9   5   -0.01    0.05
  -7  -9  -5    0.03    0.07
  -7  -9  -5    0.07    0.06
   7   9   5    0.01    0.05
  -8  -9  -5    0.09    0.06
  -8  -9  -5    0.01    0.08
   8   9   5    0.01    0.05
   2 -10  -5    0.10    0.07
   1 -10  -5    0.33    0.10
  -1  10   5    0.44    0.10
  -1  10   5    0.36    0.09
   0 -10  -5    0.20    0.09
   0  10   5    0.32    0.09
   0  10   5    0.22    0.08
  -1 -10  -5    0.12    0.07
   1  10   5    0.09    0.06
   1  10   5    0.00    0.05
  -2 -10  -5    0.13    0.07
   2  10   5    0.11    0.07
  -3 -10  -5    1.68    0.18
   3  10   5    1.85    0.19
   4  10   5    0.47    0.11
  -5 -10  -5    0.10    0.08
   5  10   5    0.00    0.05
  -6 -10  -5    0.04    0.07
   6  10   5    0.04    0.05
  -2 -11  -5    0.00    0.06
   2  11   5   -0.03    0.06
   3  11   5   -0.05    0.05
   4   9  -6    0.18    0.08
   3   9  -6    0.35    0.09
   2   9  -6    0.18    0.08
  -2  -9   6    0.14    0.08
   1   9  -6    0.03    0.06
  -1  -9   6    0.05    0.07
  -1  -9   6    0.08    0.07
   0   9  -6    0.07    0.06
   0   9  -6    0.12    0.04
   0  -9   6    0.07    0.07
   0  -9   6    0.04    0.07
  -1   9  -6    0.27    0.09
  -1   9  -6    0.24    0.08
   1  -9   6    0.22    0.09
   1  -9   6    0.42    0.10
  -2   9  -6    0.69    0.12
   2  -9   6    0.30    0.08
  -3   9  -6    0.71    0.12
   6   8  -6    0.02    0.05
   5   8  -6    0.75    0.12
   4   8  -6   -0.01    0.04
   3   8  -6    0.68    0.12
  -3  -8   6    0.66    0.12
   2   8  -6    1.05    0.14
  -2  -8   6    1.13    0.15
   1   8  -6    1.13    0.14
  -1  -8   6    1.21    0.15
  -1  -8   6    1.35    0.15
   0   8  -6    0.19    0.07
   0   8  -6    0.16    0.06
   0  -8   6    0.25    0.09
   0  -8   6    0.28    0.08
  -1   8  -6    0.27    0.06
  -1   8  -6    0.39    0.09
  -1   8  -6    0.21    0.06
   1  -8   6    0.17    0.08
   1  -8   6    0.21    0.08
  -2   8  -6    0.71    0.09
  -2   8  -6    0.55    0.10
   2  -8   6    0.50    0.10
   2  -8   6    0.37    0.09
  -3   8  -6    0.98    0.13
  -3   8  -6    1.38    0.16
   3  -8   6    1.04    0.14
  -4   8  -6    0.83    0.13
  -4   8  -6    0.85    0.14
  -5   8  -6    0.42    0.10
   5  -8   6    0.17    0.06
   7   7  -6    0.13    0.06
   7   7  -6    0.26    0.09
   6   7  -6    0.06    0.06
   5   7  -6    0.20    0.07
   4   7  -6   -0.03    0.04
   3   7  -6    0.08    0.05
  -3  -7   6    0.03    0.05
   2   7  -6    1.45    0.15
  -2  -7   6    1.37    0.15
   1   7  -6    1.17    0.14
  -1  -7   6    1.09    0.14
  -1  -7   6    1.20    0.13
   0   7  -6    0.26    0.06
   0   7  -6    0.28    0.08
   0  -7   6    0.36    0.08
   0  -7   6    0.29    0.08
  -1   7  -6    0.10    0.06
  -1   7  -6    0.13    0.04
  -1   7  -6    0.07    0.04
   1  -7   6    0.09    0.06
   1  -7   6    0.10    0.06
  -2   7  -6    0.91    0.12
  -2   7  -6    1.24    0.10
  -2   7  -6    1.22    0.14
  -2   7  -6    1.29    0.14
   2  -7   6    1.07    0.13
   2  -7   6    0.99    0.13
  -3   7  -6    1.73    0.15
  -3   7  -6    1.86    0.15
  -3   7  -6    1.69    0.12
   3  -7   6    1.18    0.13
   3  -7   6    1.67    0.16
  -4   7  -6    0.95    0.13
  -4   7  -6    0.87    0.13
   4  -7   6    0.43    0.08
   4  -7   6    0.89    0.12
  -5   7  -6    1.26    0.16
  -5   7  -6    0.99    0.14
   5  -7   6    1.37    0.16
  -6   7  -6    0.81    0.14
  -6   7  -6    0.72    0.12
   8   6  -6    0.14    0.07
   8   6  -6    0.13    0.08
   7   6  -6    0.11    0.06
   7   6  -6    0.15    0.08
   6   6  -6    0.03    0.05
   6   6  -6    0.05    0.05
   5   6  -6    0.47    0.09
   5   6  -6    0.29    0.08
   4   6  -6    0.47    0.09
   3   6  -6    0.15    0.06
  -3  -6   6    0.17    0.07
   2   6  -6    0.31    0.07
  -2  -6   6    0.33    0.08
   1   6  -6    1.69    0.12
   1   6  -6    1.74    0.13
  -1  -6   6    1.92    0.14
  -1  -6   6    1.68    0.12
   0   6  -6    0.06    0.04
   0   6  -6    0.05    0.04
   0  -6   6    0.03    0.04
   0  -6   6    0.10    0.06
  -1   6  -6    0.05    0.04
  -1   6  -6   -0.03    0.03
  -1   6  -6    0.01    0.02
  -1   6  -6   -0.02    0.04
   1  -6   6   -0.01    0.04
   1  -6   6    0.01    0.05
  -2   6  -6    2.22    0.15
  -2   6  -6    2.25    0.12
  -2   6  -6    2.19    0.15
  -2   6  -6    2.21    0.14
   2  -6   6    2.03    0.15
   2  -6   6    2.31    0.15
  -3   6  -6    3.38    0.19
  -3   6  -6    3.34    0.16
  -3   6  -6    3.26    0.19
   3  -6   6    3.39    0.19
   3  -6   6    3.38    0.19
  -4   6  -6    0.62    0.11
  -4   6  -6    0.57    0.09
  -4   6  -6    0.63    0.09
   4  -6   6    0.53    0.09
   4  -6   6    0.48    0.09
  -5   6  -6    0.37    0.08
  -5   6  -6    0.41    0.09
   5  -6   6    0.29    0.08
   5  -6   6    0.30    0.07
  -6   6  -6    0.20    0.07
  -6   6  -6    0.18    0.08
   6  -6   6    0.22    0.08
   6  -6   6    0.17    0.06
  -7   6  -6    0.34    0.10
  -7   6  -6    0.21    0.07
   7  -6   6    0.35    0.09
   8   5  -6    0.18    0.09
   7   5  -6    0.56    0.10
   7   5  -6    0.67    0.13
   6   5  -6   -0.01    0.04
   6   5  -6   -0.01    0.04
   5   5  -6    1.30    0.13
   5   5  -6    1.28    0.15
   4   5  -6    2.00    0.14
   4   5  -6    1.96    0.15
   3   5  -6   -0.01    0.03
  -3  -5   6   -0.06    0.04
   2   5  -6    1.05    0.12
  -2  -5   6    0.81    0.11
  -2  -5   6    0.65    0.08
   1   5  -6   -0.01    0.04
   1   5  -6    0.01    0.03
  -1  -5   6    0.08    0.04
  -1  -5   6   -0.04    0.03
   0   5  -6    0.02    0.04
   0   5  -6    0.04    0.03
   0   5  -6    0.11    0.05
   0  -5   6    0.16    0.06
  -1   5  -6    0.01    0.03
  -1   5  -6   -0.05    0.03
  -1   5  -6    0.00    0.03
  -1   5  -6   -0.01    0.02
   1  -5   6    0.08    0.04
   1  -5   6    0.04    0.04
  -2   5  -6    0.02    0.03
  -2   5  -6    0.02    0.03
  -2   5  -6    0.06    0.04
  -2   5  -6    0.06    0.04
   2  -5   6    0.05    0.05
   2  -5   6    0.07    0.05
  -3   5  -6    1.22    0.11
  -3   5  -6    1.21    0.13
  -3   5  -6    1.20    0.13
   3  -5   6    1.07    0.12
   3  -5   6    1.35    0.14
  -4   5  -6    0.31    0.07
  -4   5  -6    0.37    0.08
  -4   5  -6    0.33    0.06
   4  -5   6    0.38    0.08
   4  -5   6    0.30    0.07
  -5   5  -6    0.79    0.11
  -5   5  -6    0.87    0.13
  -5   5  -6    0.59    0.09
   5  -5   6    0.81    0.11
   5  -5   6    0.92    0.11
  -6   5  -6    0.10    0.05
  -6   5  -6    0.08    0.06
  -6   5  -6    0.09    0.05
   6  -5   6    0.17    0.07
   6  -5   6    0.11    0.06
  -7   5  -6    0.02    0.05
  -7   5  -6    0.07    0.05
   7  -5   6    0.02    0.05
  -8   5  -6    0.59    0.12
  -8   5  -6    0.48    0.10
   8  -5   6    0.67    0.12
   8   4  -6   -0.02    0.06
   7   4  -6    0.22    0.07
   7   4  -6    0.23    0.08
   6   4  -6    0.88    0.13
   6   4  -6    0.85    0.11
   5   4  -6    3.22    0.17
   5   4  -6    3.46    0.20
   4   4  -6    0.19    0.06
   4   4  -6    0.38    0.08
   3   4  -6    0.34    0.07
   3   4  -6    0.21    0.06
  -3  -4   6    0.18    0.06
   2   4  -6   -0.01    0.03
  -2  -4   6    0.02    0.03
  -2  -4   6    0.02    0.04
   1   4  -6   -0.07    0.02
  -1  -4   6   -0.02    0.03
  -1  -4   6   -0.04    0.04
   0   4  -6   12.43    0.34
   0   4  -6   12.01    0.35
   0  -4   6   12.05    0.32
   0  -4   6   11.84    0.35
  -1   4  -6    2.33    0.13
  -1   4  -6    2.35    0.13
  -1   4  -6    2.30    0.11
   1  -4   6    2.23    0.13
   1  -4   6    2.35    0.14
  -2   4  -6    0.05    0.03
  -2   4  -6    0.04    0.04
  -2   4  -6    0.06    0.04
   2  -4   6    0.15    0.05
   2  -4   6    0.08    0.05
  -3   4  -6    8.04    0.25
  -3   4  -6    7.91    0.29
   3  -4   6    8.08    0.28
   3  -4   6    7.99    0.27
  -4   4  -6    3.07    0.18
  -4   4  -6    3.49    0.19
  -4   4  -6    3.55    0.16
   4  -4   6    3.31    0.17
   4  -4   6    3.22    0.17
  -5   4  -6    0.53    0.09
  -5   4  -6    0.70    0.11
  -5   4  -6    0.71    0.09
   5  -4   6    0.68    0.10
   5  -4   6    0.67    0.09
  -6   4  -6    0.01    0.03
  -6   4  -6    0.00    0.04
  -6   4  -6   -0.01    0.04
   6  -4   6    0.03    0.05
   6  -4   6    0.01    0.05
  -7   4  -6    0.25    0.08
  -7   4  -6    0.58    0.10
  -7   4  -6    0.49    0.09
   7  -4   6    0.51    0.09
  -8   4  -6    0.21    0.07
  -8   4  -6    0.49    0.11
   8  -4   6    0.32    0.09
  -9   4  -6    0.06    0.06
   9   3  -6   -0.02    0.07
   8   3  -6    0.23    0.09
   7   3  -6    0.49    0.11
   7   3  -6    0.34    0.07
   6   3  -6    1.80    0.13
   6   3  -6    1.75    0.15
   5   3  -6    0.40    0.08
   5   3  -6    0.40    0.07
   4   3  -6    0.88    0.11
   4   3  -6    0.94    0.10
   3   3  -6    0.93    0.11
   3   3  -6    0.84    0.10
  -3  -3   6    0.78    0.10
  -3  -3   6    0.65    0.10
   2   3  -6    2.42    0.13
   2   3  -6    2.35    0.13
  -2  -3   6    2.20    0.13
  -2  -3   6    2.37    0.11
  -2  -3   6    2.60    0.16
   1   3  -6    1.76    0.10
   1   3  -6    1.84    0.11
  -1  -3   6    2.13    0.11
  -1  -3   6    2.11    0.13
  -1  -3   6    2.15    0.14
   0   3  -6    5.69    0.21
   0   3  -6    5.82    0.17
   0  -3   6    5.42    0.19
   0  -3   6    5.63    0.22
   0  -3   6    5.92    0.25
  -1   3  -6    0.06    0.04
  -1   3  -6    0.11    0.03
  -1   3  -6    0.10    0.04
   1  -3   6    0.04    0.03
   1  -3   6    0.09    0.04
   1  -3   6    0.08    0.04
  -2   3  -6   17.85    0.43
  -2   3  -6   17.21    0.40
  -2   3  -6   18.74    0.47
   2  -3   6   17.48    0.45
   2  -3   6   17.12    0.43
  -3   3  -6    0.01    0.02
  -3   3  -6    0.04    0.03
  -3   3  -6    0.00    0.03
   3  -3   6    0.03    0.04
   3  -3   6    0.01    0.04
  -4   3  -6    0.23    0.07
  -4   3  -6    0.23    0.05
   4  -3   6    0.29    0.06
   4  -3   6    0.29    0.06
  -5   3  -6    1.77    0.14
  -5   3  -6    1.79    0.12
   5  -3   6    1.56    0.11
   5  -3   6    1.47    0.11
  -6   3  -6    0.01    0.03
  -6   3  -6   -0.01    0.04
  -6   3  -6    0.05    0.05
   6  -3   6    0.04    0.05
   6  -3   6    0.04    0.04
  -7   3  -6    0.04    0.05
  -7   3  -6    0.19    0.06
  -7   3  -6    0.13    0.06
   7  -3   6    0.08    0.05
  -8   3  -6    0.19    0.07
  -8   3  -6    0.19    0.07
  -8   3  -6    0.11    0.05
  -8   3  -6    0.11    0.07
   8  -3   6    0.19    0.07
  -9   3  -6    0.34    0.08
  -9   3  -6    0.30    0.08
  -9   3  -6    0.33    0.09
   9   2  -6    0.08    0.07
   8   2  -6    0.61    0.12
   7   2  -6    0.01    0.05
   7   2  -6    0.05    0.05
   6   2  -6    0.44    0.09
   6   2  -6    0.37    0.07
   5   2  -6    1.17    0.12
   5   2  -6    1.35    0.14
   4   2  -6    1.32    0.10
   4   2  -6    1.36    0.14
   3   2  -6    0.07    0.04
   3   2  -6    0.04    0.04
  -3  -2   6    0.05    0.04
  -3  -2   6    0.04    0.04
   2   2  -6    1.29    0.10
   2   2  -6    1.61    0.11
  -2  -2   6    1.34    0.10
  -2  -2   6    1.42    0.12
  -2  -2   6    1.38    0.08
   1   2  -6    8.59    0.25
   1   2  -6    9.17    0.27
  -1  -2   6    7.99    0.30
  -1  -2   6    8.52    0.27
  -1  -2   6    8.88    0.24
   0   2  -6    9.47    0.24
   0   2  -6    9.19    0.25
   0   2  -6    8.98    0.27
   0  -2   6    9.41    0.32
   0  -2   6    9.53    0.26
   0  -2   6    9.59    0.29
  -1   2  -6    0.03    0.02
  -1   2  -6   -0.01    0.02
   1  -2   6   -0.03    0.02
   1  -2   6    0.03    0.03
   1  -2   6   -0.01    0.02
  -2   2  -6    0.32    0.06
  -2   2  -6    0.17    0.04
  -2   2  -6    0.21    0.05
   2  -2   6    0.30    0.06
   2  -2   6    0.30    0.06
   2  -2   6    0.21    0.05
  -3   2  -6    0.16    0.04
  -3   2  -6    0.08    0.04
  -3   2  -6    0.17    0.04
   3  -2   6    0.12    0.04
   3  -2   6    0.18    0.05
   3  -2   6    0.11    0.04
  -4   2  -6    0.30    0.06
  -4   2  -6    0.28    0.05
   4  -2   6    0.22    0.06
   4  -2   6    0.28    0.06
  -5   2  -6    3.47    0.19
  -5   2  -6    3.52    0.15
  -5   2  -6    3.61    0.16
   5  -2   6    3.46    0.17
   5  -2   6    3.54    0.16
  -6   2  -6    0.03    0.04
  -6   2  -6    0.02    0.03
  -6   2  -6    0.01    0.04
   6  -2   6    0.07    0.04
   6  -2   6    0.00    0.04
  -7   2  -6    0.11    0.05
  -7   2  -6    0.12    0.06
  -7   2  -6    0.20    0.06
  -7   2  -6    0.11    0.05
   7  -2   6    0.11    0.05
  -8   2  -6    0.27    0.07
  -8   2  -6    0.38    0.07
  -8   2  -6    0.33    0.09
  -8   2  -6    0.47    0.09
   8  -2   6    0.36    0.08
  -9   2  -6    1.31    0.15
  -9   2  -6    1.44    0.14
  -9   2  -6    1.66    0.18
  -9   2  -6    1.58    0.16
 -10   2  -6    0.00    0.06
 -10   2  -6    0.02    0.05
   9   1  -6    0.50    0.11
   8   1  -6    0.03    0.06
   7   1  -6   -0.04    0.04
   6   1  -6    1.09    0.13
   6   1  -6    1.05    0.11
   5   1  -6    1.87    0.12
   5   1  -6    1.87    0.15
   4   1  -6    5.95    0.22
   4   1  -6    6.05    0.25
   3   1  -6    8.03    0.25
   3   1  -6    7.85    0.27
  -3  -1   6    7.49    0.24
  -3  -1   6    7.32    0.24
  -3  -1   6    7.94    0.30
   2   1  -6    1.17    0.09
   2   1  -6    1.25    0.09
  -2  -1   6    1.13    0.12
  -2  -1   6    1.14    0.08
  -2  -1   6    1.15    0.09
   1   1  -6    0.99    0.08
   1   1  -6    0.85    0.07
  -1  -1   6    1.00    0.10
  -1  -1   6    0.72    0.09
   0   1  -6    2.58    0.13
   0   1  -6    2.74    0.11
   0   1  -6    2.85    0.11
   0  -1   6    2.63    0.15
   0  -1   6    2.89    0.14
  -1   1  -6    0.23    0.04
  -1   1  -6    0.23    0.05
   1  -1   6    0.23    0.05
   1  -1   6    0.23    0.05
  -2   1  -6    0.11    0.04
  -2   1  -6    0.09    0.03
   2  -1   6    0.12    0.04
   2  -1   6    0.08    0.04
  -3   1  -6    0.03    0.03
  -3   1  -6    0.01    0.03
  -3   1  -6    0.03    0.02
  -3   1  -6    0.01    0.02
   3  -1   6    0.02    0.03
   3  -1   6   -0.03    0.02
  -4   1  -6    1.95    0.10
  -4   1  -6    1.82    0.11
  -4   1  -6    1.64    0.12
   4  -1   6    1.75    0.13
   4  -1   6    1.74    0.11
  -5   1  -6    7.71    0.25
  -5   1  -6    8.12    0.25
  -5   1  -6    7.63    0.28
   5  -1   6    8.07    0.25
   5  -1   6    7.34    0.29
  -6   1  -6    0.03    0.04
  -6   1  -6    0.01    0.03
  -6   1  -6    0.02    0.03
   6  -1   6    0.00    0.03
   6  -1   6    0.05    0.04
  -7   1  -6    0.61    0.09
  -7   1  -6    0.64    0.09
  -7   1  -6    0.68    0.10
   7  -1   6    0.37    0.08
  -8   1  -6    0.01    0.04
  -8   1  -6    0.01    0.05
  -8   1  -6   -0.01    0.04
  -8   1  -6    0.03    0.05
   8  -1   6    0.02    0.05
  -9   1  -6    0.44    0.09
  -9   1  -6    0.31    0.08
  -9   1  -6    0.49    0.10
 -10   1  -6   -0.04    0.05
 -10   1  -6    0.07    0.06
 -10   1  -6    0.04    0.06
   9   0  -6    0.47    0.11
   8   0  -6    0.00    0.05
   7   0  -6    0.57    0.11
   6   0  -6    0.63    0.11
   6   0  -6    0.41    0.07
   5   0  -6    4.56    0.22
   5   0  -6    4.51    0.19
   4   0  -6    6.55    0.26
   4   0  -6    6.48    0.23
  -4   0   6    6.82    0.23
   3   0  -6    0.00    0.03
   3   0  -6    0.08    0.04
  -3   0   6    0.04    0.04
  -3   0   6    0.04    0.03
  -3   0   6    0.03    0.04
   2   0  -6    1.17    0.09
   2   0  -6    1.05    0.08
  -2   0   6    1.07    0.10
  -2   0   6    0.92    0.11
  -2   0   6    1.08    0.08
   1   0  -6    5.69    0.20
   1   0  -6    5.25    0.18
   1   0  -6    5.65    0.16
  -1   0   6    5.49    0.20
  -1   0   6    5.54    0.23
  -1   0   6    5.38    0.20
   0   0  -6    2.29    0.12
   0   0  -6    2.21    0.09
   0   0   6    2.29    0.12
   0   0   6    2.14    0.13
  -1   0  -6    0.54    0.06
  -1   0  -6    0.53    0.07
   1   0   6    0.62    0.08
   1   0   6    0.72    0.08
  -2   0  -6    3.52    0.14
  -2   0  -6    3.54    0.11
  -2   0  -6    3.65    0.14
   2   0   6    3.87    0.16
   2   0   6    3.68    0.18
  -3   0  -6    1.67    0.09
  -3   0  -6    1.72    0.09
  -3   0  -6    1.66    0.10
   3   0   6    1.82    0.11
   3   0   6    1.73    0.12
  -4   0  -6    1.77    0.10
  -4   0  -6    1.47    0.09
  -4   0  -6    1.53    0.11
   4   0   6    1.48    0.10
   4   0   6    1.44    0.11
  -5   0  -6    0.36    0.06
  -5   0  -6    0.31    0.07
  -5   0  -6    0.34    0.06
   5   0   6    0.33    0.06
   5   0   6    0.44    0.07
  -6   0  -6    0.06    0.04
  -6   0  -6    0.19    0.06
  -6   0  -6    0.10    0.05
  -7   0  -6    3.15    0.17
  -7   0  -6    3.13    0.17
  -7   0  -6    2.89    0.18
  -8   0  -6    0.35    0.08
  -8   0  -6    0.28    0.07
  -8   0  -6    0.31    0.08
  -9   0  -6    0.60    0.11
  -9   0  -6    0.55    0.10
  -9   0  -6    0.68    0.11
 -10   0  -6    0.00    0.06
 -10   0  -6    0.06    0.06
   8  -1  -6    0.17    0.07
   7  -1  -6    0.50    0.10
   6  -1  -6    0.26    0.07
   6  -1  -6    0.15    0.06
   5  -1  -6    2.04    0.14
   5  -1  -6    1.69    0.12
  -5   1   6    1.91    0.13
   4  -1  -6    0.69    0.09
   4  -1  -6    0.80    0.10
  -4   1   6    0.75    0.09
   3  -1  -6    0.15    0.05
   3  -1  -6    0.15    0.05
  -3   1   6    0.06    0.04
  -3   1   6    0.13    0.05
   2  -1  -6    1.25    0.09
   2  -1  -6    1.05    0.10
   2  -1  -6    0.96    0.05
  -2   1   6    1.09    0.08
  -2   1   6    1.09    0.12
  -2   1   6    1.17    0.09
   1  -1  -6    0.95    0.07
   1  -1  -6    0.93    0.09
   1  -1  -6    0.98    0.06
  -1   1   6    0.93    0.11
  -1   1   6    1.08    0.09
  -1   1   6    0.97    0.10
   0  -1  -6    2.91    0.13
   0  -1  -6    2.98    0.11
   0   1   6    2.86    0.16
   0   1   6    2.88    0.14
   0   1   6    2.98    0.14
  -1  -1  -6    1.72    0.08
  -1  -1  -6    1.34    0.09
   1   1   6    1.24    0.09
   1   1   6    1.51    0.11
  -2  -1  -6   12.29    0.30
  -2  -1  -6   11.93    0.30
   2   1   6   12.07    0.37
   2   1   6   11.63    0.32
  -3  -1  -6    0.32    0.05
  -3  -1  -6    0.30    0.05
  -3  -1  -6    0.27    0.05
   3   1   6    0.12    0.04
   3   1   6    0.34    0.06
  -4  -1  -6    0.19    0.04
  -4  -1  -6    0.24    0.05
   4   1   6    0.24    0.05
   4   1   6    0.13    0.04
  -5  -1  -6    0.65    0.08
  -5  -1  -6    0.53    0.07
   5   1   6    0.75    0.09
   5   1   6    0.66    0.08
  -6  -1  -6    0.56    0.09
  -6  -1  -6    0.57    0.09
  -6  -1  -6    0.66    0.08
   6   1   6    0.74    0.09
  -7  -1  -6   -0.01    0.04
  -7  -1  -6   -0.03    0.03
  -7  -1  -6   -0.03    0.04
  -8  -1  -6    0.56    0.09
  -8  -1  -6    0.78    0.10
  -8  -1  -6    0.49    0.09
  -9  -1  -6    1.78    0.16
  -9  -1  -6    1.68    0.17
  -9  -1  -6    1.52    0.15
 -10  -1  -6    0.03    0.06
 -10  -1  -6    0.01    0.05
   8  -2  -6    1.24    0.15
   7  -2  -6    0.06    0.05
   6  -2  -6    0.00    0.04
   6  -2  -6    0.01    0.04
   5  -2  -6    2.81    0.15
   5  -2  -6    2.62    0.16
  -5   2   6    2.82    0.16
   4  -2  -6    1.80    0.12
   4  -2  -6    1.66    0.11
  -4   2   6    1.64    0.12
   3  -2  -6    7.98    0.26
   3  -2  -6    7.59    0.26
  -3   2   6    7.76    0.24
  -3   2   6    7.47    0.26
   2  -2  -6    2.68    0.14
   2  -2  -6    2.63    0.13
  -2   2   6    2.72    0.16
  -2   2   6    2.70    0.14
  -2   2   6    2.57    0.13
   1  -2  -6    0.39    0.04
   1  -2  -6    0.31    0.06
  -1   2   6    0.41    0.06
  -1   2   6    0.42    0.07
  -1   2   6    0.47    0.07
   0  -2  -6   10.85    0.30
   0  -2  -6   10.78    0.25
   0   2   6   10.62    0.30
   0   2   6   10.79    0.32
   0   2   6   10.61    0.35
  -1  -2  -6    5.27    0.18
  -1  -2  -6    5.58    0.16
   1   2   6    5.13    0.22
   1   2   6    5.48    0.21
   1   2   6    5.31    0.19
  -2  -2  -6    2.55    0.12
  -2  -2  -6    2.56    0.11
   2   2   6    2.81    0.13
   2   2   6    2.50    0.14
  -3  -2  -6    1.17    0.08
  -3  -2  -6    1.21    0.08
  -3  -2  -6    1.18    0.08
   3   2   6    1.10    0.09
   3   2   6    1.18    0.09
  -4  -2  -6    1.48    0.10
  -4  -2  -6    1.59    0.10
   4   2   6    1.73    0.11
   4   2   6    1.63    0.10
  -5  -2  -6    0.00    0.03
  -5  -2  -6    0.03    0.03
   5   2   6    0.09    0.04
  -6  -2  -6    0.10    0.05
   6   2   6    0.07    0.04
  -7  -2  -6    0.03    0.05
  -7  -2  -6    0.06    0.04
  -8  -2  -6    0.03    0.05
  -8  -2  -6    0.10    0.05
  -9  -2  -6    0.06    0.06
  -9  -2  -6    0.09    0.06
 -10  -2  -6    0.08    0.06
 -10  -2  -6    0.02    0.06
 -11  -2  -6    0.08    0.07
   8  -3  -6    0.05    0.06
   7  -3  -6    0.13    0.06
   6  -3  -6    0.03    0.04
   6  -3  -6    0.00    0.04
  -6   3   6   -0.01    0.04
   5  -3  -6    1.69    0.13
   5  -3  -6    1.55    0.12
  -5   3   6    1.57    0.13
   4  -3  -6    1.74    0.12
   4  -3  -6    1.54    0.11
  -4   3   6    1.46    0.12
   3  -3  -6    2.29    0.13
   3  -3  -6    2.22    0.13
  -3   3   6    2.42    0.13
  -3   3   6    2.50    0.15
   2  -3  -6    0.01    0.03
  -2   3   6   -0.01    0.03
  -2   3   6   -0.03    0.02
   1  -3  -6   10.11    0.29
  -1   3   6    9.87    0.31
  -1   3   6    9.77    0.35
  -1   3   6   10.00    0.29
   0  -3  -6    0.59    0.05
   0  -3  -6    0.63    0.08
   0   3   6    0.60    0.08
   0   3   6    0.69    0.08
   0   3   6    0.59    0.08
  -1  -3  -6    0.03    0.03
  -1  -3  -6    0.01    0.02
   1   3   6    0.04    0.03
   1   3   6    0.02    0.02
   1   3   6    0.06    0.04
  -2  -3  -6    3.15    0.13
  -2  -3  -6    3.18    0.14
   2   3   6    3.09    0.16
   2   3   6    3.08    0.15
   2   3   6    3.30    0.15
  -3  -3  -6    0.21    0.04
  -3  -3  -6    0.19    0.04
  -3  -3  -6    0.24    0.05
   3   3   6    0.21    0.05
   3   3   6    0.21    0.05
  -4  -3  -6    0.04    0.03
  -4  -3  -6    0.08    0.04
   4   3   6    0.04    0.03
   4   3   6    0.06    0.04
  -5  -3  -6    0.27    0.06
  -5  -3  -6    0.19    0.05
   5   3   6    0.23    0.06
  -6  -3  -6    9.18    0.30
  -6  -3  -6    9.50    0.32
   6   3   6    9.29    0.28
  -7  -3  -6    0.59    0.10
  -7  -3  -6    0.59    0.08
  -8  -3  -6    0.06    0.05
  -8  -3  -6    0.07    0.05
  -9  -3  -6   -0.01    0.05
  -9  -3  -6    0.09    0.05
 -10  -3  -6    0.05    0.07
 -10  -3  -6    0.02    0.05
 -11  -3  -6    0.12    0.08
   7  -4  -6    0.04    0.05
   6  -4  -6    0.09    0.05
   6  -4  -6    0.02    0.05
  -6   4   6    0.04    0.05
   5  -4  -6    0.32    0.07
   5  -4  -6    0.34    0.07
  -5   4   6    0.33    0.08
   4  -4  -6    1.23    0.12
  -4   4   6    1.48    0.15
   3  -4  -6    1.96    0.13
  -3   4   6    2.01    0.14
   2  -4  -6    0.23    0.06
  -2   4   6    0.36    0.07
  -2   4   6    0.25    0.06
   1  -4  -6    1.02    0.10
  -1   4   6    1.19    0.10
  -1   4   6    1.25    0.12
   0  -4  -6    0.00    0.03
   0   4   6   -0.01    0.03
   0   4   6   -0.01    0.02
   0   4   6    0.05    0.03
  -1  -4  -6    1.10    0.09
  -1  -4  -6    1.08    0.07
   1   4   6    1.39    0.11
   1   4   6    1.42    0.11
   1   4   6    1.19    0.09
  -2  -4  -6    1.49    0.09
  -2  -4  -6    1.60    0.10
   2   4   6    1.55    0.11
   2   4   6    1.52    0.11
   2   4   6    1.47    0.11
  -3  -4  -6    0.00    0.03
  -3  -4  -6    0.04    0.04
  -3  -4  -6    0.03    0.03
   3   4   6    0.02    0.03
   3   4   6    0.04    0.03
   3   4   6    0.06    0.04
  -4  -4  -6    0.84    0.09
  -4  -4  -6    0.80    0.09
   4   4   6    0.83    0.10
   4   4   6    0.86    0.10
  -5  -4  -6    0.07    0.05
  -5  -4  -6    0.13    0.04
   5   4   6    0.06    0.04
  -6  -4  -6    7.25    0.26
  -6  -4  -6    7.09    0.27
   6   4   6    7.31    0.24
  -7  -4  -6    0.50    0.09
  -7  -4  -6    0.74    0.10
  -8  -4  -6    0.43    0.08
  -8  -4  -6    0.46    0.09
  -9  -4  -6    0.01    0.04
  -9  -4  -6    0.02    0.06
 -10  -4  -6    0.11    0.06
 -10  -4  -6    0.05    0.06
  -7   5   6    0.25    0.09
   6  -5  -6    0.27    0.06
  -6   5   6    0.60    0.11
   5  -5  -6    0.26    0.06
  -5   5   6    0.50    0.10
   4  -5  -6    0.10    0.05
  -4   5   6    0.07    0.05
   3  -5  -6    0.02    0.04
  -3   5   6    0.07    0.04
   2  -5  -6   -0.01    0.03
  -2   5   6    0.01    0.04
  -2   5   6    0.00    0.03
   1  -5  -6    0.61    0.09
  -1   5   6    0.64    0.09
  -1   5   6    0.92    0.11
   0  -5  -6    0.23    0.06
   0   5   6    0.14    0.05
   0   5   6    0.27    0.07
  -1  -5  -6    0.55    0.08
   1   5   6    0.78    0.10
   1   5   6    0.70    0.10
   1   5   6    0.49    0.07
  -2  -5  -6    6.83    0.23
   2   5   6    6.49    0.25
   2   5   6    6.38    0.24
   2   5   6    6.63    0.26
  -3  -5  -6    1.40    0.10
  -3  -5  -6    1.48    0.09
  -3  -5  -6    1.19    0.10
   3   5   6    1.52    0.11
   3   5   6    1.37    0.11
   3   5   6    1.53    0.11
  -4  -5  -6    1.58    0.10
  -4  -5  -6    1.52    0.11
   4   5   6    1.50    0.11
   4   5   6    1.64    0.12
  -5  -5  -6    0.28    0.06
  -5  -5  -6    0.38    0.08
   5   5   6    0.26    0.06
   5   5   6    0.21    0.05
  -6  -5  -6    0.01    0.05
  -6  -5  -6    0.18    0.06
   6   5   6    0.15    0.05
   6   5   6    0.12    0.05
  -7  -5  -6    0.09    0.05
  -7  -5  -6    0.10    0.06
  -8  -5  -6    0.06    0.05
  -8  -5  -6    0.07    0.06
  -9  -5  -6    0.02    0.05
  -9  -5  -6    0.01    0.06
 -10  -5  -6    0.08    0.08
 -10  -5  -6    0.05    0.06
   6  -6  -6    0.02    0.06
  -6   6   6   -0.01    0.04
   5  -6  -6    0.03    0.03
  -5   6   6    0.10    0.06
   4  -6  -6    0.06    0.05
  -4   6   6    0.06    0.05
   3  -6  -6    0.02    0.04
  -3   6   6    0.01    0.04
   2  -6  -6    0.02    0.04
  -2   6   6    0.04    0.05
  -2   6   6    0.02    0.05
  -2   6   6    0.01    0.03
   1  -6  -6    1.00    0.11
  -1   6   6    1.34    0.14
  -1   6   6    1.14    0.13
  -1   6   6    1.67    0.16
   0  -6  -6    1.03    0.11
   0   6   6    1.11    0.13
   0   6   6    0.73    0.10
  -1  -6  -6    0.24    0.06
   1   6   6    0.37    0.08
   1   6   6    0.34    0.07
  -2  -6  -6    0.31    0.07
   2   6   6    0.46    0.08
   2   6   6    0.29    0.06
   2   6   6    0.38    0.07
  -3  -6  -6    0.12    0.05
  -3  -6  -6    0.20    0.06
   3   6   6    0.18    0.05
   3   6   6    0.25    0.06
  -4  -6  -6    0.62    0.08
  -4  -6  -6    0.82    0.10
   4   6   6    0.86    0.11
   4   6   6    0.58    0.09
  -5  -6  -6    0.29    0.06
  -5  -6  -6    0.22    0.07
   5   6   6    0.22    0.06
   5   6   6    0.25    0.06
  -6  -6  -6    0.11    0.05
  -6  -6  -6    0.02    0.06
   6   6   6    0.11    0.05
  -7  -6  -6    0.35    0.07
  -7  -6  -6    0.30    0.09
   7   6   6    0.40    0.08
  -8  -6  -6    0.33    0.08
  -8  -6  -6    0.34    0.09
  -9  -6  -6    0.68    0.12
  -9  -6  -6    0.43    0.09
 -10  -6  -6    0.01    0.07
  -5   7   6    0.42    0.10
   4  -7  -6    0.05    0.05
  -4   7   6    0.02    0.04
   3  -7  -6    0.33    0.07
  -3   7   6    0.66    0.11
   2  -7  -6    0.23    0.07
  -2   7   6    0.27    0.07
  -2   7   6    0.34    0.08
   1  -7  -6    4.33    0.21
  -1   7   6    4.62    0.22
  -1   7   6    4.42    0.23
   0  -7  -6    1.55    0.15
   0   7   6    1.78    0.14
   0   7   6    1.73    0.14
   0   7   6    1.81    0.14
  -1  -7  -6    0.21    0.07
   1   7   6    0.29    0.07
   1   7   6    0.34    0.09
   1   7   6    0.22    0.07
  -2  -7  -6    0.00    0.04
   2   7   6    0.05    0.05
   2   7   6    0.05    0.04
  -3  -7  -6   -0.06    0.04
   3   7   6    0.03    0.05
   3   7   6    0.00    0.03
  -4  -7  -6    0.05    0.05
   4   7   6    0.05    0.04
   4   7   6    0.06    0.05
  -5  -7  -6    0.03    0.05
  -5  -7  -6    0.17    0.05
   5   7   6    0.09    0.05
  -6  -7  -6    0.28    0.08
  -6  -7  -6    0.11    0.05
   6   7   6    0.19    0.06
  -7  -7  -6    0.12    0.06
  -7  -7  -6    0.15    0.07
   7   7   6    0.19    0.07
  -8  -7  -6    0.04    0.07
  -8  -7  -6    0.01    0.05
  -9  -7  -6    0.08    0.07
  -9  -7  -6    0.05    0.06
   4  -8  -6    0.04    0.04
   3  -8  -6   -0.03    0.05
  -3   8   6    0.03    0.05
   2  -8  -6    0.01    0.04
  -2   8   6    0.03    0.05
   1  -8  -6    0.14    0.07
  -1   8   6    0.13    0.06
  -1   8   6    0.18    0.07
   0  -8  -6    0.16    0.07
   0   8   6    0.28    0.07
   0   8   6    0.28    0.08
  -1  -8  -6    0.35    0.08
   1   8   6    0.31    0.07
   1   8   6    0.30    0.08
  -2  -8  -6   -0.04    0.05
   2   8   6    0.30    0.09
   2   8   6   -0.02    0.04
   2   8   6    0.05    0.04
  -3  -8  -6    0.29    0.08
   3   8   6    0.26    0.07
   3   8   6    0.39    0.09
   3   8   6    0.32    0.08
  -4  -8  -6    0.11    0.07
   4   8   6    0.09    0.05
   4   8   6    0.21    0.07
  -5  -8  -6    0.30    0.08
   5   8   6    0.41    0.08
   5   8   6    0.21    0.07
  -6  -8  -6    0.01    0.06
   6   8   6    0.01    0.05
   6   8   6    0.01    0.05
  -7  -8  -6    0.16    0.08
  -7  -8  -6    0.26    0.07
   7   8   6    0.07    0.05
   7   8   6    0.20    0.07
  -8  -8  -6    0.06    0.06
  -8  -8  -6    0.03    0.07
   8   8   6   -0.01    0.05
   8   8   6    0.03    0.06
   3  -9  -6    0.07    0.04
   2  -9  -6    0.11    0.06
  -2   9   6    0.19    0.08
   1  -9  -6    0.15    0.08
  -1   9   6    0.08    0.06
  -1   9   6    0.12    0.07
   0  -9  -6    0.06    0.07
   0   9   6    0.02    0.06
   0   9   6    0.07    0.05
  -1  -9  -6    0.22    0.08
   1   9   6    0.23    0.08
   1   9   6    0.46    0.10
  -2  -9  -6    0.03    0.06
   2   9   6    0.06    0.05
   2   9   6    0.05    0.05
  -3  -9  -6    0.77    0.12
   3   9   6    0.85    0.13
  -4  -9  -6    0.06    0.07
   4   9   6    0.03    0.05
  -5  -9  -6    0.00    0.06
   5   9   6    0.05    0.06
  -6  -9  -6    0.00    0.06
   6   9   6    0.10    0.06
  -7  -9  -6    0.01    0.07
   7   9   6    0.04    0.06
   0 -10  -6    0.08    0.07
   0  10   6    0.07    0.06
   0  10   6    0.05    0.06
  -1 -10  -6    0.04    0.07
   1  10   6    0.05    0.06
   1  10   6    0.12    0.06
  -2 -10  -6    0.00    0.06
   2  10   6    0.05    0.06
   2  10   6    0.08    0.07
   3  10   6    0.67    0.12
   4  10   6    0.03    0.06
  -5 -10  -6    0.11    0.08
   5  10   6    0.18    0.08
  -6 -10  -6   -0.08    0.06
   6  10   6    0.11    0.06
   3   9  -7   -0.06    0.05
   2   9  -7    0.02    0.06
  -2  -9   7    0.20    0.09
   1   9  -7    0.02    0.06
  -1  -9   7    0.00    0.08
   0   9  -7    1.24    0.12
   0   9  -7    1.27    0.17
   0  -9   7    1.91    0.21
   0  -9   7    1.47    0.17
  -1   9  -7    0.61    0.09
   1  -9   7    0.63    0.13
   5   8  -7    0.05    0.06
   4   8  -7    0.01    0.05
   3   8  -7    0.14    0.07
   2   8  -7    0.02    0.06
  -2  -8   7    0.03    0.07
   1   8  -7    0.10    0.06
  -1  -8   7   -0.03    0.06
   0   8  -7    0.03    0.05
   0   8  -7    0.06    0.04
   0  -8   7    0.02    0.07
   0  -8   7   -0.04    0.06
  -1   8  -7    0.06    0.06
  -1   8  -7    0.16    0.05
  -1   8  -7    0.04    0.05
   1  -8   7    0.17    0.08
   1  -8   7    0.06    0.06
  -2   8  -7    0.21    0.07
  -2   8  -7    0.14    0.05
   2  -8   7    0.12    0.08
   2  -8   7    0.09    0.06
  -3   8  -7    0.26    0.08
  -3   8  -7    0.14    0.07
   3  -8   7    0.05    0.05
  -4   8  -7    0.18    0.08
   4  -8   7    0.02    0.04
   6   7  -7   -0.02    0.05
   5   7  -7    0.01    0.05
   4   7  -7    1.33    0.16
   3   7  -7    0.01    0.04
  -3  -7   7    0.01    0.07
   2   7  -7    0.15    0.07
  -2  -7   7    0.22    0.08
   1   7  -7    0.55    0.10
  -1  -7   7    0.36    0.08
  -1  -7   7    0.44    0.10
   0   7  -7    0.04    0.05
   0   7  -7    0.00    0.04
   0   7  -7    0.00    0.03
   0  -7   7    0.01    0.06
   0  -7   7    0.09    0.06
  -1   7  -7    0.02    0.04
  -1   7  -7    0.03    0.03
  -1   7  -7    0.01    0.04
   1  -7   7    0.09    0.06
   1  -7   7    0.08    0.07
  -2   7  -7    0.00    0.04
  -2   7  -7    0.03    0.05
  -2   7  -7   -0.02    0.03
   2  -7   7    0.06    0.06
   2  -7   7    0.04    0.06
  -3   7  -7    0.19    0.06
  -3   7  -7    0.14    0.05
  -3   7  -7    0.22    0.07
   3  -7   7    0.21    0.08
   3  -7   7    0.08    0.06
  -4   7  -7    0.00    0.05
  -4   7  -7    0.09    0.06
  -4   7  -7    0.04    0.05
   4  -7   7    0.08    0.07
   4  -7   7    0.11    0.07
  -5   7  -7   -0.01    0.05
  -5   7  -7    0.20    0.07
   5  -7   7   -0.02    0.06
   7   6  -7    0.06    0.06
   7   6  -7    0.12    0.08
   6   6  -7    0.22    0.07
   5   6  -7    0.18    0.07
   4   6  -7    1.26    0.15
   3   6  -7    0.23    0.07
  -3  -6   7    0.41    0.10
   2   6  -7    1.19    0.14
  -2  -6   7    1.22    0.15
   1   6  -7    0.65    0.10
  -1  -6   7    0.75    0.12
  -1  -6   7    0.47    0.08
   0   6  -7    0.02    0.04
   0   6  -7    0.04    0.04
   0   6  -7    0.02    0.02
   0  -6   7    0.03    0.05
   0  -6   7    0.05    0.05
  -1   6  -7    0.60    0.08
  -1   6  -7    0.60    0.10
  -1   6  -7    0.50    0.09
  -1   6  -7    0.62    0.09
   1  -6   7    0.59    0.11
   1  -6   7    0.49    0.09
  -2   6  -7    0.25    0.07
  -2   6  -7    0.35    0.07
  -2   6  -7    0.39    0.07
  -2   6  -7    0.55    0.09
   2  -6   7    0.26    0.08
   2  -6   7    0.37    0.08
  -3   6  -7    0.76    0.11
  -3   6  -7    0.60    0.09
  -3   6  -7    0.75    0.11
   3  -6   7    0.50    0.09
   3  -6   7    0.72    0.11
  -4   6  -7    0.02    0.04
  -4   6  -7    0.04    0.05
  -4   6  -7    0.01    0.04
   4  -6   7    0.06    0.06
   4  -6   7    0.02    0.05
  -5   6  -7   -0.01    0.05
  -5   6  -7    0.05    0.05
  -5   6  -7    0.02    0.05
   5  -6   7    0.02    0.06
   5  -6   7   -0.08    0.05
  -6   6  -7    0.06    0.06
  -6   6  -7    0.08    0.07
   6  -6   7   -0.02    0.06
   6  -6   7    0.03    0.06
   7   5  -7    0.05    0.06
   7   5  -7    0.04    0.06
   6   5  -7    0.48    0.11
   5   5  -7    0.36    0.09
   5   5  -7    0.22    0.07
   4   5  -7    0.23    0.07
   3   5  -7    0.76    0.11
  -3  -5   7    0.55    0.10
   2   5  -7    4.00    0.20
  -2  -5   7    4.36    0.22
   1   5  -7    5.40    0.24
  -1  -5   7    6.01    0.22
  -1  -5   7    6.14    0.26
   0   5  -7    0.62    0.07
   0   5  -7    0.72    0.09
   0   5  -7    0.84    0.11
   0  -5   7    0.73    0.11
   0  -5   7    0.67    0.10
  -1   5  -7    6.13    0.21
  -1   5  -7    6.07    0.24
  -1   5  -7    6.39    0.25
   1  -5   7    5.93    0.24
   1  -5   7    5.78    0.26
  -2   5  -7    3.22    0.18
  -2   5  -7    3.10    0.15
  -2   5  -7    3.51    0.19
  -2   5  -7    3.53    0.18
   2  -5   7    3.21    0.19
   2  -5   7    3.09    0.18
  -3   5  -7    0.98    0.11
  -3   5  -7    1.09    0.13
  -3   5  -7    1.05    0.13
   3  -5   7    0.75    0.10
   3  -5   7    1.12    0.13
  -4   5  -7    1.51    0.15
  -4   5  -7    1.28    0.12
  -4   5  -7    1.34    0.15
   4  -5   7    1.38    0.14
   4  -5   7    1.30    0.14
  -5   5  -7    0.05    0.05
  -5   5  -7    0.08    0.05
  -5   5  -7    0.05    0.05
   5  -5   7    0.07    0.06
   5  -5   7    0.05    0.06
  -6   5  -7    0.07    0.06
  -6   5  -7    0.04    0.05
  -6   5  -7    0.05    0.05
   6  -5   7    0.11    0.06
   6  -5   7    0.10    0.06
  -7   5  -7   -0.02    0.05
  -7   5  -7    0.02    0.05
   7  -5   7    0.00    0.06
   8   4  -7    0.07    0.08
   7   4  -7    0.03    0.06
   7   4  -7   -0.01    0.05
   6   4  -7   -0.02    0.04
   6   4  -7    0.00    0.05
   5   4  -7    0.03    0.04
   5   4  -7    0.02    0.05
   4   4  -7    0.46    0.09
   4   4  -7    0.30    0.07
   3   4  -7    1.34    0.14
  -3  -4   7    1.46    0.15
   2   4  -7    4.28    0.20
  -2  -4   7    4.20    0.21
   1   4  -7    2.03    0.14
  -1  -4   7    2.07    0.12
  -1  -4   7    1.83    0.14
   0   4  -7    0.20    0.06
   0   4  -7    0.30    0.05
   0  -4   7    0.21    0.07
   0  -4   7    0.18    0.05
  -1   4  -7   19.10    0.44
  -1   4  -7   19.11    0.50
  -1   4  -7   19.54    0.49
   1  -4   7   17.65    0.45
   1  -4   7   17.88    0.50
  -2   4  -7    0.11    0.05
  -2   4  -7    0.04    0.04
  -2   4  -7    0.07    0.03
   2  -4   7    0.04    0.05
   2  -4   7    0.05    0.04
  -3   4  -7    2.31    0.15
  -3   4  -7    2.04    0.12
   3  -4   7    1.78    0.13
   3  -4   7    1.95    0.14
  -4   4  -7   -0.02    0.03
  -4   4  -7    0.06    0.04
   4  -4   7   -0.02    0.04
   4  -4   7   -0.04    0.04
  -5   4  -7    0.11    0.05
  -5   4  -7    0.05    0.05
  -5   4  -7    0.00    0.04
   5  -4   7    0.03    0.05
   5  -4   7    0.07    0.05
  -6   4  -7    0.22    0.07
  -6   4  -7    0.32    0.08
  -6   4  -7    0.36    0.08
   6  -4   7    0.26    0.08
   6  -4   7    0.16    0.07
  -7   4  -7    0.07    0.05
  -7   4  -7    0.07    0.05
  -7   4  -7    0.11    0.06
   7  -4   7    0.05    0.06
  -8   4  -7    0.14    0.07
  -8   4  -7    0.29    0.10
   8  -4   7    0.15    0.08
   8   3  -7    0.62    0.13
   7   3  -7    0.17    0.08
   7   3  -7   -0.02    0.05
   6   3  -7    0.06    0.05
   6   3  -7    0.08    0.06
   5   3  -7    0.01    0.04
   5   3  -7    0.04    0.04
   4   3  -7    0.03    0.04
   4   3  -7    0.03    0.04
   3   3  -7    3.78    0.19
   3   3  -7    4.30    0.20
  -3  -3   7    4.05    0.19
   2   3  -7    2.03    0.13
   2   3  -7    2.38    0.13
  -2  -3   7    2.02    0.14
   1   3  -7   -0.01    0.03
  -1  -3   7   -0.01    0.04
  -1  -3   7   -0.01    0.03
   0   3  -7    0.10    0.03
   0   3  -7    0.07    0.04
   0  -3   7    0.06    0.04
   0  -3   7    0.05    0.04
  -1   3  -7    1.12    0.08
  -1   3  -7    0.94    0.11
   1  -3   7    1.03    0.10
   1  -3   7    1.08    0.12
  -2   3  -7    0.02    0.03
  -2   3  -7    0.02    0.03
  -2   3  -7    0.02    0.03
   2  -3   7    0.10    0.05
   2  -3   7    0.02    0.04
  -3   3  -7    7.55    0.24
  -3   3  -7    7.71    0.29
   3  -3   7    7.53    0.26
   3  -3   7    7.45    0.27
  -4   3  -7    1.91    0.14
  -4   3  -7    2.19    0.13
   4  -3   7    2.08    0.14
   4  -3   7    2.08    0.14
  -5   3  -7    4.66    0.23
  -5   3  -7    4.31    0.19
   5  -3   7    4.20    0.20
   5  -3   7    4.20    0.20
  -6   3  -7    0.84    0.11
  -6   3  -7    0.87    0.11
  -6   3  -7    0.86    0.12
   6  -3   7    0.86    0.11
   6  -3   7    0.89    0.11
  -7   3  -7    0.05    0.05
  -7   3  -7    0.05    0.05
  -7   3  -7    0.01    0.05
   7  -3   7    0.02    0.05
  -8   3  -7    1.25    0.16
  -8   3  -7    1.36    0.15
  -8   3  -7    1.10    0.14
   8  -3   7    1.31    0.14
  -9   3  -7    0.07    0.07
  -9   3  -7    0.01    0.05
   9  -3   7    0.04    0.07
   8   2  -7    0.02    0.06
   7   2  -7    0.10    0.06
   7   2  -7    0.13    0.07
   6   2  -7    0.15    0.06
   6   2  -7    0.31    0.09
   5   2  -7    0.14    0.05
   5   2  -7    0.12    0.06
   4   2  -7    0.56    0.09
   4   2  -7    0.69    0.10
   3   2  -7    1.23    0.12
   3   2  -7    1.35    0.13
  -3  -2   7    1.39    0.11
   2   2  -7    3.12    0.16
   2   2  -7    3.23    0.16
  -2  -2   7    2.91    0.16
  -2  -2   7    3.31    0.16
   1   2  -7    0.82    0.07
   1   2  -7    0.90    0.10
  -1  -2   7    0.88    0.11
  -1  -2   7    0.83    0.08
   0   2  -7    0.11    0.04
   0   2  -7    0.05    0.02
   0  -2   7    0.02    0.04
   0  -2   7    0.01    0.03
  -1   2  -7    0.98    0.10
  -1   2  -7    0.81    0.07
   1  -2   7    1.12    0.12
  -2   2  -7    4.49    0.17
  -2   2  -7    4.74    0.19
   2  -2   7    4.77    0.19
   2  -2   7    4.42    0.20
  -3   2  -7    0.51    0.07
  -3   2  -7    0.68    0.09
  -3   2  -7    0.54    0.07
   3  -2   7    0.48    0.08
   3  -2   7    0.60    0.09
  -4   2  -7    1.97    0.14
  -4   2  -7    1.67    0.11
   4  -2   7    1.56    0.11
   4  -2   7    1.56    0.12
  -5   2  -7    3.45    0.17
  -5   2  -7    3.52    0.19
   5  -2   7    3.27    0.17
   5  -2   7    3.06    0.16
  -6   2  -7    0.41    0.08
  -6   2  -7    0.50    0.07
  -6   2  -7    0.61    0.10
   6  -2   7    0.59    0.09
   6  -2   7    0.62    0.09
  -7   2  -7    0.46    0.09
  -7   2  -7    0.58    0.09
  -7   2  -7    0.78    0.10
   7  -2   7    0.52    0.09
  -8   2  -7    0.45    0.08
  -8   2  -7    0.30    0.08
  -8   2  -7    0.23    0.08
  -8   2  -7    0.40    0.09
   8  -2   7    0.21    0.08
  -9   2  -7    0.07    0.07
  -9   2  -7    0.14    0.06
  -9   2  -7    0.20    0.08
  -9   2  -7    0.03    0.05
   9  -2   7    0.13    0.08
   8   1  -7    0.11    0.07
   7   1  -7    0.15    0.07
   7   1  -7    0.15    0.06
   6   1  -7    0.37    0.09
   6   1  -7    0.15    0.06
   5   1  -7    0.56    0.10
   5   1  -7    0.39    0.07
   4   1  -7    0.41    0.07
   4   1  -7    0.48    0.08
   3   1  -7    2.20    0.13
   3   1  -7    1.91    0.13
  -3  -1   7    2.11    0.12
  -3  -1   7    2.01    0.13
   2   1  -7   10.46    0.32
   2   1  -7   11.07    0.33
  -2  -1   7   10.71    0.33
  -2  -1   7   11.23    0.32
   1   1  -7    3.17    0.14
   1   1  -7    3.15    0.16
   1   1  -7    3.15    0.12
  -1  -1   7    3.04    0.16
   0   1  -7    0.23    0.04
   0   1  -7    0.25    0.06
   0  -1   7    0.27    0.06
  -1   1  -7    0.10    0.03
  -1   1  -7    0.07    0.04
   1  -1   7    0.10    0.04
   1  -1   7    0.02    0.03
  -2   1  -7    0.11    0.04
  -2   1  -7    0.11    0.04
   2  -1   7    0.04    0.04
   2  -1   7    0.07    0.04
  -3   1  -7    0.39    0.06
  -3   1  -7    0.41    0.06
   3  -1   7    0.33    0.07
  -4   1  -7    1.25    0.10
  -4   1  -7    1.16    0.12
  -4   1  -7    1.24    0.08
   4  -1   7    1.35    0.12
  -5   1  -7    0.42    0.07
  -5   1  -7    0.50    0.07
  -5   1  -7    0.46    0.08
   5  -1   7    0.36    0.07
  -6   1  -7    0.07    0.04
  -6   1  -7    0.00    0.04
  -6   1  -7    0.02    0.03
   6  -1   7    0.02    0.04
  -7   1  -7    0.47    0.09
  -7   1  -7    0.59    0.09
  -7   1  -7    0.55    0.10
   7  -1   7    0.48    0.09
  -8   1  -7   -0.06    0.04
  -8   1  -7    0.03    0.04
  -8   1  -7    0.02    0.05
   8  -1   7    0.07    0.06
  -9   1  -7    0.00    0.05
  -9   1  -7    0.03    0.06
  -9   1  -7    0.01    0.05
   9  -1   7    0.03    0.06
 -10   1  -7   -0.08    0.05
 -10   1  -7   -0.02    0.06
 -10   1  -7    0.02    0.06
   8   0  -7    0.07    0.07
   7   0  -7    0.59    0.11
   7   0  -7    0.50    0.09
   6   0  -7    0.09    0.05
   6   0  -7    0.14    0.06
   5   0  -7    0.35    0.07
   5   0  -7    0.61    0.10
   4   0  -7    1.64    0.13
   4   0  -7    1.52    0.12
   3   0  -7    0.05    0.04
   3   0  -7    0.01    0.03
  -3   0   7    0.06    0.04
  -3   0   7    0.01    0.03
   2   0  -7    1.09    0.07
   2   0  -7    1.03    0.09
   2   0  -7    0.83    0.10
  -2   0   7    0.87    0.10
  -2   0   7    1.28    0.12
   1   0  -7    2.39    0.12
   1   0  -7    2.63    0.14
   1   0  -7    2.50    0.10
  -1   0   7    2.23    0.13
  -1   0   7    2.34    0.13
   0   0  -7    2.90    0.14
   0   0  -7    3.00    0.12
   0   0   7    2.94    0.15
   0   0   7    3.02    0.18
  -1   0  -7    0.48    0.07
  -1   0  -7    0.63    0.07
   1   0   7    0.58    0.08
   1   0   7    0.52    0.08
  -2   0  -7    2.68    0.12
  -2   0  -7    2.44    0.13
   2   0   7    2.68    0.16
   2   0   7    2.62    0.14
  -3   0  -7    5.39    0.19
  -3   0  -7    5.44    0.19
   3   0   7    5.56    0.21
   3   0   7    5.48    0.24
  -4   0  -7    1.64    0.11
  -4   0  -7    2.00    0.11
   4   0   7    1.98    0.14
   4   0   7    1.99    0.12
  -5   0  -7   -0.05    0.03
  -5   0  -7    0.02    0.03
   5   0   7    0.00    0.04
   5   0   7    0.01    0.04
  -6   0  -7    0.09    0.05
  -6   0  -7    0.13    0.05
  -6   0  -7    0.15    0.05
   6   0   7    0.16    0.06
  -7   0  -7    0.68    0.10
  -7   0  -7    0.57    0.09
  -7   0  -7    0.54    0.09
  -8   0  -7    0.17    0.06
  -8   0  -7    0.20    0.07
  -8   0  -7    0.25    0.08
  -9   0  -7    0.08    0.07
  -9   0  -7    0.09    0.06
  -9   0  -7    0.25    0.08
   9   0   7    0.05    0.06
 -10   0  -7   -0.02    0.05
 -10   0  -7    0.04    0.07
 -10   0  -7   -0.04    0.06
   8  -1  -7    0.34    0.10
   7  -1  -7    0.28    0.08
   7  -1  -7    0.34    0.08
   6  -1  -7    0.10    0.06
   6  -1  -7    0.38    0.07
   5  -1  -7    0.28    0.07
   5  -1  -7    0.34    0.07
   4  -1  -7    3.09    0.17
   4  -1  -7    2.93    0.17
  -4   1   7    2.91    0.16
   3  -1  -7    6.71    0.25
   3  -1  -7    6.79    0.25
  -3   1   7    6.90    0.25
  -3   1   7    6.79    0.24
   2  -1  -7    3.06    0.11
   2  -1  -7    3.08    0.16
   2  -1  -7    3.03    0.15
  -2   1   7    2.93    0.16
  -2   1   7    2.93    0.15
   1  -1  -7    2.22    0.13
   1  -1  -7    2.28    0.12
   1  -1  -7    2.35    0.10
  -1   1   7    2.30    0.13
  -1   1   7    1.95    0.12
   0  -1  -7    4.18    0.14
   0  -1  -7    4.52    0.18
   0   1   7    4.26    0.19
   0   1   7    4.38    0.21
   0   1   7    3.93    0.18
  -1  -1  -7    0.13    0.03
  -1  -1  -7    0.09    0.04
   1   1   7    0.12    0.05
   1   1   7    0.14    0.05
  -2  -1  -7    0.74    0.08
  -2  -1  -7    0.73    0.07
   2   1   7    0.71    0.09
   2   1   7    0.61    0.09
  -3  -1  -7    1.29    0.09
  -3  -1  -7    1.05    0.09
   3   1   7    0.94    0.11
   3   1   7    1.13    0.11
  -4  -1  -7    2.86    0.14
   4   1   7    2.94    0.17
   4   1   7    3.03    0.15
  -5  -1  -7    0.75    0.09
  -5  -1  -7    0.85    0.09
   5   1   7    0.85    0.10
   5   1   7    0.98    0.10
  -6  -1  -7    0.09    0.05
  -6  -1  -7    0.04    0.04
   6   1   7   -0.02    0.04
  -7  -1  -7    0.30    0.07
  -7  -1  -7    0.51    0.09
  -8  -1  -7    0.37    0.08
  -8  -1  -7    0.36    0.08
  -9  -1  -7    0.04    0.05
  -9  -1  -7    0.05    0.06
 -10  -1  -7   -0.06    0.06
 -10  -1  -7    0.05    0.06
   7  -2  -7    0.08    0.06
   7  -2  -7    0.10    0.06
   6  -2  -7    0.14    0.06
   6  -2  -7    0.08    0.05
   5  -2  -7    0.02    0.04
   5  -2  -7    0.09    0.05
  -5   2   7    0.10    0.05
   4  -2  -7    0.41    0.08
   4  -2  -7    0.57    0.09
  -4   2   7    0.52    0.08
   3  -2  -7    1.17    0.12
   3  -2  -7    1.38    0.11
  -3   2   7    1.41    0.11
   2  -2  -7   27.14    0.63
   2  -2  -7   28.03    0.67
  -2   2   7   27.04    0.62
  -2   2   7   26.65    0.65
   1  -2  -7    0.81    0.09
  -1   2   7    0.59    0.08
  -1   2   7    0.75    0.09
   0  -2  -7    0.91    0.07
   0  -2  -7    0.98    0.10
   0   2   7    1.02    0.11
   0   2   7    1.31    0.12
  -1  -2  -7    0.20    0.05
  -1  -2  -7    0.12    0.04
   1   2   7    0.15    0.05
   1   2   7    0.06    0.04
   1   2   7    0.09    0.04
  -2  -2  -7    0.96    0.09
  -2  -2  -7    0.93    0.07
   2   2   7    0.99    0.11
   2   2   7    0.91    0.10
  -3  -2  -7    3.15    0.14
  -3  -2  -7    3.21    0.14
   3   2   7    3.08    0.16
   3   2   7    2.87    0.16
  -4  -2  -7    0.08    0.04
   4   2   7    0.08    0.04
   4   2   7    0.11    0.05
  -5  -2  -7    0.92    0.10
  -5  -2  -7    0.90    0.10
   5   2   7    0.99    0.11
  -6  -2  -7    0.00    0.04
  -6  -2  -7    0.09    0.05
   6   2   7   -0.03    0.04
  -7  -2  -7    0.04    0.05
  -7  -2  -7    0.02    0.04
  -8  -2  -7    0.01    0.05
  -8  -2  -7   -0.01    0.04
  -9  -2  -7    0.22    0.08
  -9  -2  -7    0.15    0.07
 -10  -2  -7    0.02    0.06
 -10  -2  -7    0.04    0.06
   7  -3  -7    0.05    0.06
   7  -3  -7    0.04    0.05
   6  -3  -7    0.17    0.06
   6  -3  -7    0.39    0.08
   5  -3  -7    0.07    0.05
   5  -3  -7    0.23    0.06
  -5   3   7    0.15    0.06
   4  -3  -7    0.22    0.06
   4  -3  -7    0.21    0.06
  -4   3   7    0.18    0.06
   3  -3  -7   -0.02    0.03
  -3   3   7   -0.03    0.03
   2  -3  -7    0.10    0.05
  -2   3   7    0.15    0.05
  -2   3   7    0.14    0.06
   1  -3  -7    3.11    0.16
  -1   3   7    2.78    0.16
  -1   3   7    3.11    0.16
   0  -3  -7    4.47    0.19
   0   3   7    4.13    0.19
   0   3   7    4.23    0.20
  -1  -3  -7    1.25    0.08
  -1  -3  -7    1.23    0.09
   1   3   7    1.35    0.10
   1   3   7    1.58    0.12
   1   3   7    1.09    0.11
  -2  -3  -7    5.35    0.18
  -2  -3  -7    5.62    0.20
   2   3   7    5.12    0.22
   2   3   7    5.06    0.23
   2   3   7    5.36    0.21
  -3  -3  -7    1.55    0.10
  -3  -3  -7    1.76    0.11
   3   3   7    1.47    0.11
   3   3   7    1.52    0.12
  -4  -3  -7    0.02    0.03
   4   3   7   -0.02    0.03
   4   3   7    0.00    0.03
  -5  -3  -7    6.23    0.24
  -5  -3  -7    6.43    0.24
   5   3   7    6.46    0.24
  -6  -3  -7    0.25    0.06
  -6  -3  -7    0.40    0.08
   6   3   7    0.29    0.07
  -7  -3  -7    0.77    0.11
  -7  -3  -7    0.44    0.08
  -8  -3  -7    0.00    0.04
  -8  -3  -7    0.02    0.06
  -9  -3  -7    0.08    0.06
  -9  -3  -7    0.08    0.07
 -10  -3  -7    0.03    0.06
 -10  -3  -7    0.01    0.06
   7  -4  -7    0.02    0.06
   7  -4  -7   -0.04    0.04
   6  -4  -7    0.02    0.05
   6  -4  -7    0.00    0.05
  -6   4   7    0.04    0.05
  -5   4   7    1.00    0.14
   4  -4  -7    0.05    0.05
  -4   4   7    0.13    0.06
   3  -4  -7    0.23    0.06
  -3   4   7    0.12    0.05
   2  -4  -7    0.47    0.08
  -2   4   7    0.43    0.08
  -2   4   7    0.34    0.07
   1  -4  -7    0.05    0.05
  -1   4   7    0.00    0.03
  -1   4   7    0.05    0.05
   0  -4  -7    0.18    0.05
   0   4   7    0.16    0.06
   0   4   7    0.15    0.05
  -1  -4  -7    0.16    0.05
   1   4   7    0.11    0.05
   1   4   7    0.13    0.05
  -2  -4  -7    2.41    0.13
  -2  -4  -7    2.41    0.12
   2   4   7    2.47    0.14
   2   4   7    2.43    0.16
   2   4   7    2.40    0.15
  -3  -4  -7    1.62    0.11
  -3  -4  -7    1.71    0.11
   3   4   7    1.43    0.11
   3   4   7    1.80    0.13
   3   4   7    1.69    0.13
  -4  -4  -7    0.57    0.08
   4   4   7    0.40    0.07
   4   4   7    0.64    0.09
  -5  -4  -7    0.25    0.06
  -5  -4  -7    0.41    0.08
   5   4   7    0.41    0.08
  -6  -4  -7   -0.01    0.04
  -6  -4  -7    0.14    0.06
   6   4   7    0.11    0.05
  -7  -4  -7    0.58    0.09
  -7  -4  -7    0.75    0.11
  -8  -4  -7    0.37    0.08
  -8  -4  -7    0.22    0.08
  -9  -4  -7    0.02    0.06
  -9  -4  -7   -0.01    0.05
 -10  -4  -7   -0.03    0.06
   6  -5  -7    0.03    0.05
  -6   5   7    0.09    0.06
  -5   5   7    1.22    0.15
   4  -5  -7    0.22    0.06
  -4   5   7    0.47    0.09
   3  -5  -7    0.03    0.04
  -3   5   7    0.08    0.05
   2  -5  -7   -0.01    0.04
  -2   5   7    0.00    0.03
  -2   5   7   -0.04    0.05
   1  -5  -7    0.04    0.04
  -1   5   7    0.02    0.04
  -1   5   7    0.02    0.04
   0  -5  -7    0.00    0.03
   0   5   7   -0.01    0.03
   0   5   7    0.01    0.04
  -1  -5  -7   -0.05    0.03
   1   5   7    0.04    0.04
   1   5   7    0.04    0.05
  -2  -5  -7    0.96    0.10
   2   5   7    1.13    0.12
   2   5   7    0.91    0.11
  -3  -5  -7    0.08    0.05
  -3  -5  -7    0.08    0.04
   3   5   7   -0.01    0.03
   3   5   7    0.08    0.05
  -4  -5  -7    0.15    0.05
   4   5   7    0.11    0.05
   4   5   7    0.14    0.05
  -5  -5  -7    0.08    0.04
   5   5   7    0.12    0.05
   5   5   7    0.04    0.04
  -6  -5  -7    0.06    0.05
  -6  -5  -7   -0.01    0.04
   6   5   7    0.07    0.05
   6   5   7    0.07    0.05
  -7  -5  -7    0.95    0.11
  -7  -5  -7    0.86    0.12
   7   5   7    1.08    0.12
  -8  -5  -7    2.71    0.17
  -8  -5  -7    2.86    0.19
  -9  -5  -7    0.00    0.06
  -9  -5  -7    0.02    0.05
 -10  -5  -7   -0.05    0.07
   5  -6  -7    0.05    0.04
  -5   6   7    0.22    0.08
   4  -6  -7    0.11    0.06
  -4   6   7    0.18    0.07
   3  -6  -7    0.00    0.04
  -3   6   7    0.00    0.04
   2  -6  -7    0.29    0.07
  -2   6   7    0.42    0.09
  -2   6   7    0.31    0.08
  -2   6   7    0.23    0.07
   1  -6  -7    1.86    0.14
  -1   6   7    1.49    0.13
  -1   6   7    1.70    0.13
   0  -6  -7    4.31    0.20
   0   6   7    3.90    0.21
   0   6   7    4.49    0.21
  -1  -6  -7    2.14    0.14
   1   6   7    2.25    0.15
   1   6   7    2.11    0.15
  -2  -6  -7    0.15    0.06
   2   6   7    0.13    0.05
   2   6   7    0.09    0.05
  -3  -6  -7    0.62    0.09
   3   6   7    0.31    0.07
   3   6   7    0.54    0.09
   4   6   7    0.11    0.05
   4   6   7    0.21    0.07
  -5  -6  -7   -0.01    0.04
   5   6   7    0.00    0.03
   5   6   7   -0.01    0.05
  -6  -6  -7    0.02    0.04
  -6  -6  -7   -0.02    0.05
   6   6   7    0.02    0.05
  -7  -6  -7    0.24    0.07
  -7  -6  -7    0.08    0.06
   7   6   7    0.11    0.06
  -8  -6  -7    0.44    0.10
  -8  -6  -7    0.41    0.09
  -9  -6  -7    0.01    0.07
  -9  -6  -7    0.04    0.06
   4  -7  -7    0.02    0.05
  -4   7   7    0.00    0.05
   3  -7  -7    0.10    0.06
  -3   7   7    0.16    0.07
   2  -7  -7    0.11    0.06
  -2   7   7    0.10    0.06
   1  -7  -7    0.23    0.07
  -1   7   7    0.48    0.10
  -1   7   7    0.25    0.07
  -1   7   7    0.39    0.09
   0  -7  -7    0.39    0.09
   0   7   7    0.36    0.08
   0   7   7    0.57    0.10
   0   7   7    0.51    0.10
  -1  -7  -7    2.73    0.17
   1   7   7    3.11    0.19
   1   7   7    3.13    0.19
  -2  -7  -7    0.71    0.11
   2   7   7    0.85    0.11
   2   7   7    0.79    0.12
  -3  -7  -7   -0.05    0.04
   3   7   7    0.01    0.04
   3   7   7   -0.01    0.04
   4   7   7    0.05    0.05
   4   7   7    0.07    0.05
   5   7   7    0.97    0.12
   5   7   7    1.22    0.13
  -6  -7  -7    0.00    0.04
  -6  -7  -7   -0.07    0.05
   6   7   7    0.05    0.05
  -7  -7  -7   -0.03    0.04
  -7  -7  -7   -0.03    0.06
   7   7   7    0.07    0.05
  -8  -7  -7    0.09    0.07
  -8  -7  -7    0.04    0.06
  -9  -7  -7    0.02    0.07
   3  -8  -7   -0.01    0.05
   2  -8  -7    0.10    0.06
   1  -8  -7    0.10    0.07
  -1   8   7    0.15    0.06
  -1   8   7    0.32    0.09
   0  -8  -7    0.01    0.05
   0   8   7   -0.01    0.04
   0   8   7    0.03    0.05
  -1  -8  -7    0.36    0.09
   1   8   7    0.24    0.07
   1   8   7    0.39    0.10
   1   8   7    0.63    0.12
  -2  -8  -7    0.04    0.05
   2   8   7    0.12    0.06
   2   8   7    0.05    0.05
   2   8   7    0.10    0.07
  -3  -8  -7    0.15    0.07
   3   8   7    0.18    0.07
   3   8   7    0.16    0.06
   4   8   7    0.14    0.06
   4   8   7    0.22    0.07
   5   8   7    0.25    0.07
   6   8   7    0.16    0.06
  -7  -8  -7    0.28    0.08
  -7  -8  -7    0.23    0.09
   7   8   7    0.15    0.06
  -8  -8  -7    0.01    0.06
  -8  -8  -7   -0.05    0.07
   8   8   7   -0.01    0.06
   2  -9  -7    0.05    0.07
   1  -9  -7    0.04    0.06
  -1   9   7    0.03    0.05
  -1   9   7    0.02    0.06
   0  -9  -7   -0.03    0.06
   0   9   7    0.02    0.05
   0   9   7   -0.02    0.05
  -1  -9  -7    0.38    0.10
   1   9   7    0.69    0.12
   1   9   7    0.45    0.11
  -2  -9  -7    0.06    0.07
   2   9   7    0.08    0.07
   2   9   7    0.14    0.06
   3   9   7    0.08    0.06
   3   9   7    0.09    0.06
   3   9   7    0.06    0.05
   4   9   7    0.06    0.06
   4   9   7    0.12    0.07
   5   9   7    0.08    0.06
   5   9   7    0.06    0.07
   6   9   7    0.08    0.05
   6   9   7    0.13    0.07
  -7  -9  -7    0.13    0.09
   7   9   7    0.01    0.06
   7   9   7    0.05    0.06
  -1 -10  -7    0.06    0.07
   1  10   7   -0.04    0.05
   1  10   7    0.02    0.06
  -2 -10  -7   -0.01    0.06
   2  10   7    0.05    0.06
   2  10   7   -0.01    0.05
   3  10   7    0.05    0.07
   4  10   7   -0.03    0.05
   3   8  -8    0.66    0.13
   2   8  -8    0.23    0.09
  -2  -8   8    0.16    0.09
   1   8  -8    1.09    0.15
   1   8  -8    0.48    0.08
  -1  -8   8    0.64    0.13
   0   8  -8    0.04    0.04
   0   8  -8    0.08    0.06
   0  -8   8   -0.01    0.07
   0  -8   8    0.02    0.07
  -1   8  -8    0.04    0.05
  -1   8  -8    0.03    0.06
  -1   8  -8    0.01    0.04
   1  -8   8    0.07    0.08
   1  -8   8    0.04    0.07
  -2   8  -8    0.00    0.05
  -2   8  -8    0.02    0.04
   2  -8   8    0.04    0.07
   5   7  -8    0.92    0.14
   4   7  -8    0.05    0.06
   3   7  -8    1.86    0.19
   2   7  -8    0.00    0.05
  -2  -7   8    0.00    0.06
   1   7  -8    0.84    0.13
  -1  -7   8    0.91    0.14
   0   7  -8    0.51    0.08
   0   7  -8    0.78    0.12
   0  -7   8    0.55    0.12
   0  -7   8    0.69    0.11
  -1   7  -8    1.01    0.11
  -1   7  -8    1.28    0.16
  -1   7  -8    1.15    0.14
   1  -7   8    1.02    0.15
   1  -7   8    0.92    0.13
  -2   7  -8   -0.02    0.05
  -2   7  -8    0.05    0.04
   2  -7   8    0.02    0.06
   2  -7   8    0.03    0.07
  -3   7  -8    0.14    0.06
  -3   7  -8    0.12    0.06
  -3   7  -8    0.11    0.07
   3  -7   8    0.08    0.06
   3  -7   8    0.15    0.08
  -4   7  -8    0.30    0.09
  -4   7  -8    0.33    0.09
  -4   7  -8    0.28    0.08
   4  -7   8    0.16    0.06
   6   6  -8    0.06    0.04
   5   6  -8    0.07    0.05
   4   6  -8    0.03    0.05
   3   6  -8    0.29    0.08
   2   6  -8   -0.01    0.05
  -2  -6   8    0.07    0.07
   1   6  -8    0.62    0.11
  -1  -6   8    0.66    0.12
   0   6  -8    0.88    0.12
   0   6  -8    0.58    0.08
   0   6  -8    0.76    0.12
   0  -6   8    0.79    0.11
   0  -6   8    0.76    0.12
  -1   6  -8    1.53    0.13
  -1   6  -8    1.60    0.16
  -1   6  -8    1.48    0.16
   1  -6   8    1.57    0.15
   1  -6   8    1.59    0.17
  -2   6  -8    0.49    0.08
  -2   6  -8    0.21    0.07
  -2   6  -8    0.37    0.08
   2  -6   8    0.33    0.08
   2  -6   8    0.31    0.08
  -3   6  -8    0.15    0.06
  -3   6  -8    0.18    0.06
  -3   6  -8    0.36    0.07
   3  -6   8    0.30    0.08
   3  -6   8    0.22    0.07
  -4   6  -8    0.53    0.10
  -4   6  -8    0.39    0.08
  -4   6  -8    0.30    0.08
   4  -6   8    0.41    0.10
   4  -6   8    0.21    0.06
  -5   6  -8    0.47    0.09
  -5   6  -8    0.55    0.11
  -5   6  -8    0.32    0.09
   5  -6   8    0.15    0.06
   6  -6   8    0.12    0.05
   6   5  -8    0.12    0.05
   5   5  -8    0.09    0.04
   4   5  -8   -0.05    0.03
   3   5  -8    0.36    0.08
  -3  -5   8    0.44    0.10
   2   5  -8    0.08    0.05
  -2  -5   8    0.00    0.05
   1   5  -8    0.09    0.05
  -1  -5   8    0.08    0.06
   0   5  -8    0.25    0.07
   0   5  -8    0.19    0.05
   0  -5   8    0.30    0.08
   0  -5   8    0.28    0.07
  -1   5  -8   -0.01    0.03
  -1   5  -8    0.03    0.04
  -1   5  -8    0.01    0.04
   1  -5   8   -0.03    0.05
   1  -5   8    0.06    0.06
  -2   5  -8    0.02    0.04
  -2   5  -8    0.01    0.05
  -2   5  -8    0.02    0.03
   2  -5   8   -0.02    0.04
   2  -5   8    0.01    0.05
  -3   5  -8    0.04    0.04
  -3   5  -8    0.04    0.05
  -3   5  -8   -0.01    0.04
   3  -5   8    0.08    0.06
   3  -5   8    0.08    0.06
  -4   5  -8    1.16    0.14
  -4   5  -8    1.28    0.13
  -4   5  -8    0.98    0.13
   4  -5   8    1.20    0.14
  -5   5  -8    1.55    0.15
  -5   5  -8    1.12    0.14
  -5   5  -8    1.57    0.17
   5  -5   8    1.50    0.16
  -6   5  -8    0.25    0.08
  -6   5  -8    0.37    0.10
  -6   5  -8    0.40    0.09
   6  -5   8    0.32    0.09
   6  -5   8    0.31    0.08
  -7   5  -8    0.05    0.06
   7   4  -8    0.08    0.07
   7   4  -8    0.04    0.06
   6   4  -8    0.12    0.05
   6   4  -8    0.25    0.08
   5   4  -8    0.72    0.12
   5   4  -8    0.34    0.07
   4   4  -8   -0.01    0.04
   3   4  -8    0.65    0.10
  -3  -4   8    0.86    0.12
   2   4  -8    0.38    0.08
  -2  -4   8    0.40    0.09
   1   4  -8   -0.06    0.03
   1   4  -8   -0.01    0.02
  -1  -4   8   -0.01    0.06
   0   4  -8    0.00    0.03
   0   4  -8    0.25    0.07
   0  -4   8    0.06    0.06
   0  -4   8    0.02    0.04
  -1   4  -8    0.00    0.03
  -1   4  -8    0.00    0.04
   1  -4   8   -0.04    0.04
   1  -4   8   -0.03    0.05
  -2   4  -8    0.01    0.05
  -2   4  -8   -0.02    0.03
  -2   4  -8    0.00    0.04
   2  -4   8    0.05    0.05
   2  -4   8   -0.02    0.04
  -3   4  -8    0.35    0.08
  -3   4  -8    0.38    0.07
   3  -4   8    0.31    0.08
   3  -4   8    0.24    0.07
  -4   4  -8    0.16    0.06
  -4   4  -8    0.10    0.06
   4  -4   8    0.14    0.06
   4  -4   8    0.10    0.06
  -5   4  -8   -0.03    0.03
  -5   4  -8   -0.01    0.04
  -5   4  -8    0.00    0.05
   5  -4   8    0.06    0.05
   5  -4   8    0.03    0.05
  -6   4  -8    0.08    0.06
  -6   4  -8    0.05    0.05
  -6   4  -8    0.01    0.04
   6  -4   8    0.04    0.06
   6  -4   8    0.19    0.07
  -7   4  -8    0.16    0.07
  -7   4  -8    0.19    0.07
  -7   4  -8    0.11    0.06
   7  -4   8    0.10    0.06
  -8   4  -8    0.14    0.08
   7   3  -8    0.05    0.06
   7   3  -8    0.01    0.05
   6   3  -8    0.04    0.06
   6   3  -8    0.06    0.05
   5   3  -8    0.07    0.04
   5   3  -8    0.16    0.07
   4   3  -8    0.82    0.12
   4   3  -8    0.66    0.10
   3   3  -8    4.80    0.22
   3   3  -8    4.77    0.22
  -3  -3   8    4.70    0.22
   2   3  -8    0.07    0.05
  -2  -3   8    0.10    0.06
   1   3  -8    0.01    0.02
   1   3  -8   -0.01    0.03
  -1  -3   8    0.02    0.05
  -1  -3   8    0.04    0.04
   0   3  -8    0.32    0.05
   0   3  -8    0.27    0.07
   0  -3   8    0.17    0.07
   0  -3   8    0.40    0.07
  -1   3  -8    0.13    0.05
  -1   3  -8    0.17    0.04
   1  -3   8    0.13    0.05
   1  -3   8    0.11    0.06
  -2   3  -8    4.08    0.17
  -2   3  -8    3.95    0.18
   2  -3   8    3.70    0.20
   2  -3   8    3.97    0.19
  -3   3  -8    3.44    0.16
  -3   3  -8    3.38    0.19
   3  -3   8    3.20    0.18
   3  -3   8    3.13    0.18
  -4   3  -8    0.07    0.04
  -4   3  -8    0.04    0.05
   4  -3   8    0.07    0.05
   4  -3   8    0.04    0.05
  -5   3  -8    1.48    0.14
  -5   3  -8    1.03    0.13
   5  -3   8    1.30    0.13
   5  -3   8    1.13    0.13
  -6   3  -8    1.16    0.13
  -6   3  -8    1.27    0.15
   6  -3   8    1.09    0.13
   6  -3   8    1.21    0.14
  -7   3  -8    0.00    0.05
  -7   3  -8    0.04    0.05
  -7   3  -8    0.07    0.06
   7  -3   8    0.02    0.05
  -8   3  -8   -0.01    0.05
  -8   3  -8    0.03    0.06
  -8   3  -8   -0.03    0.05
   8  -3   8   -0.06    0.05
   7   2  -8   -0.07    0.04
   7   2  -8   -0.01    0.06
   6   2  -8    0.31    0.07
   6   2  -8    0.54    0.11
   5   2  -8    0.82    0.13
   5   2  -8    0.67    0.10
   4   2  -8    2.61    0.16
   4   2  -8    2.87    0.18
   3   2  -8    0.41    0.08
   3   2  -8    0.28    0.07
  -3  -2   8    0.40    0.09
   2   2  -8    0.66    0.09
   2   2  -8    0.60    0.09
  -2  -2   8    0.79    0.11
   1   2  -8    0.15    0.05
   1   2  -8    0.15    0.04
  -1  -2   8    0.18    0.05
  -1  -2   8    0.15    0.06
   0   2  -8    0.05    0.03
   0   2  -8    0.02    0.03
   0  -2   8    0.04    0.05
   0  -2   8    0.01    0.03
  -1   2  -8    0.95    0.08
  -1   2  -8    0.86    0.11
   1  -2   8    1.12    0.13
   1  -2   8    0.92    0.10
  -2   2  -8    1.28    0.12
  -2   2  -8    1.03    0.08
   2  -2   8    0.89    0.11
   2  -2   8    0.79    0.11
  -3   2  -8    0.88    0.09
   3  -2   8    0.83    0.11
   3  -2   8    0.71    0.10
  -4   2  -8    6.97    0.29
  -4   2  -8    7.20    0.25
   4  -2   8    6.64    0.27
   4  -2   8    5.90    0.25
  -5   2  -8    0.17    0.06
  -5   2  -8    0.28    0.07
   5  -2   8    0.18    0.07
   5  -2   8    0.16    0.06
  -6   2  -8    0.02    0.04
  -6   2  -8    0.00    0.04
   6  -2   8   -0.02    0.05
   6  -2   8    0.01    0.05
  -7   2  -8    0.22    0.08
  -7   2  -8    0.14    0.07
  -7   2  -8    0.17    0.06
   7  -2   8    0.09    0.06
  -8   2  -8   -0.03    0.05
  -8   2  -8   -0.02    0.04
  -8   2  -8    0.05    0.06
  -8   2  -8    0.02    0.06
   8  -2   8   -0.06    0.06
  -9   2  -8    0.03    0.06
  -9   2  -8   -0.04    0.06
  -9   2  -8    0.00    0.05
   7   1  -8    0.08    0.06
   7   1  -8    0.02    0.06
   6   1  -8    2.58    0.18
   5   1  -8   -0.01    0.04
   5   1  -8    0.04    0.05
   4   1  -8    0.82    0.11
   4   1  -8    0.67    0.10
   3   1  -8    1.21    0.13
   3   1  -8    1.29    0.11
  -3  -1   8    1.60    0.15
   2   1  -8    1.27    0.13
   2   1  -8    1.16    0.10
   2   1  -8    1.27    0.08
  -2  -1   8    1.16    0.12
  -2  -1   8    1.45    0.14
   1   1  -8    0.04    0.04
   1   1  -8    0.09    0.03
   1   1  -8    0.04    0.03
  -1  -1   8    0.01    0.04
  -1  -1   8    0.03    0.05
   0   1  -8    0.23    0.05
   0   1  -8    0.19    0.06
   0  -1   8    0.28    0.07
  -1   1  -8    5.68    0.19
  -1   1  -8    5.52    0.21
   1  -1   8    5.15    0.22
  -2   1  -8    2.05    0.11
  -2   1  -8    1.90    0.12
   2  -1   8    1.70    0.13
  -3   1  -8    0.19    0.05
  -3   1  -8    0.25    0.06
   3  -1   8    0.18    0.06
  -4   1  -8    0.14    0.05
   4  -1   8    0.13    0.06
  -5   1  -8    1.01    0.11
  -5   1  -8    1.05    0.13
   5  -1   8    0.96    0.11
  -6   1  -8    0.23    0.07
  -6   1  -8    0.25    0.06
  -6   1  -8    0.16    0.05
   6  -1   8    0.24    0.07
  -7   1  -8    0.01    0.04
  -7   1  -8    0.00    0.05
  -7   1  -8    0.00    0.05
   7  -1   8   -0.04    0.05
  -8   1  -8   -0.03    0.05
  -8   1  -8   -0.02    0.05
  -8   1  -8   -0.01    0.05
   8  -1   8   -0.01    0.05
  -9   1  -8   -0.06    0.05
  -9   1  -8    0.04    0.06
  -9   1  -8   -0.02    0.05
  -9   1  -8   -0.04    0.05
   9  -1   8   -0.03    0.06
   7   0  -8    0.10    0.05
   7   0  -8    0.27    0.08
   6   0  -8    0.00    0.05
   6   0  -8    0.17    0.07
   5   0  -8    0.04    0.05
   5   0  -8    0.06    0.05
   4   0  -8    0.04    0.04
   4   0  -8    0.02    0.04
   3   0  -8    0.51    0.09
   3   0  -8    0.60    0.09
  -3   0   8    0.70    0.10
  -3   0   8    0.59    0.09
   2   0  -8    5.81    0.22
   2   0  -8    5.82    0.18
   2   0  -8    5.61    0.23
  -2   0   8    5.70    0.23
  -2   0   8    5.45    0.23
   1   0  -8    6.40    0.25
   1   0  -8    6.81    0.23
   1   0  -8    6.84    0.20
  -1   0   8    6.09    0.25
  -1   0   8    7.06    0.26
   0   0  -8    1.55    0.12
   0   0  -8    1.53    0.09
   0   0   8    1.43    0.14
  -1   0  -8    2.11    0.13
  -1   0  -8    2.23    0.11
   1   0   8    2.17    0.14
  -2   0  -8    0.64    0.09
  -2   0  -8    0.67    0.08
   2   0   8    0.75    0.10
  -3   0  -8    0.15    0.05
  -3   0  -8    0.16    0.05
   3   0   8    0.16    0.05
  -4   0  -8    0.17    0.05
   4   0   8    0.28    0.07
  -5   0  -8   -0.01    0.03
   5   0   8    0.00    0.04
  -6   0  -8    0.07    0.05
   6   0   8    0.00    0.05
  -7   0  -8    0.51    0.08
  -7   0  -8    0.46    0.09
  -8   0  -8    0.16    0.06
  -8   0  -8    0.14    0.06
  -8   0  -8    0.05    0.06
  -9   0  -8   -0.01    0.05
  -9   0  -8    0.12    0.07
  -9   0  -8    0.15    0.08
   9   0   8    0.02    0.06
   7  -1  -8    0.38    0.10
   7  -1  -8    0.19    0.06
   6  -1  -8    0.03    0.05
   6  -1  -8   -0.01    0.05
   5  -1  -8    0.11    0.06
   5  -1  -8    0.12    0.06
   4  -1  -8    0.64    0.10
   4  -1  -8    0.43    0.08
  -4   1   8    0.55    0.09
   3  -1  -8    2.13    0.13
   3  -1  -8    1.74    0.13
  -3   1   8    2.20    0.14
   2  -1  -8    0.23    0.06
   2  -1  -8    0.32    0.06
  -2   1   8    0.27    0.06
  -2   1   8    0.28    0.07
   1  -1  -8    0.54    0.06
   1  -1  -8    0.57    0.09
  -1   1   8    0.68    0.09
  -1   1   8    0.54    0.09
   0  -1  -8    2.24    0.11
   0  -1  -8    2.19    0.14
   0   1   8    2.02    0.14
   0   1   8    2.19    0.14
  -1  -1  -8    3.21    0.16
  -1  -1  -8    3.22    0.14
   1   1   8    3.05    0.17
  -2  -1  -8    0.36    0.07
  -2  -1  -8    0.37    0.06
   2   1   8    0.38    0.07
  -3  -1  -8    0.17    0.04
  -3  -1  -8    0.17    0.05
   3   1   8    0.16    0.05
  -4  -1  -8    0.35    0.06
   4   1   8    0.45    0.08
  -5  -1  -8    0.28    0.06
   5   1   8    0.27    0.07
  -6  -1  -8    0.13    0.05
   6   1   8    0.06    0.05
  -7  -1  -8    0.35    0.08
  -7  -1  -8    0.54    0.09
  -8  -1  -8    0.04    0.06
  -8  -1  -8   -0.02    0.04
  -9  -1  -8    0.16    0.07
  -9  -1  -8    0.20    0.08
 -10  -1  -8    0.01    0.07
   7  -2  -8    0.03    0.06
   6  -2  -8    0.07    0.06
   6  -2  -8    0.13    0.06
   5  -2  -8    0.15    0.05
   5  -2  -8    0.21    0.06
   4  -2  -8    0.06    0.04
   4  -2  -8    0.08    0.05
  -4   2   8    0.02    0.04
   3  -2  -8    0.30    0.07
   3  -2  -8    0.33    0.07
  -3   2   8    0.23    0.06
   2  -2  -8   -0.03    0.04
  -2   2   8    0.02    0.04
  -2   2   8    0.03    0.05
   1  -2  -8    0.07    0.05
  -1   2   8   -0.02    0.03
  -1   2   8    0.03    0.04
   0  -2  -8    0.02    0.04
   0  -2  -8    0.01    0.03
   0   2   8    0.03    0.04
   0   2   8    0.03    0.04
  -1  -2  -8    0.62    0.07
  -1  -2  -8    0.71    0.09
   1   2   8    0.66    0.09
   1   2   8    0.87    0.11
  -2  -2  -8    0.06    0.04
  -2  -2  -8    0.06    0.03
   2   2   8    0.03    0.04
  -3  -2  -8    0.13    0.04
  -3  -2  -8    0.15    0.05
   3   2   8    0.11    0.05
  -4  -2  -8    2.42    0.14
   4   2   8    2.48    0.15
  -5  -2  -8    0.17    0.06
   5   2   8    0.26    0.07
  -6  -2  -8    0.01    0.04
   6   2   8    0.22    0.07
  -7  -2  -8    0.16    0.06
  -7  -2  -8    0.14    0.06
  -8  -2  -8    0.03    0.05
  -8  -2  -8    0.11    0.07
  -9  -2  -8    0.05    0.05
  -9  -2  -8    0.04    0.06
 -10  -2  -8    0.25    0.09
   6  -3  -8    2.32    0.17
   5  -3  -8   -0.02    0.04
   5  -3  -8    0.00    0.04
  -5   3   8    0.01    0.05
   4  -3  -8    0.05    0.04
   4  -3  -8   -0.01    0.04
  -4   3   8    0.10    0.05
   3  -3  -8    0.75    0.10
  -3   3   8    1.27    0.14
   2  -3  -8    0.52    0.09
  -2   3   8    0.53    0.09
  -2   3   8    0.83    0.11
   1  -3  -8    5.80    0.24
  -1   3   8    5.98    0.24
  -1   3   8    5.76    0.25
   0  -3  -8    3.10    0.17
   0   3   8    3.20    0.17
   0   3   8    3.25    0.18
  -1  -3  -8    0.36    0.07
   1   3   8    0.44    0.08
   1   3   8    0.42    0.08
  -2  -3  -8    1.14    0.11
  -2  -3  -8    1.20    0.09
   2   3   8    1.30    0.13
   2   3   8    1.42    0.12
  -3  -3  -8    0.90    0.10
  -3  -3  -8    0.83    0.09
   3   3   8    0.74    0.10
   3   3   8    1.02    0.12
  -4  -3  -8    0.12    0.05
   4   3   8    0.26    0.07
  -5  -3  -8   -0.01    0.04
   5   3   8   -0.02    0.04
  -6  -3  -8    0.34    0.07
   6   3   8    0.41    0.08
  -7  -3  -8    0.06    0.05
  -8  -3  -8   -0.01    0.06
  -8  -3  -8    0.03    0.05
  -9  -3  -8   -0.01    0.05
  -9  -3  -8   -0.06    0.06
 -10  -3  -8   -0.03    0.06
   6  -4  -8    0.13    0.07
   5  -4  -8   -0.02    0.05
  -5   4   8    0.06    0.06
   4  -4  -8    0.01    0.04
  -4   4   8    0.05    0.05
   3  -4  -8    0.49    0.09
  -3   4   8    0.63    0.10
   2  -4  -8    1.70    0.13
  -2   4   8    1.55    0.13
  -2   4   8    1.83    0.13
   1  -4  -8    1.01    0.12
  -1   4   8    1.00    0.13
  -1   4   8    1.09    0.12
   0  -4  -8    1.16    0.13
   0   4   8    1.55    0.15
   0   4   8    1.27    0.13
  -1  -4  -8    6.55    0.25
   1   4   8    6.74    0.27
   1   4   8    6.45    0.26
  -2  -4  -8    0.03    0.04
   2   4   8    0.01    0.04
   2   4   8    0.05    0.05
  -3  -4  -8    0.02    0.04
  -3  -4  -8    0.01    0.04
   3   4   8    0.04    0.04
   3   4   8    0.01    0.04
  -4  -4  -8    0.54    0.08
   4   4   8    0.58    0.09
   4   4   8    0.46    0.08
   5   4   8    0.26    0.07
  -6  -4  -8    0.06    0.05
   6   4   8    0.05    0.05
  -7  -4  -8    0.01    0.05
   7   4   8    0.08    0.05
  -8  -4  -8    0.73    0.11
  -8  -4  -8    0.99    0.13
  -9  -4  -8    0.13    0.06
  -9  -4  -8    0.03    0.07
   5  -5  -8   -0.06    0.05
  -5   5   8   -0.05    0.05
   4  -5  -8    0.01    0.05
  -4   5   8    0.02    0.05
   3  -5  -8    0.04    0.04
  -3   5   8    0.10    0.06
   2  -5  -8    0.62    0.10
  -2   5   8    0.91    0.12
  -2   5   8    0.80    0.12
   1  -5  -8    0.78    0.11
  -1   5   8    0.81    0.11
  -1   5   8    0.87    0.12
   0  -5  -8    0.29    0.08
   0   5   8    0.39    0.08
   0   5   8    0.27    0.07
  -1  -5  -8    0.67    0.10
   1   5   8    0.68    0.10
   1   5   8    0.87    0.12
  -2  -5  -8    0.50    0.08
   2   5   8    0.68    0.11
   2   5   8    0.63    0.10
  -3  -5  -8    0.02    0.04
   3   5   8    0.03    0.04
   3   5   8   -0.01    0.03
  -4  -5  -8    0.05    0.04
   4   5   8    0.03    0.04
   4   5   8    0.01    0.04
  -5  -5  -8    0.02    0.04
   5   5   8    0.03    0.04
   5   5   8   -0.01    0.05
  -6  -5  -8    0.19    0.06
   6   5   8    0.05    0.05
   6   5   8    0.13    0.05
  -7  -5  -8    0.28    0.08
   7   5   8    0.34    0.08
   7   5   8    0.32    0.08
  -8  -5  -8    1.99    0.16
  -8  -5  -8    1.75    0.18
  -9  -5  -8    0.26    0.09
  -9  -5  -8    0.07    0.07
  -4   6   8    0.41    0.10
   3  -6  -8    0.11    0.05
  -3   6   8    0.37    0.09
   2  -6  -8    0.18    0.06
  -2   6   8    0.14    0.06
   1  -6  -8    0.00    0.05
  -1   6   8    0.01    0.05
  -1   6   8    0.00    0.04
   0  -6  -8   -0.03    0.04
   0   6   8    0.02    0.05
   0   6   8    0.01    0.04
  -1  -6  -8    0.08    0.05
   1   6   8    0.15    0.07
   1   6   8    0.12    0.05
  -2  -6  -8    0.05    0.05
   2   6   8   -0.02    0.03
   2   6   8   -0.05    0.04
  -3  -6  -8    0.00    0.04
   3   6   8    0.05    0.04
   3   6   8    0.01    0.05
   4   6   8    0.17    0.06
   4   6   8    0.28    0.07
  -5  -6  -8    0.12    0.06
   5   6   8    0.05    0.05
   5   6   8    0.05    0.05
  -6  -6  -8    0.20    0.06
   6   6   8    0.09    0.05
   6   6   8    0.07    0.05
  -7  -6  -8    0.00    0.05
   7   6   8    0.01    0.06
  -8  -6  -8    0.15    0.07
  -9  -6  -8    0.17    0.09
   3  -7  -8    0.06    0.05
  -3   7   8    0.31    0.09
   2  -7  -8    0.07    0.05
  -2   7   8    0.13    0.06
   1  -7  -8   -0.03    0.05
  -1   7   8    0.00    0.04
  -1   7   8    0.00    0.05
  -1   7   8    0.06    0.07
   0  -7  -8    0.08    0.06
   0   7   8    0.02    0.06
   0   7   8    0.02    0.04
  -1  -7  -8    0.15    0.07
   1   7   8    0.15    0.06
   1   7   8    0.26    0.08
  -2  -7  -8    0.16    0.06
   2   7   8    0.23    0.07
   2   7   8    0.16    0.08
  -3  -7  -8   -0.04    0.05
   3   7   8    0.06    0.05
   3   7   8    0.04    0.06
   4   7   8    0.29    0.08
   4   7   8    0.36    0.08
   5   7   8   -0.03    0.04
   5   7   8    0.05    0.05
   6   7   8    0.00    0.05
  -7  -7  -8   -0.03    0.05
   7   7   8    0.04    0.06
  -8  -7  -8   -0.01    0.06
   8   7   8   -0.04    0.06
   2  -8  -8    0.06    0.06
   1  -8  -8    0.09    0.06
  -1   8   8    0.04    0.05
  -1   8   8    0.21    0.08
   0  -8  -8    0.10    0.07
   0   8   8   -0.02    0.05
   0   8   8    0.02    0.06
   0   8   8    0.03    0.05
  -1  -8  -8    1.64    0.17
   1   8   8    1.70    0.17
   1   8   8    2.09    0.21
   1   8   8    1.57    0.18
  -2  -8  -8    0.86    0.13
   2   8   8    1.07    0.15
   2   8   8    1.05    0.14
  -3  -8  -8    0.10    0.07
   3   8   8    0.19    0.07
   3   8   8    0.20    0.08
   4   8   8   -0.02    0.04
   4   8   8   -0.04    0.05
   5   8   8    0.00    0.05
   6   8   8    0.03    0.06
   7   8   8    0.02    0.07
   0  -9  -8   -0.02    0.06
   0   9   8    0.03    0.06
  -1  -9  -8    0.04    0.06
   1   9   8   -0.02    0.06
   1   9   8    0.02    0.05
  -2  -9  -8    0.05    0.07
   2   9   8    0.11    0.06
   2   9   8    0.02    0.06
   2   9   8    0.05    0.07
   3   9   8    0.35    0.10
   3   9   8    0.33    0.09
   3   9   8    0.47    0.10
   4   9   8    0.17    0.07
   4   9   8    0.01    0.06
   5   9   8    0.06    0.06
   5   9   8    0.03    0.06
   3   7  -9    0.05    0.06
   2   7  -9   -0.05    0.05
  -2  -7   9    0.09    0.08
   1   7  -9    0.09    0.07
   1   7  -9   -0.01    0.03
  -1  -7   9    0.03    0.08
   0   7  -9   -0.03    0.05
   0   7  -9    0.03    0.04
   0  -7   9   -0.03    0.07
  -1   7  -9    0.00    0.03
  -1   7  -9   -0.03    0.06
  -1   7  -9   -0.02    0.05
   1  -7   9    0.07    0.07
   1  -7   9   -0.01    0.07
  -2   7  -9    0.29    0.08
  -2   7  -9    0.34    0.08
   2  -7   9    0.08    0.06
  -3   7  -9   -0.01    0.05
  -3   7  -9    0.03    0.07
   3  -7   9   -0.02    0.07
   4   6  -9    0.08    0.06
   3   6  -9    0.20    0.07
   2   6  -9    1.10    0.15
  -2  -6   9    1.13    0.16
   1   6  -9    0.04    0.06
   1   6  -9   -0.02    0.03
  -1  -6   9   -0.02    0.06
   0   6  -9    0.01    0.03
   0   6  -9    0.06    0.06
   0  -6   9    0.05    0.07
   0  -6   9    0.06    0.06
  -1   6  -9    0.04    0.06
  -1   6  -9    0.08    0.04
  -1   6  -9    0.17    0.07
   1  -6   9   -0.08    0.05
   1  -6   9    0.05    0.07
  -2   6  -9   -0.02    0.03
  -2   6  -9    0.04    0.05
  -2   6  -9    0.05    0.05
   2  -6   9   -0.01    0.05
   2  -6   9    0.05    0.06
  -3   6  -9    0.01    0.04
  -3   6  -9    0.00    0.04
  -3   6  -9   -0.04    0.05
   3  -6   9    0.05    0.06
   3  -6   9   -0.07    0.06
  -4   6  -9    0.05    0.05
  -4   6  -9    0.06    0.06
  -4   6  -9    0.10    0.07
   4  -6   9    0.02    0.06
  -5   6  -9    0.02    0.06
   5  -6   9    0.00    0.06
   5   5  -9    0.01    0.05
   4   5  -9    0.06    0.06
   3   5  -9    0.17    0.06
   2   5  -9    1.23    0.15
  -2  -5   9    1.45    0.17
   1   5  -9    0.01    0.05
   1   5  -9    0.03    0.03
  -1  -5   9   -0.08    0.05
   0   5  -9    1.44    0.16
   0   5  -9    1.32    0.10
   0  -5   9    1.71    0.16
   0  -5   9    1.35    0.16
  -1   5  -9   -0.03    0.04
  -1   5  -9    0.00    0.03
   1  -5   9    0.02    0.06
   1  -5   9    0.02    0.06
  -2   5  -9    0.24    0.07
  -2   5  -9    0.29    0.08
  -2   5  -9    0.18    0.05
   2  -5   9    0.14    0.07
   2  -5   9    0.24    0.08
  -3   5  -9    0.04    0.04
  -3   5  -9    0.02    0.05
   3  -5   9   -0.02    0.04
   3  -5   9    0.08    0.06
  -4   5  -9    0.02    0.05
  -4   5  -9    0.06    0.04
  -4   5  -9    0.04    0.06
   4  -5   9    0.13    0.07
   4  -5   9    0.06    0.06
  -5   5  -9    0.11    0.06
  -5   5  -9    0.11    0.06
  -5   5  -9    0.17    0.07
   5  -5   9    0.27    0.09
   5  -5   9    0.08    0.07
  -6   5  -9    0.20    0.07
   6  -5   9    0.04    0.04
   5   4  -9    0.02    0.05
   4   4  -9    0.25    0.07
   3   4  -9    0.01    0.05
   2   4  -9    0.36    0.09
  -2  -4   9    0.32    0.09
   1   4  -9    0.37    0.09
   1   4  -9    0.38    0.06
  -1  -4   9    0.49    0.11
   0   4  -9    2.70    0.17
   0   4  -9    2.65    0.14
   0  -4   9    2.74    0.19
   0  -4   9    2.69    0.16
  -1   4  -9    1.19    0.11
  -1   4  -9    1.09    0.13
   1  -4   9    1.48    0.16
   1  -4   9    0.95    0.12
  -2   4  -9    0.04    0.03
  -2   4  -9    0.08    0.05
   2  -4   9    0.15    0.06
   2  -4   9    0.15    0.06
  -3   4  -9    1.30    0.13
  -3   4  -9    1.37    0.15
   3  -4   9    1.16    0.14
   3  -4   9    1.14    0.14
  -4   4  -9    0.69    0.12
  -4   4  -9    0.51    0.09
   4  -4   9    0.61    0.10
   4  -4   9    0.42    0.09
  -5   4  -9    0.31    0.08
  -5   4  -9    0.38    0.10
   5  -4   9    0.21    0.07
   5  -4   9    0.18    0.07
  -6   4  -9    0.75    0.11
  -6   4  -9    0.68    0.13
  -6   4  -9    0.67    0.12
   6  -4   9    0.28    0.07
   6  -4   9    0.55    0.11
  -7   4  -9    0.11    0.07
   7  -4   9    0.19    0.07
   6   3  -9    0.22    0.08
   6   3  -9    0.09    0.05
   5   3  -9    0.07    0.06
   5   3  -9    0.12    0.06
   4   3  -9    0.04    0.05
   3   3  -9    0.11    0.05
   2   3  -9    0.09    0.05
   2   3  -9    0.08    0.04
  -2  -3   9    0.14    0.07
   1   3  -9    1.06    0.13
   1   3  -9    0.76    0.09
  -1  -3   9    0.97    0.14
   0   3  -9    2.82    0.14
   0   3  -9    2.36    0.16
   0  -3   9    2.32    0.15
   0  -3   9    2.51    0.17
  -1   3  -9    1.88    0.12
  -1   3  -9    2.26    0.15
   1  -3   9    2.29    0.16
   1  -3   9    1.85    0.14
  -2   3  -9    0.18    0.06
  -2   3  -9    0.19    0.05
   2  -3   9    0.10    0.06
   2  -3   9    0.18    0.07
  -3   3  -9    5.08    0.21
   3  -3   9    4.92    0.23
   3  -3   9    4.71    0.24
  -4   3  -9    0.03    0.04
  -4   3  -9    0.06    0.05
   4  -3   9    0.12    0.05
   4  -3   9    0.11    0.06
  -5   3  -9    0.63    0.11
  -5   3  -9    0.57    0.10
   5  -3   9    0.48    0.09
   5  -3   9    0.59    0.11
  -6   3  -9    0.12    0.06
  -6   3  -9    0.15    0.07
   6  -3   9    0.11    0.07
   6  -3   9    0.02    0.05
  -7   3  -9   -0.02    0.05
  -7   3  -9   -0.01    0.05
  -7   3  -9    0.00    0.05
   7  -3   9    0.00    0.06
   7  -3   9    0.04    0.07
   6   2  -9    0.13    0.05
   6   2  -9    0.33    0.09
   5   2  -9    0.06    0.06
   5   2  -9    0.23    0.07
   4   2  -9   -0.01    0.04
   4   2  -9    0.02    0.04
   3   2  -9    0.17    0.06
   3   2  -9    0.28    0.07
   2   2  -9    0.07    0.05
   2   2  -9    0.03    0.03
  -2  -2   9    0.14    0.07
   1   2  -9    5.31    0.24
   1   2  -9    5.90    0.20
  -1  -2   9    5.48    0.25
   0   2  -9    1.22    0.14
   0   2  -9    1.31    0.09
   0  -2   9    1.33    0.15
   0  -2   9    1.34    0.13
  -1   2  -9    0.14    0.06
  -1   2  -9    0.12    0.04
   1  -2   9    0.08    0.05
   1  -2   9    0.09    0.06
  -2   2  -9    0.20    0.06
  -2   2  -9    0.14    0.05
   2  -2   9    0.11    0.06
   2  -2   9    0.14    0.06
  -3   2  -9    0.75    0.09
   3  -2   9    0.71    0.11
   3  -2   9    0.73    0.11
  -4   2  -9   -0.01    0.04
   4  -2   9    0.04    0.05
   4  -2   9    0.03    0.05
  -5   2  -9    1.30    0.15
  -5   2  -9    1.14    0.12
   5  -2   9    1.38    0.15
   5  -2   9    1.11    0.13
  -6   2  -9    0.55    0.10
  -6   2  -9    0.38    0.09
   6  -2   9    0.41    0.09
   6  -2   9    0.29    0.07
  -7   2  -9    0.89    0.12
  -7   2  -9    0.93    0.14
  -8   2  -9    0.08    0.06
  -8   2  -9    0.19    0.09
  -8   2  -9    0.00    0.06
   6   1  -9   -0.05    0.05
   6   1  -9    0.00    0.05
   5   1  -9    0.09    0.06
   5   1  -9    0.03    0.05
   4   1  -9    0.19    0.06
   4   1  -9    0.18    0.06
   3   1  -9    0.37    0.08
   3   1  -9    0.30    0.07
   3   1  -9    0.20    0.05
   2   1  -9    0.01    0.03
   2   1  -9    0.01    0.03
   2   1  -9    0.02    0.04
  -2  -1   9    0.04    0.06
  -2  -1   9    0.04    0.04
   1   1  -9    0.24    0.05
   1   1  -9    0.14    0.06
  -1  -1   9    0.12    0.05
  -1  -1   9    0.14    0.07
   0   1  -9    2.17    0.12
   0   1  -9    2.09    0.14
   0  -1   9    2.10    0.15
  -1   1  -9    0.00    0.04
  -1   1  -9   -0.01    0.03
   1  -1   9    0.01    0.05
  -2   1  -9    0.03    0.03
  -2   1  -9    0.04    0.04
   2  -1   9    0.05    0.05
  -3   1  -9    0.45    0.07
   3  -1   9    0.37    0.08
  -4   1  -9    2.42    0.15
   4  -1   9    2.12    0.15
  -5   1  -9    0.06    0.04
   5  -1   9    0.02    0.05
  -6   1  -9    0.89    0.12
   6  -1   9    0.93    0.12
  -7   1  -9    1.34    0.15
   7  -1   9    1.33    0.15
  -8   1  -9    0.19    0.08
  -8   1  -9    0.11    0.07
   8  -1   9    0.11    0.07
  -9   1  -9    0.12    0.07
  -9   1  -9    0.11    0.07
   6   0  -9    0.41    0.09
   6   0  -9    0.17    0.06
   5   0  -9    0.53    0.10
   4   0  -9   -0.01    0.04
   4   0  -9    0.05    0.05
   3   0  -9    0.00    0.04
   3   0  -9   -0.01    0.03
   2   0  -9    0.15    0.05
   2   0  -9    0.02    0.05
  -2   0   9    0.16    0.07
  -2   0   9    0.18    0.06
   1   0  -9    0.94    0.09
   1   0  -9    0.76    0.11
  -1   0   9    0.77    0.12
  -1   0   9    0.80    0.11
   0   0  -9    5.53    0.20
   0   0  -9    5.91    0.25
   0   0   9    5.54    0.25
   0   0   9    6.07    0.26
  -1   0  -9    0.27    0.05
  -1   0  -9    0.23    0.07
   1   0   9    0.36    0.08
  -2   0  -9    0.09    0.04
  -2   0  -9    0.13    0.05
   2   0   9    0.14    0.06
  -3   0  -9    0.39    0.07
  -3   0  -9    0.45    0.08
   3   0   9    0.41    0.08
  -4   0  -9    0.13    0.05
   4   0   9    0.09    0.05
  -5   0  -9    0.03    0.04
   5   0   9    0.03    0.05
  -6   0  -9    1.63    0.15
   6   0   9    1.85    0.14
  -7   0  -9    0.35    0.08
  -8   0  -9    0.05    0.06
   6  -1  -9    0.03    0.05
   6  -1  -9    0.00    0.05
   5  -1  -9    0.21    0.06
   5  -1  -9    0.56    0.10
   4  -1  -9    0.12    0.05
   4  -1  -9    0.10    0.05
   3  -1  -9    1.43    0.12
   3  -1  -9    1.41    0.14
  -3   1   9    1.65    0.13
   2  -1  -9    0.43    0.09
  -2   1   9    0.44    0.09
  -2   1   9    0.43    0.09
   1  -1  -9    0.17    0.06
  -1   1   9    0.24    0.06
  -1   1   9    0.31    0.08
   0  -1  -9    0.37    0.08
   0  -1  -9    0.48    0.07
   0   1   9    0.29    0.08
   0   1   9    0.44    0.08
  -1  -1  -9    0.67    0.08
  -1  -1  -9    0.71    0.10
   1   1   9    0.70    0.11
   1   1   9    0.65    0.10
  -2  -1  -9    0.88    0.11
  -2  -1  -9    0.85    0.09
   2   1   9    0.94    0.12
  -3  -1  -9    0.88    0.10
  -3  -1  -9    0.83    0.09
   3   1   9    0.93    0.12
  -4  -1  -9    0.33    0.07
   4   1   9    0.31    0.07
  -5  -1  -9    0.40    0.07
   5   1   9    0.48    0.09
  -6  -1  -9    0.27    0.07
   6   1   9    0.37    0.08
  -7  -1  -9    0.05    0.05
   7   1   9    0.03    0.06
  -8  -1  -9    0.28    0.08
   6  -2  -9    0.11    0.06
   6  -2  -9    0.05    0.04
   5  -2  -9    0.65    0.10
   5  -2  -9    0.12    0.05
   4  -2  -9    0.15    0.06
   4  -2  -9    0.09    0.04
  -4   2   9    0.10    0.06
   3  -2  -9    0.31    0.07
  -3   2   9    0.74    0.10
   2  -2  -9    0.44    0.09
  -2   2   9    0.44    0.09
  -2   2   9    0.41    0.08
   1  -2  -9    1.62    0.15
  -1   2   9    1.68    0.14
  -1   2   9    1.77    0.16
   0  -2  -9    0.25    0.07
   0   2   9    0.31    0.08
   0   2   9    0.19    0.06
  -1  -2  -9    0.06    0.05
   1   2   9    0.10    0.06
   1   2   9    0.02    0.04
  -2  -2  -9    1.20    0.10
  -2  -2  -9    0.86    0.10
   2   2   9    1.09    0.13
   2   2   9    1.11    0.13
  -3  -2  -9    0.12    0.05
  -3  -2  -9    0.21    0.06
   3   2   9    0.20    0.07
  -4  -2  -9    0.24    0.06
   4   2   9    0.34    0.08
  -5  -2  -9    0.18    0.06
   5   2   9    0.00    0.05
  -6  -2  -9    0.52    0.09
   6   2   9    0.52    0.10
  -7  -2  -9    0.02    0.05
   7   2   9    0.09    0.07
  -8  -2  -9    0.11    0.06
   5  -3  -9    0.09    0.07
   4  -3  -9    0.08    0.05
  -4   3   9    0.19    0.07
   3  -3  -9    0.11    0.05
  -3   3   9    0.15    0.06
   2  -3  -9    0.33    0.08
  -2   3   9    0.33    0.08
  -2   3   9    0.18    0.06
   1  -3  -9    0.51    0.09
  -1   3   9    0.68    0.11
  -1   3   9    0.48    0.09
   0  -3  -9    7.21    0.28
   0   3   9    7.99    0.30
   0   3   9    7.37    0.30
  -1  -3  -9    0.15    0.06
   1   3   9    0.12    0.06
   1   3   9    0.11    0.05
  -2  -3  -9    0.20    0.06
  -2  -3  -9    0.20    0.05
   2   3   9    0.18    0.07
   2   3   9    0.12    0.05
  -3  -3  -9    0.03    0.04
  -3  -3  -9    0.02    0.04
   3   3   9    0.00    0.04
   3   3   9    0.02    0.05
  -4  -3  -9    0.31    0.07
   4   3   9    0.23    0.07
  -5  -3  -9    0.12    0.05
   5   3   9    0.14    0.06
  -6  -3  -9    0.09    0.05
   6   3   9    0.02    0.05
  -7  -3  -9    0.16    0.06
   7   3   9    0.10    0.06
  -8  -3  -9   -0.01    0.05
   5  -4  -9    0.07    0.06
  -5   4   9    0.15    0.07
   4  -4  -9    0.26    0.06
  -4   4   9    0.47    0.10
   3  -4  -9    0.09    0.05
  -3   4   9    0.18    0.07
   2  -4  -9    0.07    0.05
  -2   4   9    0.02    0.04
  -2   4   9    0.25    0.08
   1  -4  -9    0.21    0.07
  -1   4   9    0.10    0.06
  -1   4   9    0.02    0.04
   0  -4  -9    0.04    0.05
   0   4   9    0.14    0.06
   0   4   9    0.03    0.04
  -1  -4  -9    0.43    0.09
   1   4   9    0.30    0.08
   1   4   9    0.31    0.07
  -2  -4  -9    1.37    0.14
   2   4   9    1.16    0.13
   2   4   9    1.36    0.15
  -3  -4  -9    0.11    0.05
   3   4   9    0.13    0.06
   3   4   9    0.03    0.04
  -4  -4  -9    1.03    0.11
   4   4   9    0.86    0.12
   4   4   9    1.12    0.13
  -5  -4  -9    0.24    0.07
   5   4   9    0.19    0.06
   5   4   9    0.22    0.06
  -6  -4  -9    0.05    0.05
   6   4   9   -0.03    0.04
  -7  -4  -9    0.54    0.09
   7   4   9    0.73    0.11
  -8  -4  -9    0.04    0.06
  -4   5   9    0.35    0.09
  -3   5   9    0.78    0.13
   2  -5  -9    0.03    0.05
  -2   5   9    0.05    0.05
   1  -5  -9    0.20    0.07
  -1   5   9    0.39    0.09
  -1   5   9    0.40    0.09
   0  -5  -9    0.26    0.08
   0   5   9    0.25    0.08
   0   5   9    0.29    0.07
  -1  -5  -9    0.28    0.08
   1   5   9    0.30    0.09
   1   5   9    0.40    0.08
  -2  -5  -9    0.45    0.09
   2   5   9    0.37    0.09
   2   5   9    0.59    0.10
  -3  -5  -9    0.07    0.05
   3   5   9    0.02    0.05
   3   5   9    0.12    0.05
   4   5   9    0.96    0.12
   4   5   9    0.85    0.12
  -5  -5  -9    0.29    0.07
   5   5   9    0.20    0.07
   5   5   9    0.24    0.07
  -6  -5  -9    0.11    0.06
   6   5   9    0.08    0.06
   6   5   9    0.07    0.06
  -7  -5  -9    0.12    0.06
   7   5   9    0.05    0.06
   7   5   9    0.07    0.06
  -8  -5  -9    0.06    0.06
  -3   6   9    0.55    0.11
   2  -6  -9   -0.04    0.05
  -2   6   9    0.02    0.05
   1  -6  -9    0.02    0.06
  -1   6   9    0.04    0.04
  -1   6   9   -0.01    0.05
   0  -6  -9    0.12    0.07
   0   6   9    0.04    0.06
   0   6   9    0.00    0.04
  -1  -6  -9    0.03    0.05
   1   6   9    0.04    0.06
   1   6   9    0.03    0.04
  -2  -6  -9   -0.01    0.04
   2   6   9   -0.04    0.04
   2   6   9    0.01    0.06
  -3  -6  -9    0.40    0.09
   3   6   9    0.64    0.11
   3   6   9    0.51    0.10
   4   6   9    0.33    0.08
   4   6   9    0.46    0.09
   5   6   9    0.03    0.05
   5   6   9   -0.02    0.04
  -6  -6  -9    0.17    0.07
   6   6   9    0.13    0.07
   6   6   9    0.05    0.04
  -7  -6  -9    0.11    0.07
   7   6   9    0.01    0.06
  -8  -6  -9   -0.04    0.06
   2  -7  -9   -0.01    0.05
   1  -7  -9    0.00    0.06
  -1   7   9    0.02    0.05
  -1   7   9    0.08    0.07
   0  -7  -9    0.31    0.09
   0   7   9    0.23    0.07
   0   7   9    0.37    0.10
  -1  -7  -9    0.32    0.09
   1   7   9    0.36    0.10
   1   7   9    0.17    0.07
  -2  -7  -9    0.49    0.09
   2   7   9    0.87    0.13
   2   7   9    0.52    0.10
   3   7   9    0.40    0.09
   3   7   9    0.41    0.10
   4   7   9    0.13    0.07
   4   7   9    0.14    0.06
   5   7   9   -0.01    0.05
   5   7   9    0.04    0.05
   6   7   9   -0.05    0.04
   7   7   9    0.10    0.07
   0  -8  -9   -0.04    0.05
   0   8   9   -0.06    0.06
   0   8   9    0.04    0.06
  -1  -8  -9    0.20    0.08
   1   8   9    0.25    0.09
   1   8   9    0.09    0.06
  -2  -8  -9    0.19    0.08
   2   8   9    0.14    0.08
   2   8   9    0.18    0.07
   3   8   9    0.50    0.10
   3   8   9    0.87    0.13
   4   8   9    0.08    0.05
   4   8   9    0.14    0.07
   5   8   9   -0.03    0.05
   6   8   9   -0.11    0.05
   2   6 -10    0.25    0.09
  -2  -6  10    0.16    0.09
   1   6 -10    1.47    0.18
  -1  -6  10    1.31    0.18
   0   6 -10    0.00    0.06
   0   6 -10    0.03    0.04
   0  -6  10    0.16    0.09
  -1   6 -10    0.52    0.10
  -1   6 -10    0.49    0.11
  -1   6 -10    0.42    0.08
   1  -6  10    0.26    0.09
   1  -6  10    0.30    0.10
  -2   6 -10    0.12    0.07
   2  -6  10    0.11    0.07
  -3   6 -10    0.46    0.10
  -3   6 -10    0.48    0.11
   3  -6  10    0.14    0.06
   3   5 -10    0.26    0.08
   3   5 -10    0.27    0.06
   2   5 -10    0.16    0.07
   2   5 -10    0.02    0.03
  -2  -5  10    0.04    0.07
   1   5 -10    0.20    0.08
   1   5 -10    0.19    0.05
  -1  -5  10    0.04    0.07
   0   5 -10    0.12    0.07
   0   5 -10    0.13    0.05
   0  -5  10    0.04    0.08
  -1   5 -10    0.68    0.09
  -1   5 -10    0.61    0.11
   1  -5  10    0.56    0.10
   1  -5  10    0.52    0.11
  -2   5 -10    0.18    0.06
   2  -5  10    0.31    0.09
   2  -5  10    0.18    0.08
  -3   5 -10    0.77    0.11
   3  -5  10    0.76    0.13
  -4   5 -10    0.13    0.06
  -4   5 -10    0.00    0.05
  -4   5 -10    0.07    0.07
   4  -5  10   -0.02    0.06
   5  -5  10    0.04    0.04
   4   4 -10    0.13    0.05
   3   4 -10   -0.01    0.03
   3   4 -10   -0.03    0.05
   2   4 -10    0.08    0.06
   2   4 -10    0.18    0.05
  -2  -4  10    0.15    0.08
   1   4 -10    0.17    0.05
   1   4 -10    0.33    0.09
  -1  -4  10    0.28    0.09
   0   4 -10    0.49    0.10
   0   4 -10    0.62    0.09
   0  -4  10    0.79    0.13
  -1   4 -10    0.11    0.05
  -1   4 -10    0.15    0.07
   1  -4  10    0.16    0.08
   1  -4  10    0.15    0.07
  -2   4 -10    0.27    0.07
  -2   4 -10    0.19    0.08
   2  -4  10    0.15    0.07
   2  -4  10    0.19    0.08
  -3   4 -10    0.20    0.06
   3  -4  10    0.13    0.06
   3  -4  10    0.39    0.10
  -4   4 -10   -0.01    0.04
   4  -4  10   -0.01    0.06
   4  -4  10    0.03    0.06
  -5   4 -10    0.02    0.06
  -5   4 -10    0.00    0.05
   5  -4  10    0.03    0.06
   6  -4  10    0.10    0.08
   5   3 -10    0.05    0.07
   4   3 -10    0.11    0.05
   3   3 -10    0.09    0.06
   3   3 -10    0.10    0.04
   2   3 -10    0.01    0.03
   2   3 -10    0.00    0.05
  -2  -3  10   -0.04    0.06
   1   3 -10    0.02    0.05
   1   3 -10    0.03    0.03
  -1  -3  10    0.11    0.07
   0   3 -10   -0.04    0.03
   0   3 -10    0.01    0.05
   0  -3  10    0.01    0.06
  -1   3 -10   -0.04    0.02
  -1   3 -10    0.01    0.05
   1  -3  10    0.02    0.06
   1  -3  10    0.01    0.06
  -2   3 -10    0.81    0.10
  -2   3 -10    0.85    0.12
   2  -3  10    0.69    0.11
   2  -3  10    0.75    0.12
  -3   3 -10   -0.01    0.04
   3  -3  10    0.05    0.06
   3  -3  10    0.08    0.06
  -4   3 -10    0.03    0.05
   4  -3  10    0.07    0.06
   4  -3  10    0.00    0.06
  -5   3 -10    0.38    0.08
   5  -3  10    0.25    0.07
   5  -3  10    0.32    0.09
  -6   3 -10    0.09    0.07
  -6   3 -10    0.03    0.06
   6  -3  10    0.01    0.07
   7  -3  10   -0.03    0.07
   5   2 -10   -0.05    0.05
   5   2 -10    0.04    0.05
   4   2 -10    0.06    0.05
   3   2 -10    0.03    0.03
   3   2 -10    0.01    0.05
   2   2 -10    0.36    0.07
   2   2 -10    0.31    0.09
  -2  -2  10    0.40    0.10
   1   2 -10    1.52    0.11
   1   2 -10    1.43    0.16
  -1  -2  10    1.52    0.17
   0   2 -10    0.02    0.05
   0   2 -10    0.03    0.03
   0  -2  10    0.03    0.06
  -1   2 -10    0.06    0.04
  -1   2 -10    0.04    0.05
   1  -2  10    0.16    0.07
   1  -2  10    0.02    0.05
  -2   2 -10    0.63    0.10
  -2   2 -10    0.74    0.09
   2  -2  10    0.59    0.11
   2  -2  10    0.65    0.11
  -3   2 -10    0.08    0.04
   3  -2  10    0.03    0.05
   3  -2  10    0.04    0.06
  -4   2 -10    0.27    0.07
   4  -2  10    0.26    0.08
   4  -2  10    0.19    0.06
  -5   2 -10    0.89    0.12
   5  -2  10    1.07    0.14
  -6   2 -10   -0.01    0.05
   6  -2  10    0.00    0.06
   6  -2  10    0.05    0.06
  -7   2 -10    0.07    0.06
   7  -2  10    0.06    0.06
   5   1 -10    0.01    0.05
   5   1 -10    0.10    0.06
   4   1 -10    0.19    0.06
   4   1 -10    0.34    0.08
   3   1 -10    0.18    0.07
   3   1 -10    0.29    0.07
   2   1 -10    1.66    0.17
   2   1 -10    2.02    0.12
  -2  -1  10    2.13    0.20
   1   1 -10    0.10    0.04
   1   1 -10    0.04    0.06
  -1  -1  10    0.13    0.06
  -1  -1  10    0.08    0.07
   0   1 -10    0.07    0.05
   0   1 -10    0.15    0.05
   0  -1  10    0.12    0.07
  -1   1 -10    0.18    0.05
  -1   1 -10    0.13    0.06
   1  -1  10    0.22    0.08
  -2   1 -10    0.34    0.08
  -2   1 -10    0.36    0.07
   2  -1  10    0.24    0.08
  -3   1 -10    0.05    0.04
   3  -1  10    0.08    0.05
  -4   1 -10    0.16    0.06
   4  -1  10    0.01    0.05
  -5   1 -10    0.63    0.10
   5  -1  10    0.50    0.09
  -6   1 -10    0.85    0.12
   6  -1  10    0.47    0.09
  -7   1 -10    0.04    0.06
   7  -1  10    0.09    0.07
   7  -1  10    0.02    0.07
   5   0 -10    0.10    0.06
   5   0 -10   -0.02    0.06
   4   0 -10    2.14    0.15
   3   0 -10    0.01    0.04
   3   0 -10    0.00    0.04
   2   0 -10    0.66    0.11
  -2   0  10    0.55    0.10
  -2   0  10    0.68    0.12
   1   0 -10    0.39    0.07
   1   0 -10    0.23    0.07
  -1   0  10    0.39    0.09
  -1   0  10    0.44    0.09
   0   0 -10    0.79    0.12
   0   0 -10    0.84    0.09
   0   0  10    1.21    0.14
   0   0  10    0.91    0.13
  -1   0 -10    0.76    0.09
  -1   0 -10    0.82    0.11
   1   0  10    0.76    0.12
  -2   0 -10    0.02    0.05
  -2   0 -10    0.02    0.03
   2   0  10   -0.01    0.05
  -3   0 -10    1.28    0.13
   3   0  10    1.33    0.15
  -4   0 -10    0.18    0.06
   4   0  10    0.17    0.06
  -5   0 -10   -0.01    0.03
   5   0  10    0.01    0.06
  -6   0 -10    0.08    0.06
   6   0  10   -0.05    0.05
  -7   0 -10    0.38    0.09
   7   0  10    0.52    0.10
   5  -1 -10    0.01    0.05
   5  -1 -10    0.03    0.06
   4  -1 -10    0.10    0.05
   4  -1 -10    0.04    0.06
   3  -1 -10    0.03    0.05
   2  -1 -10    0.35    0.08
  -2   1  10    0.43    0.09
  -2   1  10    0.41    0.10
   1  -1 -10    0.23    0.07
  -1   1  10    0.08    0.05
  -1   1  10    0.15    0.07
   0  -1 -10    2.32    0.16
   0   1  10    2.00    0.16
   0   1  10    2.47    0.17
  -1  -1 -10    1.66    0.12
  -1  -1 -10    1.91    0.14
   1   1  10    1.89    0.18
   1   1  10    1.51    0.16
  -2  -1 -10    1.43    0.13
  -2  -1 -10    1.36    0.14
   2   1  10    1.37    0.16
  -3  -1 -10    0.22    0.06
   3   1  10    0.39    0.09
  -4  -1 -10    0.26    0.06
   4   1  10    0.16    0.07
  -5  -1 -10    0.01    0.04
   5   1  10   -0.01    0.05
  -6  -1 -10    0.30    0.08
   6   1  10    0.18    0.07
  -7  -1 -10    0.04    0.06
   7   1  10    0.01    0.06
  -8  -1 -10    0.07    0.06
   5  -2 -10   -0.03    0.05
   5  -2 -10    0.06    0.06
   4  -2 -10    0.01    0.05
   3  -2 -10    0.06    0.06
  -3   2  10    0.13    0.06
   2  -2 -10    0.06    0.06
  -2   2  10    0.04    0.07
  -2   2  10   -0.02    0.04
   1  -2 -10    0.62    0.10
  -1   2  10    0.55    0.10
  -1   2  10    0.61    0.10
   0  -2 -10    0.22    0.07
   0   2  10    0.15    0.06
   0   2  10    0.39    0.09
  -1  -2 -10    0.63    0.10
   1   2  10    0.56    0.11
   1   2  10    0.37    0.08
  -2  -2 -10    1.75    0.12
  -2  -2 -10    1.55    0.15
   2   2  10    1.20    0.14
   2   2  10    1.69    0.17
  -3  -2 -10    0.70    0.09
   3   2  10    0.47    0.09
   4   2  10    0.27    0.07
  -5  -2 -10   -0.01    0.05
   5   2  10    0.01    0.05
  -6  -2 -10   -0.02    0.05
   6   2  10   -0.02    0.05
  -7  -2 -10    0.02    0.06
   7   2  10   -0.04    0.06
  -8  -2 -10    0.03    0.06
   4  -3 -10    0.05    0.06
  -4   3  10    0.00    0.06
   3  -3 -10    0.01    0.05
  -3   3  10    0.00    0.05
   2  -3 -10    0.13    0.06
  -2   3  10    0.15    0.06
  -2   3  10    0.03    0.06
   1  -3 -10    0.33    0.08
  -1   3  10    0.40    0.10
  -1   3  10    0.35    0.08
   0  -3 -10   -0.03    0.05
   0   3  10    0.00    0.05
   0   3  10    0.01    0.04
  -1  -3 -10    0.07    0.06
   1   3  10    0.05    0.06
   1   3  10    0.05    0.05
  -2  -3 -10    0.09    0.06
   2   3  10    0.11    0.06
   2   3  10    0.09    0.05
  -3  -3 -10    0.45    0.08
   3   3  10    0.27    0.07
   3   3  10    0.10    0.06
  -4  -3 -10    0.07    0.05
   4   3  10    0.05    0.05
   4   3  10    0.05    0.05
  -5  -3 -10   -0.01    0.05
   5   3  10    0.02    0.05
  -6  -3 -10    0.40    0.09
  -7  -3 -10    0.08    0.06
   7   3  10    0.09    0.07
  -8  -3 -10   -0.04    0.06
  -4   4  10    1.28    0.16
   3  -4 -10    0.08    0.05
  -3   4  10    0.06    0.06
   2  -4 -10    0.04    0.05
  -2   4  10    0.04    0.05
   1  -4 -10    0.16    0.07
  -1   4  10    0.16    0.08
  -1   4  10    0.06    0.05
   0  -4 -10    0.47    0.09
   0   4  10    0.41    0.09
   0   4  10    0.32    0.09
  -1  -4 -10    1.14    0.14
   1   4  10    1.17    0.14
   1   4  10    1.37    0.16
  -2  -4 -10    0.98    0.12
   2   4  10    1.30    0.16
   2   4  10    0.99    0.13
   3   4  10    0.03    0.05
   3   4  10    0.03    0.05
  -4  -4 -10    0.06    0.05
   4   4  10    0.06    0.05
   4   4  10    0.01    0.05
  -5  -4 -10    0.30    0.07
   5   4  10    0.12    0.05
   5   4  10    0.15    0.07
  -6  -4 -10    0.06    0.06
   6   4  10    0.00    0.05
   6   4  10   -0.01    0.05
  -7  -4 -10   -0.01    0.06
   7   4  10   -0.04    0.05
   3  -5 -10   -0.03    0.05
  -3   5  10    0.06    0.06
   2  -5 -10   -0.02    0.05
  -2   5  10    0.01    0.05
   1  -5 -10    0.05    0.06
  -1   5  10    0.08    0.06
  -1   5  10    0.04    0.06
   0  -5 -10    0.67    0.11
   0   5  10    1.08    0.15
   0   5  10    0.78    0.12
  -1  -5 -10    0.17    0.07
   1   5  10    0.35    0.09
   1   5  10    0.28    0.08
  -2  -5 -10    0.74    0.11
   2   5  10    0.65    0.11
   2   5  10    0.86    0.13
   3   5  10    1.03    0.14
   3   5  10    1.37    0.15
   4   5  10    0.08    0.06
   4   5  10    0.05    0.05
   5   5  10    0.01    0.06
   5   5  10    0.01    0.05
  -6  -5 -10    0.01    0.05
   6   5  10    0.04    0.06
   6   5  10    0.11    0.07
  -7  -5 -10    0.04    0.06
   7   5  10   -0.01    0.06
   7   5  10    0.06    0.06
   2  -6 -10   -0.05    0.05
   1  -6 -10    0.02    0.05
  -1   6  10   -0.03    0.06
  -1   6  10   -0.04    0.04
   0  -6 -10    0.19    0.08
   0   6  10    0.32    0.08
   0   6  10    0.38    0.10
  -1  -6 -10    0.16    0.07
   1   6  10   -0.01    0.06
   1   6  10    0.23    0.08
  -2  -6 -10    0.10    0.06
   2   6  10    0.06    0.06
   2   6  10   -0.01    0.06
   3   6  10    0.16    0.07
   3   6  10    0.19    0.08
   4   6  10    0.28    0.08
   4   6  10    0.23    0.07
   5   6  10    0.01    0.06
   5   6  10   -0.03    0.05
   6   6  10    0.02    0.06
   6   6  10    0.03    0.06
  -7  -6 -10   -0.06    0.06
   7   6  10    0.06    0.07
   0  -7 -10    0.06    0.07
   0   7  10    0.04    0.07
  -1  -7 -10    0.06    0.06
   1   7  10    0.00    0.06
   1   7  10    0.01    0.04
  -2  -7 -10    0.05    0.06
   2   7  10   -0.01    0.05
   2   7  10    0.00    0.06
   3   7  10    0.20    0.08
   3   7  10    0.04    0.06
   4   7  10    0.02    0.05
   4   7  10    0.02    0.06
   5   7  10    0.05    0.06
   5   7  10   -0.06    0.05
   6   7  10    0.01    0.06
   6   7  10   -0.01    0.06
   1   5 -11    0.29    0.09
   0   5 -11    0.13    0.08
   0  -5  11    0.16    0.09
  -1   5 -11    0.18    0.08
   1  -5  11    0.03    0.07
   2  -5  11    0.06    0.07
   2   4 -11    0.19    0.06
   2   4 -11    0.00    0.06
  -2  -4  11    0.05    0.08
   1   4 -11    0.02    0.04
   1   4 -11   -0.03    0.06
  -1  -4  11    0.02    0.07
   0   4 -11    0.49    0.11
   0   4 -11    0.39    0.08
   0  -4  11    0.29    0.10
  -1   4 -11    0.10    0.07
  -1   4 -11    0.12    0.05
   1  -4  11    0.08    0.07
  -2   4 -11    0.38    0.08
   2  -4  11    0.32    0.09
   2  -4  11    0.42    0.10
  -3   4 -11    0.01    0.04
   3  -4  11    0.07    0.07
   3  -4  11    0.00    0.06
   4  -4  11    0.02    0.07
   3   3 -11    0.02    0.04
   3   3 -11    0.03    0.06
   2   3 -11    0.07    0.06
   2   3 -11    0.09    0.05
  -2  -3  11    0.01    0.08
   1   3 -11    0.14    0.07
   1   3 -11    0.17    0.06
  -1  -3  11    0.01    0.07
   0   3 -11    0.06    0.04
   0   3 -11    0.08    0.06
   0  -3  11    0.05    0.07
  -1   3 -11    0.13    0.07
  -1   3 -11    0.22    0.06
   1  -3  11    0.13    0.08
   1  -3  11    0.24    0.09
  -2   3 -11    0.48    0.09
   2  -3  11    0.56    0.11
   2  -3  11    0.61    0.11
  -3   3 -11    0.10    0.05
   3  -3  11    0.16    0.08
   3  -3  11    0.07    0.07
  -4   3 -11   -0.03    0.04
   4  -3  11    0.00    0.06
   4  -3  11    0.03    0.06
   5  -3  11    0.05    0.07
   3   2 -11    0.00    0.05
   2   2 -11    0.88    0.10
   2   2 -11    0.75    0.12
  -2  -2  11    1.05    0.16
   1   2 -11    0.12    0.07
   1   2 -11    0.12    0.05
  -1  -2  11    0.00    0.07
   0   2 -11    0.01    0.05
   0   2 -11   -0.04    0.03
   0  -2  11    0.01    0.06
  -1   2 -11    0.25    0.08
  -1   2 -11    0.48    0.08
   1  -2  11    0.47    0.11
   1  -2  11    0.57    0.10
  -2   2 -11    0.42    0.09
  -2   2 -11    0.55    0.09
   2  -2  11    0.29    0.09
   2  -2  11    0.31    0.09
  -3   2 -11    1.03    0.12
   3  -2  11    0.65    0.11
   3  -2  11    1.12    0.14
  -4   2 -11   -0.05    0.04
   4  -2  11    0.01    0.06
   4  -2  11    0.11    0.07
  -5   2 -11    0.50    0.10
   6  -2  11    0.06    0.07
   4   1 -11    0.00    0.06
   3   1 -11    0.11    0.06
   2   1 -11    0.07    0.06
  -2  -1  11    0.24    0.09
   1   1 -11    0.08    0.06
   1   1 -11    0.09    0.05
  -1  -1  11    0.15    0.08
   0   1 -11   -0.02    0.03
   0   1 -11    0.01    0.05
   0  -1  11   -0.04    0.04
   0  -1  11   -0.01    0.06
  -1   1 -11    2.20    0.14
  -1   1 -11    2.52    0.18
   1  -1  11    2.43    0.19
  -2   1 -11    0.25    0.08
  -2   1 -11    0.25    0.06
   2  -1  11    0.32    0.09
  -3   1 -11    0.15    0.06
   3  -1  11    0.17    0.07
  -4   1 -11   -0.05    0.04
   4  -1  11    0.05    0.06
  -5   1 -11    0.57    0.10
   5  -1  11    0.22    0.06
  -6   1 -11    0.01    0.06
   6  -1  11    0.03    0.07
   4   0 -11    0.09    0.07
   4   0 -11    0.04    0.05
   3   0 -11   -0.05    0.05
   2   0 -11   -0.01    0.05
  -2   0  11    0.04    0.07
   1   0 -11    0.15    0.07
  -1   0  11    0.10    0.06
  -1   0  11    0.15    0.08
   0   0 -11    0.03    0.05
   0   0 -11    0.07    0.06
   0   0  11   -0.01    0.05
   0   0  11    0.12    0.07
  -1   0 -11    0.55    0.09
  -1   0 -11    0.42    0.09
   1   0  11    0.58    0.12
   1   0  11    0.36    0.09
  -2   0 -11    0.64    0.10
  -2   0 -11    0.51    0.10
   2   0  11    0.68    0.12
  -3   0 -11    0.05    0.05
   3   0  11    0.10    0.07
  -4   0 -11    0.02    0.04
   4   0  11    0.10    0.07
  -5   0 -11    0.21    0.07
   5   0  11    0.07    0.07
  -6   0 -11    0.28    0.08
   6   0  11    0.12    0.05
   7   0  11    0.04    0.07
   4  -1 -11    0.10    0.05
   3  -1 -11    0.15    0.06
   2  -1 -11    0.04    0.06
  -2   1  11    0.00    0.06
  -2   1  11    0.08    0.06
   1  -1 -11    0.11    0.07
  -1   1  11    0.22    0.07
  -1   1  11    0.11    0.07
   0  -1 -11    0.04    0.06
   0   1  11    0.07    0.06
   0   1  11   -0.04    0.06
  -1  -1 -11    0.24    0.07
  -1  -1 -11    0.19    0.07
   1   1  11    0.22    0.07
   1   1  11    0.08    0.07
  -2  -1 -11    0.91    0.12
  -2  -1 -11    1.19    0.12
   2   1  11    1.06    0.14
   2   1  11    1.25    0.16
  -3  -1 -11   -0.01    0.04
   3   1  11    0.10    0.07
  -4  -1 -11    0.29    0.07
   4   1  11    0.10    0.05
  -5  -1 -11    0.26    0.07
   5   1  11    0.06    0.05
  -6  -1 -11    0.02    0.05
   6   1  11    0.06    0.07
   7   1  11   -0.03    0.06
   3  -2 -11    0.04    0.06
  -3   2  11    0.02    0.06
   2  -2 -11    0.40    0.09
  -2   2  11    0.43    0.10
   1  -2 -11    0.85    0.13
  -1   2  11    0.83    0.13
  -1   2  11    0.85    0.13
   0  -2 -11    0.00    0.05
   0   2  11   -0.02    0.06
   0   2  11   -0.03    0.04
  -1  -2 -11    0.15    0.06
   1   2  11    0.08    0.06
   1   2  11    0.17    0.08
  -2  -2 -11    0.03    0.06
   2   2  11    0.01    0.06
   2   2  11    0.01    0.05
  -3  -2 -11    0.39    0.07
   3   2  11    0.42    0.09
  -4  -2 -11    0.10    0.05
   4   2  11    0.07    0.06
  -5  -2 -11    0.43    0.09
   5   2  11    0.22    0.07
  -6  -2 -11   -0.01    0.05
   6   2  11    0.02    0.06
   7   2  11   -0.04    0.06
   3  -3 -11    0.07    0.06
  -3   3  11    0.16    0.08
   2  -3 -11    0.01    0.06
  -2   3  11    0.03    0.06
   1  -3 -11    0.28    0.09
  -1   3  11    0.31    0.09
  -1   3  11    0.12    0.07
   0  -3 -11   -0.01    0.05
   0   3  11    0.00    0.06
   0   3  11    0.02    0.05
  -1  -3 -11    0.14    0.07
   1   3  11    0.08    0.07
   1   3  11    0.03    0.05
  -2  -3 -11    0.05    0.06
   2   3  11    0.00    0.04
   2   3  11   -0.04    0.06
   3   3  11   -0.02    0.04
   3   3  11    0.01    0.05
  -4  -3 -11   -0.05    0.05
   4   3  11   -0.01    0.06
   4   3  11    0.06    0.06
  -5  -3 -11    0.02    0.05
   5   3  11    0.09    0.07
  -6  -3 -11    0.09    0.07
   6   3  11   -0.02    0.06
  -7  -3 -11    0.01    0.06
   7   3  11   -0.04    0.06
   2  -4 -11    0.06    0.06
  -2   4  11    0.10    0.06
   1  -4 -11    0.02    0.06
  -1   4  11   -0.02    0.05
  -1   4  11   -0.02    0.06
   0  -4 -11    0.10    0.07
   0   4  11    0.00    0.06
   0   4  11    0.01    0.04
  -1  -4 -11    0.19    0.08
   1   4  11    0.33    0.10
   1   4  11    0.26    0.08
  -2  -4 -11    0.52    0.10
   2   4  11    0.50    0.10
   2   4  11    0.60    0.12
   3   4  11    0.06    0.06
   3   4  11    0.05    0.05
   4   4  11    0.01    0.05
   4   4  11   -0.05    0.04
  -5  -4 -11    0.01    0.06
   5   4  11    0.04    0.06
   5   4  11    0.99    0.15
  -6  -4 -11   -0.01    0.06
   6   4  11    0.00    0.05
   6   4  11    0.05    0.07
   7   4  11    0.03    0.07
   1  -5 -11    0.04    0.06
  -1   5  11    0.00    0.06
   0  -5 -11    0.01    0.06
   0   5  11   -0.04    0.06
   0   5  11    0.05    0.06
  -1  -5 -11    0.01    0.06
   1   5  11    0.12    0.06
   1   5  11    0.04    0.06
  -2  -5 -11    0.23    0.08
   2   5  11    0.14    0.07
   2   5  11    0.10    0.06
   3   5  11    0.05    0.05
   3   5  11    0.09    0.06
   4   5  11    0.11    0.07
   4   5  11    0.08    0.06
   5   5  11    0.07    0.07
   5   5  11    0.01    0.04
   6   5  11    0.03    0.04
   6   5  11    0.00    0.06
   0  -6 -11    0.02    0.06
   0   6  11    0.08    0.07
  -1  -6 -11    0.13    0.07
   1   6  11    0.16    0.09
  -2  -6 -11    0.17    0.08
   2   6  11    0.07    0.07
   3   6  11    0.05    0.06
   3   6  11    0.01    0.06
   4   6  11    0.13    0.07
   4   6  11    0.06    0.05
   5   6  11    0.07    0.07
   0   3 -12    0.03    0.06
   0  -3  12   -0.01    0.07
  -1   3 -12    0.19    0.08
   1  -3  12    0.16    0.09
   2  -3  12    0.42    0.10
   1   2 -12    0.02    0.06
   1   2 -12    0.11    0.06
  -1  -2  12   -0.03    0.07
   0   2 -12    0.08    0.06
   0   2 -12   -0.04    0.06
   0  -2  12    0.06    0.08
  -1   2 -12    0.10    0.06
  -1   2 -12    0.01    0.06
   1  -2  12    0.02    0.07
  -2   2 -12    0.05    0.05
   2  -2  12    0.01    0.07
   2  -2  12    0.07    0.07
   3  -2  12    0.00    0.06
   4  -2  12    0.15    0.06
   2   1 -12    0.03    0.06
   1   1 -12    0.04    0.06
  -1  -1  12    0.06    0.09
   0   1 -12    0.05    0.05
   0   1 -12    0.05    0.07
   0  -1  12    0.13    0.09
   0  -1  12    0.15    0.08
  -1   1 -12    0.07    0.06
  -1   1 -12    0.01    0.05
   1  -1  12    0.01    0.07
  -2   1 -12   -0.03    0.05
   2  -1  12    0.02    0.07
  -3   1 -12    0.18    0.06
   3  -1  12    0.09    0.07
  -4   1 -12    0.43    0.09
   4  -1  12    0.16    0.06
   5  -1  12   -0.04    0.06
   2   0 -12    0.11    0.07
   1   0 -12    0.07    0.07
  -1   0  12   -0.05    0.07
   0   0 -12    0.23    0.08
   0   0  12    0.29    0.09
   0   0  12    0.48    0.12
  -1   0 -12    0.08    0.06
  -1   0 -12    0.03    0.06
   1   0  12    0.00    0.05
   1   0  12   -0.03    0.06
  -2   0 -12   -0.01    0.05
  -2   0 -12   -0.02    0.05
   2   0  12   -0.02    0.06
  -3   0 -12    0.24    0.07
   3   0  12    0.19    0.07
  -4   0 -12    0.17    0.07
   4   0  12    0.07    0.05
   5   0  12    0.13    0.08
   2  -1 -12    0.44    0.10
   1  -1 -12    0.08    0.07
  -1   1  12    0.08    0.07
  -1   1  12    0.16    0.09
   0  -1 -12    0.29    0.09
   0   1  12    0.18    0.09
   0   1  12    0.13    0.07
  -1  -1 -12    0.11    0.07
   1   1  12    0.05    0.07
   1   1  12    0.12    0.07
  -2  -1 -12    0.13    0.07
  -2  -1 -12    0.25    0.07
   2   1  12    0.13    0.07
   2   1  12    0.17    0.07
  -3  -1 -12    0.48    0.09
   3   1  12    0.31    0.08
  -4  -1 -12   -0.01    0.05
   4   1  12   -0.02    0.07
  -5  -1 -12    0.08    0.06
   5   1  12    0.04    0.07
   1  -2 -12    0.02    0.06
  -1   2  12    0.04    0.06
  -1   2  12   -0.07    0.07
   0  -2 -12    0.04    0.06
   0   2  12    0.05    0.07
  -1  -2 -12    0.02    0.06
   1   2  12    0.02    0.06
   1   2  12   -0.07    0.06
  -2  -2 -12    0.43    0.10
   2   2  12    0.17    0.07
   2   2  12    0.56    0.12
   3   2  12    0.32    0.08
   3   2  12    0.11    0.06
  -4  -2 -12    0.65    0.11
   4   2  12    0.29    0.09
  -5  -2 -12   -0.02    0.05
   5   2  12   -0.02    0.06
   1  -3 -12    0.02    0.06
  -1   3  12    0.13    0.09
   0  -3 -12    0.05    0.06
   0   3  12    0.04    0.06
   0   3  12   -0.04    0.06
  -1  -3 -12    0.15    0.07
   1   3  12    0.20    0.09
   1   3  12    0.19    0.08
  -2  -3 -12    0.19    0.08
   2   3  12    0.08    0.06
   2   3  12    0.07    0.07
   3   3  12    0.22    0.07
   3   3  12    0.28    0.08
   4   3  12    0.38    0.10
   4   3  12    0.18    0.06
  -5  -3 -12    0.18    0.08
   5   3  12    0.06    0.07
   0  -4 -12    0.01    0.06
   0   4  12    0.07    0.08
  -1  -4 -12    0.57    0.11
   1   4  12    0.63    0.13
  -2  -4 -12    0.04    0.06
   2   4  12   -0.07    0.06
   3   4  12    0.02    0.06
   4   4  12    0.11    0.08
   0   0   0    0.00    0.00
;
_shelx_hkl_checksum              68119
_shelx_res_file
;
    shelx.res created by SHELXL-2014/7
TITL SM in P-1
CELL  0.71073   8.7208   8.7703   9.6278   86.035   80.227   79.352
ZERR     2.00   0.0004   0.0003   0.0004    0.003    0.003    0.003
LATT   1
SFAC  C    H    N    O    CL
UNIT  34 22 4 4 2
MERG   2
MPLA 5 C9 C17 C16 C11 O2 C10
EQIV $1 2-X,1-Y,2-Z
EQIV $2 1-X,3-Y,2-Z
EQIV $3 -1+X,+Y,1+Z
HTAB C5 O1_$2
HTAB C14 Cl1_$1
HTAB C2 O2_$3
FMAP   2
PLAN   20
SIZE     0.200   0.280   0.400
ACTA
BOND   $H
CONF
L.S.   4
TEMP    23.00
WGHT    0.062900    0.053700
FVAR       0.16708
CL1   5    0.521152    0.917810    1.302739    11.00000    0.06981    0.04909 =
         0.06570    0.01437   -0.00077    0.00122
O1    4    0.619100    1.274997    0.957445    11.00000    0.05637    0.04091 =
         0.05296    0.00624    0.00214    0.00049
O2    4    1.093608    0.893569    0.619022    11.00000    0.06358    0.06182 =
         0.04352    0.00270    0.00582    0.00299
N1    3    0.696509    1.035741    1.035181    11.00000    0.03997    0.03817 =
         0.04433    0.00071   -0.00397   -0.00249
N2    3    0.751449    1.211760    0.860472    11.00000    0.05423    0.04721 =
         0.05104    0.00381    0.00328   -0.00003
C3    1    0.210946    1.302881    1.385355    11.00000    0.05268    0.06409 =
         0.05884   -0.01519    0.00004   -0.00507
AFIX  43
H3    2    0.126408    1.335247    1.455915    11.00000   -1.20000
AFIX   0
C4    1    0.252803    1.404167    1.275376    11.00000    0.05639    0.04826 =
         0.07060   -0.00861   -0.00312    0.00044
AFIX  43
H4    2    0.196913    1.505154    1.272022    11.00000   -1.20000
AFIX   0
C5    1    0.375870    1.356298    1.171807    11.00000    0.05326    0.04064 =
         0.05952   -0.00160   -0.00217   -0.00282
AFIX  43
H5    2    0.401939    1.425891    1.098059    11.00000   -1.20000
AFIX   0
C6    1    0.464850    1.205758    1.172254    11.00000    0.03898    0.03895 =
         0.04568   -0.00399   -0.00899   -0.00639
C7    1    0.595136    1.163060    1.058492    11.00000    0.04240    0.03740 =
         0.04180    0.00135   -0.01016   -0.00834
C8    1    0.790572    1.070786    0.912452    11.00000    0.03988    0.04233 =
         0.04081    0.00183   -0.00804   -0.00737
C9    1    0.924059    0.962736    0.843047    11.00000    0.03820    0.04464 =
         0.03867   -0.00331   -0.00451   -0.00614
C17   1    0.967690    0.819239    0.895775    11.00000    0.04150    0.04534 =
         0.03834   -0.00008   -0.00343   -0.00773
AFIX  43
H17   2    0.914268    0.786570    0.981391    11.00000   -1.20000
AFIX   0
C16   1    1.097807    0.714862    0.819817    11.00000    0.03653    0.04537 =
         0.04551   -0.00547   -0.00447   -0.00654
C11   1    1.155120    0.755491    0.680739    11.00000    0.04327    0.05381 =
         0.04793   -0.00169   -0.00358   -0.00546
C12   1    1.267786    0.653932    0.598068    11.00000    0.05729    0.07317 =
         0.05478   -0.00844    0.00982   -0.00214
AFIX  43
H12   2    1.303560    0.681698    0.504850    11.00000   -1.20000
AFIX   0
C13   1    1.326775    0.511233    0.654680    11.00000    0.05878    0.06731 =
         0.07547   -0.01802    0.00501    0.00680
AFIX  43
H13   2    1.401820    0.442157    0.598677    11.00000   -1.20000
AFIX   0
C15   1    1.161877    0.570158    0.874884    11.00000    0.05017    0.04705 =
         0.05653   -0.00041   -0.00448   -0.00262
AFIX  43
H15   2    1.126963    0.541377    0.968021    11.00000   -1.20000
AFIX   0
C14   1    1.276562    0.469068    0.792767    11.00000    0.05741    0.04966 =
         0.07670   -0.00710   -0.00464    0.00342
AFIX  43
H14   2    1.319368    0.373361    0.830630    11.00000   -1.20000
AFIX   0
C10   1    1.020453    1.017632    0.710797    11.00000    0.05700    0.05199 =
         0.04744    0.00471    0.00157   -0.00336
AFIX  23
H10A  2    0.952640    1.094481    0.660731    11.00000   -1.20000
H10B  2    1.101745    1.067397    0.736208    11.00000   -1.20000
AFIX   0
C1    1    0.421565    1.105211    1.285797    11.00000    0.04345    0.04444 =
         0.04678   -0.00215   -0.00946   -0.00646
C2    1    0.294467    1.153931    1.390471    11.00000    0.05569    0.06249 =
         0.04578   -0.00116   -0.00301   -0.01247
AFIX  43
H2    2    0.265772    1.085462    1.464327    11.00000   -1.20000
AFIX   0
HKLF 4  1.0  1.00  0.00  0.00  0.00  1.00  0.00  0.00  0.00  1.00
REM  SM in P-1
REM R1 =  0.0457 for    2452 Fo > 4sig(Fo)  and  0.0684 for all    3518 data
REM    199 parameters refined using      0 restraints
END
WGHT      0.0629      0.0537
REM Highest difference peak  0.378,  deepest hole -0.258,  1-sigma level  0.040
Q1    1   1.1132  1.1128  0.7290  11.00000  0.05    0.38
Q2    1   0.4483  1.1534  1.2142  11.00000  0.05    0.21
Q3    1   0.8685  1.0210  0.8868  11.00000  0.05    0.19
Q4    1   1.0412  0.7736  0.8618  11.00000  0.05    0.19
Q5    1   0.9186  0.8859  0.8559  11.00000  0.05    0.17
Q6    1   0.3799  1.1336  1.3381  11.00000  0.05    0.17
Q7    1   0.1005  1.3401  1.5389  11.00000  0.05    0.17
Q8    1   1.0995  0.6093  0.8183  11.00000  0.05    0.16
Q9    1   0.6077  1.0848  1.0394  11.00000  0.05    0.16
Q10   1   0.9822  0.9849  0.7859  11.00000  0.05    0.15
Q11   1   1.2492  0.7259  0.6578  11.00000  0.05    0.15
Q12   1   0.5633  1.0032  1.3205  11.00000  0.05    0.15
Q13   1   1.1441  0.8139  0.6686  11.00000  0.05    0.14
Q14   1   1.1304  0.7148  0.7475  11.00000  0.05    0.14
Q15   1   0.3779  1.3711  1.1361  11.00000  0.05    0.14
Q16   1   0.5884  1.1991  1.0063  11.00000  0.05    0.14
Q17   1   0.6886  0.9652  1.0682  11.00000  0.05    0.13
Q18   1   1.1407  0.6822  0.8436  11.00000  0.05    0.13
Q19   1   0.4505  1.2797  1.1968  11.00000  0.05    0.13
Q20   1   1.1767  0.4998  0.8166  11.00000  0.05    0.13
;
_shelx_res_checksum              60051
loop_
_space_group_symop_operation_xyz
'x, y, z'
'-x, -y, -z'
loop_
_atom_site_type_symbol
_atom_site_label
_atom_site_fract_x
_atom_site_fract_y
_atom_site_fract_z
_atom_site_U_iso_or_equiv
_atom_site_adp_type
_atom_site_calc_flag
_atom_site_occupancy
Cl Cl1 0.52115(6) 0.91781(6) 1.30274(6) 0.0650(2) Uani d 1
O O1 0.61910(15) 1.27500(14) 0.95744(13) 0.0529(3) Uani d 1
O O2 1.09361(16) 0.89357(16) 0.61902(13) 0.0601(4) Uani d 1
N N1 0.69651(16) 1.03574(15) 1.03518(15) 0.0418(3) Uani d 1
N N2 0.75145(19) 1.21176(18) 0.86047(16) 0.0536(4) Uani d 1
C C3 0.2109(2) 1.3029(2) 1.3854(2) 0.0597(5) Uani d 1
H H3 0.1264 1.3352 1.4559 0.072 Uiso calc 1
C C4 0.2528(2) 1.4042(2) 1.2754(2) 0.0602(5) Uani d 1
H H4 0.1969 1.5052 1.2720 0.072 Uiso calc 1
C C5 0.3759(2) 1.3563(2) 1.1718(2) 0.0527(5) Uani d 1
H H5 0.4019 1.4259 1.0981 0.063 Uiso calc 1
C C6 0.4649(2) 1.20576(19) 1.17225(18) 0.0409(4) Uani d 1
C C7 0.5951(2) 1.16306(19) 1.05849(18) 0.0401(4) Uani d 1
C C8 0.7906(2) 1.07079(19) 0.91245(17) 0.0410(4) Uani d 1
C C9 0.9241(2) 0.9627(2) 0.84305(17) 0.0408(4) Uani d 1
C C17 0.9677(2) 0.81924(19) 0.89577(18) 0.0421(4) Uani d 1
H H17 0.9143 0.7866 0.9814 0.051 Uiso calc 1
C C16 1.09781(19) 0.71486(19) 0.81982(18) 0.0426(4) Uani d 1
C C11 1.1551(2) 0.7555(2) 0.6807(2) 0.0492(4) Uani d 1
C C12 1.2678(3) 0.6539(3) 0.5981(2) 0.0649(6) Uani d 1
H H12 1.3036 0.6817 0.5048 0.078 Uiso calc 1
C C13 1.3268(3) 0.5112(3) 0.6547(3) 0.0706(6) Uani d 1
H H13 1.4018 0.4422 0.5987 0.085 Uiso calc 1
C C15 1.1619(2) 0.5702(2) 0.8749(2) 0.0526(5) Uani d 1
H H15 1.1270 0.5414 0.9680 0.063 Uiso calc 1
C C14 1.2766(3) 0.4691(2) 0.7928(2) 0.0634(6) Uani d 1
H H14 1.3194 0.3734 0.8306 0.076 Uiso calc 1
C C10 1.0205(2) 1.0176(2) 0.7108(2) 0.0544(5) Uani d 1
H H10A 0.9526 1.0945 0.6607 0.065 Uiso calc 1
H H10B 1.1017 1.0674 0.7362 0.065 Uiso calc 1
C C1 0.4216(2) 1.1052(2) 1.28580(19) 0.0448(4) Uani d 1
C C2 0.2945(2) 1.1539(2) 1.3905(2) 0.0550(5) Uani d 1
H H2 0.2658 1.0855 1.4643 0.066 Uiso calc 1
loop_
_atom_site_aniso_label
_atom_site_aniso_U_11
_atom_site_aniso_U_22
_atom_site_aniso_U_33
_atom_site_aniso_U_12
_atom_site_aniso_U_13
_atom_site_aniso_U_23
Cl1 0.0698(4) 0.0491(3) 0.0657(3) 0.0012(2) -0.0008(3) 0.0144(2)
O1 0.0564(8) 0.0409(7) 0.0530(7) 0.0005(6) 0.0021(6) 0.0062(6)
O2 0.0636(9) 0.0618(8) 0.0435(7) 0.0030(7) 0.0058(6) 0.0027(6)
N1 0.0400(8) 0.0382(7) 0.0443(8) -0.0025(6) -0.0040(6) 0.0007(6)
N2 0.0542(10) 0.0472(8) 0.0510(9) 0.0000(7) 0.0033(7) 0.0038(7)
C3 0.0527(12) 0.0641(13) 0.0588(12) -0.0051(10) 0.0000(10) -0.0152(10)
C4 0.0564(12) 0.0483(11) 0.0706(14) 0.0004(9) -0.0031(11) -0.0086(10)
C5 0.0533(11) 0.0406(10) 0.0595(12) -0.0028(8) -0.0022(9) -0.0016(8)
C6 0.0390(9) 0.0390(9) 0.0457(9) -0.0064(7) -0.0090(8) -0.0040(7)
C7 0.0424(9) 0.0374(8) 0.0418(9) -0.0083(7) -0.0102(7) 0.0014(7)
C8 0.0399(9) 0.0423(9) 0.0408(9) -0.0074(7) -0.0080(7) 0.0018(7)
C9 0.0382(9) 0.0446(9) 0.0387(9) -0.0061(7) -0.0045(7) -0.0033(7)
C17 0.0415(9) 0.0453(9) 0.0383(9) -0.0077(8) -0.0034(7) -0.0001(7)
C16 0.0365(9) 0.0454(9) 0.0455(9) -0.0065(7) -0.0045(7) -0.0055(7)
C11 0.0433(10) 0.0538(11) 0.0479(10) -0.0055(8) -0.0036(8) -0.0017(8)
C12 0.0573(13) 0.0732(14) 0.0548(12) -0.0021(11) 0.0098(10) -0.0084(10)
C13 0.0588(13) 0.0673(14) 0.0755(15) 0.0068(11) 0.0050(12) -0.0180(12)
C15 0.0502(11) 0.0470(10) 0.0565(11) -0.0026(8) -0.0045(9) -0.0004(8)
C14 0.0574(13) 0.0497(11) 0.0767(15) 0.0034(9) -0.0046(11) -0.0071(10)
C10 0.0570(12) 0.0520(11) 0.0474(10) -0.0034(9) 0.0016(9) 0.0047(8)
C1 0.0434(10) 0.0444(9) 0.0468(10) -0.0065(8) -0.0095(8) -0.0021(8)
C2 0.0557(12) 0.0625(12) 0.0458(10) -0.0125(10) -0.0030(9) -0.0012(9)
loop_
_atom_type_symbol
_atom_type_description
_atom_type_scat_dispersion_real
_atom_type_scat_dispersion_imag
_atom_type_scat_source
C C 0.0033 0.0016 'International Tables Vol C Tables 4.2.6.8 and 6.1.1.4'
H H 0.0000 0.0000 'International Tables Vol C Tables 4.2.6.8 and 6.1.1.4'
N N 0.0061 0.0033 'International Tables Vol C Tables 4.2.6.8 and 6.1.1.4'
O O 0.0106 0.0060 'International Tables Vol C Tables 4.2.6.8 and 6.1.1.4'
Cl Cl 0.1484 0.1585 'International Tables Vol C Tables 4.2.6.8 and 6.1.1.4'
loop_
_geom_angle_atom_site_label_1
_geom_angle_atom_site_label_2
_geom_angle_atom_site_label_3
_geom_angle
C7 O1 N2 106.58(12)
C11 O2 C10 117.19(14)
C7 N1 C8 103.21(14)
C8 N2 O1 103.13(13)
C2 C3 C4 119.87(19)
C2 C3 H3 120.1
C4 C3 H3 120.1
C5 C4 C3 119.97(18)
C5 C4 H4 120.0
C3 C4 H4 120.0
C4 C5 C6 122.36(19)
C4 C5 H5 118.8
C6 C5 H5 118.8
C1 C6 C5 116.77(17)
C1 C6 C7 123.92(15)
C5 C6 C7 119.31(16)
N1 C7 O1 112.46(15)
N1 C7 C6 131.83(16)
O1 C7 C6 115.70(14)
N2 C8 N1 114.61(15)
N2 C8 C9 121.46(16)
N1 C8 C9 123.93(15)
C17 C9 C8 122.38(16)
C17 C9 C10 119.06(16)
C8 C9 C10 118.51(15)
C9 C17 C16 120.03(16)
C9 C17 H17 120.0
C16 C17 H17 120.0
C11 C16 C15 118.04(17)
C11 C16 C17 118.38(16)
C15 C16 C17 123.41(17)
O2 C11 C12 117.82(17)
O2 C11 C16 120.90(16)
C12 C11 C16 121.14(18)
C13 C12 C11 119.4(2)
C13 C12 H12 120.3
C11 C12 H12 120.3
C14 C13 C12 121.0(2)
C14 C13 H13 119.5
C12 C13 H13 119.5
C14 C15 C16 120.9(2)
C14 C15 H15 119.6
C16 C15 H15 119.6
C13 C14 C15 119.4(2)
C13 C14 H14 120.3
C15 C14 H14 120.3
O2 C10 C9 112.57(15)
O2 C10 H10A 109.1
C9 C10 H10A 109.1
O2 C10 H10B 109.1
C9 C10 H10B 109.1
H10A C10 H10B 107.8
C2 C1 C6 120.70(17)
C2 C1 Cl1 117.01(15)
C6 C1 Cl1 122.29(14)
C3 C2 C1 120.32(19)
C3 C2 H2 119.8
C1 C2 H2 119.8
loop_
_geom_bond_atom_site_label_1
_geom_bond_atom_site_label_2
_geom_bond_distance
Cl1 C1 1.7221(17)
O1 C7 1.352(2)
O1 N2 1.407(2)
O2 C11 1.370(2)
O2 C10 1.434(2)
N1 C7 1.297(2)
N1 C8 1.370(2)
N2 C8 1.308(2)
C3 C2 1.375(3)
C3 C4 1.379(3)
C3 H3 0.9300
C4 C5 1.360(3)
C4 H4 0.9300
C5 C6 1.403(2)
C5 H5 0.9300
C6 C1 1.402(3)
C6 C7 1.452(2)
C8 C9 1.454(2)
C9 C17 1.337(2)
C9 C10 1.504(3)
C17 C16 1.445(2)
C17 H17 0.9300
C16 C11 1.394(3)
C16 C15 1.396(2)
C11 C12 1.379(3)
C12 C13 1.375(3)
C12 H12 0.9300
C13 C14 1.375(3)
C13 H13 0.9300
C15 C14 1.383(3)
C15 H15 0.9300
C14 H14 0.9300
C10 H10A 0.9700
C10 H10B 0.9700
C1 C2 1.390(3)
C2 H2 0.9300
loop_
_geom_hbond_atom_site_label_D
_geom_hbond_atom_site_label_H
_geom_hbond_atom_site_label_A
_geom_hbond_site_symmetry_A
_geom_hbond_distance_DH
_geom_hbond_distance_HA
_geom_hbond_distance_DA
_geom_hbond_angle_DHA
C5 H5 O1 2_687 0.93 2.62 3.389(2) 140.4
C14 H14 Cl1 2_767 0.93 2.94 3.625(2) 131.7
C2 H2 O2 1_456 0.93 2.67 3.550(2) 157.9
loop_
_geom_torsion_atom_site_label_1
_geom_torsion_atom_site_label_2
_geom_torsion_atom_site_label_3
_geom_torsion_atom_site_label_4
_geom_torsion
C7 O1 N2 C8 0.60(18)
C2 C3 C4 C5 0.4(3)
C3 C4 C5 C6 -0.5(3)
C4 C5 C6 C1 -0.2(3)
C4 C5 C6 C7 -179.70(17)
C8 N1 C7 O1 0.53(18)
C8 N1 C7 C6 -178.65(17)
N2 O1 C7 N1 -0.73(19)
N2 O1 C7 C6 178.58(14)
C1 C6 C7 N1 -1.2(3)
C5 C6 C7 N1 178.26(17)
C1 C6 C7 O1 179.69(15)
C5 C6 C7 O1 -0.9(2)
O1 N2 C8 N1 -0.3(2)
O1 N2 C8 C9 179.76(15)
C7 N1 C8 N2 -0.1(2)
C7 N1 C8 C9 179.81(16)
N2 C8 C9 C17 178.75(16)
N1 C8 C9 C17 -1.2(3)
N2 C8 C9 C10 1.6(3)
N1 C8 C9 C10 -178.30(16)
C8 C9 C17 C16 177.80(15)
C10 C9 C17 C16 -5.1(3)
C9 C17 C16 C11 -12.2(3)
C9 C17 C16 C15 172.52(17)
C10 O2 C11 C12 -159.35(17)
C10 O2 C11 C16 24.9(3)
C15 C16 C11 O2 177.84(16)
C17 C16 C11 O2 2.3(3)
C15 C16 C11 C12 2.2(3)
C17 C16 C11 C12 -173.26(17)
O2 C11 C12 C13 -176.98(19)
C16 C11 C12 C13 -1.2(3)
C11 C12 C13 C14 -0.8(4)
C11 C16 C15 C14 -1.3(3)
C17 C16 C15 C14 173.99(18)
C12 C13 C14 C15 1.7(4)
C16 C15 C14 C13 -0.7(3)
C11 O2 C10 C9 -40.1(2)
C17 C9 C10 O2 30.5(2)
C8 C9 C10 O2 -152.22(15)
C5 C6 C1 C2 1.1(3)
C7 C6 C1 C2 -179.50(16)
C5 C6 C1 Cl1 -179.00(13)
C7 C6 C1 Cl1 0.4(2)
C4 C3 C2 C1 0.4(3)
C6 C1 C2 C3 -1.2(3)
Cl1 C1 C2 C3 178.89(15)

_cod_database_fobs_code 1548830
