#------------------------------------------------------------------------------
#$Date: 2017-11-18 08:27:06 +0200 (Sat, 18 Nov 2017) $
#$Revision: 203329 $
#$URL: file:///home/coder/svn-repositories/cod/cif/1/54/81/1548113.cif $
#------------------------------------------------------------------------------
#
# This file is available in the Crystallography Open Database (COD),
# http://www.crystallography.net/. The original data for this entry
# were provided by IUCr Journals, http://journals.iucr.org/.
#
# The file may be used within the scientific community so long as
# proper attribution is given to the journal article from which the
# data were obtained.
#
data_1548113
loop_
_publ_author_name
'Dakovi\'c, Marijana'
'Soldin, \<Zeljka'
'Kukovec, Boris-Marko'
'Kodrin, Ivan'
'Aaker\"oy, Christer B.'
'Baus, Nea'
'Rinkovec, Tamara'
_publ_section_title
;
 Building inorganic supramolecular architectures using principles adopted
 from the organic solid state
;
_journal_issue                   1
_journal_name_full               IUCrJ
_journal_page_first
;
;
_journal_paper_doi               10.1107/S2052252517015494
_journal_volume                  5
_journal_year                    2018
_chemical_formula_sum            'C8 H8 Br2 Cd N4 O2'
_chemical_formula_weight         464.40
_space_group_crystal_system      monoclinic
_space_group_IT_number           14
_space_group_name_Hall           '-P 2ybc'
_space_group_name_H-M_alt        'P 1 21/c 1'
_symmetry_space_group_name_Hall  '-P 2ybc'
_symmetry_space_group_name_H-M   'P 1 21/c 1'
_atom_sites_solution_hydrogens   mixed
_audit_creation_method           SHELXL-2014/7
_cell_angle_alpha                90
_cell_angle_beta                 92.442(5)
_cell_angle_gamma                90
_cell_formula_units_Z            2
_cell_length_a                   3.9043(2)
_cell_length_b                   7.7180(5)
_cell_length_c                   20.6142(14)
_cell_measurement_reflns_used    2209
_cell_measurement_temperature    296(2)
_cell_measurement_theta_max      29.1480
_cell_measurement_theta_min      4.7350
_cell_volume                     620.61(7)
_computing_structure_refinement  'SHELXL-2014/7 (Sheldrick, 2014)'
_diffrn_ambient_temperature      296(2)
_diffrn_measured_fraction_theta_full 0.995
_diffrn_measured_fraction_theta_max 0.995
_diffrn_measurement_device_type
'Oxford Diffraction Xcalibur2 diffractometer with Sapphire 3 CCD detector'
_diffrn_measurement_method       \w-scan
_diffrn_radiation_type           MoK\a
_diffrn_radiation_wavelength     0.71073
_diffrn_reflns_av_R_equivalents  0.0189
_diffrn_reflns_av_unetI/netI     0.0213
_diffrn_reflns_Laue_measured_fraction_full 0.995
_diffrn_reflns_Laue_measured_fraction_max 0.995
_diffrn_reflns_limit_h_max       4
_diffrn_reflns_limit_h_min       -4
_diffrn_reflns_limit_k_max       9
_diffrn_reflns_limit_k_min       -8
_diffrn_reflns_limit_l_max       24
_diffrn_reflns_limit_l_min       -24
_diffrn_reflns_number            3352
_diffrn_reflns_point_group_measured_fraction_full 0.995
_diffrn_reflns_point_group_measured_fraction_max 0.995
_diffrn_reflns_theta_full        24.999
_diffrn_reflns_theta_max         24.999
_diffrn_reflns_theta_min         4.759
_exptl_absorpt_coefficient_mu    8.192
_exptl_absorpt_correction_T_max  1.00000
_exptl_absorpt_correction_T_min  0.39753
_exptl_absorpt_correction_type   multi-scan
_exptl_absorpt_process_details
;
CrysAlisPro, Agilent Technologies,
Version 1.171.37.35 (release 13-08-2014 CrysAlis171 .NET)
(compiled Aug 13 2014,18:06:01)
Empirical absorption correction using spherical harmonics,
 implemented in SCALE3 ABSPACK scaling algorithm.
;
_exptl_crystal_colour            colourless
_exptl_crystal_density_diffrn    2.485
_exptl_crystal_description       prism
_exptl_crystal_F_000             436
_exptl_crystal_size_max          0.34
_exptl_crystal_size_mid          0.24
_exptl_crystal_size_min          0.16
_refine_diff_density_max         1.755
_refine_diff_density_min         -0.867
_refine_diff_density_rms         0.174
_refine_ls_extinction_coef       0.0199(16)
_refine_ls_extinction_expression Fc^*^=kFc[1+0.001xFc^2^\l^3^/sin(2\q)]^-1/4^
_refine_ls_extinction_method     'SHELXL-2014/7 (Sheldrick 2014'
_refine_ls_goodness_of_fit_ref   1.377
_refine_ls_hydrogen_treatment    mixed
_refine_ls_matrix_type           full
_refine_ls_number_parameters     83
_refine_ls_number_reflns         1092
_refine_ls_number_restraints     1
_refine_ls_restrained_S_all      1.376
_refine_ls_R_factor_all          0.0397
_refine_ls_R_factor_gt           0.0384
_refine_ls_shift/su_max          0.000
_refine_ls_shift/su_mean         0.000
_refine_ls_structure_factor_coef Fsqd
_refine_ls_weighting_details
'w=1/[\s^2^(Fo^2^)+8.8929P] where P=(Fo^2^+2Fc^2^)/3'
_refine_ls_weighting_scheme      calc
_refine_ls_wR_factor_gt          0.0989
_refine_ls_wR_factor_ref         0.0993
_reflns_Friedel_coverage         0.000
_reflns_number_gt                1037
_reflns_number_total             1092
_reflns_threshold_expression     'I > 2\s(I)'
_cod_data_source_file            lq5009.cif
_cod_data_source_block           2
_cod_database_code               1548113
_shelx_shelxl_version_number     2014/7
_shelx_space_group_comment
;
The symmetry employed for this shelxl refinement is uniquely defined
by the following loop, which should always be used as a source of
symmetry information in preference to the above space-group names.
They are only intended as comments.
;
_shelx_res_file
;

    shelxl.res created by SHELXL-2014/7


TITL exp_132 in P2(1)/c
CELL  0.71073   3.9043   7.7180  20.6142   90.000   92.442   90.000
ZERR     2.00   0.0002   0.0005   0.0014    0.000    0.005    0.000
LATT   1
SYMM  - X, 1/2 + Y, 1/2 - Z
SFAC  C    H    N    O    CD   BR
UNIT  16   16   8    4    2    4
MERG   2
OMIT    -1.00  50.00
DFIX 0.86 N2 H21
EQIV $1 -x, y-1/2, -z+1/2
HTAB N2 O1_$1
EQIV $2 x-1, y, z
HTAB C1 Br1_$2
EQIV $3 x, y-1, z
HTAB C3 Br1_$3
EQIV $4 -x+2, -y+1, -z+1
HTAB C4 Br1_$4
FMAP   2
PLAN   20
ACTA
BOND   $H
CONF
L.S.  10
HTAB
TEMP    23.00
WGHT    0.000000    8.892900
EXTI    0.019868
FVAR       4.79866
CD1   5    0.500000    0.500000    0.500000    10.50000    0.02068    0.02314 =
         0.02645   -0.00142   -0.00239   -0.00039
BR1   6    0.979675    0.706347    0.448436    11.00000    0.02440    0.02544 =
         0.03496    0.00598   -0.00190    0.00088
N1    3    0.448532    0.316286    0.402872    11.00000    0.03024    0.02015 =
         0.02604   -0.00077   -0.00133   -0.00079
N2    3    0.263692    0.081558    0.308799    11.00000    0.04213    0.02052 =
         0.02541   -0.00404   -0.00358   -0.00178
H21   2    0.176044    0.011485    0.280449    11.00000   -1.20000
O1    4   -0.012181    0.291482    0.251296    11.00000    0.08847    0.03206 =
         0.03727   -0.00052   -0.02934    0.01108
C1    1    0.277339    0.364894    0.350783    11.00000    0.04441    0.01937 =
         0.02643    0.00156    0.00101    0.00449
AFIX  43
H1    2    0.223467    0.481802    0.346404    11.00000   -1.20000
AFIX   0
C2    1    0.164710    0.249081    0.299039    11.00000    0.04344    0.02096 =
         0.03038    0.00373   -0.00530    0.00345
C3    1    0.445682    0.029048    0.362310    11.00000    0.04231    0.01971 =
         0.02841    0.00121   -0.00403    0.00105
AFIX  43
H3    2    0.508469   -0.086703    0.366821    11.00000   -1.20000
AFIX   0
C4    1    0.538041    0.144996    0.409840    11.00000    0.03540    0.02274 =
         0.03498   -0.00127   -0.00982   -0.00231
AFIX  43
H4    2    0.661383    0.108128    0.446891    11.00000   -1.20000

AFIX   0
HKLF 4

REM  exp_132 in P2(1)/c
REM R1 =  0.0384 for    1037 Fo > 4sig(Fo)  and  0.0397 for all    1092 data
REM     83 parameters refined using      1 restraints

END

WGHT      0.0000      8.8784

REM Instructions for potential hydrogen bonds
HTAB N2 O1_$1
HTAB C1 Br1_$2
HTAB C3 Br1_$3
HTAB C4 Br1_$4

REM Highest difference peak  1.755,  deepest hole -0.867,  1-sigma level  0.174
Q1    1   1.0000  0.5000  0.5000  10.50000  0.05    1.76
Q2    1   0.4837  0.7076  0.4494  11.00000  0.05    1.37
Q3    1   0.4793 -0.0781  0.3990  11.00000  0.05    1.19
Q4    1   0.7398  0.5024  0.4999  11.00000  0.05    0.90
Q5    1   0.9835 -0.0743  0.3994  11.00000  0.05    0.80
Q6    1   0.7474  0.2892  0.4487  11.00000  0.05    0.69
Q7    1   0.2215  0.2823  0.4508  11.00000  0.05    0.65
Q8    1   0.2395  0.0785  0.4004  11.00000  0.05    0.60
Q9    1   0.0636  0.2079  0.1574  11.00000  0.05    0.60
Q10   1   0.9879  0.1275  0.4532  11.00000  0.05    0.58
Q11   1   0.5026  0.1236  0.4533  11.00000  0.05    0.58
Q12   1   0.7254  0.0745  0.3917  11.00000  0.05    0.54
Q13   1   0.7514  0.6939  0.4401  11.00000  0.05    0.52
Q14   1   0.7938  0.8614  0.4535  11.00000  0.05    0.52
Q15   1  -0.0274  0.3393  0.3812  11.00000  0.05    0.43
Q16   1   1.2567  0.8565  0.4473  11.00000  0.05    0.42
Q17   1   1.2446  0.6648  0.4029  11.00000  0.05    0.41
Q18   1   0.1751  0.2791  0.3436  11.00000  0.05    0.41
Q19   1   0.7316  0.4991  0.3920  11.00000  0.05    0.40
Q20   1   0.7364  0.6608  0.4028  11.00000  0.05    0.40
;
_shelx_res_checksum              6343
_shelx_hkl_file
;
   0   0   5 107.511 54.4320   1
   0   0  -5 27.9751 50.5939   1
   0   0   6 7917.88 397.549   1
   0   0  -6 7750.26 387.926   1
   0   0   7 55.8857 56.5867   1
   0   0  -7 141.504 77.7791   1
   0   0  -8 890.475 160.679   1
   0   0  -9 39.2003 56.1487   1
   0   0 -10 6809.84 483.930   1
   0   0 -11 51.9188 90.6515   1
   0   0 -12 3721.79 393.804   1
   0   0 -13 89.4206 94.4291   1
   0   0 -14 25514.6 1137.28   1
   0   0 -15 869.857 278.248   1
   0   0 -16 107104. 2505.39   1
   0   0 -17 1622.05 399.127   1
   0   0 -18 65788.0 2099.53   1
   0   0 -19 3585.71 615.786   1
   0   0 -20 190528. 3830.39   1
   0   0 -21 4002.70 654.740   1
   0   0 -22 59104.5 2306.16   1
   0   0 -23 1018.58 409.199   1
   0   0 -24 10027.6 1026.07   1
   0   0 -25-47.5911 197.324   1
   0   0 -26 158.106 228.152   1
   0   1   4 303327. 2090.66   1
   0   1  -4 303624. 2452.15   1
   0  -1   4 305715. 2484.37   1
   0   1  -5 108195. 1548.20   1
   0   1   5 108404. 1367.57   5
   0   1   5 108542. 1357.47   1
   0  -1   5 108532. 1559.16   1
   0   1   6 195556. 1984.09   1
   0  -1   6 195917. 2225.11   1
   0   1  -6 194969. 2189.67   1
   0  -1  -6 195882. 1954.12   1
   0   1   6 195806. 1977.44   5
   0   1  -7 99821.0 1672.15   1
   0  -1  -7 98585.6 1502.79   1
   0   1   7 98557.7 1516.64   1
   0  -1   7 99947.5 1678.23   1
   0  -1  -8 130407. 1859.59   1
   0   1  -8 133237. 2024.24   1
   0  -1  -9 34841.2 1024.19   1
   0   1  -9 36569.2 1129.45   1
   0  -1 -10 48.5518 104.478   1
   0   1 -10 520.378 172.754   1
   0  -1 -11 31849.1 1084.45   1
   0   1 -11 32474.2 1161.64   1
   0  -1 -12 90167.1 1913.49   1
   0   1 -12 87163.9 1991.03   1
   0   1 -13 68558.4 1838.06   1
   0  -1 -13 68665.4 1759.83   1
   0   1 -14 96809.0 2267.43   1
   0  -1 -14 96942.1 2160.06   1
   0  -1 -15 34068.4 1349.59   1
   0   1 -15 33875.3 1401.79   1
   0  -1 -16 70679.2 2019.46   1
   0   1 -16 72959.0 2155.80   1
   0   1 -17 56484.2 1956.39   1
   0  -1 -17 59426.0 1915.40   1
   0   1 -18 1816.28 469.571   1
   0  -1 -18 2414.63 481.271   1
   0  -1 -19 63727.1 2117.35   1
   0   1 -19 66511.1 2273.16   1
   0  -1 -20 5899.01 706.621   1
   0   1 -20 5815.44 737.292   1
   0   1 -21 20725.9 1352.50   1
   0  -1 -21 20574.3 1301.33   1
   0  -1 -22 4570.21 648.580   1
   0   1 -22 4595.30 691.784   1
   0   1  22 5134.36 709.929   5
   0   1 -23 13295.7 1170.75   1
   0  -1 -23 13019.3 1109.58   1
   0   1  23 12323.8 1087.68   5
   0   1 -24 14426.5 1257.29   1
   0   1  24 14751.5 1229.27   5
   0  -1 -24 14803.5 1221.48   1
   0   1  25 8432.52 971.258   5
   0   1 -25 6893.50 912.575   1
   0   1 -26 5069.33 812.340   1
   0   1  26 5354.96 807.462   5
   0   2   0 54354.4 1296.00   2
   0  -2   0 49241.3 920.327   5
   0   2   0 51034.8 938.097   5
   0  -2   0 52578.0 1425.78   2
   0   2   1 4900.31 283.099   5
   0   2  -1 4527.04 292.334   5
   0  -2  -1 4676.85 275.978   5
   0  -2   1 4277.73 292.413   5
   0   2  -1 5091.89 470.343   2
   0  -2  -1 5583.68 418.691   2
   0   2   1 5383.19 341.698   2
   0   2   2 9178.30 397.747   5
   0   2  -2 9199.44 473.330   1
   0  -2   2 9081.03 454.726   5
   0   2   2 8903.71 375.837   2
   0   2  -2 9545.43 346.070   3
   0  -2  -2 9838.66 455.463   2
   0  -2  -2 8771.75 385.223   5
   0   2  -2 10152.1 728.122   2
   0   2  -3 66746.1 1914.96   2
   0  -2   3 67338.4 1375.44   1
   0  -2  -3 68775.7 1031.77   2
   0   2   3 68440.7 1115.35   5
   0  -2  -3 66217.7 1098.53   5
   0   2  -3 70242.0 1403.72   1
   0  -2   3 69247.6 1355.88   5
   0   2  -3 67232.5 760.037   3
   0  -2  -4 15219.3 421.355   2
   0  -2  -4 14586.2 536.378   5
   0   2  -4 15969.9 704.266   1
   0  -2   4 16336.9 723.347   1
   0   2   4 15287.3 545.317   5
   0  -2   5 77121.2 1635.69   1
   0   2   5 72590.8 1251.58   5
   0  -2  -5 72441.1 1264.21   5
   0   2  -5 75577.4 1573.07   1
   0   2   6 406968. 3117.24   5
   0  -2  -6 395443. 3119.32   5
   0   2  -6 398552. 3766.32   1
   0   2   7 78816.5 1451.38   5
   0   2  -7 79378.7 1739.76   1
   0   2  -8 318070. 3583.42   1
   0   2   8 332438. 3123.02   5
   0   2   9 10713.2 595.686   5
   0   2  -9 9534.54 647.984   1
   0   2 -10 300407. 3733.73   1
   0   2  10 306790. 3307.26   5
   0   2  11 614.049 204.779   5
   0   2 -11 119.329 132.458   1
   0   2  12 151076. 2538.17   5
   0   2 -12 150514. 2823.51   1
   0   2  13 29826.9 1176.73   5
   0   2 -13 30930.1 1321.04   1
   0   2 -14 110509. 2589.28   1
   0   2  14 106854. 2311.85   5
   0   2 -15 24837.8 1284.28   1
   0   2  15 24211.9 1162.19   5
   0   2 -16 11402.3 901.328   1
   0   2  16 12355.4 860.230   5
   0   2  17 2347.84 405.900   5
   0   2 -17 1966.09 411.044   1
   0   2  18 395.863 198.140   5
   0   2 -18 385.696 257.885   1
   0   2 -19 83.6088 231.589   1
   0   2  19 273.776 247.425   5
   0   2 -20 3402.97 597.518   1
   0   2  20 4193.95 572.874   5
   0   2  21 264.227 235.682   5
   0   2 -21 383.845 213.247   1
   0   2 -22 4052.78 671.288   1
   0   2  22 4145.94 634.419   5
   0   2  23 5677.55 749.561   5
   0   2 -23 5878.60 809.750   1
   0   2  24 3804.52 659.873   5
   0   2 -24 3653.47 672.065   1
   0   2  25 3157.13 588.583   5
   0   2 -25 3528.24 687.745   1
   0   2  26 19069.0 1468.10   5
   0   3   0 1.98649 133.678   2
   0  -3   0 16.0702 41.0755   5
   0   3   0 158.492 82.8462   5
   0   3  -1 5694.74 402.365   5
   0   3  -1 6666.15 615.636   2
   0  -3   1 5150.17 379.397   5
   0   3   1 5192.92 431.185   2
   0  -3  -1 6644.44 628.769   2
   0   3   1 5602.99 380.706   5
   0  -3  -1 5324.17 360.748   5
   0   3   2 80932.5 1509.77   2
   0   3  -2 79777.3 1629.30   1
   0  -3   2 79048.6 1568.56   5
   0  -3  -2 77765.3 1396.32   5
   0   3  -2 80472.7 1333.72   3
   0   3   2 82457.2 1453.57   5
   0   3  -2 80270.3 2208.10   2
   0  -3  -2 81408.4 1883.86   2
   0  -3  -3 63382.8 1276.23   5
   0   3   3 66093.6 1219.77   2
   0  -3  -3 67632.3 1538.74   2
   0   3  -3 65091.7 1538.64   1
   0   3  -3 66593.4 1069.66   3
   0   3   3 64409.1 1297.49   5
   0  -3  -4 69051.9 1398.48   2
   0   3  -4 66913.5 931.785   3
   0   3  -4 66525.7 1640.69   1
   0   3   4 67838.9 1352.56   5
   0  -3  -5 137937. 1797.81   2
   0   3   5 138897. 1985.47   5
   0   3  -5 139310. 2459.20   1
   0   3  -6 62961.1 1695.72   1
   0  -3  -6 62799.6 1094.88   2
   0   3   6 61063.5 1356.42   5
   0   3  -7 176950. 2924.20   1
   0  -3  -7 174172. 1707.05   2
   0   3   7 174938. 2369.77   5
   0   3   8 43099.1 1215.59   5
   0   3  -8 43544.4 1490.93   1
   0  -3  -8 42872.3 802.622   2
   0   3   9 262838. 3118.94   5
   0   3  -9 256723. 3717.32   1
   0   3  10 1768.84 303.436   5
   0   3 -10 1807.76 347.749   1
   0   3  11 242851. 3237.50   5
   0   3 -11 234507. 3752.50   1
   0   3 -12 22219.6 1190.62   1
   0   3  12 24239.3 1059.04   5
   0   3  13 79638.8 2004.69   5
   0   3 -13 79636.9 2294.67   1
   0   3  14 36176.4 1402.92   5
   0   3 -14 35387.7 1567.23   1
   0   3 -15 21086.7 1256.93   1
   0   3  15 21806.0 1120.40   5
   0   3  16 18505.9 1069.12   5
   0   3 -16 19954.2 1248.87   1
   0   3  17 3850.41 535.593   5
   0   3 -17 4049.05 584.340   1
   0   3  18 3220.35 487.428   5
   0   3 -18 3659.64 587.022   1
   0   3 -19-43.1727 205.503   1
   0   3  19 313.299 218.717   5
   0   3  20 448.866 207.915   5
   0   3 -20 1001.75 357.459   1
   0   3 -21 553.962 293.623   1
   0   3  21 306.235 238.600   5
   0   3  22 4763.12 684.125   5
   0   3 -22 5082.76 782.049   1
   0   3  23 6947.50 833.029   5
   0   3 -23 8920.85 1034.93   1
   0   3  24 6228.80 819.990   5
   0   3 -24 6448.59 929.356   1
   0   3  25 16829.1 1360.38   5
   0   4   0 222128. 2830.55   5
   0   4  -1 3720.85 359.481   5
   0   4   1 4695.68 405.066   5
   0   4  -2 133586. 2046.18   3
   0   4   2 136785. 2354.10   2
   0   4   2 133121. 2163.33   5
   0   4  -2 132817. 2301.44   5
   0   4  -3 110130. 1679.76   3
   0  -4  -3 104330. 2491.09   2
   0   4   3 109746. 1924.35   2
   0   4  -3 107746. 2235.24   1
   0   4   3 109414. 1966.35   5
   0   4  -4 178356. 2972.91   1
   0   4  -4 177831. 1935.04   3
   0   4   4 184044. 2587.82   5
   0  -4  -4 180740. 3064.93   2
   0   4  -5 108541. 2399.30   1
   0  -4  -5 110645. 2237.10   2
   0   4   5 108383. 1987.05   5
   0   4   6 42909.6 1279.88   5
   0  -4  -6 44895.5 1320.69   2
   0   4  -6 43999.3 1570.97   1
   0  -4  -7 84809.2 1670.94   2
   0   4   7 79494.5 1771.77   5
   0   4  -7 80786.5 2181.55   1
   0   4   8 25110.4 1008.33   5
   0   4  -8 23665.8 1199.57   1
   0  -4  -8 25853.6 861.675   2
   0   4  -9 1405.13 308.022   1
   0   4   9 1373.37 247.044   5
   0  -4  -9 1328.18 185.341   2
   0  -4 -10 3914.57 294.925   2
   0   4 -10 4356.67 561.730   1
   0   4  10 4543.03 456.547   5
   0   4 -11 12659.9 939.427   1
   0   4  11 13084.7 798.149   5
   0  -4 -11 11575.8 481.994   2
   0   4 -12 3230.65 496.147   1
   0   4  12 3987.38 472.131   5
   0  -4 -12 3276.19 249.909   2
   0   4 -13 64201.9 2202.85   1
   0   4  13 61790.7 1845.25   5
   0   4  14 20390.4 1101.45   5
   0   4 -14 19385.3 1243.27   1
   0   4  15 28807.5 1342.64   5
   0   4 -15 26988.2 1496.64   1
   0   4  16 50965.6 1849.32   5
   0   4 -16 51187.9 2119.48   1
   0   4  17 22948.8 1271.19   5
   0   4 -17 23229.6 1456.39   1
   0   4 -18 37419.1 1892.93   1
   0   4  18 36413.8 1669.46   5
   0   4 -19 935.728 368.004   1
   0   4  19 1088.18 338.696   5
   0   4  20 36029.9 1735.11   5
   0   4 -20 33283.8 1900.20   1
   0   4 -21 2942.23 615.572   1
   0   4  21 2832.96 541.495   5
   0   4  22 17337.3 1288.54   5
   0   4 -22 16271.0 1396.58   1
   0   4 -23 5070.09 790.922   1
   0   4  23 6661.76 850.766   5
   0   4  24 14555.9 1244.01   5
   0   5   0 1.11753 140.352   5
   0   5   1 363516. 4081.63   5
   0   5  -1 364725. 4168.87   5
   0   5  -2 2901.54 423.923   1
   0   5  -2 3299.11 373.230   3
   0  -5   2 3016.65 163.576   4
   0   5   2 2405.66 331.593   5
   0   5  -3 168750. 3122.73   1
   0   5  -3 173989. 2439.65   3
   0   5   3 172361. 2799.72   5
   0   5  -4 26035.5 859.088   3
   0   5  -4 24176.7 1207.52   1
   0   5   4 25509.5 1078.89   5
   0   5  -5 44649.6 1028.02   3
   0   5  -5 45647.3 1703.47   1
   0   5   5 46500.5 1465.60   5
   0   5   6 246.092 143.104   5
   0   5  -6-19.2070 162.266   1
   0   5   6 187.368 52.1842   4
   0   5  -7 1989.08 378.914   1
   0  -5  -7 2754.71 453.734   2
   0   5   7 1990.51 303.050   5
   0   5   7 1927.87 189.493   4
   0   5  -8 1420.17 346.073   1
   0   5   8 1415.44 277.783   5
   0  -5  -8 2216.39 387.796   2
   0   5  -9 2521.71 436.814   1
   0   5   9 3045.02 402.574   5
   0  -5  -9 3889.19 463.505   2
   0  -5 -10 357.448 204.075   2
   0   5 -10 175.571 189.685   1
   0   5  10 83.1074 105.473   5
   0   5 -11 1249.55 338.293   1
   0   5  11 1315.41 269.592   5
   0   5  12 250.584 124.561   5
   0   5 -12 927.263 314.866   1
   0   5 -13 912.848 316.354   1
   0   5  13 375.933 176.963   5
   0   5 -14 2189.66 450.729   1
   0   5  14 2486.03 404.119   5
   0   5 -15 24337.9 1496.77   1
   0   5  15 25399.4 1334.81   5
   0   5  16 4042.18 556.802   5
   0   5 -16 3794.54 620.082   1
   0   5 -17 69355.3 2639.73   1
   0   5  17 68215.8 2290.90   5
   0   5  18 3617.67 585.311   5
   0   5 -18 2744.68 600.932   1
   0   5 -19 63444.0 2644.57   1
   0   5  19 66523.2 2369.91   5
   0   5  20 357.004 279.906   5
   0   5 -20 837.984 464.925   1
   0   5 -21 49921.7 2456.91   1
   0   5  21 49704.0 2158.99   5
   0   5 -22 481.300 333.973   1
   0   5  22 343.884 339.780   5
   0   5  23 14428.1 1234.52   5
   0   6   0 57316.4 1859.83   3
   0   6   0 55105.8 1789.54   5
   0   6  -1 4777.13 541.761   5
   0   6  -1 6337.07 597.355   3
   0   6   1 5406.49 566.352   5
   0   6   2 80288.3 2141.64   5
   0   6  -2 82627.7 1998.57   3
   0   6  -2 82957.8 2375.09   1
   0  -6   3 63278.8 791.917   4
   0   6  -3 67327.8 2177.53   1
   0  -6   3 62599.7 856.140   4
   0   6   3 68098.0 1976.96   5
   0   6  -3 69655.0 1722.69   3
   0   6  -4 17589.9 798.168   3
   0   6  -4 19060.1 1178.42   1
   0   6   4 17907.0 1022.00   5
   0   6   5 34703.3 1423.48   5
   0   6  -5 35538.5 1636.82   1
   0   6  -5 33587.5 1012.76   3
   0   6  -6 13647.7 1035.91   1
   0   6   6 12971.4 872.820   5
   0   6   7 75157.1 2120.08   5
   0   6  -7 73387.2 2429.90   1
   0   6   8 47862.8 1709.13   5
   0   6  -8 45229.5 1929.88   1
   0   6  -9 9429.07 905.524   1
   0   6   9 9286.89 764.589   5
   0   6 -10 14561.8 1138.95   1
   0   6  10 13235.7 931.235   5
   0   6 -11 6439.99 773.055   1
   0   6  11 6779.72 680.391   5
   0   6  12 39753.8 1664.40   5
   0   6 -12 39546.3 1917.00   1
   0   6  13 59570.1 2062.80   5
   0   6 -13 60729.4 2408.49   1
   0   6  14 27250.5 1413.16   5
   0   6 -14 28517.3 1694.21   1
   0   6  15 19718.6 1234.36   5
   0   6 -15 20778.9 1451.09   1
   0   6 -16 9587.30 1016.54   1
   0   6  16 9149.16 878.888   5
   0   6  17 9567.18 905.166   5
   0   6 -17 8764.52 997.074   1
   0   6  18 18454.1 1291.65   5
   0   6 -18 18454.0 1457.56   1
   0   6  19 34.4245 207.836   5
   0   6 -19 17.5073 174.593   1
   0   6  20 9505.00 958.901   5
   0   6 -20 9117.61 1095.37   1
   0   6  21 2135.55 511.589   5
   0   6  22 8648.81 981.605   5
   0   7   0 197.838 137.795   3
   0   7   0 105.485 143.743   5
   0   7   1 3151.93 473.680   5
   0   7   1 3141.76 509.698   3
   0   7  -1 3418.08 468.284   3
   0   7  -1 3377.41 546.581   1
   0   7  -2 910.357 317.157   1
   0   7   2 1123.11 283.359   5
   0   7  -2 1259.38 286.972   3
   0   7   3-84.6807 187.240   5
   0   7  -3 345.460 216.585   1
   0   7  -3 204.324 107.263   3
   0   7   4 1807.87 351.377   5
   0   7  -4 1308.69 342.413   1
   0   7  -4 1251.14 237.190   3
   0   7   5 50431.4 1893.89   5
   0   7  -5 47606.4 2059.21   1
   0   7   6 18309.1 1164.12   5
   0   7  -6 15435.3 1192.30   1
   0   7  -7 91015.0 2909.56   1
   0   7   7 94717.1 2591.44   5
   0   7  -8 971.392 333.299   1
   0   7   8 974.996 280.767   5
   0   7  -9 94453.0 3011.30   1
   0   7   9 91072.9 2586.55   5
   0   7 -10 920.218 344.490   1
   0   7  10 1202.82 314.793   5
   0   7  11 85517.5 2580.59   5
   0   7 -11 82775.7 2883.72   1
   0   7  12 2065.76 440.797   5
   0   7 -12 2463.67 558.800   1
   0   7  13 37061.4 1749.99   5
   0   7 -13 35681.5 1962.78   1
   0   7 -14 6252.52 855.117   1
   0   7  14 7127.99 787.674   5
   0   7 -15 14651.1 1297.06   1
   0   7  15 14188.0 1105.14   5
   0   7  16 213.238 224.262   5
   0   7 -16 443.087 328.334   1
   0   7  17 290.430 204.965   5
   0   7 -17 211.712 309.597   1
   0   7  18-2.32289 239.392   5
   0   7  19 636.271 305.107   5
   0   7  20 1458.23 433.425   5
   0   8   0 704.681 235.500   3
   0   8   0 1024.59 371.116   1
   0   8   1 1757.17 403.946   3
   0   8  -1 1411.34 386.244   1
   0   8  -1 1156.09 308.627   3
   0   8   1 933.939 221.698   5
   0   8  -2 1487.89 390.224   1
   0   8   2 2036.95 434.026   3
   0   8   2 1575.33 378.343   5
   0   8   3 14337.5 1098.83   5
   0   8  -3 14080.9 1198.52   1
   0   8   3 13879.8 1156.17   3
   0   8   4 9410.52 984.341   3
   0   8  -4 9217.83 983.918   1
   0   8   4 9952.19 923.183   5
   0   8   5 18584.7 1260.01   5
   0   8  -5 19021.9 1423.09   1
   0   8  -6 44090.9 2168.98   1
   0   8   6 43999.8 1934.05   5
   0   8  -7 24671.8 1652.41   1
   0   8   7 26094.5 1495.34   5
   0   8   8 45622.5 1986.11   5
   0   8  -8 43978.2 2179.67   1
   0   8   9 49.1541 171.736   5
   0   8  -9 387.364 340.851   1
   0   8  10 37644.6 1825.51   5
   0   8 -10 38693.4 2065.15   1
   0   8  11 226.876 229.317   5
   0   8 -11 432.779 309.881   1
   0   8  12 19425.2 1334.19   5
   0   8 -12 19395.7 1497.86   1
   0   8  13 11289.4 1042.84   5
   0   8 -13 10580.5 1145.78   1
   0   8  14 16800.3 1279.63   5
   0   8 -14 17509.6 1463.09   1
   0   8  15 12210.8 1114.02   5
   0   8  16 907.717 344.887   5
   0   8  17 6223.94 814.426   5
   0   8  18 217.508 242.101   5
   0   9   0 103.564 247.897   1
   0   9   1 43316.7 2249.49   1
   0   9  -1 47546.1 2353.86   1
   0   9  -2 12421.6 1232.76   1
   0   9   2 12084.9 1102.77   3
   0   9   2 10898.2 1070.87   5
   0   9  -3 29329.7 1888.09   1
   0   9   3 29247.5 1762.61   3
   0   9   3 27648.6 1677.76   5
   0   9   4 11527.4 1149.59   3
   0   9  -4 11671.7 1197.86   1
   0   9   4 11870.3 1099.80   5
   0   9  -5 13504.8 1285.00   1
   0   9   5 14480.7 1217.04   5
   0   9   5 14210.6 1298.09   3
   0   9   6 6811.81 919.668   3
   0   9   6 7223.38 849.034   5
   0   9  -6 6856.92 938.204   1
   0   9   7 3502.23 632.580   5
   0   9   7 2841.87 631.414   3
   0   9  -7 3223.07 647.845   1
   0   9  -8 4119.14 753.773   1
   0   9   8 5168.13 742.952   5
   0   9   8 4499.24 795.369   3
   0   9  -9 274.100 269.285   1
   0   9   9 234.720 257.731   5
   0   9  10-185.111 218.927   5
   0   9 -10 86.0767 319.114   1
   0   9  11 612.162 340.760   5
   0   9  12 12681.9 1156.47   5
   0   9  13 1888.46 482.643   5
   0   9  14 7287.10 908.632   5
   0   9  15 5389.57 793.719   5
   0  10   4 18415.8 1482.05   5
   0  10   5 2330.91 553.635   5
   0  10   6 258.383 236.981   5
   0  10   6 336.198 201.264   3
   0  10   7 109.289 271.484   3
   0  10   7 285.251 190.830   5
   0  10   8-356.298 325.024   3
   0  10   8-113.221 284.411   5
   0  10   9 886.110 344.359   5
  -1   0  25 514.446 367.007   5
   1   0 -25 263.537 221.881   1
  -1   0  24 1386.19 461.176   5
   1   0 -24 1054.48 385.832   1
  -1   0  23 64.5764 184.673   5
   1   0 -23 71.6124 179.710   1
   1   0 -22 10918.1 1015.73   1
   1   0 -21 286.040 243.332   1
   1   0 -20 3097.80 509.314   1
   1   0 -19-35.2501 146.229   1
   1   0 -18 3283.27 492.817   1
   1   0 -17 180.212 164.203   1
   1   0 -16 6785.17 646.846   1
   1   0 -15-15.2968 100.802   1
   1   0 -14 84112.2 2074.10   1
   1   0 -13 322.653 235.579   1
   1   0 -12 265791. 3382.94   1
   1   0 -11 117.819 142.967   2
   1   0 -11 990.508 318.215   1
   1   0 -10 433601. 4184.80   2
   1   0 -10 456071. 4055.02   1
   1   0  -9 179.495 113.916   2
   1   0  -9 646.258 225.464   1
   1   0  -8 340085. 3208.07   2
  -1   0   8 337616. 3979.01   2
  -1   0   7 130.005 127.608   2
   1   0  -7 338.195 137.612   1
   1   0  -7 93.4974 79.2613   2
  -1   0   6 214798. 2527.68   2
  -1   0   6 218850. 2248.15   1
   1   0  -6 220478. 2225.53   1
  -1   0   5 132.705 69.7593   5
  -1   0   5 154.580 69.0875   1
   1   0  -5 31.9907 50.3428   1
  -1   0   5 121.532 98.4068   4
  -1   0   4 133781. 2026.68   4
  -1   0   4 132162. 1484.77   1
  -1   0   4 134177. 1655.35   2
   1   0  -4 134282. 1480.58   1
  -1   0   4 135289. 1563.50   5
   1   0  -3 31.8387 50.5033   1
  -1   0   3 34.2535 40.2109   1
  -1   0   3 106.929 55.3869   5
  -1   0   3 216.320 96.6525   4
   1   0  -3 224.359 87.0934   4
   1   0  -2 113909. 1587.95   4
   1   0  -2 115263. 1166.38   5
  -1   0   2 113835. 1623.54   4
  -1   0   2 110115. 1078.70   1
  -1   0   2 113329. 1191.04   5
  -1   0   1 907.470 145.682   4
   1   0  -1 624.127 121.777   4
   1   0  -1 963.717 102.643   5
  -1   0   1 912.184 90.3870   1
   1   0   0 2245.79 212.262   4
   1   0   0 2492.40 151.509   5
  -1   0   0 2616.00 154.153   5
  -1   0   0 2291.67 217.749   4
  -1   0  -1 399.411 98.4710   4
  -1   0  -1 414.504 62.6710   5
   1   0   1 450.514 99.2035   4
   1   0   1 410.261 66.0005   5
  -1   0  -2 1336.92 184.235   3
   1   0   2 1926.43 204.057   4
  -1   0  -2 1681.67 115.721   1
   1   0   2 1490.42 124.024   5
  -1   0  -3 89.7996 69.2187   3
   1   0   3 127.950 79.2127   4
  -1   0  -3 277.409 61.3962   1
  -1   0  -4 33551.7 991.463   3
  -1   0  -4 31751.6 616.598   1
   1   0   4 32087.7 686.537   1
   1   0   4 32260.4 952.443   3
  -1   0  -5 436.468 136.536   3
  -1   0  -5 36.9860 36.3483   1
   1   0   5 127.588 96.1826   3
   1   0   5 364.618 80.3892   1
   1   0   6 242888. 2928.56   3
   1   0   6 242427. 2211.45   1
  -1   0  -6 245055. 2102.19   1
   1   0   7 7.97857 118.148   3
   1   0   7 262.102 92.3221   1
   1   0   8 372703. 3130.93   1
   1   0   8 372185. 4007.73   3
  -1   0  -8 378073. 3042.19   1
  -1   0  -9 741.792 212.500   1
   1   0   9 364.764 203.861   3
  -1   0 -10 483217. 3912.54   1
   1   0  10 482526. 5070.18   3
  -1   0 -11 635.476 239.041   1
   1   0  11 315.305 266.866   3
  -1   0 -12 169836. 2578.93   1
   1   0  12 175188. 3332.88   3
  -1   0 -13-1.28877 170.589   1
   1   0  13 250.502 256.653   3
   1   0  14 100326. 2724.83   3
  -1   0 -14 98778.0 2157.92   1
  -1   0 -15 142.098 161.599   1
   1   0  15 37.0907 155.592   3
  -1   0 -16 9376.67 733.710   1
   1   0  16 8232.79 842.183   3
   1   0  17-79.5720 160.113   3
  -1   0 -17-15.1834 135.932   1
  -1   0 -18 441.351 198.723   1
   1   0  18 547.638 266.915   3
  -1   0 -19 65.8318 148.364   1
   1   0  19 168.301 202.863   3
  -1   0 -20 479.732 252.727   1
   1   0  20 112.492 210.814   3
   1   0  21 177.952 222.606   3
  -1   0 -21 88.6871 168.948   1
  -1   0 -22 3877.50 589.687   1
  -1   0 -23 730.686 336.243   1
  -1   0 -24 9347.52 967.831   1
  -1   0 -25 179.642 267.683   1
  -1   0 -26 19170.9 1472.21   1
  -1   1  25 10059.1 1100.89   5
   1   1 -25 9775.19 1082.96   1
  -1   1  24 20597.6 1505.50   5
   1   1 -24 22009.0 1563.09   1
   1   1 -23 5539.44 806.398   1
  -1   1  23 5534.10 807.172   5
  -1   1  22 9282.12 963.643   5
   1   1 -22 9838.26 982.874   1
  -1   1  21 6379.61 768.406   5
   1   1 -21 6434.27 767.487   1
  -1   1  20 2334.66 498.049   5
   1   1 -20 2226.13 484.096   1
   1  -1 -19 12405.8 965.424   1
  -1   1  19 13658.8 1035.67   5
   1   1 -19 12157.5 989.184   1
  -1   1  18 12872.5 990.363   5
   1  -1 -18 12116.0 938.389   1
   1   1 -18 11346.8 924.367   1
   1   1 -17 10660.0 873.864   1
  -1   1  17 9967.01 843.068   5
   1  -1 -17 9911.22 813.519   1
   1   1 -16 49424.7 1777.24   1
  -1   1  16 48804.3 1762.03   5
   1  -1 -16 48348.8 1703.96   1
   1   1 -15 38957.2 1535.36   1
   1  -1 -15 40033.4 1493.73   1
  -1   1  15 36814.5 1478.54   5
   1  -1 -14 47159.7 1328.35   2
   1  -1 -14 48898.9 1592.62   1
  -1   1  14 46677.7 1602.78   5
   1   1 -14 49546.4 1659.34   1
   1  -1 -13 66329.4 1485.70   2
   1  -1 -13 66262.2 1778.69   1
   1   1 -13 68128.1 1859.14   1
  -1   1  13 68200.6 1887.63   5
   1  -1 -12 13187.7 783.932   1
   1  -1 -12 13793.9 626.182   2
   1   1 -12 14580.1 827.178   1
  -1   1  12 14673.6 852.715   5
   1   1 -11 104753. 2111.11   1
  -1   1  11 99495.7 2087.89   5
   1  -1 -11 100246. 2020.19   1
   1  -1 -11 99531.3 1553.01   2
   1  -1 -10 3913.41 285.251   2
   1   1 -10 4791.74 446.015   1
  -1   1  10 4429.11 448.129   5
  -1   1   9 189818. 2661.69   5
   1   1  -9 187462. 2547.03   1
  -1   1   8 55081.6 1360.27   5
  -1  -1   8 54278.8 1869.00   2
   1   1  -8 53526.9 1287.21   1
  -1   1   8 51547.7 1275.30   2
  -1  -1   7 83623.8 2082.22   2
  -1   1   7 86243.6 1378.89   2
   1   1  -7 85888.9 1536.40   1
   1   1  -7 84729.5 1892.81   2
  -1   1   7 87692.9 1633.82   5
  -1   1   6 71990.1 1089.90   2
  -1  -1   6 72602.0 1784.35   2
  -1   1   6 69198.0 1660.14   4
  -1   1   6 71815.3 1412.01   5
   1   1  -6 70628.3 1624.51   2
   1   1  -6 70430.2 1296.86   1
  -1  -1   6 70796.2 1340.23   1
   1   1  -5 120962. 1572.74   1
  -1  -1   5 120083. 1624.33   1
  -1  -1   5 115728. 2121.87   4
  -1   1   5 120982. 2024.27   4
   1   1  -5 118602. 1975.04   2
   1  -1  -5 120619. 1696.97   5
  -1   1   5 121680. 1668.86   1
  -1  -1   5 118305. 2110.44   2
  -1   1   5 119929. 1737.95   5
  -1  -1   4 315462. 3204.53   4
  -1   1   4 319225. 3042.27   4
   1   1  -4 317306. 2343.73   1
  -1  -1   4 315750. 2444.55   1
  -1   1   4 316141. 2695.99   5
  -1  -1   4 318032. 3186.12   2
   1  -1  -4 319000. 2641.77   5
  -1   1   3 160419. 2000.05   4
  -1  -1   3 159714. 1585.75   1
   1   1  -3 162145. 1512.38   1
  -1  -1   3 164389. 2132.93   2
   1  -1  -3 160127. 2023.45   4
  -1   1   3 161822. 1824.57   5
  -1  -1   3 160292. 2086.43   4
   1   1  -3 160574. 2061.25   4
   1  -1  -3 159169. 1782.45   5
   1   1  -2 206418. 1509.40   1
   1  -1  -2 209796. 2167.24   4
  -1   1   2 210086. 2009.48   5
   1   1  -2 211607. 2193.16   4
   1  -1  -2 210446. 1957.48   5
  -1  -1   2 206912. 1637.44   1
  -1   1   2 208448. 2186.19   4
  -1  -1   2 209256. 2213.32   4
   1   1  -1 15076.5 549.660   4
   1  -1  -1 15935.4 577.323   4
  -1  -1   1 15578.8 570.718   4
  -1  -1   1 16027.2 405.850   1
   1   1  -1 16028.9 349.652   1
  -1   1   1 15771.8 574.059   4
  -1   1   1 15344.0 523.629   5
   1  -1  -1 15320.6 513.709   5
   1  -1   0 56991.4 1072.45   4
   1   1   0 59249.7 1058.62   4
  -1  -1   0 57130.6 1048.18   4
   1  -1   0 57042.9 977.044   5
  -1   1   0 58301.8 1009.30   5
  -1   1   0 57482.8 1076.17   4
  -1  -1   0 58510.1 1316.83   3
   1  -1   1 48131.4 907.976   5
   1   1   1 48299.1 947.382   4
  -1   1  -1 48852.6 944.097   5
  -1  -1  -1 48479.3 1234.18   3
  -1  -1  -1 47454.6 958.447   4
   1  -1   1 46952.2 977.545   4
  -1   1  -1 48056.3 1008.23   4
   1  -1   2 142868. 1661.33   5
  -1  -1  -2 141340. 2188.08   3
  -1   1  -2 142467. 1706.33   5
   1  -1   2 139705. 1767.21   4
   1   1   2 139853. 1663.88   4
   1   1   2 140502. 2126.23   3
   1   1   3 80417.2 700.729   1
   1  -1   3 79731.1 1335.33   5
   1   1   3 79009.6 1323.11   4
  -1  -1  -3 81916.8 1717.69   3
   1   1   3 78242.9 1672.91   3
  -1   1  -3 78717.9 1303.09   1
   1  -1   4 265758. 2654.49   5
   1   1   4 252062. 3156.84   3
   1   1   4 266545. 1553.72   1
  -1   1  -4 259545. 2346.67   3
   1  -1   4 265498. 2529.26   1
  -1  -1  -4 259371. 3201.81   3
  -1   1  -4 256888. 2508.20   1
  -1   1  -5 156877. 2024.18   1
   1   1   5 154767. 1390.50   1
   1  -1   5 157159. 2098.53   1
   1   1   5 149991. 2542.49   3
  -1  -1  -5 157734. 1366.70   1
  -1   1  -5 154428. 1873.31   3
  -1   1  -6 144908. 1878.43   3
   1   1   6 139049. 1479.79   1
  -1  -1  -6 144087. 1478.35   1
  -1   1  -6 140929. 1990.32   1
   1  -1   6 143123. 2110.89   1
   1  -1   7 165343. 2023.51   3
   1   1   7 155701. 1737.77   1
  -1  -1  -7 163631. 1744.70   1
   1   1   7 155078. 2846.75   3
   1  -1   7 159799. 2330.52   1
  -1   1  -7 162330. 2212.85   1
   1   1   8 1669.88 341.453   3
  -1   1  -8 2069.82 280.157   1
   1   1   8 1727.06 208.931   1
  -1  -1  -8 2099.29 226.439   1
   1  -1   8 1791.32 218.964   3
   1  -1   9 114066. 1897.58   3
  -1   1  -9 109708. 1974.44   1
  -1  -1  -9 109302. 1664.92   1
  -1  -1 -10 4421.17 366.713   1
   1  -1  10 4254.18 396.495   3
   1   1  10 3861.93 541.503   3
  -1   1 -10 4439.57 424.309   1
  -1  -1 -11 162929. 2294.32   1
  -1   1 -11 168929. 2676.03   1
   1  -1  11 171979. 2616.87   3
  -1  -1 -12 54997.9 1409.39   1
  -1   1 -12 55780.8 1604.72   1
   1  -1  12 58241.3 1601.54   3
  -1   1 -13 56459.6 1676.10   1
  -1  -1 -13 53804.2 1469.30   1
   1  -1  13 55486.6 1652.53   3
  -1   1 -14 39909.8 1456.51   1
   1  -1  14 41926.9 1504.96   3
  -1  -1 -14 38641.8 1304.87   1
   1  -1  15 12666.2 864.665   3
  -1  -1 -15 10902.0 734.250   1
  -1  -1 -16 41276.1 1473.12   1
  -1   1 -16 41742.2 1598.73   1
   1  -1  16 43157.8 1660.08   3
   1  -1  17 30882.4 1451.46   3
  -1  -1 -17 28834.3 1287.54   1
  -1   1 -17 29425.4 1399.95   1
  -1  -1 -18 16133.6 1001.96   1
  -1   1 -18 16466.5 1095.99   1
   1  -1  18 17276.0 1114.32   3
   1  -1  19 13928.6 1026.21   3
  -1  -1 -19 13079.1 938.205   1
  -1   1 -19 13683.0 1040.87   1
  -1  -1 -20 3973.24 569.755   1
  -1   1 -20 4136.34 602.380   1
  -1  -1 -21 5562.23 656.579   1
  -1   1 -21 5203.85 696.900   1
   1   1  21 4602.99 812.392   3
  -1   1 -22 11863.8 1075.25   1
  -1  -1 -22 11256.5 965.656   1
   1   1  22 12064.3 1330.72   3
   1   1  23 9417.39 1200.81   3
  -1  -1 -23 7987.68 862.241   1
  -1   1 -23 10003.8 1005.40   1
  -1  -1 -24 16995.1 1258.26   1
  -1   1 -24 16977.0 1352.88   1
   1   1  24 17917.3 1679.78   3
  -1   1 -25 11328.7 1139.18   1
  -1   1 -26 5759.24 847.006   1
   1   1  26 5968.52 826.523   5
  -1   2  25 2551.87 613.234   5
  -1   2  24 14462.1 1274.51   5
   1   2 -24 15424.3 1339.36   1
  -1   2  23 4280.77 698.173   5
   1   2 -23 4486.31 762.783   1
  -1   2  22 31213.9 1753.90   5
   1   2 -22 35672.5 1931.32   1
  -1   2  21 3064.47 663.904   5
   1   2 -21 2110.33 517.216   1
  -1   2  20 62549.3 2315.85   5
   1   2 -20 67977.6 2490.00   1
  -1   2  19 1374.82 457.004   5
   1   2 -19 1343.02 423.254   1
  -1   2  18 68940.0 2287.43   5
   1   2 -18 72849.7 2406.28   1
  -1   2  17 7461.79 786.477   5
   1   2 -17 8423.10 838.218   1
   1   2 -16 80327.3 2365.09   1
  -1   2  16 76897.3 2250.47   5
   1   2 -15 8673.12 773.470   1
  -1   2  15 8949.17 765.652   5
   1   2 -14 20688.6 1118.67   1
  -1   2  14 19857.1 1067.80   5
   1   2 -13 40626.5 1492.07   1
  -1   2  13 37231.8 1421.06   5
  -1   2  12 634.999 195.820   5
   1   2 -12 766.625 232.073   1
  -1   2  11 731.514 213.947   5
   1   2 -11 49.9075 90.8301   1
  -1   2  10 16623.0 860.598   5
   1   2 -10 17794.0 896.783   1
  -1   2   9 1854.64 283.534   5
   1   2  -9 1878.26 283.437   1
  -1   2   8 15216.7 758.726   5
  -1  -2   8 16029.0 1160.42   2
   1   2  -8 15664.3 761.049   1
   1   2  -7 20867.9 840.433   1
  -1  -2   7 21470.5 1227.40   2
  -1   2   7 21815.9 880.468   5
  -1   2   6 50767.0 1303.26   5
   1   2  -6 51500.5 1264.36   1
  -1  -2   6 51096.1 1747.06   2
  -1   2   6 50112.6 1353.51   4
  -1   2   6 49936.2 597.657   2
  -1  -2   5 71712.8 1692.42   4
  -1   2   5 73498.3 1520.68   4
  -1   2   5 72351.4 1503.20   5
  -1  -2   5 74328.0 1970.04   2
   1   2  -5 73766.8 1441.27   1
  -1  -2   5 75858.2 1548.90   1
   1   2  -4 274975. 2652.01   1
  -1  -2   4 269201. 3565.93   2
  -1  -2   4 273799. 3033.19   4
  -1   2   4 275464. 2728.14   4
  -1   2   4 273853. 2835.12   5
  -1  -2   4 269327. 2830.09   1
   1  -2  -3 47523.9 1109.05   4
  -1  -2   3 46210.9 1375.32   2
   1   2  -3 48945.8 1077.09   1
  -1  -2   3 46775.3 1137.44   4
  -1   2   3 45999.3 1140.32   5
  -1   2   3 47123.2 1067.45   4
  -1  -2   3 48699.5 1267.95   3
  -1  -2   3 48414.7 1145.18   1
   1  -2  -2 279935. 2700.85   5
  -1   2   2 286202. 2758.14   5
  -1   2   2 278877. 2473.24   4
  -1  -2   2 282070. 3219.13   2
  -1  -2   2 287156. 2601.80   4
   1  -2  -2 284325. 2565.33   4
   1   2  -2 286508. 2606.69   4
  -1  -2   2 279189. 3083.01   3
   1   2  -2 275124. 2430.48   1
  -1  -2   2 281856. 2551.83   1
   1  -2  -1 2952.95 244.765   4
  -1  -2   1 3436.10 345.790   2
  -1   2   1 2832.39 285.979   5
  -1  -2   1 3705.66 367.621   3
   1   2  -1 3110.25 253.118   4
  -1  -2   1 3276.78 267.658   4
  -1   2   1 2689.70 235.598   4
  -1  -2   1 3175.20 203.887   5
   1  -2  -1 3163.65 286.200   5
   1   2  -1 4061.04 278.013   1
  -1  -2   0 539824. 4574.86   3
  -1  -2   0 583452. 2297.75   5
  -1   2   0 592778. 3947.07   5
   1   2   0 549574. 3081.39   1
   1  -2   0 588037. 3530.75   4
  -1  -2   0 570024. 3291.02   4
  -1   2   0 573512. 3487.74   4
   1   2   0 540869. 4375.81   3
   1  -2   0 577370. 3796.38   5
   1   2   0 563191. 3246.67   4
   1   2   1 11195.4 654.581   3
   1  -2   1 9479.11 495.832   5
  -1  -2  -1 10074.9 267.556   5
   1   2   1 10037.4 428.920   4
  -1  -2  -1 9912.02 430.817   4
  -1  -2  -1 10377.9 655.319   3
  -1   2  -1 9854.23 518.209   5
   1  -2   1 10059.3 465.586   4
  -1  -2  -2 213772. 1256.99   5
  -1   2  -2 212131. 2482.96   5
   1  -2   2 213449. 2245.86   4
   1   2   2 214641. 2983.89   3
   1   2   2 211947. 1985.92   4
   1  -2   2 215722. 2452.18   5
  -1   2  -3 69574.3 1500.39   5
   1   2   3 72628.4 801.474   5
  -1   2  -3 72270.4 1481.27   1
   1   2   3 70882.3 1197.84   4
   1  -2   3 70281.4 1384.04   4
   1   2   3 73736.6 1835.06   3
   1   2   4 213873. 2228.65   4
  -1   2  -4 218792. 2734.62   1
   1   2   4 209461. 3261.25   3
   1   2   5 6364.80 295.529   5
   1   2   5 6022.55 312.500   1
  -1   2  -5 6524.35 493.980   1
  -1   2  -5 6150.26 311.576   3
   1   2   5 6655.22 610.200   3
   1   2   6 27436.8 712.802   1
   1   2   6 27827.8 1290.93   3
  -1   2  -6 28389.1 669.331   3
  -1   2  -6 27334.9 1049.38   1
   1   2   6 29025.3 692.502   5
   1   2   7 52219.9 1012.33   5
   1   2   7 51335.7 1055.63   1
  -1   2  -7 51524.8 1471.62   1
   1   2   7 50683.8 1822.67   3
   1   2   8 1294.08 184.371   5
   1   2   8 988.253 158.157   1
   1   2   8 1195.18 319.372   3
  -1   2  -8 1037.44 220.973   1
  -1   2  -9 1074.53 233.361   1
   1   2   9 904.878 169.751   5
   1   2   9 710.028 251.735   3
  -1   2 -10 17578.4 924.169   1
   1   2  10 17550.2 727.599   5
   1   2  11 9878.69 576.405   5
   1  -2  11 9784.26 465.674   3
  -1   2 -11 9812.27 716.697   1
   1  -2  12 3044.38 280.348   3
  -1   2 -12 2438.30 381.076   1
   1   2  12 3183.57 351.429   5
   1   2  13 10642.7 667.404   5
  -1   2 -13 10694.4 795.138   1
   1  -2  13 9854.92 528.036   3
   1  -2  14 33104.9 1034.37   3
  -1   2 -14 34923.2 1471.55   1
   1   2  14 33841.4 1224.27   5
  -1   2 -15 21002.5 1205.10   1
   1   2  15 20114.6 990.507   5
   1  -2  15 20957.7 858.612   3
   1   2  16 121694. 2534.54   5
  -1   2 -16 127488. 3004.81   1
   1  -2  16 123208. 2203.68   3
  -1   2 -17 13531.4 1028.44   1
   1   2  17 13102.2 874.697   5
  -1   2 -18 59569.1 2166.83   1
   1   2  18 57758.6 1882.02   5
  -1   2 -19 3357.38 594.058   1
   1   2  19 3092.28 515.449   5
   1   2  20 86588.1 2489.19   5
  -1   2 -20 90046.6 2841.64   1
  -1   2 -21 4348.82 732.612   1
   1   2  21 3508.64 579.874   5
  -1   2 -22 28808.3 1712.27   1
   1   2  22 24141.5 1413.55   5
   1   2  23 4636.75 671.254   5
  -1   2 -23 5481.35 803.258   1
   1   2  23 6821.02 1146.56   3
  -1   2 -24 10707.7 1097.83   1
   1   2  24 9293.23 950.122   5
   1   2  24 11895.8 1487.18   3
   1   2  25 782.761 345.014   5
  -1   2 -25 721.526 300.982   1
   1   2  25 447.583 431.458   3
   1   2  26 1905.69 664.744   3
   1   2  26 1083.82 387.362   5
  -1   3  24 3426.62 695.440   5
   1   3 -24 1735.39 528.939   1
  -1   3  23 13471.2 1188.01   5
   1   3 -23 13723.8 1281.73   1
  -1   3  22 3382.72 679.072   5
   1   3 -22 3704.46 694.801   1
  -1   3  21 31950.5 1747.49   5
   1   3 -21 33095.8 1877.28   1
   1   3 -20 796.501 390.220   1
  -1   3  20 1266.72 497.135   5
  -1   3  19 66340.2 2367.52   5
   1   3 -19 70088.3 2550.38   1
  -1   3  18 7836.17 832.601   5
   1   3 -18 9200.26 927.246   1
   1   3 -17 70446.3 2398.66   1
  -1   3  17 69241.6 2261.02   5
  -1   3  16 21878.7 1260.06   5
   1   3 -16 20712.9 1283.20   1
   1   3 -15 23057.3 1317.61   1
  -1   3  15 21917.3 1216.52   5
  -1   3  14 20356.3 1128.80   5
   1   3 -14 20371.5 1190.33   1
  -1   3  13 8553.71 718.381   5
   1   3 -13 8971.92 774.773   1
   1   3 -12 6057.97 616.656   1
  -1   3  12 5613.76 559.109   5
   1   3 -11 1734.94 341.892   1
  -1   3  11 2380.53 376.462   5
   1   3 -10 252.746 163.123   1
  -1   3  10 366.037 169.585   5
   1   3  -9 402.558 156.255   1
  -1   3   9 388.793 167.301   5
   1   3  -8 24946.3 1087.42   1
  -1   3   8 22714.7 1007.72   5
  -1  -3   8 24154.1 1579.52   2
  -1  -3   7 7409.46 877.752   2
  -1   3   7 6996.38 549.564   5
   1   3  -7 6907.47 553.466   1
  -1  -3   7 6615.24 485.561   3
  -1   3   6 81346.9 989.434   2
  -1  -3   6 84384.9 1740.89   3
  -1   3   6 82055.0 1647.41   4
  -1  -3   6 83357.5 2586.63   2
   1   3  -6 81622.5 1853.28   1
  -1   3   6 81744.0 1814.16   5
  -1  -3   5 134956. 3092.60   2
  -1  -3   5 134872. 2312.97   4
   1   3  -5 136574. 2336.44   1
  -1   3   5 132303. 2258.30   5
  -1   3   5 130526. 1939.04   4
  -1  -3   5 133696. 2230.48   3
  -1  -3   4 68189.7 1506.08   4
  -1  -3   4 69828.3 1627.91   3
  -1  -3   4 68811.6 2088.38   2
   1   3  -4 68569.1 1596.77   1
  -1   3   4 68095.8 1588.36   5
  -1   3   4 65452.6 1303.67   4
  -1   3   3 237663. 2942.35   5
   1  -3  -3 235957. 2506.30   4
  -1  -3   3 232471. 2531.25   4
  -1  -3   3 233022. 3665.21   2
  -1  -3   3 234603. 3086.54   3
  -1   3   3 229052. 2289.49   4
  -1  -3   3 227624. 2593.88   5
   1   3  -3 230369. 2849.05   1
  -1  -3   2 2732.29 252.066   4
  -1  -3   2 2656.08 256.361   5
   1   3  -2 2938.02 321.181   1
   1  -3  -2 2625.52 248.506   4
  -1  -3   2 2626.55 369.381   2
  -1   3   2 2545.73 230.502   4
  -1   3   2 2768.66 318.142   5
   1   3  -1 234151. 3067.91   3
  -1  -3   1 243125. 2245.23   5
   1   3  -1 237496. 2660.32   1
   1  -3  -1 232962. 2327.32   4
  -1  -3   1 237849. 2209.54   4
  -1  -3   1 241345. 3339.78   2
  -1   3   1 240301. 2922.89   5
  -1   3   1 236463. 2231.85   4
   1   3   0 727.613 200.600   3
  -1  -3   0 887.296 223.383   2
  -1   3   0 865.046 187.558   5
  -1  -3   0 346.974 69.8077   5
   1   3   0 492.107 114.615   1
   1   3   0 278.972 66.7216   4
   1  -3   0 391.604 93.9848   4
  -1  -3   0 362.569 81.6361   4
  -1  -3  -1 342615. 2498.10   4
   1  -3   1 330452. 2759.89   4
  -1   3  -1 339279. 3522.66   5
  -1  -3  -1 342186. 2341.83   5
   1   3   1 330578. 2418.80   5
   1   3   1 328672. 2409.56   4
  -1  -3  -1 339853. 3626.82   2
   1   3   1 328067. 3928.70   3
  -1   3  -2 38631.8 1209.76   5
   1   3   2 38468.1 787.056   5
  -1  -3  -2 39072.8 1192.26   2
   1   3   2 40423.5 1448.54   3
   1   3   2 38561.0 825.941   4
   1  -3   2 38019.7 977.060   4
  -1  -3  -2 38883.2 785.717   5
  -1  -3  -3 265729. 2095.24   5
  -1   3  -3 264464. 3271.84   5
   1   3   3 263084. 2210.23   4
   1  -3   3 262339. 2738.07   4
   1   3   3 268353. 2086.50   5
   1   3   3 264740. 3828.84   3
  -1  -3  -4 111101. 1414.64   5
   1   3   4 108114. 1389.31   5
   1   3   4 108248. 1517.56   4
  -1   3  -4 110315. 2179.43   1
  -1  -3  -5 50184.9 1001.68   5
   1   3   5 49456.8 976.533   5
   1   3   5 46669.1 1062.58   4
  -1   3  -5 48743.1 1517.16   1
   1   3   5 50263.5 1830.19   3
   1   3   6 27971.5 773.466   5
  -1   3  -6 27642.3 1173.08   1
   1   3   6 27351.9 1411.73   3
  -1   3  -6 27242.2 528.918   3
  -1   3  -7 136.955 133.739   1
   1   3   7 200.407 220.516   3
   1   3   8 12753.1 575.868   5
  -1   3  -8 12438.6 821.513   1
   1   3   8 14265.4 1096.50   3
  -1   3  -9 372.073 147.583   1
   1   3   9 439.936 123.014   5
   1   3  10 280.539 105.667   5
  -1   3 -10 352.863 175.726   1
  -1   3 -11 1941.84 360.572   1
   1   3  11 2497.76 302.336   5
  -1   3 -12 19610.9 1143.84   1
   1   3  12 19536.3 873.516   5
   1   3  13 19416.5 908.180   5
  -1   3 -13 20877.3 1198.69   1
  -1   3 -14 20227.0 1203.47   1
   1   3  14 21093.7 982.350   5
  -1   3 -15 57642.4 2105.85   1
   1   3  15 58810.2 1712.27   5
  -1   3 -16 26999.1 1469.64   1
   1   3  16 29020.6 1250.42   5
   1   3  17 76916.8 2129.61   5
  -1   3 -17 75668.2 2540.77   1
  -1   3 -18 986.720 365.231   1
   1   3  18 861.553 275.078   5
  -1   3 -19 53050.6 2237.90   1
   1   3  19 52430.6 1885.11   5
  -1   3 -20 1382.14 441.169   1
   1   3  20 1144.37 330.640   5
  -1   3 -21 32748.8 1847.17   1
   1   3  21 30714.8 1533.70   5
   1   3  22 2550.71 491.175   5
  -1   3 -22 2874.07 659.900   1
   1   3  23 15548.6 1174.10   5
  -1   3 -23 16236.5 1384.23   1
  -1   3 -24 10477.6 1155.52   1
   1   3  24 9668.16 939.351   5
   1   3  24 11648.9 1605.83   3
   1   3  25 4417.24 1038.13   3
   1   3  25 3124.14 586.352   5
   1   3  26 974.190 347.019   5
   1   4 -23 13062.5 1283.37   1
  -1   4  23 12536.5 1191.55   5
   1   4 -22 2127.72 562.322   1
  -1   4  22 1331.58 435.318   5
  -1   4  21 1030.69 349.202   5
   1   4 -21 521.428 310.215   1
  -1   4  20 690.478 264.934   5
   1   4 -20 535.342 292.812   1
   1   4 -19 441.260 306.764   1
  -1   4  19 495.966 232.383   5
   1   4 -18 7057.76 823.613   1
  -1   4  18 5388.54 693.126   5
  -1   4  17 14508.7 1088.44   5
   1   4 -17 15944.0 1218.24   1
  -1   4  16 20109.2 1238.17   5
   1   4 -16 19464.3 1303.98   1
   1   4 -15 30364.8 1576.88   1
  -1   4  15 31013.5 1497.49   5
   1   4 -14 44698.3 1872.15   1
  -1   4  14 46007.8 1791.44   5
   1   4 -13 29366.2 1489.55   1
  -1   4  13 31546.4 1447.78   5
   1   4 -12 69511.0 2221.88   1
  -1   4  12 72654.3 2139.58   5
   1   4 -11 3643.21 523.533   1
  -1   4  11 4718.53 551.294   5
  -1   4  10 96483.0 2352.24   5
   1   4 -10 95745.3 2484.26   1
   1   4  -9 3661.98 490.514   1
  -1   4   9 3738.78 508.469   5
   1   4  -8 86899.6 2263.16   1
  -1   4   8 87789.4 2140.69   5
  -1  -4   7 70235.4 2816.69   2
   1   4  -7 71936.2 1996.78   1
  -1   4   7 69738.1 1871.37   5
  -1   4   6 124644. 1523.94   2
  -1  -4   6 123232. 3564.18   2
   1   4  -6 124087. 2567.84   1
  -1   4   6 118474. 1870.67   4
  -1   4   6 116113. 2379.73   5
  -1   4   5 52962.4 1264.55   2
  -1  -4   5 52244.8 2226.72   2
  -1   4   5 48586.6 1513.34   5
  -1   4   5 50545.5 1148.81   4
  -1  -4   5 51804.4 1405.55   4
   1   4  -5 53033.9 1632.64   1
  -1  -4   4 29483.8 969.138   4
   1   4  -4 30215.1 1196.61   1
  -1  -4   4 30603.4 1609.37   2
  -1   4   4 27330.7 1058.51   2
  -1   4   4 29524.4 1177.87   5
  -1   4   4 28748.7 817.166   4
  -1  -4   3 155628. 2027.49   4
  -1   4   3 154046. 2660.46   5
  -1   4   3 150023. 1804.46   4
  -1  -4   3 150288. 3374.24   2
   1   4  -3 154671. 2665.26   1
   1   4  -2 18375.2 901.287   3
  -1   4   2 18201.9 620.016   4
  -1  -4   2 18518.1 1140.21   2
  -1   4   2 17897.4 904.436   5
   1  -4  -2 18943.8 694.159   4
  -1  -4   2 18729.1 648.105   4
   1   4  -2 18779.2 895.043   1
  -1   4   1 308.322 171.897   5
   1   4  -1 167.300 135.767   3
   1   4  -1 409.750 122.259   1
  -1  -4   1 137.284 64.3700   5
  -1  -4   1 170.212 163.424   2
   1  -4  -1 228.858 87.6898   4
  -1  -4   1 177.038 74.7884   4
  -1  -4   0 71.6936 129.680   2
  -1   4   0 255.813 113.615   5
   1  -4   0 248.659 100.628   4
  -1  -4   0 414.086 100.671   4
  -1  -4   0 323.272 100.724   5
   1   4   1 35270.8 768.858   4
   1   4   1 34257.4 966.459   5
  -1  -4  -1 35110.8 1373.91   2
  -1  -4  -1 34301.8 936.086   5
   1   4   1 36935.9 1428.11   3
   1  -4   1 34332.2 911.590   4
  -1   4  -1 35145.5 1283.42   5
   1   4   2 31397.1 706.857   4
   1  -4   2 32278.0 918.244   4
  -1  -4  -2 32053.4 1273.61   2
   1   4   2 33966.9 1433.82   3
   1   4   2 31343.4 898.765   5
  -1   4  -2 32945.0 1265.11   5
  -1  -4  -2 31971.4 891.387   5
   1   4   3 100881. 1608.50   5
  -1  -4  -3 102093. 2192.91   2
   1   4   3 98658.2 1288.15   4
  -1  -4  -3 100031. 1575.16   5
   1  -4   3 99685.8 1710.57   4
   1   4   3 103350. 2595.07   3
  -1   4  -3 100460. 2246.33   5
  -1  -4  -4 32861.9 915.729   5
   1   4   4 31675.3 902.352   5
  -1  -4  -4 32268.8 1195.31   2
   1   4   4 31431.6 762.237   4
   1  -4   4 33414.9 1066.14   4
  -1   4  -4 32387.5 1319.22   1
   1   4   4 33349.5 1557.34   3
  -1  -4  -5 63980.8 1655.34   2
  -1   4  -5 63190.5 1897.11   1
   1   4   5 63562.1 1308.49   5
   1   4   5 62158.0 1145.87   4
   1   4   5 64830.0 2249.75   3
  -1  -4  -5 62468.1 1301.36   5
  -1  -4  -6 108391. 2109.46   2
  -1   4  -6 108802. 2575.41   1
   1   4   6 110135. 1649.49   4
   1   4   6 111797. 1790.07   5
   1   4   6 107373. 3009.09   3
   1   4   7 39924.2 1101.41   5
   1   4   7 40094.3 1065.20   4
  -1   4  -7 40759.9 1601.00   1
   1   4   7 40274.6 1914.83   3
   1   4   8 152307. 2233.69   5
  -1   4  -8 162024. 3242.27   1
   1   4   8 155098. 3858.66   3
   1   4   9 453.015 142.936   5
  -1   4  -9 364.637 215.173   1
   1   4   9 394.225 284.470   3
  -1   4 -10 90558.3 2540.77   1
   1   4  10 92432.5 1856.15   5
   1   4  11 2902.43 353.644   5
  -1   4 -11 3279.93 494.322   1
   1   4  12 52398.7 1494.18   5
  -1   4 -12 55648.9 2052.32   1
  -1   4 -13 63180.5 2236.20   1
   1   4  13 61344.3 1671.67   5
  -1   4 -14 52221.4 2077.47   1
   1   4  14 51055.5 1585.56   5
  -1   4 -15 18996.0 1268.73   1
   1   4  15 19103.7 1005.17   5
  -1   4 -16 11846.3 1022.44   1
   1   4  16 13080.1 860.014   5
  -1   4 -17 14859.8 1189.63   1
   1   4  17 15127.9 962.641   5
  -1   4 -18 5638.34 747.574   1
   1   4  18 6080.21 633.657   5
  -1   4 -19-216.518 236.199   1
   1   4  19 246.785 216.749   5
   1   4  20 257.177 160.915   5
  -1   4 -20 310.864 315.936   1
  -1   4 -21 8695.97 1000.15   1
   1   4  21 8287.83 818.979   5
  -1   4 -22 5750.06 869.908   1
   1   4  22 5613.87 707.894   5
   1   4  23 13354.8 1100.02   5
   1   4  23 14645.3 1865.07   3
  -1   4 -23 13748.3 1310.46   1
   1   4  24 2473.04 510.125   5
  -1   5  22-154.479 249.546   5
  -1   5  21 679.807 338.104   5
   1   5 -21 323.293 305.270   1
  -1   5  20 588.638 318.531   5
   1   5 -20-46.2251 289.351   1
   1   5 -19 151.562 194.475   1
  -1   5  19 628.359 296.011   5
  -1   5  18 316.143 273.013   5
   1   5 -18-162.935 231.992   1
  -1   5  17 488.828 277.017   5
   1   5 -17 554.548 313.895   1
  -1   5  16 3640.86 579.997   5
   1   5 -16 3759.90 637.458   1
  -1   5  15 6737.98 752.059   5
   1   5 -15 6878.35 818.994   1
   1   5 -14 2772.78 501.466   1
  -1   5  14 3210.73 548.666   5
   1   5 -13 78669.8 2561.55   1
  -1   5  13 76648.0 2376.94   5
  -1   5  12 964.054 366.831   5
   1   5 -12 800.516 327.499   1
  -1   5  11 201133. 3703.31   5
   1   5 -11 207173. 3999.09   1
  -1   5  10 937.003 358.109   5
   1   5 -10 432.408 276.302   1
  -1   5   9 159263. 3187.53   5
   1   5  -9 158827. 3357.21   1
   1   5  -8 20116.2 1175.68   1
  -1   5   8 19632.3 1101.78   5
  -1   5   7 101871. 1719.92   4
  -1   5   7 106865. 2544.15   5
  -1   5   6 1168.29 281.555   5
  -1   5   6 1289.92 198.481   2
   1   5  -6 1646.61 342.348   1
  -1   5   6 1354.04 195.172   4
  -1   5   5 25401.3 1204.38   5
  -1   5   5 26384.5 1003.13   2
  -1  -5   5 26398.0 967.131   4
  -1  -5   5 29950.9 1889.51   2
  -1   5   5 22526.6 713.885   4
   1   5  -5 26253.8 1256.30   1
  -1   5   4-81.3586 179.514   5
  -1  -5   4 131.012 84.8360   4
   1   5  -4 236.342 139.517   1
  -1   5   4-82.6114 161.370   2
  -1   5   4 99.8371 49.7846   4
  -1   5   3 362.230 139.161   5
   1   5  -3 258.429 144.039   1
  -1  -5   3 832.043 389.716   2
   1   5  -3 772.584 202.780   3
  -1  -5   3 321.118 101.675   4
   1  -5  -2 413.595 129.545   4
   1   5  -2 756.668 210.320   3
  -1   5   2 282.657 180.106   5
   1   5  -2 605.767 200.324   1
  -1  -5   2 812.603 388.446   2
  -1  -5   2 336.680 91.1278   4
   1   5  -1 2210.47 343.471   1
   1   5  -1 1891.11 317.287   3
  -1   5   1 1684.07 326.531   5
   1  -5  -1 2196.96 243.721   4
  -1  -5   1 2577.77 512.963   2
  -1  -5   1 2021.65 182.550   4
   1   5   0 2421.51 391.589   3
   1  -5   0 1401.78 184.796   4
   1   5   0 1239.70 258.779   1
  -1  -5   0 1649.09 401.111   2
  -1   5   0 1545.05 305.474   5
   1   5   1 3530.42 487.118   3
   1   5   1 2847.14 329.245   5
   1  -5   1 2838.43 281.620   4
  -1  -5  -1 2677.53 453.722   2
  -1   5  -1 3109.71 420.417   5
   1   5   2 780.811 248.256   3
   1   5   2 370.481 125.660   5
  -1   5  -2 739.188 258.656   5
  -1  -5  -2 414.862 135.661   2
   1  -5   2 615.560 141.652   4
  -1   5  -3 9657.51 764.492   5
   1   5   3 9139.18 347.582   4
   1  -5   3 9402.82 536.526   4
   1   5   3 9225.08 577.841   5
  -1  -5  -3 9790.14 806.844   2
   1   5   3 9664.87 862.721   3
   1   5   4 2578.19 195.404   4
   1   5   4 2847.27 503.866   3
  -1   5  -4 2721.56 433.899   1
  -1  -5  -4 2781.23 411.931   2
   1  -5   4 2802.27 313.820   4
   1   5   4 2780.55 315.223   5
   1   5   5 55657.3 1419.53   5
  -1  -5  -5 56721.0 1780.26   2
   1   5   5 54306.0 952.232   4
   1  -5   5 58909.3 1502.90   4
  -1   5  -5 56868.7 1963.65   1
   1   5   5 58900.3 2263.62   3
   1   5   6 2001.25 275.966   5
  -1   5  -6 2551.72 443.262   1
  -1  -5  -6 2153.92 344.250   2
   1   5   6 2155.42 211.157   4
   1   5   6 2526.30 500.142   3
  -1  -5  -7 127714. 2557.60   2
   1   5   7 125648. 1712.90   4
   1   5   7 125447. 2213.17   5
  -1   5  -7 126258. 3056.07   1
   1   5   7 128620. 3595.75   3
   1   5   8 2135.14 298.091   5
  -1  -5  -8 2024.36 343.114   2
  -1   5  -8 2019.80 451.792   1
   1   5   8 2084.47 245.133   4
   1   5   9 249478. 3240.02   5
   1   5   9 244223. 2794.76   4
  -1   5  -9 254233. 4449.60   1
  -1  -5  -9 248295. 3430.40   2
  -1   5 -10 6503.61 727.570   1
   1   5  10 7234.41 572.384   5
  -1  -5 -10 6862.19 572.138   2
   1   5  10 6604.67 936.951   3
  -1  -5 -11 141458. 2561.86   2
  -1   5 -11 149801. 3557.04   1
   1   5  11 151134. 2657.84   5
   1   5  11 143332. 4349.48   3
  -1   5 -12 8771.63 904.221   1
   1   5  12 7289.05 601.628   5
  -1  -5 -12 6938.19 574.242   2
  -1   5 -13 40700.4 1910.19   1
  -1  -5 -13 37133.2 1299.45   2
   1   5  13 41002.2 1465.73   5
   1   5  14 5025.13 526.669   5
  -1   5 -14 5207.98 727.234   1
  -1   5 -15 6947.24 846.673   1
   1   5  15 7133.38 650.210   5
  -1   5 -16 825.521 363.232   1
   1   5  16 837.358 234.147   5
  -1   5 -17 675.977 241.315   1
   1   5  17 623.821 248.900   5
  -1   5 -18 339.447 194.590   1
   1   5  18 662.878 230.743   5
  -1   5 -19 354.844 238.824   1
   1   5  19 247.097 187.550   5
   1   5  20-84.6739 134.768   5
  -1   5 -20 179.831 227.688   1
  -1   5 -21 28.0201 203.727   1
   1   5  21 950.246 674.670   3
   1   6 -20 10724.7 1183.08   1
  -1   6  20 9229.83 1028.27   5
  -1   6  19 768.678 358.213   5
   1   6 -19 1717.23 476.817   1
   1   6 -18 3512.49 656.737   1
  -1   6  18 3410.22 627.490   5
  -1   6  17 26310.9 1597.56   5
   1   6 -17 25612.8 1688.04   1
  -1   6  16 2956.62 592.357   5
   1   6 -16 3175.57 637.506   1
  -1   6  15 19139.9 1333.82   5
   1   6 -15 19486.8 1409.45   1
  -1   6  14 19444.0 1296.32   5
   1   6 -14 21616.8 1449.88   1
  -1   6  13 11139.9 994.447   5
   1   6 -13 12918.9 1126.09   1
  -1   6  12 12767.2 1048.41   5
   1   6 -12 13233.3 1096.75   1
  -1   6  11 2522.71 472.259   5
   1   6 -11 2603.58 518.965   1
   1   6 -10 47043.5 1986.52   1
  -1   6  10 47788.8 1898.70   5
  -1   6   9 68.5468 158.014   5
   1   6  -9 136.635 147.761   1
   1   6  -8 44080.1 1870.82   1
  -1   6   8 44175.2 1804.83   5
   1   6  -7 51190.2 1980.96   1
  -1   6   7 50089.1 1885.62   5
  -1   6   6 11495.8 884.333   5
   1   6  -6 12639.5 968.100   1
  -1   6   5 63493.3 2106.57   5
   1   6  -5 67696.0 2200.40   1
  -1  -6   4 36699.9 2233.41   2
   1   6  -4 37262.4 1609.30   1
  -1   6   4 36608.0 1594.37   5
  -1   6   3 50073.4 1873.76   5
  -1  -6   3 50073.6 2525.21   2
   1   6  -3 47075.6 1620.77   3
   1   6  -3 47178.0 1789.65   1
   1   6  -2 25561.0 1227.26   3
  -1  -6   2 26937.4 1815.28   2
  -1   6   2 24929.9 1301.11   5
   1   6  -2 26107.5 1302.47   1
  -1   6   1 1128.06 282.989   5
   1   6  -1 1406.97 308.125   1
  -1  -6   1 2128.78 594.213   2
   1   6  -1 1538.88 330.396   3
  -1  -6   0 55578.1 2363.92   2
   1  -6   0 52200.2 1106.14   4
   1   6   0 50697.7 1877.16   3
  -1   6   0 52106.4 1898.66   5
   1   6   0 49945.6 1772.16   1
   1   6   1 4207.28 574.210   3
  -1   6  -1 3394.67 487.826   5
   1  -6   1 4030.70 317.550   4
  -1  -6  -1 4710.24 698.488   2
  -1   6  -2 35320.3 1594.52   5
  -1  -6  -2 39323.9 1869.28   2
   1  -6   2 38683.2 1027.38   4
   1   6   2 38815.9 1349.04   5
   1   6   2 38701.7 1762.10   3
  -1   6  -3 99516.4 2764.22   1
   1  -6   3 99048.3 1730.89   4
  -1  -6  -3 103715. 2943.35   2
   1   6   3 95345.9 2115.07   5
   1   6   3 103125. 2954.06   3
   1   6   4 11891.1 735.691   5
  -1  -6  -4 13326.8 1022.88   2
   1  -6   4 13015.6 655.478   4
  -1   6  -4 10836.4 929.579   1
   1   6   4 11493.9 1029.41   3
   1   6   5 63169.1 1703.67   5
  -1  -6  -5 63328.9 2180.94   2
   1  -6   5 63327.5 1544.16   4
  -1   6  -5 62885.6 2285.73   1
   1   6   5 64139.8 2490.87   3
   1   6   6 51441.5 1554.43   5
  -1  -6  -6 52818.7 1937.95   2
   1  -6   6 48890.5 1454.91   4
  -1   6  -6 52327.7 2092.12   1
   1   6   6 48837.6 2250.51   3
   1   6   7 20489.7 995.462   5
  -1  -6  -7 21505.0 1211.06   2
   1  -6   7 21786.9 1027.89   4
  -1   6  -7 20719.5 1342.87   1
   1   6   7 21627.5 1549.19   3
   1   6   8 26186.0 1141.15   5
  -1  -6  -8 27171.7 1329.19   2
  -1   6  -8 27489.8 1574.21   1
   1   6   8 25942.6 1745.81   3
   1   6   9 1711.72 286.056   5
   1   6   9 1877.44 513.381   3
  -1  -6  -9 1133.31 300.010   2
  -1   6  -9 1574.80 392.504   1
   1   6  10 33198.2 1339.51   5
  -1  -6 -10 30377.5 1338.35   2
  -1   6 -10 29425.4 1661.49   1
   1   6  10 31989.2 2058.12   3
   1   6  11 3240.16 688.744   3
   1   6  11 3282.31 424.458   5
  -1   6 -11 3297.12 579.513   1
   1   6  12 29422.7 1297.75   5
  -1   6 -12 30926.9 1746.49   1
   1   6  12 32029.0 2200.79   3
  -1   6 -13 30626.8 1769.70   1
   1   6  13 31711.7 1369.60   5
   1   6  13 34162.9 2347.78   3
   1   6  14 5044.82 579.368   5
   1   6  14 5391.23 1023.76   3
  -1   6 -14 5498.28 771.069   1
   1   6  15 20846.5 1163.73   5
  -1   6 -15 22094.9 1535.36   1
   1   6  15 22355.8 1999.41   3
   1   6  16 6346.17 663.290   5
  -1   6 -16 6875.60 888.569   1
   1   6  16 6874.88 1179.14   3
  -1   6 -17 11895.9 1186.53   1
   1   6  17 14213.4 1692.15   3
  -1   6 -18 5132.83 786.875   1
   1   6  18 5621.88 1104.32   3
  -1   6 -19 103.133 304.643   1
   1   6  19 372.187 594.331   3
  -1   7  18 1351.77 464.005   5
  -1   7  17 32011.2 1855.12   5
   1   7 -17 31489.7 1943.37   1
  -1   7  16 729.699 370.168   5
   1   7 -16 655.434 357.091   1
  -1   7  15 10824.7 1063.45   5
   1   7 -15 10992.7 1118.15   1
  -1   7  14 2371.95 502.843   5
   1   7 -14 2176.84 553.861   1
   1   7 -13 325.058 285.838   1
  -1   7  13 309.899 270.519   5
  -1   7  12 3812.39 610.965   5
   1   7 -12 2897.38 559.149   1
  -1   7  11 2711.47 519.493   5
   1   7 -11 3936.82 620.626   1
  -1   7  10-41.9817 221.147   5
   1   7 -10 70.5848 163.852   1
  -1   7   9 2762.77 484.599   5
   1   7  -9 2604.84 512.210   1
  -1   7   8 273.383 246.525   5
   1   7  -8 895.375 318.697   1
  -1   7   7 5252.06 653.324   5
   1   7  -7 5619.19 703.126   1
   1   7  -6 5850.90 711.472   1
  -1   7   6 4492.32 612.654   5
  -1   7   5 31068.1 1594.32   5
   1   7  -5 29839.6 1600.33   1
  -1   7   4 6496.84 770.995   5
   1   7  -4 6766.94 745.533   1
  -1   7   3 83854.5 2606.70   5
   1   7  -3 78409.5 2223.55   3
   1   7  -3 84438.0 2640.74   1
  -1   7   2 3876.68 584.012   5
   1   7  -2 3717.49 585.160   1
   1   7  -2 3915.24 555.067   3
   1   7  -1 142830. 3231.54   3
  -1   7   1 146548. 3470.06   5
  -1  -7   1 145703. 4444.55   2
   1   7  -1 145283. 3390.37   1
   1   7   0 185.623 191.513   1
   1   7   0 89.2105 153.279   3
  -1   7   0-199.281 391.516   5
  -1  -7   0 177.846 503.421   2
  -1  -7  -1 86181.3 3247.61   2
   1   7   1 82623.8 2616.40   3
   1   7   1 83346.8 2481.53   1
  -1   7  -1 79713.4 2686.18   5
   1   7   2 15703.6 1186.55   3
  -1   7  -2 16295.7 1280.05   5
  -1  -7  -2 19131.5 1482.22   2
  -1   7  -2 15203.6 1201.92   1
   1   7   3 65944.3 2012.37   5
  -1  -7  -3 71379.8 2803.75   2
  -1   7  -3 66837.5 2508.44   1
   1   7   3 65013.1 2488.06   3
   1   7   4 3574.58 471.351   5
   1   7   4 3908.03 652.620   3
  -1   7  -4 3669.19 638.230   1
  -1  -7  -4 4437.63 713.322   2
   1   7   5 26383.2 1248.17   5
  -1  -7  -5 26049.3 1606.18   2
  -1   7  -5 27937.8 1670.21   1
   1   7   5 27179.2 1703.78   3
   1   7   6 494.490 288.198   3
   1   7   6 225.176 167.538   5
  -1   7  -6 214.686 235.373   1
  -1  -7  -6 488.343 342.425   2
   1   7   7 150.842 139.374   5
  -1   7  -7 160.683 251.264   1
   1   7   7-40.3795 177.873   3
  -1  -7  -7 146.458 211.965   2
   1   7   8 354.195 194.447   5
  -1   7  -8 63.3813 221.975   1
   1   7   8 421.006 269.118   3
  -1  -7  -8 389.742 282.773   2
   1   7   9 2421.61 581.488   3
   1   7   9 2585.20 409.166   5
  -1   7  -9 2438.55 526.067   1
   1   7  10 1608.60 476.329   3
  -1   7 -10 1602.06 447.224   1
   1   7  10 1991.26 344.324   5
   1   7  11 243.801 207.394   3
   1   7  11 757.507 226.672   5
   1   7  12 1338.81 495.546   3
  -1   7 -12 1423.48 419.911   1
   1   7  13 2599.91 707.921   3
  -1   7 -13 2412.12 560.937   1
   1   7  14 3368.08 818.840   3
  -1   7 -14 3619.86 687.961   1
  -1   7 -15 19410.8 1516.21   1
   1   7  15 20865.1 1961.52   3
  -1   7 -16 451.576 375.284   1
   1   7  16 607.485 405.849   3
  -1   7 -17 37002.1 2153.13   1
  -1   8  15 4701.05 796.433   5
   1   8 -15 4255.14 749.334   1
  -1   8  14 7357.35 925.086   5
   1   8 -14 7326.85 960.031   1
  -1   8  13 8177.97 959.136   5
   1   8 -13 8769.18 1027.16   1
  -1   8  12 641.179 389.743   5
   1   8 -12 1095.24 388.482   1
  -1   8  11-255.921 288.975   5
   1   8 -11 309.413 316.644   1
  -1   8  10 16.7355 241.862   5
   1   8 -10 11.2778 155.655   1
  -1   8   9 2367.44 492.054   5
   1   8  -9 2214.25 520.200   1
  -1   8   8 3760.21 634.548   5
   1   8  -8 3950.01 643.205   1
  -1   8   7 12171.0 1103.52   5
   1   8  -7 10542.7 1029.41   1
  -1   8   6 7708.98 889.846   5
   1   8  -6 6560.04 814.060   1
  -1   8   5 17650.8 1364.15   5
   1   8  -5 17511.9 1319.77   1
  -1   8   4 22370.4 1473.10   5
   1   8  -4 22689.4 1507.75   1
   1   8  -3 16032.4 1285.60   1
  -1   8   3 16204.6 1333.18   5
  -1   8   2 47590.2 2139.96   5
   1   8  -2 50466.3 1954.24   3
   1   8  -2 48223.3 2141.33   1
   1   8  -1 1548.25 373.391   3
  -1   8   1 1503.15 444.100   5
   1   8  -1 1667.58 414.618   1
   1   8   0 52325.0 2138.34   3
   1   8   0 55429.5 2295.37   1
  -1   8   0 51874.1 2260.85   5
   1   8   1 3256.38 563.652   3
  -1   8  -1 3381.91 758.206   5
   1   8   1 2239.53 466.538   1
   1   8   2 34808.5 1850.47   3
   1   8   2 36722.0 1820.10   1
  -1   8  -2 37284.7 2018.97   1
   1   8   3 34103.6 1900.48   3
  -1   8  -3 35316.7 2000.54   1
   1   8   4 25663.3 1376.36   5
  -1  -8  -4 25068.9 1814.65   2
  -1   8  -4 27003.1 1748.42   1
   1   8   4 24901.3 1666.31   3
  -1  -8  -5 11929.5 1226.61   2
  -1   8  -5 10484.1 1092.29   1
   1   8   5 11549.4 923.978   5
   1   8   5 11064.0 1166.10   3
  -1   8  -6 4588.58 755.817   1
   1   8   6 3354.12 652.671   3
  -1   8  -7 12563.2 1228.24   1
   1   8   7 13804.4 1339.29   3
   1   8   8 522.621 373.442   3
  -1   8  -8 333.641 248.776   1
   1   8   9 677.548 379.415   3
  -1   8  -9 960.449 379.162   1
   1   8  10 355.962 302.232   3
  -1   8 -10-24.5912 275.478   1
   1   8  11 2030.18 555.050   3
  -1   8 -11 2763.02 593.826   1
  -1   8 -12 8143.29 1019.52   1
   1   8  12 9841.14 1296.28   3
  -1   8 -13 9330.14 1095.07   1
   1   8  13 11132.8 1438.20   3
   1   9 -11 22195.4 1677.11   1
  -1   9  10 1916.90 584.110   5
   1   9 -10 1197.89 439.243   1
   1   9  -9 24743.7 1717.73   1
  -1   9   9 24144.8 1674.87   5
  -1   9   8 4202.48 728.757   5
   1   9  -8 3529.30 673.365   1
  -1   9   7 20626.9 1554.64   5
   1   9  -7 20807.1 1579.11   1
  -1   9   6 19384.9 1495.89   5
   1   9  -6 18666.4 1468.82   1
  -1   9   5 6736.48 921.333   5
   1   9  -5 7179.13 927.907   1
  -1   9   4 8720.81 1029.88   5
   1   9  -4 8654.43 1059.04   1
  -1   9   3 820.766 335.762   5
   1   9  -3 1152.50 347.319   1
  -1   9   2 1785.65 466.197   5
   1   9  -2 2300.49 541.606   1
  -1   9   1-123.883 319.531   5
   1   9  -1 49.8965 223.605   1
  -1   9   0-121.696 261.729   5
   1   9   0 107.445 181.424   1
  -1   9   0 134.295 218.887   1
   1   9   0 288.333 159.127   3
   1   9   1 473.459 220.858   3
   1   9   1 467.494 362.333   1
  -1   9  -1 466.296 361.273   1
   1   9   2 5996.98 825.456   3
  -1   9  -2 5346.11 838.833   1
   1   9   2 6006.74 825.456   1
   1   9   3 4022.04 705.574   3
   1   9   3 2669.22 578.616   1
  -1   9  -3 3271.11 673.498   1
   1   9   4 14284.9 1254.69   1
  -1   9  -4 14510.8 1399.53   1
   1   9   4 13748.6 1294.65   3
  -1   9  -5 14308.3 1414.84   1
   1   9   5 13251.8 1321.70   3
   1   9   6 8873.88 1090.59   3
  -1   9  -6 8985.94 1141.38   1
  -1   9  -7 20786.9 1695.44   1
   1   9   7 19591.5 1666.13   3
   1   9   8-70.6913 265.725   3
   1   9   9 26294.3 1990.20   3
   1   9  10 980.523 530.728   3
   1  10  -4 2693.89 591.134   1
   1  10  -3 1020.80 460.800   1
   1  10  -2 515.684 322.633   1
   1  10  -1 302.813 333.471   1
   1  10   0 1084.99 420.861   1
   1  10   1-3.89114 214.530   1
   1  10   2-26.7666 328.364   1
   1  10   3-5.01708 245.827   1
   1  10   4 3263.88 628.483   3
   1  10   4 3057.96 678.725   1
   1  10   5 3465.79 707.762   3
   1  10   5 3560.65 737.019   1
   1  10   6 22195.5 1702.82   1
   1  10   6 20217.6 1722.79   3
  -2   0  24 19498.4 1541.23   5
  -2   0  23 3717.19 696.305   5
  -2   0  22 50437.8 2319.37   5
   2   0 -21 4167.44 744.626   1
  -2   0  21 8693.77 964.475   5
   2   0 -20 55786.6 2173.46   1
  -2   0  20 58266.8 2335.69   5
   2   0 -19 5563.08 746.690   1
  -2   0  19 8966.81 924.178   5
   2   0 -18 66194.5 2211.21   1
  -2   0  18 63072.2 2288.55   5
   2   0 -17 4578.04 637.611   1
  -2   0  17 8932.21 843.992   5
  -2   0  16 26108.4 1392.61   5
   2   0 -16 25742.5 1292.39   1
   2   0 -15 913.585 276.227   1
  -2   0  15 2153.25 419.749   5
   2   0 -14 4453.31 500.598   1
  -2   0  14 4246.16 523.937   5
  -2   0  13 1840.84 345.340   5
  -2   0  13 1056.82 484.212   2
   2   0 -13 900.921 277.387   1
  -2   0  12 669.226 199.072   5
   2   0 -12 403.596 155.561   1
  -2   0  12 1049.33 392.011   2
   2   0 -11 1052.68 260.381   1
  -2   0  11 917.743 226.080   5
  -2   0  11 893.585 239.388   2
   2   0 -10 6371.36 509.910   1
  -2   0  10 5828.98 587.457   2
  -2   0  10 6510.79 562.860   5
  -2   0   9 159.599 116.888   5
  -2   0   9 152.751 116.525   2
  -2   0   8 19251.1 945.703   2
  -2   0   8 19121.4 871.812   5
  -2   0   7 360.068 102.965   5
  -2   0   7 182.330 131.826   2
  -2   0   6 546.092 146.409   5
  -2   0   5 4275.69 416.856   5
   2   0  -5 2967.79 534.972   4
  -2   0   4 201640. 2343.90   5
   2   0  -4 203676. 3072.31   4
  -2   0   4 209928. 2118.17   1
  -2   0   3 25003.1 826.752   5
   2   0  -3 25594.8 1103.53   4
   2   0  -3 25460.8 750.956   5
  -2   0   3 26542.6 693.037   1
  -2   0   2 486526. 3297.08   5
   2   0  -2 482716. 4462.38   4
  -2   0   2 471639. 2704.69   1
   2   0  -2 470995. 3079.78   5
   2   0  -1 41945.1 883.123   5
  -2   0   1 41620.5 745.950   1
   2   0   0 486983. 2892.13   5
  -2   0   0 480809. 3023.28   5
   2   0   0 486301. 4421.79   4
   2   0   1 40243.2 853.188   5
  -2   0  -1 38695.2 932.615   5
  -2   0  -2 282876. 2449.97   5
   2   0   2 282743. 2179.58   5
   2   0   2 272294. 3338.17   4
  -2   0  -2 265808. 1806.02   1
   2   0   3 16598.5 563.983   5
   2   0   3 19903.7 916.461   4
   2   0   4 61046.3 1096.35   5
  -2   0  -4 64070.2 872.494   1
   2   0   4 62287.9 1659.65   4
  -2   0  -5 39.5455 37.1498   1
   2   0   5 93.8592 72.3112   5
   2   0   6 3775.67 325.384   5
  -2   0  -6 3648.14 242.589   1
   2   0   6 3434.86 418.509   4
   2   0   7 1188.08 222.520   5
  -2   0  -7 1502.73 170.189   1
   2   0   7 1560.80 305.164   4
   2   0   8 1251.53 197.868   1
  -2   0  -8 1116.54 164.883   1
   2   0   8 949.529 215.194   4
   2   0   9 384.567 156.289   1
  -2   0  -9 621.520 140.785   1
   2   0  10 11106.8 832.194   3
  -2   0 -10 10994.2 559.614   1
  -2   0 -11 88.1373 73.2323   1
   2   0  11 288.001 191.217   3
   2   0  12 20836.2 1212.26   3
  -2   0 -12 21745.5 880.744   1
   2   0  13 883.940 297.912   3
  -2   0 -13 246.062 104.799   1
   2   0  14 19747.3 1224.86   3
  -2   0 -14 20032.1 931.576   1
   2   0  15 2476.32 482.838   3
  -2   0 -15 1762.55 309.151   1
   2   0  16 90192.2 2754.69   3
  -2   0 -16 88874.3 2126.25   1
   2   0  17 7242.32 834.093   3
  -2   0 -17 4427.55 510.921   1
   2   0  18 88255.0 2844.27   3
  -2   0 -18 86567.0 2249.26   1
   2   0  19 6267.60 819.088   3
  -2   0 -19 3634.98 514.499   1
  -2   0 -20 74234.3 2241.49   1
  -2   0 -21 2976.05 485.629   1
  -2   0 -22 29079.0 1514.92   1
  -2   0 -23 1499.57 392.329   1
  -2   0 -24 6875.15 779.074   1
  -2  -1  24 3791.26 720.841   5
  -2   1  24 3280.90 652.046   5
   2   1 -24 3714.98 683.406   1
  -2  -1  23 9352.81 1057.37   5
   2   1 -23 7922.98 960.431   1
  -2   1  23 9228.35 1036.42   5
   2   1 -22 7665.34 902.924   1
  -2  -1  22 8045.92 968.721   5
  -2   1  22 9030.95 1001.62   5
   2   1 -21 20143.1 1393.80   1
  -2   1  21 17177.0 1314.01   5
  -2  -1  21 19660.6 1426.81   5
  -2   1  20 3394.24 577.990   5
   2   1 -20 2311.08 518.285   1
  -2  -1  20 3397.73 601.954   5
   2   1 -19 23986.9 1413.49   1
  -2   1  19 23436.6 1450.04   5
  -2  -1  19 22940.8 1444.28   5
   2   1 -18 11330.9 964.468   1
  -2  -1  18 13686.4 1071.06   5
  -2   1  18 14173.0 1103.15   5
   2   1 -17 30111.6 1467.41   1
  -2  -1  17 29619.4 1519.70   5
  -2   1  17 30964.6 1568.55   5
  -2   1  16 32354.2 1559.28   5
   2   1 -16 31975.4 1474.57   1
   2   1 -15 31571.8 1414.81   1
  -2   1  15 31664.2 1494.90   5
   2   1 -14 67009.3 1963.98   1
  -2   1  14 67442.8 2103.72   5
  -2  -1  13 17539.7 1370.82   2
  -2   1  13 17796.1 1131.58   2
   2   1 -13 16775.2 960.299   1
  -2   1  13 18677.4 1089.31   5
  -2   1  12 16271.0 1005.68   2
  -2  -1  12 16259.1 1214.32   2
  -2   1  12 16983.6 990.934   5
  -2  -1  12 17181.3 962.734   5
   2   1 -12 14788.0 851.579   1
  -2   1  11 30663.2 1246.80   2
  -2  -1  11 29114.1 1508.63   2
   2   1 -11 29391.8 1134.31   1
  -2  -1  11 31180.5 1241.13   5
  -2   1  11 32052.3 1325.11   5
  -2   1  10 2766.83 409.845   2
  -2  -1  10 2157.90 503.548   2
   2   1 -10 2542.61 353.135   1
  -2  -1  10 3106.78 399.054   5
  -2   1   9 19972.4 974.536   5
  -2   1   9 19513.0 878.812   2
  -2  -1   9 19267.3 1109.89   2
  -2  -1   9 20502.7 925.533   5
   2   1  -9 19364.5 839.966   1
  -2  -1   8 110576. 2536.14   2
  -2  -1   8 107750. 2020.45   5
  -2   1   8 107401. 2184.57   5
   2   1  -8 108989. 1886.77   1
  -2   1   8 106881. 1961.15   2
  -2  -1   7 20977.6 1158.40   2
  -2   1   7 24748.6 1011.23   5
  -2  -1   7 23972.3 902.232   5
   2   1  -7 21629.1 819.543   1
  -2   1   6 137933. 2303.17   5
   2   1  -6 139565. 1913.69   1
  -2  -1   6 139093. 2612.57   2
   2  -1  -6 137803. 2704.94   4
  -2  -1   6 133866. 2018.68   5
   2   1  -5 143591. 2668.89   4
  -2   1   5 139714. 2252.11   5
  -2  -1   5 144276. 2583.75   2
  -2  -1   5 142935. 1873.46   1
   2  -1  -5 138945. 2620.38   4
   2   1  -5 140475. 1787.21   1
  -2  -1   5 142424. 1943.40   5
  -2   1   4 41741.9 1190.30   5
  -2  -1   4 44453.8 958.612   1
   2   1  -4 41185.7 897.229   1
   2   1  -4 42584.9 1405.39   4
   2  -1  -4 40517.3 1379.31   4
  -2  -1   4 40832.7 972.252   5
  -2  -1   3 156075. 1731.61   5
  -2  -1   3 158711. 1648.69   1
   2   1  -3 154413. 2592.26   4
   2  -1  -3 155418. 2616.36   4
  -2   1   3 157568. 2241.23   5
  -2  -1   2 32143.4 718.627   5
  -2   1   2 32225.7 980.303   5
  -2  -1   2 33406.8 685.930   1
  -2  -1   1 128556. 1154.46   1
  -2  -1   1 126459. 1253.89   5
   2   1  -1 126348. 2247.41   4
   2  -1  -1 127505. 2302.18   4
  -2   1   1 126419. 1920.44   5
  -2   1   0 18173.9 734.841   5
   2  -1   0 18544.6 697.212   5
   2  -1   0 19676.2 895.562   4
   2  -1   1 116014. 1735.10   5
  -2   1  -1 117057. 1832.81   5
   2   1   1 115623. 2140.08   4
   2  -1   1 117547. 2207.41   4
   2  -1   2 82606.3 1458.46   5
  -2   1  -2 84353.4 1594.60   5
   2   1   2 80217.0 673.982   5
   2  -1   2 83145.2 1891.99   4
   2   1   3 96746.7 825.513   5
   2   1   3 98212.8 1995.60   4
   2  -1   3 95667.2 1626.62   5
  -2   1  -3 99594.8 1624.91   1
   2  -1   3 96167.8 2038.60   4
   2   1   4 93929.8 1993.05   4
   2  -1   4 92180.4 2061.17   4
  -2   1  -4 89580.7 1620.72   1
   2   1   5 78136.2 1041.87   5
  -2   1  -5 80581.1 1558.84   1
   2   1   5 81983.7 1941.73   4
   2  -1   5 82872.0 2001.39   4
  -2   1  -6 117128. 1907.48   1
   2   1   6 118036. 2364.32   4
   2  -1   6 117841. 2477.05   4
   2   1   6 113986. 1253.21   1
   2   1   6 117295. 1485.45   5
   2   1   7 22238.7 1237.28   3
  -2   1  -7 21894.5 840.438   1
   2   1   7 21941.8 1109.90   4
   2  -1   7 22726.2 1151.33   4
   2   1   7 19832.5 664.250   1
   2   1   8 14787.4 1016.31   3
  -2  -1  -8 16202.9 503.444   1
  -2   1  -8 15994.7 739.573   1
   2   1   8 16974.2 973.857   4
   2  -1   8 15428.1 981.333   4
   2   1   8 15255.9 602.041   1
   2   1   9 31654.8 1513.59   3
  -2  -1  -9 30750.5 770.110   1
  -2   1  -9 32139.0 1077.59   1
   2   1   9 31558.7 926.270   1
   2   1  10 6231.22 455.733   1
   2   1  10 7549.32 798.895   3
  -2  -1 -10 6824.45 401.891   1
  -2   1 -10 6849.04 524.459   1
  -2  -1 -11 42087.5 1062.20   1
  -2   1 -11 43821.0 1349.31   1
  -2   1 -12 75774.2 1846.09   1
   2   1  12 74133.0 2520.88   3
  -2  -1 -13 16425.8 744.612   1
  -2   1 -13 14988.5 863.056   1
  -2  -1 -14 69284.3 1612.72   1
  -2   1 -14 70885.3 1922.17   1
   2   1  14 73155.6 2629.64   3
   2  -1  15 37548.2 1509.09   3
  -2   1 -15 36548.1 1422.67   1
  -2  -1 -15 34628.6 1194.67   1
   2   1  15 38053.3 1952.81   3
  -2  -1 -16 15633.2 845.486   1
   2  -1  16 16197.5 1014.03   3
  -2   1 -16 17429.9 1035.31   1
   2   1  16 18766.2 1417.73   3
   2  -1  17 57110.3 1942.77   3
  -2   1 -17 58147.0 1935.15   1
  -2  -1 -17 55463.0 1634.20   1
   2   1  17 61194.3 2584.07   3
  -2   1 -18 2674.00 450.833   1
  -2  -1 -18 2323.89 365.778   1
  -2  -1 -19 28203.9 1265.39   1
  -2   1 -19 30836.6 1510.77   1
   2   1  19 32156.9 1954.19   3
  -2  -1 -20 6294.13 633.693   1
  -2   1 -20 6381.41 715.429   1
  -2  -1 -21 15094.0 999.340   1
  -2   1 -21 16409.0 1179.12   1
   2   1  21 17375.0 1510.01   3
   2   1  22 13710.3 1372.19   3
  -2   1 -22 11833.6 1036.85   1
  -2   1 -23 7263.91 836.358   1
  -2   1 -24 7603.14 897.319   1
  -2   1 -25 4508.66 730.789   1
  -2   2  23 1965.93 512.304   5
   2   2 -23 2628.19 569.896   1
   2   2 -22 428.337 290.377   1
  -2   2  22 239.089 244.236   5
  -2   2  21 320.931 250.677   5
   2   2 -21 863.927 326.335   1
  -2   2  20 373.630 240.732   5
   2   2 -20 670.301 270.110   1
   2   2 -19 731.798 284.710   1
  -2   2  19 245.733 178.777   5
  -2   2  18 1018.93 355.451   5
   2   2 -18 223.306 158.564   1
  -2   2  17 10648.5 949.426   5
   2   2 -17 11775.8 946.732   1
  -2   2  16 20139.1 1265.86   5
   2   2 -16 19662.6 1188.92   1
  -2   2  15 12538.2 975.627   5
   2   2 -15 9819.70 846.564   1
  -2   2  14 70688.6 2215.73   5
   2   2 -14 67668.2 2057.65   1
  -2   2  13 16171.6 1049.90   5
  -2  -2  13 17145.4 1451.96   2
   2   2 -13 15030.2 961.476   1
  -2   2  12 108529. 2605.36   5
  -2  -2  12 103214. 3330.33   2
  -2   2  12 101270. 2091.71   2
   2   2 -12 109142. 2397.68   1
  -2   2  11 15956.8 791.624   2
  -2  -2  11 16432.2 1254.25   2
   2   2 -11 13360.2 855.328   1
  -2   2  10 180481. 3166.16   5
  -2   2  10 180005. 2409.10   2
  -2  -2  10 176319. 3900.35   2
   2   2 -10 181863. 2831.83   1
  -2   2   9 34204.0 1360.95   5
  -2   2   9 33389.1 1007.31   2
  -2  -2   9 27283.4 1553.75   2
   2   2  -9 27083.9 1082.12   1
  -2  -2   8 168077. 3508.55   2
  -2   2   8 168098. 2923.84   5
   2   2  -8 166126. 2458.08   1
  -2   2   7 39833.0 1376.82   5
  -2  -2   7 37017.9 1557.62   2
  -2   2   6 126856. 2407.46   5
  -2  -2   6 132697. 2869.63   2
   2  -2  -6 126722. 2616.82   4
   2   2  -6 125288. 1912.30   1
  -2   2   5 15190.7 808.248   5
  -2  -2   5 13329.2 892.981   2
   2  -2  -5 12361.5 824.563   4
   2   2  -5 13762.6 594.839   1
  -2  -2   5 14861.4 688.539   1
  -2   2   4 4112.14 527.727   5
  -2  -2   4 2046.40 541.521   2
   2   2  -4 6880.70 577.427   4
   2  -2  -4 4477.14 517.880   4
   2   2  -4 4680.00 337.116   1
  -2  -2   4 5362.22 419.033   1
  -2   2   3 32860.0 1136.57   5
  -2  -2   3 32844.2 1304.17   2
   2   2  -3 32067.8 1186.06   4
   2  -2  -3 31705.7 1200.83   4
   2   2  -3 33479.4 769.603   1
  -2  -2   3 33732.1 930.441   1
  -2  -2   3 32506.9 736.915   5
   2   2  -2 1356.17 139.608   1
  -2  -2   2 1294.67 176.651   1
   2   2  -2 1249.39 251.560   4
   2  -2  -2 983.767 234.706   4
  -2  -2   2 1258.60 126.434   5
  -2   2   2 1246.88 222.406   5
  -2  -2   1 641.453 71.0798   5
   2   2  -1 1017.89 116.211   1
   2   2  -1 1141.20 247.285   4
   2  -2  -1 992.986 222.329   4
  -2   2   0 9964.74 618.480   5
   2   2   0 9840.46 621.948   4
   2  -2   0 10106.6 651.659   4
  -2   2  -1 1758.03 260.717   5
   2   2   1 2433.02 304.885   4
   2  -2   1 2240.51 303.603   4
  -2   2  -2 8891.02 593.321   5
   2   2   2 9111.74 605.826   4
   2  -2   2 8727.41 618.525   4
  -2   2  -3 60621.3 1603.68   5
   2   2   3 63054.6 1594.17   4
   2  -2   3 60081.9 1643.57   4
  -2   2  -3 62422.0 1512.27   1
   2   2   4 64705.3 1633.60   4
   2  -2   4 63394.0 1751.07   4
  -2   2  -4 64119.7 1602.58   1
   2   2   5 37313.7 1650.97   3
   2   2   5 39054.7 1306.74   4
   2  -2   5 35778.3 1388.41   4
  -2   2  -5 35257.3 1244.77   1
   2   2   6 206500. 3939.18   3
   2   2   6 208340. 1502.27   1
   2   2   6 211999. 3125.97   4
   2  -2   6 209229. 3393.06   4
  -2   2  -6 207359. 3069.67   1
   2   2   7 26140.4 1469.92   3
   2   2   7 23270.2 612.217   1
   2   2   7 25078.5 1184.16   4
   2  -2   7 27200.3 1294.59   4
   2   2   7 22555.9 552.122   5
  -2   2  -7 22932.9 1038.39   1
   2   2   8 203628. 4136.92   3
  -2   2  -8 210848. 3203.30   1
   2   2   8 205402. 1953.76   1
   2   2   8 208942. 3313.92   4
   2  -2   8 215008. 3719.00   4
   2   2   8 206143. 1833.67   5
   2   2   9 16480.2 1228.07   3
   2   2   9 13047.9 545.022   5
   2   2   9 14597.8 601.123   1
   2   2   9 15621.7 1020.26   4
  -2   2 -10 178378. 3056.40   1
   2   2  10 165229. 3932.68   3
   2   2  10 168859. 3234.48   4
   2   2  10 178149. 2075.71   5
  -2   2 -11 25496.0 1200.61   1
   2   2  11 26849.2 869.129   5
  -2   2 -12 65468.3 1934.40   1
   2   2  12 64043.8 2566.80   3
  -2   2 -13 29609.7 1336.07   1
   2   2  13 34597.8 1947.20   3
  -2   2 -14 64217.2 2016.75   1
   2   2  14 65064.9 2745.55   3
   2   2  15 4492.76 761.054   3
  -2   2 -15 1683.85 334.363   1
   2   2  16 837.338 370.790   3
  -2   2 -16 588.077 263.949   1
   2   2  16 719.749 220.907   5
   2   2  17 2704.84 609.585   3
  -2   2 -17 2292.90 447.015   1
   2   2  17 2076.84 344.799   5
   2   2  18 36.1555 202.498   3
   2   2  18 200.212 151.128   5
   2   2  19 251.136 168.926   5
  -2   2 -19 154.087 208.039   1
   2   2  20 38.5134 247.223   3
  -2   2 -20 511.864 247.474   1
   2   2  21 1181.45 449.084   3
  -2   2 -21 1374.72 398.104   1
   2   2  22 2557.91 665.974   3
  -2   2 -22 2198.22 490.028   1
   2   2  23 4413.65 858.138   3
  -2   2 -23 3735.65 638.581   1
  -2   2 -24 8635.95 984.538   1
   2   2  24 9758.34 1299.57   3
  -2   2 -25 2414.65 573.691   1
   2   3 -23 542.041 324.076   1
  -2   3  22 695.982 320.252   5
   2   3 -22 653.589 359.173   1
  -2   3  21 502.665 283.250   5
   2   3 -21 19.6228 217.463   1
  -2   3  20 116.791 203.474   5
   2   3 -20 214.487 218.215   1
  -2   3  19 1698.83 419.133   5
   2   3 -19 1449.17 383.871   1
  -2   3  18 3975.84 619.029   5
   2   3 -18 3965.29 586.255   1
  -2   3  17 3141.95 557.198   5
   2   3 -17 2158.85 468.522   1
  -2   3  16 16080.1 1179.54   5
   2   3 -16 16293.9 1127.64   1
  -2   3  15 19746.4 1254.17   5
   2   3 -15 18501.0 1176.28   1
  -2   3  14 22778.3 1326.61   5
   2   3 -14 24153.5 1299.73   1
  -2   3  13 76207.7 2347.51   5
   2   3 -13 75811.0 2190.80   1
  -2  -3  12 11818.4 1332.89   2
   2   3 -12 9843.26 817.292   1
  -2  -3  11 127708. 3856.74   2
   2   3 -11 132091. 2685.85   1
  -2   3  11 130373. 2930.05   5
  -2   3  10 6047.93 488.626   2
  -2  -3  10 8246.72 1212.77   2
  -2   3   9 127896. 2797.36   5
  -2   3   9 127721. 1600.69   2
  -2  -3   9 125174. 3470.85   2
   2   3  -9 130178. 2474.68   1
  -2  -3   8 35939.3 1797.23   2
   2   3  -8 33256.3 1221.85   1
  -2   3   8 38649.8 1508.88   5
  -2   3   7 115748. 2545.56   5
  -2  -3   7 120830. 3160.62   2
   2   3  -7 119013. 2176.00   1
  -2   3   6 32262.6 1348.36   5
  -2  -3   6 32828.0 1592.34   2
   2   3  -6 30975.8 1066.64   1
  -2   3   5 52612.9 1635.96   5
  -2  -3   5 49238.5 1886.54   2
   2   3  -5 52256.4 1301.38   1
   2  -3  -5 51373.7 1653.02   4
  -2  -3   4 54964.2 1915.38   2
   2   3  -4 56185.6 1282.43   1
  -2   3   4 55039.6 1665.62   5
   2  -3  -4 52542.6 1622.94   4
  -2  -3   4 55200.5 1473.10   1
   2   3  -3 1056.02 186.286   1
  -2   3   3 1697.33 310.974   5
  -2  -3   3 1635.79 341.164   2
   2   3  -3 1049.29 285.457   4
   2  -3  -3 481.718 214.771   4
  -2   3   2 9184.01 663.266   5
  -2  -3   2 9869.07 762.931   2
  -2  -3   2 8840.28 390.522   5
   2   3  -2 9518.18 470.926   1
   2   3  -2 9368.15 635.038   4
   2  -3  -2 9562.23 660.977   4
  -2  -3   1 3793.75 195.373   5
  -2   3   1 4574.91 490.397   5
  -2  -3   1 3920.32 485.928   2
   2   3  -1 5083.01 334.161   1
   2   3  -1 4278.13 417.504   4
   2  -3  -1 4319.70 458.665   4
   2   3   0 8301.28 399.798   1
  -2   3   0 7279.45 599.703   5
   2   3   0 7654.05 549.833   4
   2  -3   0 7191.21 567.114   4
   2   3   1 7386.36 364.914   1
  -2   3  -1 8072.86 625.787   5
   2   3   1 7544.07 538.393   4
   2  -3   1 6597.77 546.369   4
  -2   3  -2 13833.9 836.779   5
   2   3   2 14169.7 743.193   4
   2  -3   2 14070.5 807.053   4
   2   3   2 13064.8 471.711   1
   2   3   3 50257.6 1940.27   3
  -2   3  -3 49093.3 1594.27   5
   2   3   3 50737.4 1432.01   4
   2  -3   3 49989.3 1531.76   4
   2   3   4 70301.3 2337.97   3
   2   3   4 65718.5 913.424   1
   2   3   4 69101.1 1684.43   4
   2  -3   4 65657.4 1821.13   4
   2   3   4 61777.4 1013.18   1
  -2   3  -4 66313.0 1831.33   1
   2   3   5 97141.6 2819.85   3
   2   3   5 97095.7 2013.91   4
   2  -3   5 95735.0 2254.84   4
  -2   3  -5 94651.7 2240.92   1
   2   3   5 93993.6 1145.08   1
   2   3   6 50665.9 2113.44   3
   2   3   6 52093.3 1533.50   4
   2  -3   6 50241.1 1717.23   4
   2   3   6 48598.8 896.081   1
  -2   3  -6 48768.9 1673.15   1
  -2   3  -7 139286. 2227.16   3
   2   3   7 132786. 3486.27   3
   2   3   7 134677. 1294.18   5
   2   3   7 132896. 1592.55   1
   2   3   7 136384. 2532.25   4
   2  -3   7 138814. 2922.80   4
  -2   3  -7 136669. 2820.28   1
   2   3   8 9228.93 453.605   5
   2   3   8 11718.5 844.425   4
   2  -3   8 10784.3 894.732   4
  -2   3  -8 11000.3 654.114   3
  -2   3  -8 7945.05 792.146   1
   2   3   8 13657.0 1198.82   3
  -2   3  -9 149045. 3066.40   1
   2   3   9 148688. 1706.10   5
   2   3   9 145833. 2798.93   4
   2  -3   9 149896. 3293.48   4
  -2   3  -9 142039. 2221.82   3
   2   3   9 147090. 3842.61   3
   2   3  10 10438.4 530.988   5
  -2   3 -10 9373.89 776.550   1
   2   3  10 12314.5 880.447   4
   2   3  10 12329.7 1191.11   3
   2   3  11 111167. 1709.71   5
  -2   3 -11 110380. 2727.96   1
   2   3  11 105401. 2565.25   4
   2   3  11 104817. 3448.33   3
  -2   3 -12 37178.8 1619.92   1
   2   3  12 38878.4 2174.05   3
   2   3  12 38787.3 1091.04   5
  -2   3 -13 52569.5 1967.93   1
   2   3  13 52586.3 2588.21   3
   2   3  13 51655.5 1315.36   5
  -2   3 -14 16031.0 1104.22   1
   2   3  14 16953.3 1522.25   3
   2   3  14 16348.4 784.767   5
  -2   3 -15 9814.32 882.230   1
   2   3  15 10062.6 1202.44   3
  -2   3 -16 8380.07 848.540   1
   2   3  16 8552.28 1139.86   3
   2   3  17 437.933 337.832   3
  -2   3 -17 91.8646 138.790   1
   2   3  18 2677.95 691.785   3
  -2   3 -18 2378.55 460.757   1
   2   3  19 230.017 219.950   3
  -2   3 -19 289.832 210.589   1
   2   3  20 2341.08 665.310   3
  -2   3 -20 3223.14 586.708   1
   2   3  21 1031.22 460.913   3
  -2   3 -21 1440.13 440.435   1
   2   3  22 1218.97 527.346   3
  -2   3 -22 769.324 370.567   1
  -2   3 -23 8313.45 987.914   1
   2   3  23 9623.47 1378.93   3
  -2   3 -24 5993.40 888.554   1
   2   4 -22 11848.2 1221.76   1
  -2   4  21 5571.43 831.286   5
   2   4 -21 3529.55 703.189   1
  -2   4  20 19937.1 1478.29   5
   2   4 -20 20860.3 1520.60   1
   2   4 -19 2666.35 594.454   1
  -2   4  19 4201.82 738.734   5
  -2   4  18 21062.0 1448.62   5
   2   4 -18 21687.4 1466.47   1
  -2   4  17 19094.8 1351.65   5
   2   4 -17 18045.1 1301.72   1
  -2   4  16 19321.1 1338.14   5
   2   4 -16 18865.2 1289.28   1
  -2   4  15 30778.5 1639.61   5
   2   4 -15 27961.1 1510.06   1
   2   4 -14 14011.2 1068.04   1
  -2   4  14 16290.7 1176.58   5
  -2   4  13 23891.0 1394.25   5
   2   4 -13 22160.7 1280.21   1
   2   4 -12 3163.91 483.941   1
  -2  -4  12 4343.32 935.558   2
  -2   4  12 4470.39 600.017   5
  -2   4  11 401.615 215.901   5
   2   4 -11 59.7516 113.796   1
  -2  -4  11 753.263 537.950   2
  -2   4  10 924.201 285.649   5
   2   4 -10 478.012 179.070   1
  -2   4   9 6511.90 674.730   5
   2   4  -9 6312.52 597.686   1
  -2  -4   9 8412.39 1026.64   2
  -2   4   8 23761.5 1253.22   5
   2   4  -8 23106.8 1108.82   1
  -2  -4   8 22015.9 1585.34   2
  -2   4   7 76629.3 2206.70   5
   2   4  -7 75055.6 1941.15   1
  -2  -4   7 73033.2 2725.19   2
   2   4  -6 41952.6 1405.24   1
  -2  -4   6 41532.0 1983.10   2
  -2   4   6 44466.8 1665.23   5
  -2   4   5 43943.3 1646.76   5
   2   4  -5 42025.0 1366.16   1
  -2  -4   5 42453.9 1937.98   2
   2  -4  -5 42521.5 1524.57   4
  -2   4   4 103402. 2489.94   5
   2   4  -4 99071.2 2038.88   1
  -2  -4   4 94727.5 1804.02   5
  -2  -4   4 98430.1 2854.80   2
   2  -4  -4 100094. 2275.39   4
  -2   4   3 26205.9 1276.73   5
   2   4  -3 25280.0 1006.03   1
  -2  -4   3 26340.2 1440.69   2
  -2  -4   3 23579.9 832.387   5
   2  -4  -3 24810.6 1108.46   4
   2   4  -2 92181.0 1870.77   1
  -2   4   2 92395.5 2339.11   5
  -2  -4   2 96772.2 2662.23   2
  -2  -4   2 92859.8 1447.36   5
   2  -4  -2 92171.4 2104.32   4
   2   4  -1 12231.6 698.844   1
  -2   4   1 17761.2 1011.70   5
  -2  -4   1 7837.17 447.010   5
  -2  -4   1 10111.6 949.167   2
   2   4  -1 14882.0 830.683   4
   2  -4  -1 9606.79 783.258   4
  -2  -4   0 145084. 1404.31   5
  -2   4   0 146994. 2941.33   5
  -2  -4   0 146936. 3121.00   2
   2   4   0 145367. 2390.49   4
   2  -4   0 144605. 2614.26   4
   2   4   0 145652. 2223.76   1
  -2   4  -1 19508.5 1068.53   5
   2   4   1 17307.4 855.111   4
   2  -4   1 16484.1 892.774   4
  -2  -4  -1 16538.3 1066.31   2
   2   4   1 17277.0 772.791   1
   2   4   2 78539.6 2488.57   3
  -2  -4  -2 76614.1 2187.90   2
  -2   4  -2 75666.1 2135.17   5
   2   4   2 74477.1 1680.94   4
   2  -4   2 76394.4 1918.84   4
   2   4   2 75375.0 1556.50   1
  -2  -4  -2 74182.9 798.916   5
   2   4   3 81105.7 2598.96   3
  -2   4  -3 82751.8 2278.10   5
   2   4   3 85748.8 1820.16   4
   2  -4   3 81653.4 2035.36   4
   2   4   3 83367.7 1576.20   1
   2   4   4 36362.5 1789.64   3
   2   4   4 36038.6 1202.06   4
   2  -4   4 35139.2 1369.80   4
  -2   4  -4 34710.5 1490.76   1
   2   4   5 61394.6 2381.77   3
   2   4   5 58546.0 1544.76   4
   2  -4   5 58725.8 1827.25   4
  -2   4  -5 57297.6 1925.00   1
   2   4   6 47312.2 2155.33   3
   2   4   6 41016.8 758.189   5
   2   4   6 47309.2 1431.38   4
   2  -4   6 44861.3 1642.43   4
  -2   4  -6 43754.5 1727.75   1
   2   4   7 42521.9 829.560   5
   2   4   7 45932.4 1430.73   4
   2  -4   7 45213.8 1700.66   4
  -2   4  -7 43635.5 1767.16   1
   2   4   7 47960.2 2222.11   3
   2   4   8 10111.9 705.317   4
   2  -4   8 11066.8 885.679   4
  -2   4  -8 9650.41 847.149   1
   2   4   8 11385.7 1119.11   3
   2   4   9 7323.41 618.699   4
   2  -4   9 6529.67 703.573   4
  -2   4  -9 6374.79 707.248   1
   2   4   9 7092.10 911.575   3
   2   4  10 27.5894 238.265   3
  -2   4 -10 45.3242 123.254   1
   2   4  10 251.495 141.734   4
   2  -4  10-29.0308 132.303   4
  -2   4 -11 15941.1 1129.24   1
   2   4  11 15928.8 971.924   4
   2   4  11 14560.8 1389.30   3
  -2   4 -12 12935.9 1029.50   1
   2   4  12 11893.8 868.862   4
   2   4  12 13436.9 1376.64   3
  -2   4 -13 42799.1 1901.70   1
   2   4  13 44378.0 2539.86   3
  -2   4 -14 16694.8 1233.35   1
   2   4  14 16721.6 1103.68   4
   2   4  14 17382.9 1665.74   3
  -2   4 -15 19551.4 1345.11   1
   2   4  15 19759.6 1783.77   3
  -2   4 -16 39382.0 1917.02   1
   2   4  16 39138.9 2587.82   3
   2   4  17 2982.32 747.752   3
  -2   4 -17 3446.67 608.776   1
  -2   4 -18 21829.6 1499.39   1
   2   4  18 22514.1 2073.93   3
   2   4  19 2823.25 887.181   3
  -2   4 -19 2376.33 529.835   1
  -2   4 -20 33079.9 1936.52   1
   2   4  20 31449.7 2568.59   3
   2   4  21 2496.43 796.210   3
  -2   4 -21 2517.24 593.690   1
  -2   4 -22 15696.8 1394.73   1
   2   5 -21 28301.9 1895.76   1
   2   5 -20 3665.62 789.028   1
  -2   5  19 43797.4 2220.55   5
   2   5 -19 41983.8 2180.59   1
  -2   5  18 7686.88 947.377   5
   2   5 -18 3684.47 725.176   1
  -2   5  17 22631.4 1553.91   5
   2   5 -17 23570.8 1563.81   1
  -2   5  16 3866.79 658.768   5
   2   5 -16 2655.80 579.559   1
  -2   5  15 5144.27 731.908   5
   2   5 -15 4580.30 661.616   1
  -2   5  14 1731.64 437.010   5
   2   5 -14 917.360 332.057   1
  -2   5  13 2580.69 499.260   5
   2   5 -13 2410.95 462.432   1
  -2   5  12 3376.19 578.017   5
   2   5 -12 3631.53 547.820   1
  -2   5  11 1568.57 354.426   5
   2   5 -11 1515.03 323.743   1
  -2  -5  11 2343.12 781.332   2
   2   5 -10 528.251 201.628   1
  -2   5  10 374.631 211.456   5
  -2  -5  10 936.229 469.145   2
   2   5  -9 2725.46 428.335   1
  -2   5   9 2588.79 462.134   5
  -2  -5   9 2322.41 697.502   2
   2   5  -8-42.5237 169.595   1
  -2   5   8 86.7517 151.990   5
  -2  -5   8 361.769 324.397   2
   2   5  -7 3034.77 448.888   1
  -2   5   7 3726.21 537.605   5
  -2  -5   7 2849.61 633.604   2
   2   5  -6 5110.24 561.450   1
  -2  -5   6 5962.96 861.322   2
  -2   5   6 5848.59 676.586   5
   2   5  -5 42121.7 1551.37   1
  -2  -5   5 43446.7 2153.53   2
  -2   5   5 42526.8 1755.12   5
  -2  -5   4 8573.82 939.239   2
   2  -5  -4 7684.17 677.009   4
   2   5  -4 6807.21 678.695   1
   2   5  -3 150140. 2817.56   1
  -2   5   3 149774. 3264.60   5
  -2  -5   3 148114. 3780.19   2
   2  -5  -3 148453. 2801.43   4
   2   5  -2 14313.9 904.501   1
  -2  -5   2 13462.3 1128.43   2
   2  -5  -2 14411.8 872.824   4
  -2   5   1 211080. 3874.79   5
  -2  -5   1 216079. 4286.53   2
   2  -5  -1 215433. 3263.02   4
   2   5  -1 217326. 3242.25   1
  -2  -5   0 14507.6 1112.73   2
   2   5   0 16675.5 926.003   4
   2  -5   0 14894.7 913.865   4
   2   5   0 15963.5 932.981   1
   2   5   1 166945. 3719.50   3
  -2   5  -1 162410. 3431.94   5
  -2  -5  -1 164157. 3585.14   2
   2   5   1 161434. 2456.18   4
   2  -5   1 165419. 2892.60   4
   2   5   1 162893. 2743.86   1
   2   5   2 15058.5 1203.79   3
  -2   5  -2 15392.9 1083.77   5
  -2  -5  -2 12281.8 974.207   2
   2   5   2 14617.5 780.165   4
   2  -5   2 12649.1 866.078   4
   2   5   2 13096.7 821.697   1
   2   5   3 81758.0 2736.65   3
  -2   5  -3 82706.0 2500.72   5
  -2  -5  -3 81830.5 2438.93   2
   2   5   3 78984.9 1708.08   4
   2  -5   3 83186.3 2090.68   4
   2   5   3 82771.1 1853.56   1
   2   5   4 7454.95 920.479   3
  -2  -5  -4 8209.11 774.902   2
   2   5   4 8007.65 561.718   4
   2  -5   4 7604.41 687.826   4
   2   5   4 8451.06 597.326   1
  -2   5  -4 7452.29 816.213   1
   2   5   5 1781.27 477.608   3
  -2   5  -5 2203.79 433.971   1
  -2  -5  -5 2467.54 450.920   2
   2   5   5 1970.93 305.347   4
   2  -5   5 2175.10 374.422   4
   2   5   6 11439.1 1128.19   3
  -2  -5  -6 10275.8 854.148   2
   2   5   6 9690.53 631.186   4
   2  -5   6 10315.4 805.988   4
  -2   5  -6 9429.13 872.400   1
   2   5   7 318.126 255.424   3
  -2  -5  -7 567.131 280.834   2
  -2   5  -7 438.733 221.676   1
   2   5   7 330.913 142.567   4
   2  -5   7 338.285 180.130   4
   2   5   8 2173.26 520.467   3
  -2   5  -8 1953.10 434.795   1
   2   5   8 2334.22 343.218   4
   2  -5   8 2259.32 413.024   4
   2   5   9 995.224 435.123   3
  -2   5  -9 1490.30 372.444   1
   2   5   9 695.786 203.283   4
   2  -5   9 913.630 290.344   4
   2   5  10 218.747 298.418   3
  -2   5 -10 90.1785 168.840   1
   2   5  10 47.9544 117.527   4
   2  -5  10 31.3550 123.492   4
   2   5  11 389.965 348.205   3
  -2   5 -11 611.495 300.398   1
   2   5  11 782.623 239.393   4
   2  -5  11 756.696 287.327   4
   2   5  12 590.037 344.397   3
   2   5  12 406.037 185.978   4
  -2   5 -12 658.798 307.940   1
   2  -5  12 337.603 221.776   4
  -2   5 -13 9652.85 963.900   1
   2   5  13 9870.20 1246.41   3
   2   5  14 1400.78 573.632   3
  -2   5 -14 579.290 321.017   1
  -2   5 -15 25030.0 1624.33   1
   2   5  15 25626.0 2136.00   3
  -2   5 -16 3518.49 649.719   1
   2   5  16 3310.55 885.342   3
  -2   5 -17 54857.1 2459.17   1
   2   5  17 48099.3 3102.33   3
   2   5  18 4854.73 1127.61   3
  -2   5 -18 3118.01 646.365   1
  -2   5 -19 59401.7 2638.64   1
   2   5  19 56213.0 3532.49   3
  -2   5 -20 1179.03 456.810   1
   2   6 -19 521.776 347.288   1
   2   6 -18 4214.19 717.396   1
  -2   6  17 8488.80 996.180   5
   2   6 -17 6909.24 911.950   1
  -2   6  16 17702.7 1393.05   5
   2   6 -16 16483.4 1345.01   1
  -2   6  15 23956.9 1596.79   5
   2   6 -15 23033.1 1548.16   1
  -2   6  14 12757.9 1165.63   5
   2   6 -14 11754.2 1110.42   1
  -2   6  13 21173.9 1454.34   5
   2   6 -13 22478.0 1460.90   1
  -2   6  12 14072.5 1165.56   5
   2   6 -12 14794.7 1172.67   1
   2   6 -11 1571.34 453.311   1
  -2   6  11 2945.50 527.704   5
  -2   6  10 26381.1 1568.56   5
   2   6 -10 27863.0 1508.97   1
  -2  -6  10 26796.8 2190.86   2
  -2   6   9 11543.2 1034.03   5
   2   6  -9 10709.2 927.973   1
  -2  -6   9 13022.7 1525.62   2
  -2   6   8 10345.7 952.995   5
   2   6  -8 9483.75 875.014   1
  -2  -6   8 10348.2 1357.78   2
   2   6  -7 39494.8 1715.82   1
  -2   6   7 38468.8 1827.67   5
  -2  -6   7 38634.7 2419.46   2
   2   6  -6 19891.0 1209.47   1
  -2   6   6 19505.6 1309.92   5
  -2  -6   6 17790.9 1616.87   2
   2   6  -5 41207.0 1697.84   1
  -2   6   5 40486.6 1840.03   5
  -2  -6   5 39531.0 2292.24   2
  -2   6   4 21459.5 1360.93   5
   2   6  -4 20683.6 1178.62   1
  -2  -6   4 20457.7 1619.02   2
   2   6  -3 27128.3 1328.90   1
  -2   6   3 25965.3 1465.96   5
  -2  -6   3 26083.0 1748.38   2
   2  -6  -3 27688.0 1232.63   4
  -2   6   2 34245.1 1690.22   5
  -2  -6   2 32093.9 1897.86   2
   2  -6  -2 35264.1 1366.61   4
   2   6  -2 33495.3 1449.45   1
  -2   6   1 6320.89 790.011   5
   2  -6  -1 4421.38 492.198   4
  -2  -6   1 4424.55 692.330   2
   2   6  -1 4723.65 600.780   1
  -2   6   0 57615.0 2199.98   5
  -2  -6   0 54097.3 2342.28   2
   2  -6   0 53946.3 1675.69   4
   2   6   0 54461.4 1803.03   1
   2   6   1 11703.1 1052.63   3
  -2   6  -1 12417.4 1027.85   5
  -2  -6  -1 12742.5 1109.44   2
   2  -6   1 11316.5 786.197   4
   2   6   1 12878.5 871.641   1
   2   6   2 20485.8 1415.31   3
  -2   6  -2 19912.6 1312.84   5
  -2  -6  -2 18819.1 1326.37   2
   2  -6   2 18791.7 1015.09   4
   2   6   2 18154.4 1015.47   1
  -2   6  -3 42479.0 1949.54   5
  -2  -6  -3 40303.8 1896.82   2
   2  -6   3 40523.7 1504.33   4
   2   6   3 41384.7 2043.43   3
  -2   6  -3 41282.3 1901.19   1
   2   6   3 40760.3 1497.82   1
   2   6   4 23853.0 1605.83   3
  -2  -6  -4 23792.6 1436.38   2
   2  -6   4 23959.9 1181.28   4
   2   6   4 22688.4 1114.31   1
  -2   6  -4 23545.8 1465.72   1
   2   6   5 37835.8 2067.86   3
  -2  -6  -5 35824.4 1745.25   2
   2  -6   5 35819.4 1480.15   4
  -2   6  -5 37912.4 1867.96   1
   2   6   6 16635.8 1427.99   3
  -2  -6  -6 16069.0 1159.63   2
   2  -6   6 16775.7 1035.98   4
  -2   6  -6 17835.4 1303.69   1
  -2  -6  -7 29833.4 1548.33   2
   2  -6   7 30689.8 1435.45   4
  -2   6  -7 31255.5 1737.47   1
   2   6   7 34142.9 2072.11   3
  -2  -6  -8 11952.0 981.581   2
   2  -6   8 11670.6 926.724   4
  -2   6  -8 11445.4 1075.65   1
   2   6   8 11669.1 1254.41   3
   2   6   9 2214.33 665.624   3
  -2  -6  -9 1682.73 382.962   2
  -2   6  -9 1756.69 438.072   1
   2  -6   9 1213.15 393.189   4
  -2  -6 -10 27224.8 1468.22   2
   2  -6  10 27313.2 1502.46   4
  -2   6 -10 26516.6 1653.48   1
   2   6  10 28589.1 2044.51   3
  -2  -6 -11 9160.95 856.556   2
   2  -6  11 9324.74 917.837   4
   2   6  11 12008.8 1390.22   3
  -2   6 -11 9300.87 1010.97   1
  -2   6 -12 18944.4 1441.60   1
  -2  -6 -12 18116.4 1191.83   2
   2  -6  12 17920.6 1315.88   4
   2   6  12 17990.3 1735.05   3
  -2   6 -13 35024.5 1979.52   1
   2  -6  13 36326.6 1903.80   4
   2   6  13 36010.9 2499.96   3
  -2   6 -14 21141.0 1519.16   1
   2  -6  14 19432.7 1454.22   4
   2   6  14 19441.7 1940.00   3
  -2   6 -15 16157.3 1364.84   1
   2   6  15 17963.9 1889.82   3
  -2   6 -16 13997.2 1302.31   1
   2   6  16 15050.7 1757.95   3
  -2   6 -17 4964.93 795.111   1
  -2   6 -18 8717.35 1065.44   1
   2   7 -17 1705.92 477.333   1
   2   7 -16 2733.27 593.700   1
  -2   7  15 11924.1 1202.32   5
   2   7 -15 12139.2 1174.99   1
  -2   7  14 3653.35 676.931   5
   2   7 -14 2232.74 564.695   1
  -2   7  13 32106.3 1907.02   5
   2   7 -13 33997.9 1885.05   1
  -2   7  12 7628.19 922.324   5
   2   7 -12 5515.80 781.436   1
  -2   7  11 50088.9 2301.13   5
   2   7 -11 52325.6 2248.22   1
  -2   7  10 8657.11 960.069   5
   2   7 -10 5134.86 782.765   1
  -2   7   9 57250.9 2428.84   5
   2   7  -9 58186.9 2283.27   1
  -2   7   8 8354.88 896.722   5
   2   7  -8 6301.23 797.499   1
   2   7  -7 38200.7 1801.24   1
  -2   7   7 35401.1 1893.37   5
  -2  -7   7 34246.6 2478.70   2
   2   7  -6 6994.89 797.524   1
  -2   7   6 8953.77 954.851   5
  -2  -7   6 7717.37 1176.20   2
   2   7  -5 8744.45 850.358   1
  -2   7   5 8118.25 915.923   5
  -2  -7   5 7449.07 1131.70   2
  -2   7   4 4212.58 664.719   5
  -2  -7   4 3722.24 816.183   2
   2   7  -4 3700.84 559.903   1
  -2   7   3 1864.49 441.047   5
  -2  -7   3 2110.16 634.010   2
   2   7  -3 2382.60 436.690   1
  -2   7   2 1273.49 363.132   5
  -2  -7   2 807.938 478.473   2
   2   7  -2 897.891 274.914   1
  -2   7   1 5950.41 780.295   5
  -2  -7   1 5689.57 905.614   2
   2   7  -1 6171.19 667.051   1
  -2   7   0 926.591 313.517   5
   2   7   0 431.540 249.609   1
  -2  -7   0 438.375 240.896   2
   2   7   1 3257.05 578.239   3
  -2   7  -1 3001.07 576.762   5
   2   7   1 3003.34 455.492   1
  -2  -7  -1 2897.32 595.704   2
   2   7   2 620.956 306.693   3
  -2   7  -2 402.816 219.130   5
   2   7   2 256.730 149.989   1
  -2  -7  -2 319.808 270.913   2
   2   7   3 10873.4 1102.87   3
  -2  -7  -3 8841.23 1008.29   2
  -2   7  -3 9742.91 1026.66   1
   2   7   4 9722.94 1084.06   3
  -2  -7  -4 9684.79 1038.10   2
  -2   7  -4 8470.08 954.362   1
   2   7   5 36836.2 2125.25   3
  -2  -7  -5 34780.7 1902.01   2
  -2   7  -5 35584.1 1957.52   1
   2   7   6 5750.34 922.040   3
  -2  -7  -6 4827.50 720.356   2
  -2   7  -6 6162.93 883.917   1
   2   7   7 67610.1 3029.25   3
  -2  -7  -7 65369.4 2526.80   2
  -2   7  -7 65802.0 2744.06   1
   2   7   8 5001.80 970.751   3
  -2  -7  -8 3195.05 610.985   2
  -2   7  -8 4613.53 754.349   1
  -2  -7  -9 81867.6 2763.27   2
  -2   7  -9 84602.0 3116.77   1
   2   7   9 84698.2 3564.89   3
  -2  -7 -10 5388.32 730.089   2
  -2   7 -10 7541.81 950.073   1
   2   7  10 7498.71 1183.66   3
   2   7  11 45822.4 2765.74   3
  -2   7 -11 44673.9 2298.33   1
   2   7  12 4336.93 963.299   3
  -2   7 -12 3532.04 683.298   1
  -2   7 -13 17675.1 1491.30   1
   2   7  13 18429.8 1866.78   3
   2   7  14 2727.37 819.899   3
  -2   7 -14 2288.72 595.860   1
  -2   7 -15 2385.48 601.877   1
   2   8 -14 8104.33 1008.87   1
   2   8 -13 4582.30 771.868   1
   2   8 -12 15185.2 1307.95   1
   2   8 -11 2600.70 619.707   1
  -2   8  10 30572.8 1902.85   5
   2   8 -10 34685.9 1906.31   1
   2   8  -9 3772.07 665.549   1
  -2   8   9 5060.19 831.029   5
   2   8  -8 30284.9 1738.19   1
  -2   8   8 29287.7 1853.40   5
   2   8  -7 16696.3 1289.76   1
  -2   8   7 17453.3 1415.56   5
   2   8  -6 13933.5 1152.00   1
  -2   8   6 13754.7 1263.37   5
  -2   8   5 16884.5 1377.17   5
  -2  -8   5 18616.1 1898.65   2
   2   8  -5 17956.1 1282.55   1
   2   8  -4 6683.94 786.090   1
  -2   8   4 5999.47 844.148   5
  -2  -8   4 5790.51 1080.65   2
  -2   8   3 6756.73 892.920   5
  -2  -8   3 6886.23 1112.43   2
   2   8  -3 6072.24 739.116   1
  -2   8   2-51.9624 294.417   5
  -2  -8   2 495.176 375.098   2
  -2   8   1 598.097 292.405   5
  -2  -8   1 1268.68 521.473   2
  -2   8   0 103.433 219.014   5
  -2  -8   0 441.870 405.605   2
  -2   8  -1 976.110 323.608   5
  -2  -8  -1 1111.60 427.686   2
   2   8   2 6797.60 896.343   3
  -2  -8  -2 6504.54 964.882   2
  -2   8  -2 6564.20 913.639   1
   2   8   3 15006.6 1354.30   3
  -2  -8  -3 13956.7 1364.16   2
  -2   8  -3 14354.3 1323.18   1
   2   8   4 17014.1 1482.97   3
  -2  -8  -4 14845.5 1396.25   2
  -2   8  -4 14471.6 1373.74   1
   2   8   5 16063.0 1515.07   3
  -2  -8  -5 15176.4 1376.43   2
  -2   8  -5 16343.8 1445.28   1
   2   8   6 35252.8 2234.53   3
  -2  -8  -6 34247.3 2031.44   2
  -2   8  -6 35018.9 2121.32   1
   2   8   7 7165.16 1091.75   3
  -2  -8  -7 5291.76 803.057   2
  -2   8  -7 8058.62 1064.52   1
   2   8   8 20067.8 1767.27   3
  -2   8  -8 20106.5 1629.32   1
   2   8   9 2772.82 780.424   3
  -2   8  -9 2278.34 608.401   1
  -2   8 -10 27841.5 1911.77   1
   2   8  10 28576.6 2205.66   3
   2   9 -11 357.694 354.409   1
   2   9 -10 639.607 325.504   1
  -2  -9   1 29066.7 2363.84   2
  -2  -9   0 1860.80 688.670   2
  -2  -9  -1 22357.8 2025.22   2
  -2  -9  -2 9280.53 1333.11   2
   2   9   3 18697.7 1592.98   3
  -2  -9  -3 20512.4 1839.21   2
   2   9   4 7732.00 1064.50   3
  -2  -9  -4 7638.73 1144.67   2
   2   9   5 6652.78 1000.36   3
   2   9   6 8379.66 1127.79   3
  -3   0  22 223.648 245.926   5
  -3   0  21 111.124 231.088   5
  -3   0  20-87.9011 257.900   5
  -3   0  19 104.759 181.100   5
  -3   0  18 125.710 221.562   5
  -3   0  17 56.8701 156.870   5
  -3   0  16 6669.09 919.213   2
  -3   0  16 6476.33 779.347   5
  -3   0  15 219.905 318.974   5
  -3   0  15 370.524 312.459   2
  -3   0  14 54877.1 2092.12   5
  -3   0  14 54789.1 2278.11   2
  -3   0  13 526.731 385.664   5
  -3   0  13 629.968 398.059   2
  -3   0  12 103781. 2675.95   5
  -3   0  12 104657. 2923.47   2
  -3   0  11 836.415 418.861   5
  -3   0  11 1107.40 600.361   2
  -3   0  10 191472. 3408.29   5
  -3   0  10 192749. 3702.50   2
  -3   0   9 1207.61 400.231   5
  -3   0   9 845.574 339.693   2
  -3   0   8 87432.4 2140.60   5
  -3   0   8 90987.9 2400.83   2
  -3   0   7 1380.99 306.038   5
  -3   0   6 18562.4 920.565   5
   3   0  -6 19687.7 1213.14   4
  -3   0   5 490.629 162.304   5
   3   0  -5 344.575 354.125   4
  -3   0   4 939.406 205.616   5
   3   0  -4 1096.03 282.392   4
  -3   0   4 716.211 136.142   1
  -3   0   3 375.653 174.379   5
   3   0  -3 138.934 184.450   4
  -3   0   3 3.33460 37.3866   1
  -3   0   2 4294.87 378.182   5
   3   0  -2 4894.13 583.136   4
  -3   0   2 4474.38 282.771   1
  -3   0   1 99.6323 54.7240   1
  -3   0   1 94.3029 103.069   5
   3   0  -1 322.280 189.036   4
  -3   0   0 868.299 184.313   5
  -3   0   0 923.864 108.027   1
   3   0   0 904.107 235.258   4
  -3   0  -1 25.3468 26.9458   1
  -3   0  -1 14.3043 73.0157   5
  -3   0  -1 78.4955 46.4848   1
   3   0   1 192.576 176.218   4
  -3   0  -2 7372.42 264.073   1
   3   0   2 7641.87 714.401   4
  -3   0  -2 7058.94 212.423   1
   3   0   3 230.873 176.498   4
   3   0   4 21204.2 1196.47   4
  -3   0  -5 59.3366 31.6669   1
   3   0   5 799.227 311.282   4
   3   0   6 167207. 3456.19   4
   3   0   7 3352.60 815.474   4
   3   0   8 175339. 3715.26   4
   3   0   9 10959.5 990.727   4
   3   0  10 167996. 3818.82   4
   3   0  11 4130.11 681.701   4
   3   0  12 53914.4 2294.03   4
   3   0  13 3170.99 640.068   4
   3   0  14 14214.1 1254.77   4
   3   0  15-102.186 195.509   4
   3   0  16 84.3346 293.342   4
   3   0  17-306.243 307.990   4
   3   0  18 1346.54 466.694   4
   3   0  19-362.515 394.206   4
  -3  -1  22 1429.61 493.179   5
  -3  -1  21 2551.66 567.745   5
  -3   1  21 2287.40 547.314   5
  -3  -1  20 471.197 283.449   5
  -3   1  20 729.315 299.007   5
  -3  -1  19 3198.33 616.474   5
  -3   1  19 3649.20 625.349   5
  -3   1  18 14788.4 1232.13   5
  -3  -1  18 13395.0 1155.53   5
  -3   1  17 10026.3 999.128   5
  -3  -1  17 9891.55 988.624   5
  -3   1  16 18342.5 1298.01   5
  -3  -1  16 17116.2 1530.84   2
  -3  -1  16 16606.0 1206.95   5
  -3   1  15 12835.2 1068.56   5
  -3  -1  15 12677.2 1309.30   2
  -3  -1  15 12146.5 1019.42   5
  -3   1  14 18471.7 1236.77   5
  -3   1  14 17200.8 1171.84   2
  -3  -1  14 18107.3 1432.17   2
  -3  -1  14 18554.2 1196.32   5
  -3   1  13 36616.4 1697.83   5
  -3   1  13 33855.7 1589.84   2
  -3  -1  13 32837.0 1830.60   2
  -3  -1  13 34161.7 1568.57   5
  -3  -1  12 1738.34 418.029   5
  -3   1  12 2156.95 489.358   5
  -3   1  12 2292.96 452.922   2
  -3  -1  12 2336.15 526.937   2
  -3   1  11 58836.9 2022.97   5
  -3   1  11 58076.9 1919.61   2
  -3  -1  11 60100.9 2340.82   2
  -3  -1  11 58832.2 1904.90   5
  -3  -1  10 1515.15 316.318   5
  -3   1  10 1264.79 308.828   2
  -3  -1  10 1870.04 552.736   2
  -3  -1   9 25843.3 1166.79   5
  -3   1   9 27234.2 1315.28   5
  -3   1   9 25476.9 1207.27   2
  -3  -1   9 25439.6 1411.96   2
  -3  -1   8 20604.3 996.317   5
  -3  -1   8 19775.3 1223.33   2
  -3   1   8 19779.2 1109.81   5
  -3  -1   7 34785.0 1232.71   5
  -3   1   7 36828.1 1441.18   5
  -3  -1   7 37970.1 1646.24   2
   3  -1  -7 36129.2 1684.31   4
  -3  -1   6 75184.0 1732.35   5
  -3   1   6 79534.1 2032.28   5
  -3  -1   6 79981.5 2337.54   2
   3   1  -6 79591.8 2438.27   4
   3  -1  -6 79584.8 2417.30   4
  -3   1   5 44343.4 1477.04   5
   3   1  -5 45527.8 1795.27   4
   3  -1  -5 46286.4 1871.14   4
  -3  -1   5 43834.5 1247.35   5
  -3  -1   4 52493.1 1264.58   5
  -3   1   4 50732.9 1552.03   5
   3   1  -4 53291.1 1938.65   4
   3  -1  -4 48042.3 1829.71   4
  -3  -1   3 20734.7 741.819   5
  -3   1   3 20535.4 969.772   5
   3   1  -3 20840.9 1182.67   4
   3  -1  -3 21707.0 1204.91   4
  -3  -1   2 6444.07 383.590   5
  -3   1   2 6192.92 521.026   5
   3   1  -2 5786.41 622.115   4
   3  -1  -2 6006.77 654.356   4
  -3   1   1 14011.6 779.786   5
  -3  -1   1 14516.2 550.253   5
  -3   1   1 13291.1 574.700   1
   3   1  -1 13594.7 934.075   4
   3  -1  -1 15436.7 999.530   4
  -3   1   0 6576.54 531.401   5
  -3  -1   0 6803.98 359.412   5
   3   1   0 6600.25 640.809   4
   3  -1   0 6889.54 697.746   4
  -3   1  -1 14679.5 786.234   5
   3   1   1 15998.9 1022.44   4
   3  -1   1 15029.3 1004.45   4
  -3   1  -2 87087.8 1957.78   5
   3   1   2 87802.3 2374.08   4
   3  -1   2 86087.3 2416.35   4
  -3   1  -2 86442.2 1650.44   1
   3   1   3 45371.4 1730.75   4
   3  -1   3 42190.2 1697.65   4
  -3   1  -3 43897.1 1185.13   1
   3   1   4 71316.1 2189.72   4
   3  -1   4 69975.0 2198.12   4
  -3   1  -4 69672.6 1446.86   1
  -3   1  -5 45620.5 1165.75   1
   3   1   5 50658.5 1896.83   4
   3  -1   5 46251.5 1834.07   4
  -3   1  -6 32348.1 974.610   1
   3   1   6 34366.5 1558.37   4
   3  -1   6 33918.7 1607.69   4
  -3   1  -7 53034.7 1250.46   1
   3   1   7 51395.9 1922.81   4
   3  -1   7 54873.0 2046.91   4
  -3   1  -8 294.567 142.479   1
   3   1   8 838.414 441.763   4
   3  -1   8 629.770 428.390   4
  -3   1  -9 86405.6 1670.79   1
   3   1   9 86532.2 2641.42   4
   3  -1   9 89708.4 2777.99   4
  -3   1 -10 8613.77 554.434   1
   3   1  10 8722.57 916.937   4
   3  -1  10 10718.8 1102.72   4
   3   1  11 34061.5 1745.85   4
   3  -1  11 36008.6 1857.04   4
   3   1  12 27446.7 1621.80   4
   3  -1  12 27912.2 1689.73   4
   3   1  13 10991.9 1073.04   4
   3  -1  13 11670.8 1156.42   4
   3   1  14 32512.8 1854.50   4
   3  -1  14 32864.2 1970.74   4
   3   1  15 14165.2 1283.95   4
   3  -1  15 14704.5 1373.58   4
   3   1  16 10616.6 1137.49   4
   3  -1  16 10499.0 1188.83   4
   3   1  17 9129.55 1097.54   4
   3  -1  17 9473.06 1184.58   4
   3   1  18 338.123 200.097   4
   3  -1  18 91.0484 327.233   4
   3   1  19 5476.87 885.743   4
   3  -1  19 6633.44 1007.69   4
   3   2 -22 20266.6 1508.03   1
  -3  -2  22 18902.7 1568.23   5
   3   2 -21 1322.33 519.902   1
  -3  -2  21 776.281 459.607   5
  -3   2  21 1226.42 619.840   5
  -3   2  20 26488.8 1754.78   5
   3   2 -20 25891.1 1603.12   1
  -3  -2  20 24123.7 1670.70   5
  -3  -2  19 946.203 518.879   5
  -3   2  19 2298.98 635.361   5
   3   2 -19 1370.17 491.591   1
  -3   2  18 31529.2 1823.60   5
   3   2 -18 30345.3 1615.53   1
  -3  -2  18 29017.4 1711.13   5
  -3   2  17 5595.51 829.618   5
   3   2 -17 5500.62 734.091   1
  -3  -2  17 4647.85 710.211   5
  -3   2  16 17980.2 1321.52   5
   3   2 -16 18069.6 1180.09   1
  -3  -2  16 19333.7 1717.60   2
  -3  -2  16 17609.6 1248.70   5
  -3   2  15 8581.00 904.938   5
   3   2 -15 8556.11 794.341   1
  -3  -2  15 7414.56 1076.68   2
  -3  -2  15 7086.22 779.859   5
  -3  -2  14 2222.93 437.055   5
  -3   2  14 2614.46 503.555   5
  -3  -2  14 2362.69 615.283   2
   3   2 -14 2561.61 453.771   1
  -3  -2  13 1721.87 347.886   5
  -3   2  13 1378.85 381.151   5
   3   2 -13 1953.54 403.941   1
  -3  -2  13 1166.18 393.675   2
  -3  -2  12 910.842 260.641   5
  -3   2  12 1568.06 376.543   5
  -3  -2  12 1182.97 363.588   2
   3   2 -12 1253.82 291.992   1
  -3  -2  11 1176.95 294.064   5
  -3   2  11 1954.82 431.553   5
  -3   2  11 1339.99 274.531   2
  -3  -2  11 1806.14 474.315   2
   3   2 -11 2059.19 346.082   1
  -3  -2  10 1993.26 331.842   5
  -3   2  10 1791.66 355.274   5
  -3   2  10 2591.94 378.539   2
  -3  -2  10 2007.14 449.893   2
   3   2 -10 2036.73 320.308   1
   3   2  -9 954.642 205.379   1
  -3  -2   9 1024.25 259.797   5
  -3   2   9 814.977 238.995   5
  -3  -2   9 1204.42 372.201   2
  -3   2   8 11916.1 888.631   5
   3   2  -8 11095.9 654.857   1
  -3  -2   8 12985.2 1073.86   2
  -3  -2   8 10537.6 691.897   5
  -3   2   7 31148.3 1400.22   5
   3   2  -7 30162.9 1007.77   1
  -3  -2   7 31740.1 1603.79   2
   3  -2  -7 31035.8 1570.89   4
  -3  -2   7 28570.5 1077.21   5
  -3  -2   6 24840.5 928.826   5
  -3   2   6 25281.3 1234.84   5
  -3  -2   6 26108.9 1440.14   2
   3  -2  -6 25606.7 1383.81   4
  -3  -2   5 19037.3 747.203   5
  -3   2   5 19384.1 1083.26   5
  -3  -2   5 19753.4 1249.95   2
   3   2  -5 19054.7 1186.99   4
   3  -2  -5 19220.2 1223.18   4
  -3  -2   4 109290. 1619.36   5
  -3   2   4 111713. 2517.65   5
  -3  -2   4 113133. 2892.91   2
   3   2  -4 110732. 2767.20   4
   3  -2  -4 105491. 2737.11   4
  -3  -2   3 6960.21 359.416   5
  -3   2   3 6449.35 668.040   5
   3   2  -3 7943.94 779.587   4
   3  -2  -3 5834.05 656.704   4
  -3  -2   2 158972. 1395.48   5
  -3   2   2 166526. 2966.07   5
   3   2  -2 165603. 3272.89   4
   3  -2  -2 164465. 3323.59   4
  -3   2   1 2333.21 446.894   5
   3  -2  -1 2309.78 431.203   4
  -3   2   0 161218. 2904.76   5
   3   2   0 162732. 3206.50   4
   3  -2   0 155114. 3240.33   4
  -3   2  -1 9190.03 708.303   5
   3  -2   1 9746.89 818.584   4
  -3   2  -2 94961.6 2281.91   5
   3   2   2 97929.0 2508.14   4
   3  -2   2 94689.3 2549.15   4
   3  -2   3 18250.6 1234.24   4
  -3   2  -3 17089.7 884.153   1
   3   2   4 31141.7 1426.42   4
   3  -2   4 30073.0 1481.39   4
  -3   2  -4 30544.9 1208.82   1
   3   2   5 12247.3 905.466   4
   3  -2   5 14253.3 1065.52   4
  -3   2  -5 12362.0 773.305   1
   3   2   6 2171.86 430.778   4
  -3   2  -6 2914.73 387.708   1
  -3   2  -7 443.568 187.393   1
   3   2   7 891.212 338.032   4
   3  -2   7 713.299 273.514   4
   3   2   8 389.516 211.078   4
   3  -2   8 517.735 238.865   4
  -3   2  -8 251.119 110.196   1
  -3   2  -9 705.496 216.547   1
   3   2   9 539.937 285.072   4
   3  -2   9 935.050 325.198   4
  -3   2 -10 7529.39 631.325   1
   3   2  10 7203.01 781.306   4
   3  -2  10 6982.74 833.409   4
  -3   2 -11 291.014 113.281   1
   3  -2  11 553.490 317.320   4
  -3   2 -12 14351.2 882.088   1
   3   2  12 13420.3 1111.60   4
   3  -2  12 14461.5 1255.59   4
  -3   2 -13 18980.6 1042.50   1
   3   2  13 17364.1 1285.42   4
   3  -2  13 18262.3 1418.81   4
   3   2  14 24754.0 1592.86   4
   3  -2  14 25510.5 1758.47   4
   3   2  15 9795.26 1189.11   3
   3   2  15 9128.12 1036.43   4
   3  -2  15 9174.73 1121.83   4
   3   2  16 53108.3 2737.96   3
   3   2  16 49620.9 2385.10   4
   3  -2  16 52365.7 2657.71   4
   3   2  17 2205.01 738.312   3
   3   2  17 1840.57 583.759   4
   3  -2  17 2582.26 740.850   4
   3   2  18 44977.2 2594.72   3
   3   2  18 42958.3 2352.63   4
   3  -2  18 42677.0 2547.29   4
   3   2  19 2028.69 674.803   3
   3   2  19 1960.22 633.326   4
   3   2  20 31797.4 2244.42   3
   3   2  20 28221.9 2051.59   4
   3   2  21 4531.38 922.644   3
  -3  -3  22 575.068 418.290   5
   3   3 -21 20508.2 1528.78   1
  -3  -3  21 22117.0 1655.34   5
   3   3 -20 1967.83 601.286   1
  -3  -3  20 1959.24 549.527   5
  -3   3  20 1885.74 603.081   5
   3   3 -19 28568.8 1688.17   1
  -3   3  19 30700.1 1911.15   5
  -3  -3  19 26612.8 1709.26   5
  -3   3  18 6166.09 897.061   5
  -3  -3  18 4467.47 726.561   5
   3   3 -18 5003.97 743.162   1
  -3   3  17 21086.7 1510.98   5
  -3  -3  17 19270.4 1359.05   5
   3   3 -17 19255.6 1299.13   1
  -3   3  16 8009.91 975.206   5
  -3  -3  16 8241.18 1300.81   2
   3   3 -16 7456.83 801.792   1
  -3  -3  16 6278.27 779.615   5
  -3   3  15 7816.30 916.979   5
  -3  -3  15 6504.52 1056.55   2
   3   3 -15 8341.59 792.441   1
  -3  -3  15 6292.16 742.878   5
  -3   3  14 10202.4 1000.05   5
  -3  -3  14 7538.73 1098.78   2
   3   3 -14 8994.68 803.166   1
  -3  -3  14 8527.04 828.857   5
  -3  -3  13 761.378 293.382   5
   3   3 -13 856.008 277.856   1
  -3   3  13 839.849 306.904   5
  -3  -3  13 453.271 320.761   2
   3   3 -12 1131.98 273.724   1
  -3  -3  12 1129.31 282.140   5
  -3   3  12 806.496 347.977   5
  -3  -3  12 1276.47 490.867   2
   3   3 -11 368.936 185.160   1
  -3  -3  11 239.631 145.286   5
  -3   3  11 25.6599 221.421   5
  -3  -3  11 335.507 309.651   2
   3   3 -10 657.677 213.021   1
  -3  -3  10 354.649 140.288   5
  -3   3  10 575.915 248.690   5
  -3  -3  10 209.913 207.923   2
   3   3  -9 1229.41 252.077   1
  -3  -3   9 956.196 245.150   5
  -3   3   9 762.230 284.480   5
  -3  -3   9 1046.44 357.671   2
  -3   3   8 19245.7 1189.61   5
  -3  -3   8 18826.3 1379.13   2
   3   3  -8 20424.1 913.273   1
  -3  -3   8 19023.2 918.565   5
  -3   3   7 17554.4 1145.05   5
  -3  -3   7 16279.7 1269.69   2
   3   3  -7 16592.3 790.457   1
  -3  -3   7 16627.9 807.015   5
  -3   3   6 30404.4 1463.95   5
  -3  -3   6 30813.0 1678.21   2
   3  -3  -6 28990.9 1502.47   4
   3   3  -6 28772.2 956.780   1
  -3  -3   6 27226.1 943.757   5
  -3   3   5 53752.8 1914.12   5
  -3  -3   5 48826.4 2059.10   2
   3  -3  -5 49173.1 1938.74   4
  -3  -3   5 47669.4 1117.73   5
  -3   3   4 15346.2 1060.54   5
  -3  -3   4 13754.6 1104.24   2
   3   3  -4 13734.9 982.958   4
   3  -3  -4 13499.2 1003.89   4
  -3   3   3 87790.7 2378.37   5
  -3  -3   3 88327.3 2694.40   2
   3   3  -3 85931.4 2431.04   4
   3  -3  -3 80701.6 2394.32   4
  -3   3   2 5830.47 799.417   5
  -3  -3   2 5197.89 691.492   2
   3   3  -2 4892.34 585.372   4
   3  -3  -2 6863.94 923.265   4
  -3   3   1 122883. 2819.85   5
   3   3  -1 123221. 2826.13   4
   3  -3  -1 121291. 2899.39   4
  -3   3   0 10734.7 891.180   5
   3   3   0 13071.8 954.691   4
   3  -3   0 11327.6 1057.39   4
  -3   3  -1 115504. 2748.36   5
   3   3   1 111312. 2638.98   4
   3  -3   1 111893. 2816.90   4
  -3   3  -2 26300.3 1336.16   5
   3   3   2 27174.8 1346.68   4
   3  -3   2 27896.8 1465.24   4
  -3   3  -3 67481.4 2129.68   5
   3   3   3 65594.5 2059.88   4
   3  -3   3 63667.0 2168.25   4
  -3   3  -3 66632.3 1980.87   1
   3   3   4 18632.9 1111.17   4
   3  -3   4 17822.3 1194.89   4
  -3   3  -4 16969.0 1011.69   1
   3   3   5 10974.9 866.479   4
   3  -3   5 12412.2 1035.98   4
  -3   3  -5 9965.24 792.325   1
   3   3   6 27229.7 1370.70   4
   3  -3   6 26740.1 1472.76   4
  -3   3  -6 26956.5 1317.18   1
  -3   3  -7 777.115 261.340   1
   3   3   7 1124.44 287.815   4
   3  -3   7 487.910 291.157   4
  -3   3  -8 5.14737 115.471   1
   3   3   8 364.496 237.006   4
   3  -3   8 97.0698 168.824   4
   3   3   9 1135.72 348.517   4
   3  -3   9 1129.13 344.223   4
  -3   3  -9 1023.93 276.809   1
   3   3  10 1072.54 329.758   4
   3  -3  10 1294.37 373.258   4
  -3   3 -10 888.644 276.486   1
  -3   3 -11 5263.05 612.764   1
   3   3  11 4900.72 640.548   4
   3  -3  11 5176.61 725.295   4
   3   3  12 8433.94 1151.43   3
  -3   3 -12 9181.46 823.743   1
   3   3  12 8675.43 876.836   4
   3  -3  12 8824.94 990.368   4
   3   3  13 20840.6 1740.19   3
  -3   3 -13 22382.9 1292.23   1
   3   3  13 22277.1 1421.58   4
   3  -3  13 21670.5 1583.41   4
   3   3  14 18297.3 1663.20   3
  -3   3 -14 16865.6 1125.90   1
   3   3  14 17104.7 1295.94   4
   3  -3  14 18840.9 1543.83   4
   3   3  15 37111.8 2413.97   3
  -3   3 -15 34698.1 1653.94   1
   3   3  15 36208.7 1902.12   4
   3  -3  15 35401.6 2154.61   4
   3   3  16 5774.16 1053.20   3
   3   3  16 4042.45 686.236   4
   3  -3  16 4953.74 873.500   4
   3   3  17 36967.2 2504.44   3
   3   3  17 35493.6 2000.95   4
   3  -3  17 37123.5 2333.84   4
   3   3  18 1278.90 615.513   3
   3   3  18 2801.88 605.733   4
   3  -3  18 2015.18 529.398   4
   3   3  19 28634.1 2265.34   3
   3   3  19 24570.6 1756.24   4
   3   3  20 4221.82 971.746   3
   3   3  20 2311.78 636.940   4
   3   4 -21 268.843 311.139   1
  -3  -4  21 322.631 332.172   5
   3   4 -20 693.959 324.070   1
   3   4 -19 2002.01 476.111   1
  -3   4  18 1662.74 494.503   5
   3   4 -18 1174.50 397.644   1
  -3   4  17 7799.50 982.792   5
   3   4 -17 7959.10 867.281   1
  -3   4  16 15560.5 1334.78   5
   3   4 -16 15816.8 1202.73   1
  -3   4  15 10391.2 1090.73   5
  -3  -4  15 8131.95 1313.43   2
   3   4 -15 10102.8 939.706   1
  -3   4  14 28418.3 1718.37   5
  -3  -4  14 28283.0 2229.82   2
   3   4 -14 29215.8 1523.77   1
  -3   4  13 12532.0 1134.64   5
  -3  -4  13 11409.9 1377.68   2
   3   4 -13 10783.8 910.088   1
  -3   4  12 27424.2 1610.88   5
  -3  -4  12 25875.7 1999.00   2
   3   4 -12 27035.3 1348.19   1
   3   4 -11 675.527 356.485   1
  -3  -4  11 1102.87 577.760   2
  -3   4  10 41811.4 1929.75   5
  -3  -4  10 41836.7 2349.45   2
   3   4 -10 42449.9 1567.21   1
  -3   4   9 8487.94 912.754   5
  -3  -4   9 6348.45 941.590   2
   3   4  -9 6656.99 635.658   1
  -3   4   8 37738.5 1791.52   5
  -3  -4   8 36708.4 2113.37   2
  -3   4   7 30010.3 1582.03   5
  -3  -4   7 28489.1 1804.95   2
  -3   4   6 28306.7 1530.37   5
  -3  -4   6 25940.4 1673.55   2
   3  -4  -6 26745.0 1488.13   4
  -3   4   5 49378.2 1987.94   5
  -3  -4   5 46161.6 2191.54   2
   3  -4  -5 46997.0 1930.14   4
  -3   4   4 5654.30 700.669   5
  -3  -4   4 6835.47 877.512   2
   3  -4  -4 6340.95 757.174   4
  -3   4   3 16692.5 1143.66   5
  -3  -4   3 16410.2 1244.65   2
   3   4  -3 15913.6 1052.37   4
   3  -4  -3 15691.6 1085.05   4
  -3   4   2 7224.64 796.163   5
  -3  -4   2 6304.63 779.562   2
   3   4  -2 6325.18 653.481   4
   3  -4  -2 7289.47 779.347   4
  -3   4   1 1734.57 380.012   5
  -3  -4   1 2122.73 476.269   2
   3   4  -1 1749.92 359.889   4
   3  -4  -1 1856.66 392.084   4
  -3  -4   0 7089.43 802.229   2
  -3   4   0 6326.90 692.785   5
   3   4   0 7625.51 702.407   4
   3  -4   0 6722.78 704.547   4
  -3  -4  -1 24569.0 1469.29   2
  -3   4  -1 20780.7 1286.29   5
   3   4   1 22816.8 1189.67   4
   3  -4   1 20170.4 1226.29   4
  -3   4  -2 1997.25 424.450   5
   3   4   2 2187.81 416.951   4
   3  -4   2 1892.88 464.260   4
  -3   4  -3 56799.5 2128.19   5
   3   4   3 55775.7 1871.14   4
   3  -4   3 55421.9 2077.33   4
  -3   4  -3 55453.1 1999.10   1
   3   4   4 33534.2 1489.18   4
   3  -4   4 30903.8 1570.73   4
  -3   4  -4 30319.4 1500.50   1
   3   4   5 15129.7 1039.51   4
   3  -4   5 13763.3 1092.27   4
  -3   4  -5 13683.9 1032.17   1
   3   4   6 72781.9 2240.98   4
   3  -4   6 74679.4 2512.81   4
  -3   4  -6 72424.3 2406.83   1
   3   4   7 9904.76 911.456   4
   3  -4   7 9196.98 920.288   4
  -3   4  -7 9563.88 928.908   1
   3   4   8 48435.6 1868.84   4
   3  -4   8 48795.9 2121.48   4
  -3   4  -8 45666.7 1933.22   1
  -3   4  -9 992.998 317.787   1
   3   4   9 374.490 327.338   4
   3  -4   9 1477.26 615.923   4
  -3   4 -10 50251.0 2050.55   1
   3   4  10 47599.6 2624.53   3
   3   4  10 50487.7 1960.70   4
   3  -4  10 53247.3 2339.25   4
   3   4  11 9720.37 1243.98   3
  -3   4 -11 11726.1 1015.81   1
   3   4  11 10621.7 950.850   4
   3  -4  11 12379.1 1190.04   4
   3   4  12 21838.5 1869.67   3
  -3   4 -12 23654.1 1454.35   1
   3   4  12 22775.0 1380.70   4
   3  -4  12 21652.7 1590.30   4
   3   4  13 17674.2 1716.53   3
  -3   4 -13 20220.8 1354.94   1
   3   4  13 19505.3 1326.26   4
   3  -4  13 19628.2 1550.83   4
   3   4  14 17087.2 1711.21   3
  -3   4 -14 19849.4 1355.29   1
   3   4  14 17500.2 1268.41   4
   3  -4  14 16767.5 1461.74   4
   3   4  15 11741.9 1469.48   3
  -3   4 -15 12324.7 1079.18   1
   3   4  15 12057.9 1095.69   4
   3  -4  15 11710.4 1269.96   4
   3   4  16 2583.27 714.971   3
  -3   4 -16 2217.52 461.907   1
   3   4  16 2155.19 517.947   4
   3  -4  16 2910.60 680.199   4
   3   4  17 3848.45 903.917   3
  -3   4 -17 3960.63 658.749   1
   3   4  17 3436.76 610.234   4
   3  -4  17 3669.20 752.009   4
   3   4  18 1889.60 479.346   4
   3   5 -19 288.751 276.136   1
   3   5 -18 183.412 201.708   1
   3   5 -17-110.857 320.685   1
  -3   5  16 127.971 303.549   5
   3   5 -16-88.0731 164.405   1
  -3   5  15 14142.8 1291.17   5
   3   5 -15 14015.1 1158.38   1
  -3   5  14 2977.40 647.618   5
  -3  -5  14 3595.88 978.719   2
  -3   5  13 50411.7 2349.14   5
  -3  -5  13 47986.9 3012.40   2
  -3   5  12 1238.04 556.503   5
  -3  -5  12 1870.61 822.721   2
  -3   5  11 73362.9 2745.68   5
  -3  -5  11 70399.9 3428.35   2
  -3   5  10 9500.89 1109.27   5
  -3  -5  10 3243.51 877.966   2
  -3   5   9 70413.7 2623.70   5
  -3  -5   9 72425.2 3252.70   2
  -3   5   8 7156.20 954.180   5
  -3  -5   8 2190.77 739.750   2
  -3   5   7 26291.0 1584.64   5
  -3  -5   7 26480.6 1879.97   2
  -3   5   6 968.406 379.303   5
  -3  -5   6 1262.30 512.321   2
  -3   5   5 4445.59 635.532   5
   3  -5  -5 4147.70 615.687   4
  -3  -5   5 4058.12 722.418   2
  -3   5   4 989.998 373.532   5
  -3  -5   4 730.303 353.315   2
   3  -5  -4 557.965 301.425   4
  -3   5   3 308.509 256.283   5
  -3  -5   3 229.281 256.301   2
   3  -5  -3 674.080 313.527   4
  -3   5   2 339.857 272.049   5
  -3  -5   2 163.889 243.517   2
   3  -5  -2-59.0653 130.427   4
  -3  -5   1 4952.76 745.300   2
  -3   5   1 4230.66 631.189   5
   3   5  -1 3840.83 514.780   4
   3  -5  -1 3585.72 550.659   4
  -3   5   0 550.183 235.226   5
  -3  -5   0 759.612 281.486   2
   3   5   0 438.830 179.509   4
   3  -5   0 544.416 235.466   4
  -3   5  -1 234.328 164.404   5
  -3  -5  -1 400.160 264.230   2
   3   5   1 608.638 207.612   4
   3  -5   1 392.508 246.962   4
  -3   5  -2 1520.58 379.367   5
  -3  -5  -2 2707.37 552.010   2
   3   5   2 1815.06 346.819   4
   3  -5   2 1467.49 359.413   4
  -3  -5  -3 6361.85 799.783   2
  -3   5  -3 6746.37 795.891   5
   3   5   3 7205.91 676.689   4
   3  -5   3 7169.85 760.747   4
  -3   5  -3 7218.14 800.197   1
  -3   5  -4 675.739 246.192   1
  -3  -5  -4 415.527 264.128   2
   3   5   4 327.855 159.193   4
   3  -5   4 504.180 220.222   4
  -3  -5  -5 40184.3 1961.48   2
   3   5   5 41176.5 1617.28   4
   3  -5   5 41901.8 1885.44   4
  -3   5  -5 43003.6 1973.67   1
  -3   5  -6 3329.73 577.369   1
   3   5   6 3353.27 585.546   4
   3  -5   6 2886.43 614.207   4
   3   5   7 103350. 2647.43   4
   3  -5   7 104130. 3096.34   4
  -3   5  -7 102347. 3119.93   1
   3   5   8 3810.61 714.772   4
  -3   5  -8 3204.01 614.125   1
   3  -5   8 2772.54 754.576   4
   3   5   9 91113.2 3728.37   3
   3  -5   9 96074.4 3115.39   4
  -3   5  -9 94110.1 3015.26   1
   3   5  10 2476.78 869.778   3
  -3   5 -10 982.428 623.762   1
   3  -5  10 1728.68 573.640   4
  -3   5 -11 63036.4 2507.76   1
   3   5  11 55315.7 3019.43   3
   3  -5  11 58747.7 2579.61   4
   3   5  12 1976.08 782.192   3
  -3   5 -12 1460.43 427.629   1
   3   5  13 12529.0 1518.61   3
  -3   5 -13 14553.7 1239.01   1
   3  -5  13 13584.9 1301.98   4
  -3   5 -14 1042.60 383.047   1
   3   5  14 1098.25 571.743   3
   3  -5  14 1385.94 512.558   4
  -3   5 -15 153.212 251.399   1
   3   5  15 521.606 478.745   3
   3  -5  15 73.7970 254.540   4
  -3   5 -16 789.006 294.465   1
   3  -5  16 1046.96 411.817   4
  -3   5 -17 20.6818 197.206   1
  -3   6  13 4971.54 846.467   5
  -3  -6  13 5373.42 1187.28   2
  -3   6  12 15609.5 1397.19   5
  -3  -6  12 17688.3 1963.07   2
  -3   6  11 679.464 450.143   5
  -3  -6  11 347.431 548.148   2
  -3   6  10 12919.1 1224.51   5
  -3  -6  10 12134.6 1529.93   2
  -3   6   9 5070.03 764.106   5
  -3  -6   9 6120.35 1106.01   2
  -3   6   8 13949.8 1243.80   5
  -3  -6   8 15461.2 1609.16   2
  -3   6   7 22595.7 1561.29   5
  -3  -6   7 19109.0 1739.49   2
  -3   6   6 13025.8 1205.94   5
  -3  -6   6 11816.3 1341.25   2
  -3   6   5 23325.2 1563.24   5
  -3  -6   5 21416.2 1767.21   2
  -3   6   4 10012.9 1103.04   5
  -3  -6   4 7759.22 1068.88   2
   3  -6  -4 9163.88 971.440   4
  -3   6   3 14133.0 1220.24   5
  -3  -6   3 14311.0 1390.78   2
   3  -6  -3 15070.3 1132.99   4
  -3   6   2 21144.8 1482.66   5
  -3  -6   2 18252.3 1524.39   2
   3  -6  -2 20393.5 1298.43   4
  -3   6   1 38.9070 204.839   5
  -3  -6   1-181.675 210.922   2
   3  -6  -1 294.301 288.122   4
  -3   6   0 15468.5 1263.84   5
  -3  -6   0 14344.1 1306.08   2
   3  -6   0 15097.7 1112.50   4
  -3   6  -1 14036.7 1233.99   5
  -3  -6  -1 14469.9 1307.12   2
   3  -6   1 12648.6 1068.21   4
  -3   6  -2 15045.5 1259.22   5
  -3  -6  -2 15039.6 1322.70   2
   3  -6   2 14198.2 1083.85   4
  -3   6  -2 16104.2 1273.85   1
  -3  -6  -3 38523.8 2067.69   2
   3  -6   3 36974.0 1779.97   4
  -3   6  -3 39829.3 2025.44   1
  -3  -6  -4 17276.6 1377.34   2
   3  -6   4 18538.2 1288.29   4
  -3   6  -4 18362.4 1391.23   1
  -3  -6  -5 20926.2 1514.81   2
   3  -6   5 21911.3 1407.17   4
  -3   6  -5 21916.0 1538.75   1
  -3  -6  -6 14991.4 1277.13   2
   3  -6   6 16018.6 1231.69   4
  -3   6  -6 15664.6 1348.72   1
  -3  -6  -7 6647.45 866.080   2
   3  -6   7 7172.77 860.607   4
  -3   6  -7 5038.17 805.746   1
   3   6   8 21612.9 1835.12   3
  -3  -6  -8 22371.0 1541.89   2
   3  -6   8 20374.3 1434.45   4
  -3   6  -8 21143.2 1546.94   1
   3   6   9 3451.07 800.763   3
  -3  -6  -9 2985.70 600.575   2
  -3   6  -9 2729.46 574.962   1
   3  -6   9 3854.06 693.643   4
   3   6  10 13607.7 1534.76   3
  -3  -6 -10 12905.4 1183.36   2
   3  -6  10 13881.5 1231.03   4
  -3   6 -10 12649.9 1204.36   1
  -3   6 -11 8221.92 988.427   1
   3   6  11 8530.77 1261.08   3
  -3  -6 -11 7827.60 940.232   2
   3  -6  11 7244.14 954.679   4
  -3   6 -12 7818.65 957.398   1
   3   6  12 7201.01 1173.76   3
  -3  -6 -12 9098.49 1007.55   2
   3  -6  12 8438.17 1022.08   4
  -3   6 -13 15613.6 1386.40   1
   3  -6  13 13735.4 1329.57   4
  -3   6 -14 6910.71 932.561   1
   3  -6  14 7932.44 1041.51   4
  -3   6 -15 8451.28 1037.93   1
   3  -6  15 8199.90 1060.85   4
  -3   6 -16 3828.88 705.158   1
  -3   7   9 81.2638 248.849   5
  -3   7   8 653.438 271.682   5
  -3  -7   8 1450.21 581.959   2
  -3   7   7 2622.34 598.468   5
  -3  -7   7 1636.68 655.592   2
  -3   7   6 1094.94 393.022   5
  -3  -7   6 2154.58 738.741   2
  -3   7   5 31920.8 1958.05   5
  -3  -7   5 33347.0 2359.53   2
  -3   7   4 5364.42 852.476   5
  -3  -7   4 4666.61 920.236   2
  -3   7   3 56350.6 2580.51   5
  -3  -7   3 55299.5 2905.84   2
  -3   7   2 2527.69 799.695   5
  -3  -7   2 825.178 475.746   2
  -3   7   1 50487.3 2479.32   5
  -3  -7   1 49239.0 2667.05   2
  -3   7   0 5086.58 824.892   5
  -3  -7   0 3785.80 779.308   2
  -3   7  -1 47957.7 2409.70   5
  -3  -7  -1 50232.9 2626.90   2
  -3   7  -2 3952.92 737.741   1
  -3   7  -2 3215.90 650.627   5
  -3  -7  -2 2741.89 663.260   2
  -3  -7  -3 23935.4 1768.59   2
  -3   7  -3 24524.8 1731.97   1
  -3   7  -4 2684.62 721.802   1
  -3  -7  -4 1808.22 556.275   2
  -3   7  -5 1015.45 397.041   1
  -3  -7  -5 1230.10 417.704   2
  -3   7  -6-34.0032 224.246   1
  -3  -7  -6-73.4285 206.234   2
  -3  -7  -7 552.899 351.117   2
  -3   7  -7 725.251 354.903   1
   3   7   8 30.2143 231.664   3
  -3  -7  -8-248.918 263.289   2
  -3   7  -8-34.9567 263.818   1
  -3  -7  -9 403.265 289.989   2
  -3   7  -9 1144.21 431.086   1
  -3  -7 -10 439.338 260.597   2
  -3   7 -10 800.864 344.774   1
  -3  -7 -11 272.008 201.796   2
  -3   7 -11-0.38875 202.356   1
  -3   7 -12 2424.80 573.151   1
  -3  -8   0 27905.8 2153.21   2
  -3  -8  -1 5833.27 987.522   2
  -3   8  -1 7126.34 1079.34   1
  -3  -8  -2 16051.1 1590.57   2
  -3   8  -2 15056.7 1465.89   1
  -3  -8  -3 9768.35 1222.60   2
  -3   8  -3 10049.6 1232.15   1
  -3  -8  -4 9543.08 1195.66   2
  -3   8  -4 10774.4 1248.92   1
  -3  -8  -5 7779.83 1084.69   2
  -3  -8  -6 234.758 272.631   2
  -3  -8  -7 3879.62 738.935   2
  -3  -8  -8 434.748 355.984   2
  -4   0  19 540.130 303.344   5
  -4   0  18 14818.6 1371.76   5
  -4   0  17 120.605 223.439   5
  -4   0  16 7427.89 926.166   5
  -4   0  15-308.906 191.204   5
  -4   0  14 575.204 268.783   5
  -4   0  13-287.490 203.244   5
  -4   0  13-232.762 330.222   2
  -4   0  12 780.535 297.202   5
  -4   0  12 650.672 323.563   2
  -4   0  11 317.731 248.604   5
  -4   0  11-54.0027 174.816   2
  -4   0  10 160.729 215.868   5
  -4   0  10 444.320 285.964   2
  -4   0   9 281.180 247.993   2
  -4   0   8 928.764 330.423   2
   4   0  -7 1171.11 395.081   4
   4   0  -6 23873.1 1571.07   4
   4   0  -5-126.720 224.605   4
   4   0  -4 70323.1 2618.23   4
   4   0  -3 702.743 357.109   4
   4   0  -2 132604. 3567.75   4
   4   0  -1 1338.71 536.972   4
   4   0   0 144866. 3685.14   4
   4   0   1 1199.30 481.310   4
   4   0   2 46002.7 2102.24   4
   4   0   3 79.4794 210.187   4
   4   0   4 9426.27 961.174   4
   4   0   5-152.593 233.118   4
   4   0   6 165.624 151.766   4
   4   0   7 424.899 260.701   4
   4   0   8 892.108 336.275   4
   4   0   9 38.6516 236.176   4
   4   0  10 1025.56 429.199   4
   4   0  11 388.274 321.549   4
   4   0  12 7805.67 998.262   4
   4   0  13 17.3001 191.458   4
  -4   1  19 9016.57 1113.22   5
  -4   1  18 4952.58 812.071   5
  -4   1  17 7439.35 977.784   5
  -4   1  16 11799.2 1183.32   5
  -4   1  15 5336.97 778.020   5
  -4  -1  15 5027.97 875.069   2
  -4   1  14 11220.3 1098.18   5
  -4  -1  14 11031.3 1210.21   2
  -4   1  13 11083.4 1046.35   5
  -4  -1  13 8801.12 1045.82   2
  -4   1  12 2037.28 442.711   5
  -4  -1  12 2523.32 571.731   2
  -4   1  11 5490.42 697.739   5
  -4   1  11 4496.55 655.389   2
  -4  -1  11 5778.94 803.203   2
  -4   1  10 5267.47 660.253   5
  -4   1  10 5924.10 714.551   2
  -4  -1  10 6596.36 850.998   2
  -4   1   9 4234.50 574.010   5
  -4   1   9 3541.02 588.203   2
  -4  -1   9 4294.06 682.268   2
  -4   1   8 22773.1 1295.64   5
  -4  -1   8 25736.8 1599.91   2
  -4   1   7 16456.0 1091.32   5
  -4  -1   7 16024.2 1252.86   2
   4  -1  -7 13439.9 1239.74   4
  -4   1   6 33103.4 1488.47   5
  -4  -1   6 34589.5 1827.98   2
   4   1  -6 33495.9 1853.32   4
   4  -1  -6 31053.2 1803.11   4
  -4   1   5 31211.5 1418.38   5
   4   1  -5 30061.7 1729.41   4
   4  -1  -5 29618.3 1722.45   4
  -4   1   4 19454.9 1095.36   5
   4   1  -4 18930.2 1369.40   4
   4  -1  -4 19272.5 1390.20   4
  -4   1   3 42247.5 1597.22   5
   4   1  -3 40899.3 2010.05   4
   4  -1  -3 41555.4 2024.33   4
   4   1  -2 237.848 186.105   4
   4  -1  -2 279.416 309.799   4
   4   1  -1 40667.1 1957.15   4
   4  -1  -1 38831.5 1919.21   4
   4   1   0 6038.49 778.993   4
   4  -1   0 6347.42 804.745   4
   4   1   1 34266.4 1790.55   4
   4  -1   1 31952.8 1782.55   4
   4   1   2 28914.9 1653.34   4
   4  -1   2 29794.2 1707.69   4
   4   1   3 24426.4 1545.43   4
   4  -1   3 24055.8 1558.89   4
   4   1   4 33239.1 1799.20   4
   4  -1   4 34468.3 1876.90   4
   4   1   5 7772.75 884.971   4
   4  -1   5 7013.69 869.087   4
   4   1   6 19074.9 1392.39   4
   4  -1   6 20318.1 1464.96   4
   4   1   7 12028.2 1129.72   4
   4  -1   7 11007.3 1099.61   4
   4   1   8 612.936 279.393   4
   4  -1   8 703.047 350.287   4
   4   1   9 14076.3 1237.54   4
   4  -1   9 13548.4 1260.52   4
   4   1  10 8453.91 998.577   4
   4  -1  10 9172.99 1071.17   4
   4   1  11 5862.74 846.408   4
   4  -1  11 7489.79 996.161   4
   4   1  12 17793.1 1492.51   4
   4  -1  12 18437.0 1551.62   4
   4   1  13 10655.5 1176.21   4
   4  -1  13 10879.8 1235.17   4
   4   1  14 16577.0 1495.84   4
  -4   2  18 1475.44 473.103   5
  -4   2  17 2116.40 552.909   5
  -4  -2  17 1652.98 599.444   2
  -4   2  16 9323.67 1078.19   5
  -4  -2  16 10577.1 1362.02   2
  -4   2  15 5808.08 834.294   5
  -4  -2  15 6427.86 1070.13   2
  -4   2  14 27718.9 1757.37   5
  -4  -2  14 23007.1 1857.67   2
  -4   2  13 2349.15 578.796   5
  -4  -2  13 1744.73 605.038   2
  -4   2  12 36350.4 1914.33   5
  -4  -2  12 37708.4 2252.66   2
  -4   2  11 1994.05 478.705   5
  -4  -2  11 1918.90 577.174   2
  -4   2  10 62838.5 2396.60   5
  -4  -2  10 61808.8 2728.30   2
  -4   2   9 3258.28 581.883   5
  -4  -2   9 2598.08 630.870   2
  -4   2   8 47309.2 2019.16   5
  -4  -2   8 41873.1 2171.92   2
  -4   2   7 6017.29 721.062   5
  -4  -2   7 7021.36 900.486   2
   4  -2  -7 4467.18 793.017   4
  -4   2   6 12994.4 1034.32   5
  -4  -2   6 10589.0 1089.82   2
   4  -2  -6 11138.2 1110.75   4
  -4   2   5 6008.35 676.111   5
  -4  -2   5 6365.89 839.728   2
   4   2  -5 6662.34 838.568   4
   4  -2  -5 6715.19 831.528   4
  -4  -2   4 746.857 356.248   2
  -4   2   4 1312.12 376.855   5
   4   2  -4 528.388 333.011   4
   4  -2  -4 814.635 330.836   4
  -4   2   3 2059.58 394.831   5
   4   2  -3 2535.24 542.175   4
   4  -2  -3 2142.07 500.716   4
  -4   2   2 1623.93 343.241   5
   4   2  -2 968.684 325.179   4
   4  -2  -2 1507.47 391.855   4
  -4   2   1 58.0896 145.430   5
   4   2  -1 171.334 195.581   4
   4  -2  -1 89.9314 191.595   4
  -4   2   0 256.862 198.236   5
   4   2   0 295.341 221.004   4
   4  -2   0 310.575 217.866   4
  -4   2  -1 4264.04 543.375   5
   4   2   1 4573.60 659.877   4
   4  -2   1 3495.00 598.793   4
   4   2   2 4196.30 629.074   4
   4  -2   2 4891.84 722.727   4
   4   2   3 9819.41 948.958   4
   4  -2   3 9690.10 1012.62   4
   4   2   4 28889.0 1680.77   4
   4  -2   4 29645.1 1767.30   4
   4   2   5 11777.4 1095.85   4
   4  -2   5 10877.8 1100.55   4
   4   2   6 85690.5 2925.13   4
   4  -2   6 84093.6 3022.13   4
   4   2   7 4315.56 710.998   4
   4  -2   7 4249.50 726.384   4
   4   2   8 59278.9 2498.12   4
   4  -2   8 59869.6 2640.51   4
   4  -2   9 6355.83 923.992   4
   4   2   9 4814.31 760.142   4
   4   2  10 59943.5 2573.03   4
   4  -2  10 56813.8 2692.66   4
   4   2  11 7746.15 965.362   4
   4  -2  11 7965.69 1056.26   4
   4   2  12 25293.7 1733.64   4
   4  -2  12 26609.4 1928.53   4
   4   2  13 3499.36 682.821   4
   4   2  14 6813.92 956.439   4
  -4  -3  18 4191.55 994.790   2
  -4  -3  17 4389.62 990.363   2
  -4   3  16 4033.78 747.949   5
  -4  -3  16 4745.30 1007.32   2
  -4   3  15 11328.7 1199.88   5
  -4  -3  15 8295.48 1253.85   2
  -4   3  14 5395.91 832.414   5
  -4  -3  14 4229.48 895.648   2
  -4   3  13 24247.0 1675.75   5
  -4  -3  13 22263.9 1874.87   2
  -4   3  12 924.553 462.716   5
  -4  -3  12 856.064 549.622   2
  -4   3  11 44310.8 2158.41   5
  -4  -3  11 41897.2 2462.52   2
  -4   3  10 3073.25 610.020   5
  -4  -3  10 2174.90 603.501   2
  -4   3   9 46530.5 2158.25   5
  -4  -3   9 44566.4 2415.91   2
  -4   3   8 6849.44 843.365   5
  -4  -3   8 7480.37 1014.46   2
  -4   3   7 25905.8 1563.57   5
  -4  -3   7 27851.9 1868.73   2
   4  -3  -7 26389.0 1729.54   4
  -4   3   6 14474.5 1155.30   5
  -4  -3   6 15192.7 1360.31   2
   4  -3  -6 13454.9 1238.15   4
  -4   3   5 6347.35 763.769   5
  -4  -3   5 4915.59 828.481   2
   4  -3  -5 5243.81 782.493   4
  -4   3   4 6235.80 739.082   5
   4   3  -4 5529.72 796.041   4
  -4  -3   4 4830.96 789.929   2
   4  -3  -4 5525.49 771.445   4
  -4   3   3 432.072 269.014   5
  -4  -3   3 342.744 324.215   2
   4   3  -3 169.813 225.901   4
   4  -3  -3 154.323 214.085   4
  -4  -3   2 997.767 413.664   2
  -4   3   2 396.180 150.312   5
   4   3  -2 709.021 299.824   4
   4  -3  -2 249.991 183.664   4
  -4   3   1 700.690 285.395   5
   4   3  -1 498.455 257.545   4
   4  -3  -1 640.717 283.225   4
  -4   3   0 1083.01 310.104   5
   4   3   0 845.796 249.982   4
   4  -3   0 1305.47 398.825   4
  -4   3  -1 3967.15 594.682   5
   4   3   1 3105.31 556.738   4
   4  -3   1 3009.84 560.636   4
   4   3   2 19904.2 1369.58   4
   4  -3   2 21429.7 1504.66   4
   4   3   3 25435.1 1545.92   4
   4  -3   3 26471.9 1678.93   4
   4   3   4 8804.20 943.452   4
   4  -3   4 7908.52 941.204   4
   4   3   5 40090.1 1989.97   4
   4  -3   5 41714.2 2151.13   4
   4   3   6 9842.02 1002.74   4
   4  -3   6 8900.92 1027.75   4
   4   3   7 43050.1 2114.49   4
   4  -3   7 43078.2 2253.91   4
   4   3   8 286.756 280.957   4
   4  -3   8 542.043 400.004   4
   4   3   9 47337.9 2254.12   4
   4  -3   9 51147.5 2537.21   4
   4   3  10 5932.39 830.452   4
   4  -3  10 6049.29 940.108   4
   4   3  11 32712.3 1919.33   4
   4  -3  11 36520.8 2228.06   4
   4   3  12 7868.19 966.248   4
   4  -3  12 8392.04 1120.15   4
   4   3  13 11517.9 1175.86   4
   4   3  14 7979.43 1012.12   4
  -4   4  14 2113.66 576.624   5
  -4  -4  14 1607.43 696.527   2
  -4   4  13 2876.07 635.842   5
  -4  -4  13 2877.33 822.176   2
  -4   4  12 705.120 327.959   5
  -4  -4  12 1421.27 589.825   2
  -4   4  11 566.538 329.526   5
  -4  -4  11-29.4765 264.203   2
  -4   4  10 1394.09 430.200   5
  -4  -4  10 1503.37 520.272   2
  -4   4   9 9163.34 1027.39   5
  -4  -4   9 10427.7 1252.71   2
  -4   4   8 6076.51 823.184   5
  -4  -4   8 7567.91 1068.76   2
  -4   4   7 17429.4 1376.08   5
  -4  -4   7 15185.3 1484.72   2
  -4   4   6 13644.3 1196.80   5
  -4  -4   6 13338.1 1354.65   2
   4  -4  -6 14769.3 1289.34   4
  -4   4   5 13563.9 1199.87   5
  -4  -4   5 11912.7 1333.93   2
   4  -4  -5 12806.1 1197.45   4
  -4   4   4 28555.5 1694.70   5
  -4  -4   4 28098.4 1910.11   2
   4  -4  -4 28340.2 1762.78   4
  -4   4   3 4597.98 695.210   5
   4   4  -3 4214.28 684.328   4
  -4  -4   3 5198.34 825.309   2
   4  -4  -3 4580.29 775.523   4
  -4   4   2 54954.2 2321.30   5
  -4  -4   2 53295.1 2560.67   2
   4   4  -2 52560.1 2254.91   4
   4  -4  -2 53150.2 2375.41   4
  -4   4   1 468.810 295.193   5
  -4  -4   1 1484.19 555.871   2
   4   4  -1 832.386 334.091   4
   4  -4  -1 1093.04 391.169   4
  -4  -4   0 32338.4 1974.99   2
  -4   4   0 31142.3 1747.36   5
   4   4   0 30866.7 1733.33   4
   4  -4   0 31576.3 1868.83   4
  -4  -4  -1 6158.93 880.356   2
  -4   4  -1 4997.17 712.598   5
   4   4   1 4402.91 641.141   4
   4  -4   1 5428.82 769.814   4
   4   4   2 17588.1 1295.07   4
   4  -4   2 18347.2 1424.93   4
   4   4   3 25333.1 1562.37   4
   4  -4   3 26232.8 1709.89   4
   4   4   4 17350.2 1296.85   4
   4  -4   4 17362.8 1435.47   4
   4   4   5 21026.2 1420.24   4
   4  -4   5 22778.8 1626.98   4
   4   4   6 3847.83 644.201   4
   4  -4   6 4403.13 755.543   4
   4   4   7 2422.62 540.216   4
   4  -4   7 962.541 401.317   4
   4   4   8 2620.90 527.413   4
   4  -4   8 3279.89 628.636   4
   4   4   9 2768.52 547.723   4
   4  -4   9 2363.18 593.763   4
   4   4  10 1095.22 389.371   4
   4  -4  10 1551.56 496.297   4
   4   4  11 11176.7 1117.36   4
   4  -4  11 11674.1 1302.41   4
   4   4  12 4779.43 740.590   4
   4   4  13 13006.9 1225.46   4
  -4   5  11 350.441 253.079   5
  -4   5  10-265.063 288.577   5
  -4   5   9 41.5575 235.438   5
  -4   5   8 549.661 303.067   5
  -4  -5   8 287.270 306.169   2
  -4   5   7 2534.62 551.207   5
  -4  -5   7 2384.55 644.256   2
  -4   5   6 418.731 273.634   5
  -4  -5   6 794.497 422.436   2
  -4   5   5 30173.9 1877.79   5
  -4  -5   5 31627.0 2156.88   2
   4  -5  -5 30629.0 1880.64   4
  -4   5   4 1179.43 482.431   5
  -4  -5   4 670.753 348.253   2
   4  -5  -4 229.515 278.739   4
  -4   5   3 61406.4 2633.76   5
  -4  -5   3 59743.8 2906.72   2
   4  -5  -3 57815.7 2556.41   4
  -4   5   2 1002.47 455.697   5
  -4  -5   2 841.291 533.379   2
   4  -5  -2 388.260 223.634   4
  -4   5   1 72121.4 2857.56   5
  -4  -5   1 71864.7 3100.56   2
   4   5  -1 70789.7 2584.24   4
   4  -5  -1 72091.8 2844.33   4
  -4   5   0 321.587 326.350   5
  -4  -5   0 852.997 442.988   2
   4  -5   0 770.064 457.618   4
  -4  -5  -1 50344.8 2564.72   2
  -4   5  -1 47208.0 2333.96   5
   4  -5   1 49165.6 2363.33   4
  -4  -5  -2 1695.21 534.806   2
   4  -5   2 2093.27 586.715   4
  -4  -5  -3 13468.9 1336.34   2
   4  -5   3 13374.0 1270.18   4
  -4  -5  -4 2473.46 642.236   2
   4  -5   4 1740.05 485.201   4
  -4  -5  -5 1435.08 446.293   2
   4  -5   5 753.087 342.038   4
   4  -5   6 266.571 314.574   4
   4  -5   7 188.761 241.951   4
   4  -5   8 313.265 233.940   4
   4  -5   9 229.540 197.030   4
  -4   6   6 6054.53 930.366   5
  -4   6   5 11247.0 1222.42   5
  -4   6   4 10442.6 1175.84   5
  -4   6   3 5402.39 879.324   5
  -4   6   2 13378.4 1323.11   5
   4  -6  -2 12244.1 1210.95   4
  -4   6   1 698.832 333.112   5
   4  -6  -1 406.582 297.399   4
  -4   6   0 12354.1 1291.48   5
   4  -6   0 11592.3 1178.82   4
  -4   6   0 12105.4 1224.54   1
  -4   6  -1 10238.6 1198.95   5
   4  -6   1 10606.2 1127.88   4
  -4   6  -1 9537.03 1081.55   1
   4  -6   2 9445.72 1089.30   4
   4  -6   3 17762.0 1460.00   4
   4  -6   4 5910.06 900.746   4
   4  -6   5 8295.49 1037.94   4
   4  -6   6 6886.02 973.068   4
   4  -6   7 4706.57 802.046   4
   4  -6   8 6587.80 961.004   4
  -4   7   0-117.083 227.527   1
  -4   7  -1 143.350 222.714   1
  -4   7  -2 531.059 296.044   1
  -5   0   9 666.167 412.186   2
  -5   0   8 18653.4 1529.11   2
  -5   0   7 286.647 332.709   2
  -5  -1  11 8546.21 1130.71   2
  -5  -1  10 2470.95 631.390   2
  -5  -1   9 9140.48 1169.88   2
  -5  -1   8 9069.30 1123.52   2
  -5  -1   7 7962.51 1048.26   2
  -5  -1   6 11151.7 1250.13   2
  -5  -1   5 6842.40 985.967   2
   0   0   0    0.00    0.00   0
TITL exp_475 in P2(1)/m
REM P2(1)/m (#11 in standard setting)
CELL 0.71073   3.904263   7.717974  20.614232  90.0000  92.4418  90.0000
ZERR    2.00   0.000246   0.000460   0.001443   0.0000   0.0055   0.0000
LATT  1
SYMM -x, y+1/2,-z
SFAC C H N O Br Cd
UNIT 16.00 16.00 8.00 4.00 4.00 2.00
TREF
HKLF 4
END
;
_shelx_hkl_checksum              59637
loop_
_space_group_symop_operation_xyz
'x, y, z'
'-x, y+1/2, -z+1/2'
'-x, -y, -z'
'x, -y-1/2, z-1/2'
loop_
_atom_site_label
_atom_site_type_symbol
_atom_site_fract_x
_atom_site_fract_y
_atom_site_fract_z
_atom_site_U_iso_or_equiv
_atom_site_adp_type
_atom_site_occupancy
_atom_site_site_symmetry_order
_atom_site_calc_flag
_atom_site_refinement_flags_posn
_atom_site_refinement_flags_adp
_atom_site_refinement_flags_occupancy
Cd1 Cd 0.5000 0.5000 0.5000 0.0235(3) Uani 1 2 d S . P
Br1 Br 0.9797(2) 0.70635(12) 0.44844(5) 0.0284(3) Uani 1 1 d . . .
N1 N 0.4485(19) 0.3163(9) 0.4029(4) 0.0255(16) Uani 1 1 d . . .
N2 N 0.264(2) 0.0816(10) 0.3088(4) 0.0295(18) Uani 1 1 d D . .
H21 H 0.18(2) 0.011(11) 0.280(4) 0.035 Uiso 1 1 d D U .
O1 O -0.012(2) 0.2915(9) 0.2513(4) 0.054(2) Uani 1 1 d . . .
C1 C 0.277(2) 0.3649(12) 0.3508(4) 0.030(2) Uani 1 1 d . . .
H1 H 0.2235 0.4818 0.3464 0.036 Uiso 1 1 calc R U .
C2 C 0.165(3) 0.2491(12) 0.2990(5) 0.032(2) Uani 1 1 d . . .
C3 C 0.446(3) 0.0290(12) 0.3623(4) 0.030(2) Uani 1 1 d . . .
H3 H 0.5085 -0.0867 0.3668 0.036 Uiso 1 1 calc R U .
C4 C 0.538(2) 0.1450(12) 0.4098(5) 0.031(2) Uani 1 1 d . . .
H4 H 0.6614 0.1081 0.4469 0.038 Uiso 1 1 calc R U .
loop_
_atom_site_aniso_label
_atom_site_aniso_U_11
_atom_site_aniso_U_22
_atom_site_aniso_U_33
_atom_site_aniso_U_23
_atom_site_aniso_U_13
_atom_site_aniso_U_12
Cd1 0.0207(5) 0.0231(5) 0.0265(5) -0.0014(4) -0.0024(3) -0.0004(4)
Br1 0.0244(5) 0.0254(5) 0.0350(6) 0.0060(4) -0.0019(4) 0.0009(4)
N1 0.030(4) 0.020(4) 0.026(4) -0.001(3) -0.001(3) -0.001(3)
N2 0.042(5) 0.021(4) 0.025(4) -0.004(3) -0.004(3) -0.002(4)
O1 0.088(6) 0.032(4) 0.037(4) -0.001(4) -0.029(4) 0.011(4)
C1 0.044(6) 0.019(5) 0.026(5) 0.002(4) 0.001(4) 0.004(4)
C2 0.043(6) 0.021(5) 0.030(5) 0.004(4) -0.005(4) 0.003(4)
C3 0.042(5) 0.020(5) 0.028(5) 0.001(4) -0.004(4) 0.001(4)
C4 0.035(5) 0.023(5) 0.035(5) -0.001(4) -0.010(4) -0.002(4)
loop_
_atom_type_symbol
_atom_type_description
_atom_type_scat_dispersion_real
_atom_type_scat_dispersion_imag
_atom_type_scat_source
C C 0.0033 0.0016 'International Tables Vol C Tables 4.2.6.8 and 6.1.1.4'
H H 0.0000 0.0000 'International Tables Vol C Tables 4.2.6.8 and 6.1.1.4'
N N 0.0061 0.0033 'International Tables Vol C Tables 4.2.6.8 and 6.1.1.4'
O O 0.0106 0.0060 'International Tables Vol C Tables 4.2.6.8 and 6.1.1.4'
Cd Cd -0.8075 1.2024 'International Tables Vol C Tables 4.2.6.8 and 6.1.1.4'
Br Br -0.2901 2.4595 'International Tables Vol C Tables 4.2.6.8 and 6.1.1.4'
loop_
_geom_angle_atom_site_label_1
_geom_angle_atom_site_label_2
_geom_angle_atom_site_label_3
_geom_angle
_geom_angle_site_symmetry_1
_geom_angle_site_symmetry_3
N1 Cd1 N1 180.0 3_666 .
N1 Cd1 Br1 86.94(18) 3_666 .
N1 Cd1 Br1 93.06(18) . .
N1 Cd1 Br1 93.06(18) 3_666 3_666
N1 Cd1 Br1 86.94(18) . 3_666
Br1 Cd1 Br1 180.0 . 3_666
N1 Cd1 Br1 90.81(17) 3_666 1_455
N1 Cd1 Br1 89.19(17) . 1_455
Br1 Cd1 Br1 91.12(3) . 1_455
Br1 Cd1 Br1 88.88(3) 3_666 1_455
N1 Cd1 Br1 89.19(17) 3_666 3_766
N1 Cd1 Br1 90.81(17) . 3_766
Br1 Cd1 Br1 88.88(3) . 3_766
Br1 Cd1 Br1 91.12(3) 3_666 3_766
Br1 Cd1 Br1 180.00(4) 1_455 3_766
Cd1 Br1 Cd1 91.12(3) . 1_655
C1 N1 C4 119.0(8) . .
C1 N1 Cd1 122.0(6) . .
C4 N1 Cd1 117.3(6) . .
C3 N2 C2 122.8(8) . .
C3 N2 H21 123(7) . .
C2 N2 H21 113(7) . .
N1 C1 C2 124.2(8) . .
N1 C1 H1 117.9 . .
C2 C1 H1 117.9 . .
O1 C2 N2 121.3(9) . .
O1 C2 C1 124.9(9) . .
N2 C2 C1 113.7(8) . .
N2 C3 C4 120.3(9) . .
N2 C3 H3 119.9 . .
C4 C3 H3 119.9 . .
C3 C4 N1 119.9(9) . .
C3 C4 H4 120.1 . .
N1 C4 H4 120.1 . .
loop_
_geom_bond_atom_site_label_1
_geom_bond_atom_site_label_2
_geom_bond_distance
_geom_bond_site_symmetry_2
Cd1 N1 2.455(7) 3_666
Cd1 N1 2.455(7) .
Cd1 Br1 2.7098(9) .
Cd1 Br1 2.7099(9) 3_666
Cd1 Br1 2.7585(9) 1_455
Cd1 Br1 2.7585(9) 3_766
Br1 Cd1 2.7585(9) 1_655
N1 C1 1.296(12) .
N1 C4 1.373(12) .
N2 C3 1.349(12) .
N2 C2 1.362(12) .
N2 H21 0.86(2) .
O1 C2 1.223(12) .
C1 C2 1.446(13) .
C1 H1 0.9300 .
C3 C4 1.364(13) .
C3 H3 0.9300 .
C4 H4 0.9300 .
loop_
_geom_hbond_atom_site_label_D
_geom_hbond_atom_site_label_H
_geom_hbond_atom_site_label_A
_geom_hbond_distance_DH
_geom_hbond_distance_HA
_geom_hbond_distance_DA
_geom_hbond_angle_DHA
_geom_hbond_site_symmetry_A
N2 H21 O1 0.86(2) 1.92(5) 2.722(10) 155(10) 2_545
C1 H1 Br1 0.93 2.92 3.542(9) 125.9 1_455
C3 H3 Br1 0.93 2.92 3.659(9) 137.8 1_545
C4 H4 Br1 0.93 2.90 3.596(9) 132.6 3_766
loop_
_geom_torsion_atom_site_label_1
_geom_torsion_atom_site_label_2
_geom_torsion_atom_site_label_3
_geom_torsion_atom_site_label_4
_geom_torsion
C4 N1 C1 C2 1.5(15)
Cd1 N1 C1 C2 -163.6(7)
C3 N2 C2 O1 -176.9(10)
C3 N2 C2 C1 0.9(14)
N1 C1 C2 O1 175.9(11)
N1 C1 C2 N2 -1.8(15)
C2 N2 C3 C4 0.3(15)
N2 C3 C4 N1 -0.7(15)
C1 N1 C4 C3 -0.2(14)
Cd1 N1 C4 C3 165.6(7)
