#------------------------------------------------------------------------------
#$Date: 2018-01-26 11:09:07 +0200 (Fri, 26 Jan 2018) $
#$Revision: 205741 $
#$URL: file:///home/coder/svn-repositories/cod/cif/1/54/87/1548796.cif $
#------------------------------------------------------------------------------
#
# This file is available in the Crystallography Open Database (COD),
# http://www.crystallography.net/. The original data for this entry
# were provided by IUCr Journals, http://journals.iucr.org/.
#
# The file may be used within the scientific community so long as
# proper attribution is given to the journal article from which the
# data were obtained.
#
data_1548796
loop_
_publ_author_name
'Weil, Matthias'
_publ_section_title
;
 Redetermination of the \g-form of tellurium dioxide
;
_journal_coeditor_code           HB4189
_journal_issue                   12
_journal_name_full               IUCrData
_journal_paper_doi               10.1107/S2414314617017576
_journal_volume                  2
_journal_year                    2017
_chemical_formula_moiety         'O2 Te'
_chemical_formula_sum            'O2 Te'
_chemical_formula_weight         159.60
_space_group_crystal_system      orthorhombic
_space_group_IT_number           19
_space_group_name_Hall           'P 2ac 2ab'
_space_group_name_H-M_alt        'P 21 21 21'
_symmetry_space_group_name_Hall  'P 2ac 2ab'
_symmetry_space_group_name_H-M   'P 21 21 21'
_atom_sites_solution_primary     isomor
_audit_creation_method           SHELXL-2014/7
_cell_angle_alpha                90
_cell_angle_beta                 90
_cell_angle_gamma                90
_cell_formula_units_Z            4
_cell_length_a                   4.8809(2)
_cell_length_b                   8.5668(4)
_cell_length_c                   4.3433(2)
_cell_measurement_reflns_used    2511
_cell_measurement_temperature    296(2)
_cell_measurement_theta_max      32.204
_cell_measurement_theta_min      4.759
_cell_volume                     181.609(14)
_computing_cell_refinement
;
SAINT (Bruker, 2015)
;
_computing_data_collection
;
APEX2 (Bruker, 2015)
;
_computing_data_reduction
;
SAINT (Bruker, 2015)
;
_computing_molecular_graphics
;
ATOMS (Dowty, 2006)
;
_computing_publication_material
;
publCIF (Westrip, 2010)
;
_computing_structure_refinement
;
<i>SHELXL2014/7</i> (Sheldrick, 2015)
;
_computing_structure_solution    'coordinates from previous refinement'
_diffrn_ambient_temperature      296(2)
_diffrn_measured_fraction_theta_full 1.000
_diffrn_measured_fraction_theta_max 0.988
_diffrn_measurement_device_type  'Bruker APEXII CCD'
_diffrn_measurement_method       \w-scans'
_diffrn_radiation_type           MoK\a
_diffrn_radiation_wavelength     0.71073
_diffrn_reflns_av_R_equivalents  0.0560
_diffrn_reflns_limit_h_max       8
_diffrn_reflns_limit_h_min       -8
_diffrn_reflns_limit_k_max       14
_diffrn_reflns_limit_k_min       -14
_diffrn_reflns_limit_l_max       7
_diffrn_reflns_limit_l_min       -7
_diffrn_reflns_number            7370
_diffrn_reflns_theta_full        25.242
_diffrn_reflns_theta_max         36.882
_diffrn_reflns_theta_min         4.759
_exptl_absorpt_coefficient_mu    15.913
_exptl_absorpt_correction_T_max  0.7473
_exptl_absorpt_correction_T_min  0.5521
_exptl_absorpt_correction_type   multi-scan
_exptl_absorpt_process_details
;
(SADABS; Bruker, 2015)
;
_exptl_crystal_colour            colourless
_exptl_crystal_density_diffrn    5.837
_exptl_crystal_description       needle
_exptl_crystal_F_000             272
_exptl_crystal_size_max          0.180
_exptl_crystal_size_mid          0.010
_exptl_crystal_size_min          0.010
_refine_diff_density_max         1.807
_refine_diff_density_min         -1.281
_refine_ls_abs_structure_details
;
Flack <i>x</i> determined using 296 quotients
[(<i>I</i>^+^)-(<i>I</i>^-^)]/[(<i>I</i>^+^)+(<i>I</i>^-^)]
(Parsons <i>et al.</i>, 2013)
;
_refine_ls_abs_structure_Flack   -0.03(4)
_refine_ls_extinction_method     none
_refine_ls_goodness_of_fit_ref   1.022
_refine_ls_matrix_type           full
_refine_ls_number_parameters     28
_refine_ls_number_reflns         893
_refine_ls_number_restraints     0
_refine_ls_restrained_S_all      1.022
_refine_ls_R_factor_all          0.0326
_refine_ls_R_factor_gt           0.0252
_refine_ls_shift/su_max          0.000
_refine_ls_shift/su_mean         0.000
_refine_ls_structure_factor_coef Fsqd
_refine_ls_weighting_details
'w=1/[\s^2^(Fo^2^)+(0.0140P)^2^+0.0171P] where P=(Fo^2^+2Fc^2^)/3'
_refine_ls_weighting_scheme      calc
_refine_ls_wR_factor_gt          0.0358
_refine_ls_wR_factor_ref         0.0369
_reflns_number_gt                816
_reflns_number_total             893
_reflns_threshold_expression     'I > 2\s(I)'
_cod_data_source_file            hb4189sup1.cif
_cod_data_source_block           I
_cod_database_code               1548796
_shelx_space_group_comment
;
The symmetry employed for this shelxl refinement is uniquely defined
by the following loop, which should always be used as a source of
symmetry information in preference to the above space-group names.
They are only intended as comments.
;
_shelx_estimated_absorpt_t_min   0.162
_shelx_estimated_absorpt_t_max   0.857
_shelx_hkl_file
;
   1   0   0    6.00    8.30
   1   0   0   -1.50   10.00
   1   0   0   -4.90    4.00
   1   0   0   -8.90    7.90
   1   0   0   -3.90    6.70
  -1   0   0   -5.30    6.50
  -1   0   0    2.40   10.40
  -1   0   0   -0.50    6.80
  -1   0   0   -0.90    8.50
   2   0   0 4958.30  113.49
   2   0   0 5073.39   98.19
   2   0   0 5052.39  114.59
  -2   0   0 4938.51  119.29
  -2   0   0 4952.10   97.89
  -2   0   0 5007.10  112.29
  -2   0   0 4858.01  112.09
   3   0   0   -3.30    5.20
   3   0   0   -6.10   12.80
  -3   0   0    5.50    5.80
  -3   0   0    4.90   15.90
  -3   0   0   -2.20   17.70
   3   0   0   -0.60   12.40
  -3   0   0    3.40   15.80
  -4   0   0 2014.70   82.19
   4   0   0 1919.01   73.09
   4   0   0 2030.70   75.19
  -4   0   0 2038.20   71.79
   4   0   0 1928.71   43.90
  -4   0   0 1972.90   80.59
   5   0   0   -6.50   19.80
  -5   0   0   20.20   24.10
   5   0   0   -2.70   23.20
  -5   0   0  -11.00   24.20
  -5   0   0   -8.70    9.40
  -5   0   0   15.40   29.20
  -6   0   0  277.97   51.19
   6   0   0  202.48   42.40
  -6   0   0  310.37   49.40
  -6   0   0  282.37   41.40
   6   0   0  249.88   44.00
   7   0   0  -64.89   33.90
   7   0   0   13.20   34.50
  -7   0   0    9.90   36.90
  -7   0   0  -15.20   38.10
   8   0   0  -57.99   40.80
  -8   0   0   32.80   45.00
  -8   0   0   30.60   40.00
   0   1   0    1.10    3.30
   0   1   0    1.50    2.50
   0   1   0    7.20    5.60
   0  -1   0   -1.50    4.10
   0   1   0   -5.70    4.10
   0   1   0    1.60    2.80
   0  -1   0    1.60    3.90
   0  -1   0    2.10    4.60
   0  -1   0    0.50    2.70
   0  -1   0    0.70    2.80
   0  -1   0    1.30    5.60
  -1  -1   0  668.13   19.00
  -1   1   0  660.93   24.30
   1  -1   0  636.64   20.10
   1  -1   0  726.93   25.60
   1  -1   0  660.53   24.40
  -1   1   0  665.83   27.20
   1   1   0  692.93   18.70
  -1   1   0  657.33   23.90
   1   1   0  696.43   23.70
   1   1   0  664.43   18.00
   1   1   0  647.94   23.60
  -1   1   0  664.93   23.00
   1   1   0  666.73   22.40
   1   1   0  675.53   23.20
  -1   1   0  697.93   29.20
  -1  -1   0  707.03   31.10
  -1  -1   0  675.43   23.40
  -1   1   0  671.23   21.70
  -1  -1   0  689.63   18.90
   1  -1   0  693.73   23.80
  -1   1   0  652.93   16.30
   2  -1   0  668.83   31.30
  -2   1   0  678.03   34.10
   2  -1   0  704.13   31.90
  -2  -1   0  694.63   27.50
  -2   1   0  673.53   30.20
   2   1   0  668.93   30.80
  -2   1   0  680.53   37.50
  -2  -1   0  670.63   38.70
  -2  -1   0  658.83   18.90
  -2  -1   0  628.34   28.20
  -2   1   0  623.24   33.50
  -2   1   0  693.93   23.10
   2   1   0  645.24   30.40
   3  -1   0 1409.66   54.39
   3   1   0 1474.15   54.99
   3  -1   0 1490.55   55.79
  -3   1   0 1505.85   39.90
  -3  -1   0 1556.24   51.39
  -3  -1   0 1504.75   64.69
   3   1   0 1516.45   40.00
  -3  -1   0 1548.25   60.19
  -3   1   0 1491.65   57.09
  -3   1   0 1417.26   58.69
   3   1   0 1429.06   54.29
  -3  -1   0 1466.05   34.00
   4  -1   0  502.75   39.70
   4  -1   0  468.15   38.60
  -4   1   0  490.95   46.70
  -4  -1   0  463.55   45.00
   4   1   0  436.86   38.10
   4   1   0  437.46   37.30
   4   1   0  441.46   21.10
  -4  -1   0  499.95   37.60
  -4  -1   0  432.76   18.90
  -4   1   0  541.45   41.40
  -4   1   0  510.15   45.70
  -4   1   0  439.16   19.90
  -4  -1   0  442.26   48.20
  -5  -1   0  843.42   67.39
   5   1   0  836.72   55.59
  -5   1   0  763.12   38.20
  -5  -1   0  855.21   62.79
   5   1   0  746.93   55.09
  -5   1   0  734.03   61.19
   5  -1   0  756.92   55.49
  -5   1   0  838.12   63.09
   5  -1   0  763.42   54.19
  -5   1   0  797.32   54.99
  -5  -1   0  844.82   49.50
   6   1   0  363.46   47.50
  -6   1   0  413.26   53.19
  -6  -1   0  480.65   56.19
  -6  -1   0  515.45   67.49
   6  -1   0  456.35   55.79
  -6   1   0  580.64   55.19
   6  -1   0  553.54   56.69
   6  -1   0  386.86   50.99
  -6   1   0  579.44   65.79
  -6  -1   0  510.85   47.40
   6   1   0  503.95   56.69
   7   1   0  481.55   63.59
  -7   1   0  659.83   75.29
  -7   1   0  668.83   59.89
   7  -1   0  619.84   64.69
   7  -1   0  460.85   62.99
  -7   1   0  620.84   71.89
  -7  -1   0  452.25   58.99
  -7  -1   0  635.54   83.89
  -8  -1   0  215.18   60.59
   8   1   0  105.49   51.99
  -8  -1   0  177.08   49.80
  -8   1   0  199.38   67.79
   8  -1   0  226.78   53.39
   0   2   0  939.61   28.20
   0  -2   0  914.71   26.90
   0  -2   0  939.81   28.30
   0   2   0  922.71   26.10
   0  -2   0 1002.40   29.30
   0   2   0  941.01   22.80
   0   2   0  956.20   28.30
   0   2   0  980.20   31.30
   0  -2   0  902.01   22.90
   0   2   0  849.52   23.50
   1   2   0 9206.88  189.68
  -1   2   0 9450.85  183.08
  -1   2   0 9610.54  188.78
  -1   2   0 9618.64  191.68
   1  -2   0 9107.19  187.88
  -1  -2   0 9563.34  189.68
   1   2   0 9359.86  181.38
   1  -2   0 9239.78  187.28
  -1   2   0 9485.55  192.38
   1   2   0 9232.88  189.08
  -1   2   0 9809.82  190.78
  -1  -2   0 9729.83  193.98
   1  -2   0 9538.55  188.78
  -1   2   0 9313.27  193.98
   1  -2   0 9782.02  191.18
  -1  -2   0 9603.64  191.58
  -1  -2   0 9294.77  190.58
   1   2   0 9216.78  186.98
   1  -2   0 9454.65  183.18
   1   2   0 9999.00  194.28
   2   2   0  966.30   28.10
   2   2   0  971.80   38.00
   2  -2   0 1054.39   38.70
   2  -2   0 1039.70   40.10
  -2   2   0 1067.09   44.30
  -2   2   0 1109.89   46.70
  -2   2   0 1017.30   38.40
   2  -2   0 1027.90   32.70
  -2   2   0 1076.29   36.20
   2   2   0 1033.30   39.10
  -2   2   0 1074.49   39.70
  -2  -2   0 1040.60   50.79
  -2   2   0 1012.10   24.80
  -2  -2   0 1079.29   38.10
  -2  -2   0 1024.00   37.40
  -2  -2   0 1086.89   31.00
  -3   2   0 3272.37   99.69
   3   2   0 3406.26   79.79
   3  -2   0 3338.77   92.79
  -3   2   0 3434.26   80.99
   3  -2   0 3247.38   93.49
   3   2   0 3355.26   93.69
  -3  -2   0 3080.79  103.19
  -3  -2   0 3573.04   78.69
  -3   2   0 3436.16   97.39
  -3   2   0 3332.27   94.19
   3   2   0 3324.87   93.19
  -3  -2   0 3344.77   82.69
   4   2   0   13.80   19.80
   4  -2   0    8.00   18.20
  -4   2   0   35.10   21.90
   4   2   0   16.90   18.30
  -4   2   0   34.40   22.70
  -4  -2   0   -3.90   23.90
  -4  -2   0   -0.10   20.80
  -4   2   0   11.60   22.00
   4   2   0   18.10   12.00
  -4  -2   0   22.70   18.00
  -4   2   0   31.40   12.50
   4  -2   0    6.50   20.00
  -5   2   0  606.84   53.59
   5   2   0  635.54   51.69
  -5   2   0  655.63   55.09
   5  -2   0  654.43   52.99
  -5  -2   0  672.83   42.10
  -5  -2   0  700.43   67.19
   5  -2   0  655.23   52.69
   5  -2   0  698.73   48.40
  -5  -2   0  684.23   57.59
   5   2   0  640.34   50.49
  -5   2   0  588.04   39.30
  -5   2   0  647.74   58.79
  -6   2   0   39.20   34.20
   6   2   0   38.20   29.00
   6  -2   0   55.89   30.90
   6   2   0   60.69   36.70
  -6  -2   0   30.00   39.40
  -6  -2   0   73.89   36.70
  -6   2   0   75.19   34.60
   6  -2   0   56.69   32.40
  -6   2   0  110.79   40.30
   6  -2   0   71.19   32.30
   7   2   0  118.89   43.60
  -7   2   0  115.09   40.70
   7  -2   0   59.49   42.10
   7  -2   0   73.39   38.60
  -7   2   0  169.08   42.60
  -7  -2   0   33.50   37.70
  -7   2   0  129.39   45.80
  -7  -2   0   95.19   51.19
  -8  -2   0   55.89   63.09
  -8  -2   0   38.30   38.50
   0   3   0   -8.70    5.60
   0  -3   0   -4.40    6.10
   0   3   0    1.40    5.90
   0   3   0   -3.90   13.30
   0  -3   0    3.20   11.50
   0   3   0   -7.70    8.00
   0  -3   0   -2.20   11.10
  -1  -3   0  142.69   19.60
   1   3   0  102.69   11.30
  -1   3   0  104.49   19.20
   1   3   0   86.99   12.60
  -1   3   0   98.59   14.00
   1  -3   0  108.39   14.10
   1  -3   0   75.89    9.00
   1  -3   0   88.09   18.00
  -1  -3   0   82.89   14.60
  -1   3   0   90.19    9.30
  -1   3   0   99.79   17.30
   1   3   0   99.09   15.00
  -1   3   0   82.69   14.30
  -1  -3   0   86.59   15.90
   1   3   0  101.19   14.00
  -2   3   0 1141.39   41.20
  -2   3   0 1111.49   41.10
   2  -3   0 1055.69   37.30
  -2  -3   0 1179.48   55.69
  -2   3   0 1162.68   47.30
   2   3   0 1108.49   35.20
   2  -3   0 1079.09   33.20
  -2   3   0 1118.09   47.80
   2  -3   0 1135.99   43.70
   2   3   0 1183.28   41.90
  -2  -3   0 1143.59   29.70
   2  -3   0 1096.09   41.30
  -2   3   0 1179.58   43.80
   2   3   0 1062.49   41.50
  -2  -3   0 1083.19   43.10
  -2  -3   0 1112.99   39.90
  -3  -3   0  178.78   17.70
  -3   3   0  130.39   25.20
  -3   3   0  146.89    8.60
   3  -3   0  160.78   18.60
   3  -3   0  167.98   20.80
  -3   3   0  190.38   24.10
   3   3   0  175.48   23.20
   3  -3   0  130.69   22.50
  -3   3   0  167.18   26.60
   3   3   0  122.09   21.40
  -3  -3   0  153.98   30.50
   3  -3   0  155.78   24.80
  -3   3   0  193.58   23.10
   4  -3   0 1449.26   62.99
  -4  -3   0 1392.66   49.10
   4   3   0 1417.06   62.69
   4   3   0 1475.65   49.40
   4   3   0 1412.16   63.59
   4  -3   0 1344.87   63.29
   4  -3   0 1451.35   53.39
  -4   3   0 1344.77   66.89
  -4   3   0 1407.76   63.29
  -4  -3   0 1439.76   78.89
  -4   3   0 1441.56   49.10
  -4  -3   0 1409.26   65.29
  -4   3   0 1414.86   70.39
   5  -3   0  126.49   30.80
  -5  -3   0  181.78   25.20
   5  -3   0  177.68   37.10
   5   3   0  143.59   20.70
  -5   3   0  215.38   36.90
   5   3   0  128.09   33.50
  -5   3   0  115.49   25.20
   5  -3   0  151.68   28.30
  -5   3   0  129.99   33.80
  -5  -3   0  152.48   42.90
  -5   3   0  132.29   35.90
   5   3   0  145.19   32.20
  -5  -3   0  126.79   31.40
  -6   3   0  943.31   75.69
  -6   3   0  777.02   50.39
  -6  -3   0  943.61   84.99
   6  -3   0  897.51   58.29
   6   3   0  838.42   63.89
   6  -3   0  826.12   66.69
   6   3   0  888.61   70.49
  -6   3   0  831.92   69.79
  -6  -3   0  932.91   70.09
  -6   3   0  875.01   68.29
  -7  -3   0   96.69   39.50
   7   3   0  115.49   44.20
  -7  -3   0  148.59   56.69
  -7   3   0   75.09   40.20
  -7   3   0   97.69   42.10
   7  -3   0  124.79   44.30
   7  -3   0   70.69   57.89
  -8   3   0  654.83   68.99
  -8  -3   0  455.45   60.49
   0   4   0 3291.47   70.89
   0  -4   0 3331.97   71.99
   0  -4   0 3371.66   82.59
   0  -4   0 3405.26   83.49
   0   4   0 3275.57   85.99
   1   4   0 2718.23   73.89
  -1   4   0 2816.32   77.19
  -1  -4   0 2698.63   59.79
  -1   4   0 3008.10   73.09
   1   4   0 2943.91   68.89
  -1  -4   0 2736.13   63.29
  -1   4   0 2839.72   79.19
  -1  -4   0 2893.31   72.89
  -1   4   0 2857.71   70.99
   1  -4   0 2779.82   78.89
  -1  -4   0 2930.41   77.69
  -1  -4   0 2839.82   78.09
   1  -4   0 2843.62   62.59
   1  -4   0 2761.62   72.49
   2  -4   0 4114.59  105.79
   2   4   0 4209.48  104.89
  -2   4   0 4013.30  103.39
  -2  -4   0 4174.88  107.79
   2  -4   0 4176.38  100.49
   2  -4   0 4308.07  102.99
   2   4   0 4171.78   98.09
   2  -4   0 4293.67   91.99
   2   4   0 4225.78   87.29
  -2   4   0 4314.87  108.69
  -2  -4   0 4149.38  105.99
  -2   4   0 4139.09  100.89
  -2   4   0 4227.68  111.99
  -2  -4   0 4351.06   86.59
   2   4   0 4240.38  103.69
  -2   4   0 4313.27  108.09
  -2  -4   0 4381.86  104.79
  -2  -4   0 4226.68  122.69
  -3   4   0  579.64   43.80
   3   4   0  550.24   35.40
  -3   4   0  578.54   35.60
  -3   4   0  632.34   38.00
   3  -4   0  544.95   27.60
   3   4   0  543.25   36.20
  -3  -4   0  550.24   23.10
   3  -4   0  609.04   37.80
  -3  -4   0  521.85   49.99
  -3   4   0  516.95   43.00
   3  -4   0  545.35   32.80
   3  -4   0  570.64   38.70
   4  -4   0 1093.19   45.50
   4   4   0 1000.40   55.49
   4   4   0 1115.69   47.30
   4  -4   0 1051.89   58.29
   4   4   0 1024.00   55.99
   4  -4   0 1095.79   49.60
  -4  -4   0 1130.89   73.69
  -4   4   0 1075.09   64.89
  -4  -4   0 1089.49   38.50
  -4   4   0 1118.89   55.69
   4  -4   0 1102.39   56.99
  -4   4   0 1122.89   63.59
  -4  -4   0 1141.99   58.19
  -4   4   0 1097.69   47.30
  -5   4   0  185.78   32.20
  -5  -4   0  207.38   48.60
   5  -4   0  238.78   40.40
  -5  -4   0  194.28   35.10
  -5   4   0  160.98   36.80
   5   4   0  194.58   34.80
  -5   4   0  168.88   39.70
   5  -4   0  231.38   31.20
  -5   4   0  232.78   37.00
   5   4   0  171.58   36.10
   5  -4   0  274.17   35.10
   5  -4   0  216.88   38.50
   5   4   0  219.28   27.10
   6  -4   0  193.98   41.20
  -6  -4   0  207.38   55.49
  -6  -4   0  161.48   38.40
  -6   4   0  219.78   49.50
  -6   4   0  145.19   39.60
  -6   4   0  197.98   45.90
   6  -4   0  175.48   33.70
   6  -4   0  261.97   38.70
  -6   4   0  134.69   30.30
   6   4   0  274.47   49.60
   6   4   0  135.69   34.50
   6  -4   0  160.58   39.00
   7   4   0  -54.49   34.50
   7  -4   0   38.80   34.80
  -7  -4   0   74.49   53.99
  -7   4   0    7.60   40.00
  -7   4   0   11.90   33.30
  -7  -4   0   62.79   34.60
   0  -5   0   -7.20    7.70
   0  -5   0   -2.60   14.50
   0  -5   0   -1.70   14.30
   0   5   0   -1.40   16.90
   0   5   0   -1.90    6.60
  -1  -5   0  401.66   27.70
  -1   5   0  378.16   23.90
  -1   5   0  368.96   28.80
  -1   5   0  347.57   32.70
  -1  -5   0  359.66   14.10
  -1  -5   0  360.76   32.70
   1   5   0  410.66   25.40
   1  -5   0  376.76   29.20
   1  -5   0  385.26   32.70
   1  -5   0  366.36   18.80
   1   5   0  405.76   29.40
  -1  -5   0  374.16   31.90
  -1   5   0  346.97   23.40
   2  -5   0   56.89   10.90
  -2  -5   0   57.49   19.40
   2   5   0   39.10   15.00
  -2   5   0   63.89   22.20
  -2   5   0   63.09   22.30
  -2  -5   0   52.59   19.80
   2   5   0   52.99   16.40
  -2  -5   0   59.09   25.10
  -2  -5   0   62.39    8.50
  -2  -5   0   54.49    8.00
   2   5   0   49.70    9.70
   2  -5   0   36.40   15.70
   2   5   0   63.19   15.80
  -2   5   0   46.70   17.10
  -2  -5   0   47.60   17.40
   3  -5   0  748.13   31.70
   3   5   0  749.33   35.40
   3  -5   0  783.72   40.80
  -3   5   0  818.42   50.29
   3   5   0  775.42   41.80
  -3   5   0  717.93   44.30
  -3  -5   0  727.13   60.19
   3  -5   0  725.73   45.60
  -3   5   0  705.43   38.60
   3  -5   0  802.82   43.40
  -3   5   0  775.42   51.49
   3   5   0  732.93   42.70
   4   5   0    8.40   19.80
   4   5   0    9.10   18.30
  -4   5   0    8.20   16.90
   4  -5   0   -6.40   20.70
   4  -5   0    4.90   21.60
  -4  -5   0    7.10   28.20
   4  -5   0    7.60   14.80
   4   5   0  -15.50   17.00
  -4   5   0   -2.40   26.80
  -4   5   0  -19.60   18.60
  -4   5   0  -17.70   22.90
  -4  -5   0  -22.60   18.90
   4  -5   0   31.20   20.10
   5   5   0 1336.07   74.29
   5  -5   0 1357.06   56.69
  -5   5   0 1274.07   79.29
  -5   5   0 1366.46   68.39
   5  -5   0 1391.86   72.29
   5   5   0 1457.25   59.29
   5  -5   0 1351.36   74.79
  -5   5   0 1301.17   71.29
  -5  -5   0 1264.47   93.29
   5  -5   0 1411.26   64.79
  -5  -5   0 1375.86   68.59
   5   5   0 1369.26   71.89
  -5   5   0 1379.26   82.29
  -6   5   0   24.20   37.50
  -6  -5   0   39.50   47.00
   6  -5   0   41.30   35.60
   6  -5   0   22.10   31.30
   6   5   0   11.60   27.50
   6   5   0    5.60   31.00
  -6   5   0  -40.40   23.10
  -6   5   0   -5.30   31.20
  -6  -5   0  -19.60   25.80
  -7  -5   0  828.42   99.09
   7   5   0  682.13   76.39
   7  -5   0  691.13   70.89
  -7   5   0  557.14   69.99
   0   6   0 3213.58   73.79
   0   6   0 3284.37   96.59
   0  -6   0 3330.57   92.29
   0  -6   0 3369.06   93.89
   0   6   0 3513.45   96.09
  -1   6   0 1448.56   51.19
   1   6   0 1491.55   57.89
  -1   6   0 1454.35   47.80
  -1  -6   0 1493.05   62.49
   1  -6   0 1543.45   61.39
   1   6   0 1567.64   52.29
  -1   6   0 1554.54   57.59
  -1  -6   0 1574.74   55.19
   1  -6   0 1540.35   57.59
  -1   6   0 1452.15   61.59
  -1  -6   0 1598.94   60.99
  -2   6   0 1877.01   64.69
   2  -6   0 1908.81   64.89
   2  -6   0 1935.31   76.59
   2   6   0 1870.81   63.49
  -2  -6   0 1841.82   70.49
  -2   6   0 1819.62   70.79
   2   6   0 1812.92   62.79
   2   6   0 1902.11   62.89
   2  -6   0 1828.22   48.70
   2   6   0 1848.22   51.09
  -2  -6   0 1692.03   67.79
  -2  -6   0 1883.81   64.19
  -2   6   0 1891.21   71.69
  -2  -6   0 1708.23   53.29
   3   6   0 1072.09   53.09
  -3   6   0 1003.90   59.99
   3   6   0 1039.20   49.90
  -3  -6   0 1038.60   57.39
  -3  -6   0  962.30   43.30
   3   6   0 1024.80   45.60
  -3   6   0 1012.40   55.99
   3  -6   0 1031.80   37.00
   3  -6   0 1062.19   50.79
  -3  -6   0  964.40   71.89
  -3   6   0 1062.49   55.89
   4  -6   0  792.92   55.59
  -4   6   0  724.03   59.39
  -4   6   0  859.21   60.59
  -4   6   0  847.12   51.09
  -4   6   0  684.23   59.49
   4  -6   0  820.02   49.20
   4   6   0  874.51   54.99
   4  -6   0  818.92   43.30
  -4  -6   0  809.92   73.69
   4   6   0  729.03   49.20
  -4  -6   0  705.03   45.50
   4  -6   0  752.72   51.29
   5   6   0  329.87   45.00
   5  -6   0  327.87   40.00
  -5   6   0  340.47   46.70
  -5  -6   0  300.97   59.19
   5   6   0  371.96   48.40
   5  -6   0  325.87   43.00
   5  -6   0  281.27   42.10
  -5   6   0  294.27   43.00
  -5  -6   0  373.66   44.80
  -5   6   0  429.36   56.19
   5   6   0  315.77   35.70
  -5   6   0  314.47   46.80
   6  -6   0  103.59   35.50
   6   6   0   88.79   40.10
  -6   6   0   70.79   38.70
  -6   6   0   17.60   30.00
  -6  -6   0  100.49   52.39
  -6   6   0   67.89   42.80
  -7   6   0   13.80   41.90
   7   6   0  -27.90   39.10
  -7  -6   0   84.49   54.29
  -7   6   0    5.10   37.20
   7  -6   0  -43.20   31.80
   0   7   0   -9.80   18.10
   0  -7   0   14.20   23.70
   0   7   0   -9.50   20.30
   0  -7   0   -5.40   20.10
   0   7   0    2.80    7.60
   0  -7   0    1.20   18.00
   1  -7   0   -5.60   21.40
  -1   7   0    8.90   11.40
   1   7   0   20.20   20.00
  -1   7   0    2.80   22.10
  -1   7   0    9.40   20.70
   1  -7   0   -4.50   20.70
  -1  -7   0   17.60   23.60
   1   7   0    4.10   14.40
  -1  -7   0  -18.70   23.60
  -1  -7   0    3.20   17.80
  -2   7   0  201.98   34.70
  -2   7   0  212.38   34.20
  -2  -7   0  235.68   42.30
   2   7   0  257.57   31.60
  -2   7   0  247.38   28.00
   2  -7   0  282.47   33.50
  -2   7   0  236.98   36.80
   2   7   0  255.97   22.00
  -2  -7   0  208.38   32.50
   2  -7   0  248.58   20.00
  -2  -7   0  282.37   32.40
  -2  -7   0  247.68   34.40
   2   7   0  256.97   28.90
   2  -7   0  247.48   40.20
   2   7   0  291.37   30.20
   3   7   0  166.28   27.10
  -3   7   0  165.08   36.20
   3   7   0  198.68   31.20
  -3   7   0   77.89   31.20
  -3   7   0  153.78   33.00
  -3   7   0  155.78   29.20
   3  -7   0  115.89   37.10
   3   7   0  159.78   27.10
  -3  -7   0  174.08   44.60
  -3  -7   0  173.28   35.60
   3  -7   0  146.19   29.60
  -4   7   0  895.31   66.39
  -4  -7   0  926.11   80.19
   4  -7   0  855.81   74.89
   4   7   0  916.51   55.39
   4   7   0  913.91   58.89
  -4   7   0  967.50   64.19
  -4   7   0  958.30   57.39
  -4   7   0  882.21   69.49
   4  -7   0  922.71   56.29
   5   7   0   15.20   24.50
  -5   7   0   61.89   34.30
   5   7   0    3.90   27.30
  -5   7   0   60.89   34.20
  -5   7   0   40.50   36.70
  -5   7   0   74.09   30.50
   5  -7   0   -9.00   26.20
  -5  -7   0   23.30   41.10
   5  -7   0    0.10   28.50
   5   7   0   36.70   32.10
  -6   7   0  810.42   78.99
   6   7   0  805.12   73.29
  -6   7   0  727.53   67.29
  -6   7   0  735.03   74.79
   6  -7   0  826.92   67.79
  -6  -7   0  805.92   96.29
   7   7   0   48.10   49.80
   7  -7   0   64.79   38.20
   0  -8   0  262.07   38.40
   0  -8   0  253.47   35.30
   0   8   0  334.37   41.50
   0  -8   0  366.86   39.40
   0   8   0  411.56   41.90
   1  -8   0 2381.86   87.19
   1   8   0 2130.69   82.29
  -1   8   0 2232.78   88.29
  -1  -8   0 2107.79   76.09
  -1   8   0 2100.99   85.49
  -1   8   0 2049.89   61.69
   1   8   0 2183.38   72.59
  -1  -8   0 2176.38   83.99
   1  -8   0 2350.56   82.69
  -1  -8   0 2188.98   88.79
  -2   8   0  306.37   32.90
  -2   8   0  334.87   44.10
   2   8   0  354.46   27.20
  -2  -8   0  332.17   43.60
  -2  -8   0  363.96   38.40
  -2  -8   0  399.06   53.59
   2  -8   0  287.87   38.20
  -2  -8   0  280.57   39.60
  -2   8   0  332.77   40.10
   2   8   0  356.66   33.30
   2  -8   0  382.26   47.00
   2   8   0  326.77   34.30
  -2   8   0  343.27   44.90
   2   8   0  336.67   37.60
   3  -8   0 1559.94   71.19
   3   8   0 1495.55   64.69
   3   8   0 1435.06   67.09
   3  -8   0 1541.15   85.89
  -3   8   0 1554.54   70.19
  -3   8   0 1383.46   82.09
  -3   8   0 1536.05   78.39
  -3  -8   0 1430.06   95.39
   3   8   0 1524.45   65.29
  -3  -8   0 1680.93   82.59
  -3   8   0 1622.14   76.99
  -3  -8   0 1483.05   77.29
  -4   8   0  134.99   41.40
  -4   8   0  133.69   40.10
  -4   8   0  152.18   35.20
   4  -8   0  181.48   37.20
  -4  -8   0  188.08   53.59
   4   8   0  163.28   35.90
   4  -8   0  105.19   49.10
   4   8   0  159.88   31.40
  -4   8   0  194.78   38.40
  -5   8   0  294.47   48.40
   5   8   0  302.77   47.80
  -5   8   0  363.66   54.79
  -5   8   0  235.48   51.29
  -5   8   0  285.77   49.30
   5   8   0  292.57   45.60
   5  -8   0  338.47   66.39
  -5  -8   0  192.98   56.99
   5   8   0  279.47   41.20
  -6   8   0   31.30   35.30
  -6   8   0   67.99   42.40
  -6   8   0   67.69   38.60
   6   8   0   34.40   37.40
   6  -8   0   14.70   58.39
  -6  -8   0   34.80   54.59
   0   9   0   -0.90   22.70
   0  -9   0   -8.30   22.90
   0  -9   0  -36.30   29.00
   0   9   0  -27.60   24.90
   0  -9   0  -35.00   28.10
  -1  -9   0   19.30   32.00
   1  -9   0   50.29   31.00
   1   9   0   37.80   27.90
   1  -9   0    4.70   27.40
  -1  -9   0  -14.00   21.40
  -1   9   0  -33.30   25.30
  -1  -9   0  -27.90   29.70
   1   9   0    7.70   18.20
   1   9   0    7.90   17.50
  -1   9   0   22.80   27.70
   2  -9   0   53.09   33.30
  -2  -9   0   68.89   27.30
  -2   9   0   69.09   35.30
   2   9   0   76.09   17.80
   2   9   0   77.79   28.40
  -2   9   0   82.69   21.00
   2  -9   0   77.59   35.90
   2   9   0   56.59   20.70
  -2   9   0   78.19   33.80
  -2  -9   0   62.29   32.90
  -2  -9   0   91.99   37.10
   2   9   0   74.69   24.60
  -2  -9   0   66.69   39.20
  -3   9   0  385.86   52.69
   3   9   0  478.45   46.10
  -3   9   0  450.45   45.20
  -3  -9   0  449.95   57.89
   3   9   0  464.95   40.50
   3   9   0  437.56   44.80
  -3  -9   0  367.36   62.59
   3  -9   0  418.56   49.30
   3  -9   0  502.45   61.69
  -3   9   0  486.55   57.79
  -3  -9   0  375.66   51.49
  -4   9   0  237.28   47.90
  -4   9   0  180.88   43.70
   4  -9   0  207.58   55.69
  -4   9   0  203.18   37.70
   4   9   0  214.08   40.00
  -4   9   0  228.18   41.80
   4   9   0  174.38   33.90
   4  -9   0  147.19   40.20
  -4  -9   0  151.38   52.09
   5  -9   0  407.56   73.89
  -5   9   0  446.86   54.49
  -5  -9   0  325.77   68.79
   5   9   0  403.86   48.90
  -5   9   0  344.77   54.29
   5   9   0  389.06   52.99
  -6   9   0  290.87   50.89
   6   9   0  221.18   49.80
   6  -9   0  234.68   69.69
  -6  -9   0  283.37   72.79
  -6   9   0  204.48   44.20
   0  10   0 2028.40   84.99
   0 -10   0 2032.40   91.39
   0 -10   0 1853.71   83.49
   0 -10   0 1993.20   97.49
  -1 -10   0   38.10   40.40
  -1  10   0   17.20   30.70
   1  10   0    1.50   20.00
  -1 -10   0   14.20   36.50
   1 -10   0   -5.60   33.80
  -1  10   0   29.10   31.70
   1  10   0   31.20   19.20
   1 -10   0   18.40   31.20
   1  10   0   24.20   30.20
  -1 -10   0   14.30   25.60
   1 -10   0   30.70   41.30
   1  10   0   28.20   20.50
  -2 -10   0 1232.58   78.39
   2 -10   0 1377.76   80.89
  -2  10   0 1263.17   78.79
  -2 -10   0 1350.16   84.99
  -2 -10   0 1306.27   92.69
  -2  10   0 1411.56   85.49
   2  10   0 1238.58   60.19
   2 -10   0 1366.26   78.09
   2  10   0 1359.76   63.99
   2  10   0 1429.76   73.29
  -3  10   0   16.70   34.80
  -3  10   0   46.30   36.40
   3 -10   0   -5.90   36.60
  -3 -10   0  -46.10   38.70
  -3 -10   0   21.40   44.80
   3 -10   0   -4.10   38.40
   3  10   0    2.20   24.70
  -3 -10   0   23.90   37.70
   3  10   0    8.20   26.90
   4 -10   0  649.34   79.19
   4  10   0  530.75   53.59
  -4  10   0  680.73   63.39
  -4  10   0  584.94   68.29
   4 -10   0  637.34   86.79
  -4 -10   0  506.55   72.49
   4  10   0  690.53   65.09
  -5 -10   0   69.39   54.39
  -5  10   0   46.50   39.80
   5  10   0   -1.60   31.00
   5  10   0   36.30   33.50
   5 -10   0   43.80   52.99
   0  11   0   13.50   32.70
   0 -11   0  -34.60   36.80
   0 -11   0   -4.60   45.60
   0  11   0   10.90   24.70
   0 -11   0   13.90   29.50
  -1  11   0   72.19   34.50
   1  11   0   26.20   22.40
  -1 -11   0   96.79   48.80
  -1 -11   0   50.59   42.10
   1 -11   0   48.60   45.30
  -1 -11   0   57.79   41.80
   1 -11   0   48.10   36.30
  -1  11   0   50.89   35.90
   1 -11   0    4.00   37.50
   1  11   0   38.40   34.10
   2 -11   0   37.80   50.79
  -2 -11   0  128.59   49.00
  -2  11   0  113.79   42.40
  -2  11   0   71.19   39.40
   2  11   0  105.49   37.10
  -2 -11   0   53.99   44.80
   2 -11   0   78.09   41.00
  -2 -11   0   70.09   43.70
   2 -11   0  112.39   42.60
  -3  11   0  143.39   42.10
  -3 -11   0  116.99   46.90
  -3 -11   0  229.48   57.99
   3 -11   0  190.68   48.30
   3 -11   0  112.29   44.10
  -3  11   0  136.89   48.20
  -3 -11   0  104.69   50.19
   3  11   0  140.99   37.90
   4  11   0  107.49   42.50
  -4  11   0  111.09   43.40
  -4  11   0  142.29   43.70
  -4 -11   0  153.08   59.79
   4 -11   0  119.69   52.29
   5 -11   0  277.97   72.79
   5  11   0  311.07   49.40
  -5 -11   0  368.46   74.99
   0  12   0   89.79   39.40
   0  12   0   20.90   26.90
   0 -12   0  -34.40   40.60
   0 -12   0   55.99   55.09
  -1 -12   0 1107.79   87.19
   1  12   0 1152.68   79.09
  -1  12   0 1009.50   78.19
   1 -12   0 1166.08   97.59
  -1  12   0 1152.28   77.09
  -1 -12   0 1096.69   96.09
   1 -12   0 1200.78  116.09
   1 -12   0 1141.49   83.69
   2 -12   0   77.29   45.70
   2 -12   0   88.19   44.60
  -2 -12   0   44.10   49.20
  -2 -12   0   67.39   49.99
  -2  12   0   23.20   39.40
  -2  12   0   41.80   36.50
   2 -12   0  103.59   55.39
   2  12   0  147.79   42.50
  -2 -12   0    3.60   46.40
   3 -12   0  533.55   82.89
  -3 -12   0  484.75   71.49
   3 -12   0  541.15   68.79
  -3  12   0  587.74   68.19
   3  12   0  668.83   63.19
  -4 -12   0   14.70   53.19
  -4  12   0  109.89   41.60
   4  12   0  -19.20   37.40
   4 -12   0   45.40   47.10
  -4  12   0   61.29   40.50
   0  13   0   29.00   30.30
   0 -13   0  -24.10   54.99
   0  13   0   29.00   36.60
   0 -13   0   -4.80   45.80
   1 -13   0   11.90   43.50
   1  13   0   -5.40   38.10
  -1  13   0   18.30   36.70
  -1 -13   0   21.60   48.70
  -1 -13   0  -29.10   54.09
   1 -13   0   11.60   56.39
  -1  13   0   15.40   32.00
  -2  13   0   91.09   38.90
  -2 -13   0  168.58   57.09
  -2  13   0   99.99   46.60
   2  13   0  131.09   43.20
   2 -13   0   81.99   49.00
  -2 -13   0  174.58   58.39
   2 -13   0  104.49   56.79
  -3  13   0   41.90   39.50
   3 -13   0   22.80   56.69
   3  13   0   71.39   36.20
  -3  13   0   -5.90   48.20
   0 -14   0  541.65   73.89
   1 -14   0   77.29   51.69
  -1  14   0  144.49   39.90
  -1 -14   0  171.68   65.79
   0   0  -1   -2.20    8.80
   0   0   1    0.10    8.10
   0   0   1    3.60    7.90
   0   0   1   -9.60    6.90
   0   0  -1   -2.50    7.70
   0   0   1    2.60    6.30
   0   0   1    2.80    6.80
   0   0  -1   -1.00    5.40
   0   0  -1    5.50    7.70
   0   0   1    1.90    9.10
  -1   0   1 4497.05   98.89
   1   0   1 4526.05   96.89
  -1   0   1 4504.35   94.09
   1   0  -1 4520.25   91.49
  -1   0   1 4510.95   91.69
   1   0   1 4565.84   97.99
   1   0  -1 4594.64   96.69
  -1   0   1 4615.34   97.39
   1   0   1 4573.94   97.29
   1   0   1 4545.65   89.49
   1   0  -1 4574.74   97.39
  -1   0  -1 4352.16   97.99
  -1   0  -1 4550.94   96.19
  -1   0   1 4422.76  100.79
   1   0   1 4340.17   96.69
   1   0   1 4439.66   94.89
  -1   0   1 4502.25  105.09
  -1   0  -1 4498.65   89.29
   2   0   1  439.86   21.20
  -2   0  -1  420.66   24.30
   2   0  -1  495.05   27.40
  -2   0   1  450.35   19.10
   2   0  -1  463.85   15.60
   2   0   1  429.86   25.70
   2   0   1  476.75   27.90
   2   0  -1  457.85   12.90
  -2   0  -1  460.95   27.10
   2   0  -1  479.25   26.10
  -2   0   1  422.96   24.60
   2   0   1  428.26   27.00
  -2   0   1  427.66   29.80
  -2   0   1  454.35   33.40
   3   0  -1 2573.74   53.59
  -3   0   1 2490.85   84.79
  -3   0   1 2700.93   76.39
  -3   0  -1 2609.34   76.99
  -3   0   1 2596.24   62.09
  -3   0  -1 2664.93   84.19
   3   0   1 2653.43   63.89
   3   0   1 2601.24   78.49
   3   0   1 2605.84   79.89
   3   0  -1 2626.74   79.69
   3   0  -1 2567.34   77.09
  -3   0   1 2453.95   86.89
   4   0   1  643.24   44.00
   4   0   1  650.23   44.90
  -4   0  -1  648.44   51.79
  -4   0  -1  656.73   29.20
   4   0   1  625.04   27.50
   4   0  -1  600.54   43.30
   4   0   1  649.54   46.10
  -4   0   1  642.54   26.10
  -4   0   1  599.04   53.09
   4   0  -1  700.93   44.10
  -4   0   1  617.34   52.59
  -4   0  -1  680.63   44.90
  -4   0   1  662.73   44.00
   5   0   1  497.95   49.40
   5   0   1  517.45   48.80
  -5   0   1  546.65   58.79
  -5   0  -1  506.35   58.09
  -5   0   1  539.95   45.80
  -5   0  -1  622.04   53.19
   5   0  -1  561.04   48.10
  -5   0   1  561.34   58.09
   5   0  -1  509.55   46.50
   5   0   1  558.24   50.39
  -5   0  -1  548.75   57.79
  -6   0  -1  617.94   67.49
  -6   0  -1  527.15   64.39
   6   0   1  536.95   58.29
  -6   0   1  437.66   53.59
   6   0   1  546.35   55.89
   6   0   1  564.14   58.49
  -6   0  -1  593.44   58.09
  -6   0   1  646.54   72.09
   6   0  -1  552.54   55.29
   6   0  -1  541.95   56.99
  -7   0  -1   30.70   35.10
  -7   0   1   36.30   43.90
  -7   0  -1    5.30   38.30
   7   0  -1  -14.90   32.20
  -7   0   1   -8.50   33.80
   7   0   1  -10.70   36.60
  -7   0  -1    8.90   38.30
   7   0   1   13.70   41.70
   8   0   1  266.57   80.69
  -8   0   1  346.47   90.29
  -8   0   1  337.37   71.59
   8   0  -1  249.58   56.59
   0   1  -1 2185.68   50.89
   0   1   1 2215.68   48.40
   0  -1  -1 2281.67   48.20
   0   1   1 2122.79   47.80
   0   1   1 2183.88   51.49
   0  -1  -1 2212.98   48.10
   0   1  -1 2193.98   51.39
   0  -1   1 2262.17   52.39
   0  -1   1 2186.58   51.69
   0   1  -1 2246.08   51.19
   0   1   1 2238.78   53.29
   0  -1   1 2284.17   56.59
   0  -1  -1 2220.08   51.99
   0   1  -1 2197.68   50.89
   0  -1   1 2170.28   52.39
   0   1   1 2450.95   55.79
   0   1   1 2177.78   53.99
  -1   1   1 2758.72   72.99
  -1   1   1 2792.72   59.09
  -1   1   1 2830.02   63.49
  -1  -1  -1 2892.41   62.19
   1  -1   1 2694.13   64.89
  -1   1   1 2822.42   61.89
   1   1  -1 2794.82   60.09
  -1  -1  -1 2787.32   62.39
  -1   1   1 2745.93   64.69
  -1  -1  -1 2670.93   65.79
   1  -1   1 2820.12   63.49
   1   1  -1 2726.63   66.79
   1  -1   1 2750.22   57.39
   1   1  -1 2723.93   59.89
   1  -1   1 2811.32   67.69
  -1   1   1 2723.23   68.59
  -1  -1   1 2889.81   75.39
   1  -1  -1 2939.51   64.59
  -1   1  -1 2941.81   69.49
   1  -1  -1 2948.80   64.49
  -1  -1   1 2883.51   62.69
  -1  -1   1 2836.22   66.59
   1  -1  -1 2895.91   61.49
   1   1   1 3058.79   69.59
   1  -1  -1 3014.10   66.39
   1  -1  -1 2911.41   61.89
   1   1   1 2858.91   65.79
   1   1   1 2886.61   67.19
  -1   1  -1 2857.51   70.39
   1   1   1 2885.51   64.49
   1   1   1 2818.22   67.39
  -1  -1   1 2892.31   73.59
   1   1   1 2959.10   66.79
   2   1  -1  722.23   33.40
  -2  -1  -1  751.62   30.80
   2   1  -1  720.43   32.90
  -2   1   1  722.83   36.40
  -2   1   1  754.72   40.00
  -2  -1  -1  716.13   31.60
  -2  -1  -1  772.62   28.80
   2  -1   1  703.43   34.40
   2  -1   1  711.43   26.10
   2   1  -1  729.83   18.90
  -2   1   1  728.73   30.70
   2  -1   1  783.22   35.50
   2  -1   1  693.33   31.40
   2   1  -1  804.12   22.60
  -2   1   1  725.03   28.40
  -2  -1   1  779.52   42.60
   2   1   1  788.42   34.80
   2  -1  -1  804.82   32.30
   2   1   1  759.42   29.50
  -2  -1   1  845.72   36.50
   2   1   1  818.72   33.90
   2   1   1  780.62   23.90
  -2  -1   1  788.32   33.50
  -2   1  -1  773.42   33.40
  -2   1  -1  830.12   36.10
  -2  -1   1  761.12   22.10
   2  -1  -1  790.42   19.70
  -2   1  -1  780.12   37.20
   2  -1  -1  823.92   34.50
   2  -1  -1  745.23   23.10
   3  -1   1 1246.98   47.90
   3  -1   1 1201.08   51.29
  -3   1   1 1262.87   40.80
  -3   1   1 1202.28   56.89
  -3   1   1 1249.28   53.79
   3  -1   1 1233.48   36.50
  -3  -1  -1 1260.67   61.19
  -3   1   1 1203.48   57.39
   3   1  -1 1091.29   48.80
  -3  -1  -1 1271.97   48.50
   3  -1   1 1140.89   50.39
   3   1  -1 1199.38   49.70
   3   1   1 1083.19   48.30
   3   1   1 1259.07   49.40
  -3   1  -1 1169.08   39.30
  -3   1  -1 1223.88   51.29
   3  -1  -1 1139.29   48.90
   3  -1  -1 1117.79   46.90
   3   1   1 1191.68   38.30
  -3   1  -1 1167.68   49.60
  -3  -1   1 1142.49   58.29
  -3  -1   1  991.40   52.09
  -3  -1   1 1127.29   29.70
  -4   1   1 1139.89   63.39
   4  -1   1 1098.19   56.39
   4  -1   1 1052.69   54.89
  -4   1   1 1048.60   63.49
   4   1  -1 1182.08   56.99
  -4  -1  -1 1198.48   53.69
   4   1  -1 1039.80   53.59
  -4   1   1 1115.89   40.50
  -4   1   1  857.81   55.09
  -4  -1  -1 1099.79   64.39
   4  -1   1 1089.09   34.60
   4  -1   1 1087.79   52.29
   4  -1  -1 1092.19   54.89
   4   1   1 1130.29   39.60
   4   1   1 1113.39   56.49
  -4   1  -1 1116.09   58.79
  -4   1  -1 1167.38   41.30
  -4  -1   1 1065.59   29.20
   4   1   1 1170.08   55.99
  -4  -1   1  887.81   59.69
  -4  -1   1 1200.38   49.20
   4  -1  -1 1167.08   55.09
  -4  -1   1 1064.59   65.79
  -4   1  -1 1166.58   60.09
  -5   1   1  663.33   61.59
   5  -1   1  650.33   52.69
  -5   1   1  706.63   62.19
  -5  -1  -1  610.44   63.59
   5  -1   1  787.52   54.09
  -5  -1  -1  605.54   51.19
   5  -1   1  707.73   56.09
   5   1  -1  626.34   50.99
  -5   1   1  657.83   53.59
   5   1  -1  682.53   52.99
  -5   1   1  667.43   32.90
   5   1   1  667.63   52.69
  -5  -1   1  617.94   63.59
  -5   1  -1  701.43   55.79
  -5   1  -1  682.93   38.50
   5   1   1  634.34   54.09
   5  -1  -1  667.33   51.89
  -5   1  -1  732.63   56.79
   5   1   1  717.63   41.90
   5  -1  -1  664.73   51.89
  -5  -1   1  709.73   61.79
  -6  -1  -1  586.54   69.09
   6  -1   1  490.15   55.49
  -6  -1  -1  541.85   53.79
  -6  -1  -1  447.06   57.29
   6  -1   1  678.13   60.09
   6   1  -1  551.04   57.69
  -6   1   1  410.16   53.79
  -6   1   1  562.64   67.29
   6  -1   1  586.54   60.39
   6   1  -1  549.05   54.69
   6   1   1  531.35   59.79
  -6  -1   1  637.34   76.29
  -6  -1   1  697.13   67.69
  -6   1  -1  397.06   53.49
   6   1   1  583.64   58.69
  -6   1  -1  586.64   62.09
   6  -1  -1  563.14   55.59
   6   1   1  558.84   56.29
  -6   1  -1  557.94   57.59
   6  -1  -1  575.84   57.59
  -7  -1  -1  160.58   48.60
   7   1  -1  158.48   45.40
  -7   1   1  182.78   50.89
   7  -1   1  223.38   47.70
  -7  -1  -1  178.78   50.99
  -7   1   1  147.19   42.40
   7  -1   1  157.28   47.70
   7   1   1  268.37   52.29
   7   1   1  126.29   44.70
  -7   1  -1  100.29   42.40
  -7  -1   1  197.38   56.89
  -7  -1   1  155.68   45.40
   7  -1  -1  100.49   41.20
  -7   1  -1  172.08   44.40
  -7   1  -1  215.18   62.39
   8  -1   1  205.08   56.49
  -8  -1  -1  275.17   81.59
  -8   1   1  284.47   63.19
  -8  -1   1  251.17   57.79
   0   2  -1 3602.94   77.49
   0   2  -1 3601.04   74.69
   0  -2   1 3456.35   80.69
   0  -2   1 3624.64   85.99
   0   2   1 3705.73   72.89
   0   2   1 3608.94   79.89
   0  -2  -1 3501.75   80.99
   0  -2   1 3425.46   79.39
   0  -2   1 3601.64   76.79
   0   2   1 3472.65   80.79
   0   2   1 3605.44   81.29
   0   2  -1 3624.34   76.89
   0   2  -1 3557.84   75.79
   0   2  -1 3564.24   81.39
   1   2  -1  232.28    9.70
  -1   2   1  203.58   19.70
   1  -2   1  194.08   22.40
   1   2  -1  211.48   12.90
  -1  -2  -1  213.48   12.80
  -1   2   1  206.88   14.00
   1  -2   1  199.68   17.10
   1   2  -1  175.18   14.20
   1   2  -1  246.08   14.90
  -1   2   1  207.18   14.00
  -1   2   1  196.88   12.50
   1  -2   1  204.08   10.30
  -1   2   1  213.08   23.50
  -1  -2  -1  233.98   19.50
  -1   2   1  200.48   20.30
  -1   2   1  192.18   16.90
   1  -2   1  181.58   17.50
   1   2   1  204.28   15.40
  -1  -2   1  175.08   24.00
   1  -2  -1  203.78    9.00
   1  -2  -1  210.08   19.70
  -1  -2   1  205.28   23.40
  -1   2  -1  192.28   18.70
  -1   2  -1  196.08   21.10
  -1  -2   1  205.38   13.70
   1  -2  -1  241.58   12.40
   1   2   1  182.28    9.00
   1   2   1  205.88   13.70
  -1   2  -1  199.28    9.00
  -1   2  -1  181.68   17.80
   1   2   1  194.28   18.80
   1   2   1  191.48   15.50
   1  -2  -1  236.28   15.10
  -2   2   1 3735.23   96.49
   2   2  -1 3620.34   77.69
   2  -2   1 3529.75   76.19
  -2  -2  -1 3684.93   86.69
  -2   2   1 3816.92   82.29
   2   2  -1 3709.03   93.29
  -2   2   1 3768.82   73.89
  -2  -2  -1 3708.83   88.19
   2  -2   1 3618.64   81.89
   2   2  -1 3648.23   73.69
  -2   2   1 3609.64   98.29
  -2   2   1 3544.45   89.49
   2   2  -1 3618.74   92.29
   2  -2   1 3578.14   87.19
   2   2  -1 3710.03   76.39
  -2  -2  -1 3507.75   84.89
  -2   2   1 3654.63   88.69
   2  -2   1 3712.93   94.09
   2   2   1 3782.12   87.79
   2   2   1 3588.34   90.29
   2  -2  -1 3763.42   87.39
   2  -2  -1 3711.13   90.19
   2   2   1 3794.02   89.09
  -2  -2   1 3610.04  103.69
   2   2   1 3689.63   81.59
  -2   2  -1 3633.24   95.49
  -2  -2   1 3695.43   88.69
  -2  -2   1 3639.94   97.19
  -2   2  -1 3621.94   92.39
  -2   2  -1 3737.03   84.39
  -2   2  -1 3587.54   87.99
  -3   2   1  950.70   51.29
  -3   2   1  979.10   51.19
   3  -2   1  892.31   46.40
  -3   2   1  891.41   50.49
  -3  -2  -1 1021.10   41.20
   3   2  -1  955.30   44.80
   3   2  -1  969.30   45.90
  -3   2   1 1012.30   41.50
  -3  -2  -1  999.80   58.49
   3  -2   1  991.20   32.30
  -3   2   1 1025.50   30.50
   3  -2   1 1038.10   48.50
   3  -2   1 1018.40   43.40
  -3   2  -1 1064.59   39.70
   3   2   1 1066.39   39.50
  -3  -2   1  987.40   49.10
   3   2   1  980.70   44.40
  -3  -2   1 1009.10   56.99
   3  -2  -1 1008.30   45.50
   3   2   1 1036.40   47.10
  -3   2  -1  992.70   49.90
  -3   2  -1 1019.70   43.30
   3  -2  -1 1032.80   44.10
  -4  -2  -1  964.80   66.59
  -4  -2  -1 1053.79   49.80
   4  -2   1  971.10   55.79
  -4   2   1  876.91   57.19
  -4   2   1  970.60   60.89
   4  -2   1  992.60   54.99
   4   2  -1  953.30   52.29
   4  -2   1 1133.69   51.49
  -4   2   1 1044.40   44.00
   4   2  -1 1022.20   53.89
  -4   2   1 1066.19   60.69
   4  -2  -1 1075.59   53.69
   4   2   1 1036.20   55.49
  -4   2  -1 1071.99   42.70
   4  -2  -1 1014.40   53.49
  -4  -2   1 1033.10   65.89
  -4   2  -1  996.10   58.49
  -4  -2   1  903.11   58.89
   4   2   1 1067.99   53.69
  -4   2  -1 1047.90   53.59
   4   2   1 1025.60   41.40
  -5   2   1  553.44   34.80
   5   2  -1  597.34   49.60
   5   2  -1  521.15   49.40
   5  -2   1  482.55   49.40
  -5  -2  -1  564.94   46.70
  -5   2   1  583.54   59.09
   5  -2   1  598.24   48.40
  -5   2   1  537.55   57.29
  -5   2   1  563.34   55.09
   5  -2   1  485.75   50.69
  -5  -2  -1  514.55   65.29
  -5   2  -1  570.04   51.29
   5   2   1  530.65   51.49
  -5   2  -1  534.85   58.49
  -5  -2   1  577.64   56.29
   5   2   1  512.05   47.30
  -5   2  -1  534.05   34.70
  -5   2  -1  587.54   56.69
   5  -2  -1  552.94   48.60
  -5  -2   1  555.74   62.19
   5  -2  -1  514.75   48.20
   5   2   1  504.65   31.60
   6   2  -1  174.38   39.60
   6  -2   1   91.49   35.00
  -6   2   1  101.19   36.90
   6   2  -1  128.99   35.60
  -6  -2  -1  152.98   36.00
  -6  -2  -1  165.98   49.30
   6  -2   1  101.09   37.20
   6  -2   1  193.98   40.30
  -6   2   1  186.68   47.20
  -6  -2  -1  160.48   45.50
   6  -2  -1  144.79   39.70
  -6   2  -1   89.89   37.90
  -6   2  -1  166.38   44.30
  -6   2  -1  206.18   40.80
   6  -2  -1  101.79   33.50
  -6  -2   1  171.18   39.00
  -6  -2   1  186.08   49.20
   6   2   1  117.79   35.40
   6   2   1  143.89   40.60
  -7  -2  -1  292.87   57.29
   7  -2   1  258.37   50.69
  -7   2   1  420.66   66.59
  -7   2   1  252.77   47.30
   7   2  -1  281.57   52.09
  -7  -2  -1  342.27   63.49
   7  -2   1  190.28   48.10
  -7  -2   1  330.57   52.39
   7   2   1  330.27   58.19
  -7   2  -1  300.27   52.69
  -7   2  -1  285.07   57.49
  -7  -2   1  376.16   68.99
   7   2   1  437.96   63.79
   7  -2  -1  309.07   49.60
  -8  -2  -1   34.70   69.59
  -8   2   1   42.20   67.89
   8  -2   1   47.00   45.40
  -8   2  -1   37.70   52.59
  -8  -2   1   79.99   38.70
   0  -3  -1 2540.75   66.89
   0  -3   1 2546.35   66.99
   0   3   1 2534.85   65.09
   0  -3   1 2493.75   70.59
   0   3   1 2527.85   67.09
   0   3   1 2553.84   64.09
   0   3  -1 2498.05   66.49
   0  -3   1 2502.55   63.39
   0  -3   1 2594.94   61.29
   0   3  -1 2612.94   61.59
   0   3   1 2660.73   51.99
   0  -3   1 2557.24   61.79
   0   3   1 2575.44   65.09
  -1   3   1  355.76   24.50
  -1   3   1  323.67   24.50
  -1  -3  -1  308.77   24.90
   1  -3   1  332.77   21.30
   1  -3   1  333.37   29.20
  -1   3   1  333.87   17.60
  -1   3   1  325.67   14.80
   1  -3   1  338.07   17.30
   1   3  -1  316.67   11.80
   1   3  -1  350.36   15.50
  -1   3   1  346.27   18.90
   1   3  -1  359.06   22.00
  -1   3   1  336.37   24.90
   1   3   1  377.16   25.20
  -1   3  -1  418.26   27.40
  -1  -3   1  366.46   27.80
   1  -3  -1  426.36   16.20
  -1   3  -1  384.36   25.70
  -1  -3   1  354.36   28.40
   1   3   1  369.56   18.80
   1   3   1  369.36   21.10
   1  -3  -1  390.86   19.50
   1   3   1  375.06   12.70
   1   3   1  382.76   16.90
  -1  -3   1  375.16   14.00
   1  -3  -1  343.67   23.30
  -1  -3   1  379.26   30.80
  -1   3  -1  334.97   22.70
  -1   3  -1  373.56   16.20
   2  -3   1 2494.55   57.29
  -2  -3  -1 2418.16   63.59
  -2   3   1 2339.37   73.29
  -2   3   1 2519.25   55.29
  -2   3   1 2552.64   66.19
   2  -3   1 2460.55   65.29
  -2  -3  -1 2399.86   62.79
   2  -3   1 2420.06   78.79
  -2   3   1 2555.04   74.69
  -2  -3  -1 2514.45   69.99
  -2   3   1 2499.15   67.19
  -2   3   1 2485.25   75.89
   2   3  -1 2442.76   71.49
   2   3  -1 2349.86   71.29
   2   3  -1 2364.46   59.89
  -2  -3  -1 2516.25   65.19
   2   3  -1 2439.56   51.89
   2  -3   1 2359.66   72.19
   2   3   1 2476.35   67.99
  -2   3  -1 2472.55   69.39
  -2   3  -1 2488.45   75.89
  -2   3  -1 2489.75   76.29
  -2  -3   1 2650.23   63.69
   2   3   1 2536.45   68.79
   2  -3  -1 2353.06   69.69
   2  -3  -1 2555.14   64.89
   2   3   1 2423.96   59.99
  -2   3  -1 2416.56   56.79
  -2  -3   1 2451.45   76.19
   2  -3  -1 2537.05   68.09
  -2  -3   1 2483.85   83.89
   2   3   1 2559.84   66.49
   3   3  -1 1015.00   29.10
   3  -3   1 1019.90   34.60
   3  -3   1  998.50   49.50
  -3   3   1 1011.80   48.20
   3   3  -1 1044.60   48.70
   3  -3   1 1041.70   50.29
  -3   3   1 1005.70   36.60
   3   3  -1  989.70   47.10
  -3   3   1 1015.30   52.99
   3  -3   1 1055.09   43.60
  -3  -3  -1 1051.99   41.10
  -3   3   1 1035.80   52.39
  -3   3   1  999.00   54.69
  -3  -3  -1 1091.09   63.69
   3   3  -1 1009.50   25.80
  -3   3  -1  972.20   39.30
   3  -3  -1 1029.90   46.60
   3   3   1 1051.89   47.90
  -3   3  -1  959.30   53.19
   3  -3  -1 1052.09   44.10
   3   3   1 1042.50   42.60
  -3  -3   1 1031.80   60.99
  -3  -3   1 1142.99   48.40
   3   3   1 1051.59   46.10
  -3   3  -1 1072.19   43.80
   4   3  -1  657.73   44.60
  -4   3   1  636.84   53.69
   4   3  -1  583.64   43.70
  -4   3   1  646.54   41.20
  -4   3   1  652.63   49.60
   4  -3   1  651.63   48.20
  -4  -3  -1  637.64   39.40
  -4  -3  -1  617.14   62.59
  -4   3   1  656.93   52.89
   4  -3   1  590.74   46.50
   4  -3   1  685.63   41.70
   4  -3   1  636.04   31.60
  -4   3   1  655.43   27.10
   4   3   1  660.73   37.10
   4  -3  -1  650.93   44.80
  -4   3  -1  608.44   37.80
  -4   3  -1  715.23   56.79
  -4   3  -1  659.63   52.79
  -4  -3   1  691.53   49.99
   4  -3  -1  694.23   44.50
   4   3   1  674.23   46.70
   4   3   1  665.83   43.90
  -4   3  -1  610.54   40.20
   5   3  -1  758.42   56.19
  -5  -3  -1  768.62   49.60
  -5  -3  -1  723.03   72.79
   5  -3   1  764.52   39.90
   5  -3   1  737.73   51.99
  -5   3   1  816.12   62.69
   5   3  -1  674.73   54.99
   5  -3   1  781.02   58.69
  -5   3   1  690.63   63.19
   5  -3   1  712.53   56.59
  -5   3   1  826.92   44.90
  -5   3   1  724.03   60.99
  -5   3  -1  694.13   41.90
  -5  -3   1  752.12   69.49
   5   3   1  771.72   40.70
   5  -3  -1  729.03   53.39
  -5  -3   1  818.72   59.09
  -5   3  -1  684.53   50.29
   5  -3  -1  686.43   53.69
  -5   3  -1  692.13   61.69
   5   3   1  713.53   58.39
  -5   3  -1  789.72   68.79
   5   3   1  667.33   51.99
  -6   3   1  132.19   41.20
   6  -3   1  138.99   36.20
  -6  -3  -1   92.99   41.10
   6   3  -1   76.49   33.10
   6  -3   1  123.29   40.30
  -6  -3  -1  113.99   48.90
  -6   3   1  126.89   37.70
   6  -3   1   89.79   37.60
   6   3  -1  112.99   39.00
   6  -3  -1  104.99   30.70
  -6  -3   1  158.58   37.60
   6  -3  -1  144.09   32.90
  -6   3  -1  105.69   42.60
   6  -3  -1  159.18   37.20
  -6   3  -1  154.98   43.90
   6   3   1  124.79   33.90
   6   3   1  132.39   41.00
  -6  -3   1  116.29   47.20
  -7  -3  -1  441.76   62.89
  -7   3   1  514.95   67.49
  -7  -3  -1  413.96   69.99
   7  -3   1  574.34   59.09
   7   3  -1  529.95   69.09
  -7   3   1  553.84   74.09
   7  -3   1  313.97   56.29
  -7   3  -1  501.05   68.39
   7   3   1  477.15   68.29
   7  -3  -1  604.44   60.99
   7  -3  -1  413.96   56.49
  -7  -3   1  600.84   84.19
  -7  -3   1  477.95   57.29
  -7   3  -1  463.35   63.69
   7   3   1  516.95   66.59
   0  -4  -1 1193.58   35.70
   0   4   1 1115.99   42.50
   0  -4   1 1163.68   46.10
   0  -4  -1 1124.29   44.70
   0   4   1 1281.37   40.70
   0  -4   1 1212.18   41.10
   0  -4   1 1155.48   40.50
   0  -4   1 1203.78   48.40
   0   4   1 1166.78   45.00
   0  -4   1 1270.57   41.30
   0   4  -1 1128.19   44.80
   0   4  -1 1253.77   39.40
   0   4   1 1295.67   31.30
   1  -4   1 2825.72   67.99
  -1   4   1 2868.91   71.29
   1   4  -1 2778.02   75.19
   1  -4   1 2870.81   70.99
  -1   4   1 2821.42   79.19
  -1   4   1 2799.62   66.69
   1  -4   1 2825.42   83.59
  -1   4   1 2847.71   75.59
  -1  -4  -1 2794.52   78.19
  -1   4   1 2869.31   80.89
  -1   4   1 2791.12   62.49
  -1  -4  -1 2847.02   61.89
   1   4  -1 2790.22   59.09
  -1  -4   1 2974.60   85.49
   1   4   1 2790.52   76.69
  -1   4  -1 2816.92   77.69
   1  -4  -1 2742.23   77.49
   1   4   1 2950.20   62.79
   1   4   1 2947.10   72.59
   1   4   1 2884.71   78.49
   1   4   1 2925.71   67.79
   1   4   1 2913.61   65.09
  -1  -4   1 2732.13   76.99
  -1  -4   1 2863.51   80.39
  -1  -4   1 2769.42   81.69
  -1   4  -1 2879.71   79.39
  -1   4  -1 2878.91   79.59
  -2   4   1  777.52   40.90
   2   4  -1  822.82   33.00
  -2   4   1  824.92   41.50
   2   4  -1  826.72   40.50
   2  -4   1  881.01   31.30
  -2  -4  -1  874.21   33.90
   2   4  -1  821.62   39.90
  -2   4   1  863.01   28.60
  -2   4   1  827.22   47.10
   2  -4   1  868.81   35.50
  -2   4   1  822.62   35.00
  -2  -4  -1  868.71   38.30
  -2  -4  -1  830.92   41.70
   2  -4   1  862.61   49.30
  -2   4   1  849.81   43.10
   2   4   1  785.72   29.70
  -2  -4   1  803.12   51.89
   2  -4  -1  879.51   36.80
   2   4   1  842.82   34.20
  -2  -4   1  861.01   44.50
   2  -4  -1  861.21   32.90
   2   4   1  822.22   38.80
   2  -4  -1  833.72   40.00
   2  -4  -1  832.72   20.20
  -2   4  -1  818.22   45.10
  -2  -4   1  836.32   27.70
  -2   4  -1  802.42   40.30
   2   4   1  906.41   37.50
   3  -4   1 1174.18   39.20
  -3   4   1 1157.38   55.89
  -3   4   1 1113.69   28.50
   3   4  -1 1139.69   52.89
   3  -4   1 1134.59   53.59
   3  -4   1 1132.69   45.60
   3   4  -1 1130.99   37.10
  -3   4   1  969.80   55.19
  -3  -4  -1 1110.49   52.79
  -3   4   1 1111.39   58.99
  -3   4   1 1031.40   55.19
  -3  -4  -1 1174.88   42.80
   3   4  -1 1174.58   52.29
  -3   4   1 1192.58   46.50
   3  -4   1 1133.29   56.39
  -3   4  -1 1110.69   39.50
   3   4   1 1198.78   48.40
   3   4   1 1095.09   50.19
   3  -4  -1 1181.68   47.10
  -3   4  -1 1185.08   50.39
   3  -4  -1 1108.29   34.20
  -3   4  -1 1134.99   59.49
   3   4   1 1161.28   48.90
  -3  -4   1 1120.99   66.89
   3  -4  -1 1153.18   49.80
  -3  -4   1 1157.68   45.40
  -3   4  -1 1042.70   57.89
   3  -4  -1 1120.79   50.69
   3   4   1 1099.99   34.20
  -4   4   1  776.22   49.40
   4  -4   1  778.52   36.70
  -4   4   1  815.12   36.30
  -4  -4  -1  821.32   41.60
   4  -4   1  782.02   44.40
  -4   4   1  849.41   57.79
  -4   4   1  831.02   55.79
   4  -4   1  776.42   52.89
   4  -4   1  810.72   53.59
  -4  -4  -1  819.52   71.19
   4   4  -1  781.42   50.39
   4   4  -1  804.22   49.20
  -4   4   1  790.92   59.49
   4   4   1  834.72   43.80
   4  -4  -1  788.52   35.40
  -4  -4   1  897.41   49.70
   4   4   1  834.22   49.20
  -4   4  -1  783.82   41.40
  -4  -4   1  758.52   66.79
  -4   4  -1  850.81   47.10
   4   4   1  859.51   52.39
  -4   4  -1  740.43   56.99
   4  -4  -1  850.01   49.70
   4  -4  -1  869.31   50.49
   4  -4  -1  857.11   47.80
  -4   4  -1  760.62   60.99
  -5   4   1  398.66   39.40
  -5   4   1  429.86   56.29
   5  -4   1  311.37   44.90
  -5  -4  -1  385.66   58.09
   5   4  -1  433.86   51.69
   5   4  -1  411.76   47.50
   5  -4   1  334.27   44.40
  -5  -4  -1  351.66   38.00
   5  -4   1  370.46   39.80
  -5   4   1  416.86   53.89
   5  -4   1  458.85   35.70
  -5   4   1  382.76   51.89
  -5   4  -1  392.36   38.80
   5  -4  -1  280.47   38.30
   5  -4  -1  394.26   44.50
   5   4   1  407.76   37.10
   5  -4  -1  454.75   46.20
  -5   4  -1  343.17   46.90
   5  -4  -1  403.86   35.80
  -5  -4   1  454.75   46.50
  -5  -4   1  339.97   52.29
   5   4   1  394.66   43.40
   5   4   1  442.26   51.59
  -5   4  -1  422.06   55.19
  -6  -4  -1  250.07   48.50
   6  -4   1  199.58   43.70
  -6   4   1  307.97   52.99
  -6   4   1  240.28   45.60
  -6   4   1  245.28   34.00
   6  -4   1  308.67   42.70
   6   4  -1  318.67   51.99
  -6  -4  -1  257.97   60.69
   6   4  -1  303.37   61.89
  -6  -4   1  279.97   57.49
  -6   4  -1  179.68   44.50
   6  -4  -1  391.96   49.30
  -6   4  -1  223.58   47.50
   6   4   1  273.07   44.30
  -6  -4   1  290.27   42.60
   6  -4  -1  195.68   40.70
   6  -4  -1  262.07   44.00
   6   4   1  221.88   46.30
  -7  -4  -1  127.29   58.29
  -7   4   1  212.68   51.39
   7  -4   1  243.68   73.59
  -7  -4  -1  122.09   43.70
   7   4  -1  195.28   50.49
   7  -4   1   46.90   42.70
   7  -4  -1  138.59   43.80
  -7  -4   1  140.09   57.29
  -7   4  -1  153.18   50.99
   7  -4  -1   96.49   39.10
  -7   4  -1  148.79   46.20
   7   4   1  104.39   48.50
   0   5   1   -5.40   12.00
   0   5   1    2.10   15.20
   0  -5   1   -0.90   12.30
   0   5  -1   20.60   17.80
   0   5  -1    7.00   10.60
   0   5   1   -1.30    9.30
   0   5   1   -4.70    6.70
   0  -5  -1   -2.10   16.60
   0  -5   1   -1.90   14.20
   0  -5   1   -9.30   16.50
   0  -5   1    7.40   14.50
   0  -5   1   -5.60   16.30
   0  -5  -1   -3.30   10.50
   1  -5   1 2349.67   62.59
   1  -5   1 2069.69   52.29
   1  -5   1 2271.47   61.79
  -1  -5  -1 2273.67   71.69
   1   5  -1 2207.88   68.29
  -1   5   1 2260.37   57.99
   1  -5   1 2221.88   76.89
   1  -5   1 2179.48   70.19
  -1  -5  -1 2190.48   54.49
  -1   5   1 2227.68   73.79
  -1   5   1 2259.27   65.89
  -1   5   1 2324.17   75.19
   1  -5   1 2161.08   49.40
  -1  -5   1 2127.59   71.49
   1   5   1 2184.08   69.39
   1  -5  -1 2143.89   68.89
  -1  -5   1 2129.49   49.80
   1   5   1 2291.07   57.99
  -1  -5   1 2176.28   72.49
  -1  -5   1 2336.37   77.39
   1   5   1 2281.77   55.49
   1   5   1 2319.07   63.59
  -1   5  -1 2266.57   69.29
  -1   5  -1 2232.98   61.39
  -1  -5   1 2191.18   68.49
  -1   5  -1 2159.98   71.49
   2   5  -1  532.65   34.10
   2  -5   1  551.64   29.50
   2   5  -1  503.45   35.30
   2  -5   1  538.15   45.20
  -2   5   1  418.26   38.30
  -2   5   1  528.55   36.50
   2   5  -1  554.94   30.80
  -2   5   1  418.26   41.30
  -2   5   1  506.05   28.40
  -2   5   1  510.05   25.80
   2  -5   1  524.45   29.60
  -2  -5  -1  559.44   39.50
  -2  -5  -1  505.65   35.70
   2   5   1  542.25   26.70
  -2  -5   1  549.05   40.00
   2  -5  -1  609.84   32.70
  -2   5  -1  528.45   38.90
   2   5   1  584.84   29.10
  -2   5  -1  498.85   39.30
   2  -5  -1  548.15   28.30
  -2  -5   1  537.05   17.60
   2  -5  -1  543.95   36.90
  -2   5  -1  510.75   38.40
  -2  -5   1  513.65   48.30
   2   5   1  565.14   31.10
   2   5   1  483.35   36.10
  -3  -5  -1 1014.80   53.09
  -3   5   1  955.50   30.60
   3  -5   1 1028.20   53.29
   3  -5   1  886.71   61.09
   3  -5   1  975.00   43.30
  -3   5   1  934.31   54.39
  -3   5   1 1007.70   54.09
  -3  -5  -1 1001.70   39.20
   3   5  -1 1009.70   39.40
   3  -5   1 1021.10   40.30
   3   5  -1 1003.50   50.59
  -3  -5  -1  972.20   48.20
  -3   5   1  828.62   56.29
   3   5  -1  994.20   51.39
  -3   5   1 1082.99   51.39
  -3  -5   1 1020.60   55.59
   3  -5  -1 1008.20   29.50
  -3  -5   1  998.60   37.90
   3   5   1 1026.10   49.90
  -3   5  -1 1099.99   54.29
   3   5   1 1094.19   50.39
   3   5   1 1020.10   34.20
  -3   5  -1 1101.59   59.59
   3   5   1 1015.80   47.10
   3  -5  -1 1067.29   45.50
  -3   5  -1  998.30   58.99
   3  -5  -1 1025.40   51.39
   3  -5  -1  992.80   48.30
  -3  -5   1  981.10   68.79
  -4   5   1  643.44   50.49
  -4   5   1  667.13   38.20
  -4   5   1  649.04   53.99
   4  -5   1  612.94   40.90
   4   5  -1  618.34   46.60
  -4   5   1  678.33   56.89
   4  -5   1  641.24   50.89
  -4  -5  -1  631.44   36.60
   4   5  -1  597.34   47.30
  -4   5   1  649.43   52.29
  -4  -5  -1  589.04   67.69
   4  -5   1  595.84   35.50
   4  -5  -1  594.74   41.90
  -4  -5   1  598.54   64.19
   4   5   1  587.44   44.00
   4   5   1  631.24   48.10
  -4   5  -1  535.05   53.69
  -4   5  -1  640.74   46.70
  -4  -5   1  605.84   38.90
   4   5   1  563.44   41.70
   4  -5  -1  596.14   46.30
   4  -5  -1  663.53   47.90
  -4   5  -1  652.63   57.79
  -5  -5  -1  276.67   57.09
   5   5  -1  337.97   46.80
   5  -5   1  288.47   36.10
   5  -5   1  233.78   40.80
   5  -5   1  352.66   46.70
  -5   5   1  231.68   41.70
   5   5  -1  393.46   52.39
  -5   5   1  242.88   35.00
  -5   5   1  316.97   46.10
  -5   5  -1  232.48   44.50
  -5   5  -1  312.17   39.00
  -5   5  -1  216.48   45.00
  -5  -5   1  210.98   47.20
   5  -5  -1  373.16   46.70
   5  -5  -1  304.97   39.10
  -5  -5   1  290.67   34.50
   5   5   1  297.77   34.10
   5   5   1  248.58   42.50
   5   5   1  279.77   39.00
   5  -5  -1  220.58   36.10
  -6   5   1  475.25   60.49
  -6   5   1  546.75   62.89
   6  -5   1  367.36   51.79
  -6   5   1  592.94   49.10
   6  -5   1  493.85   50.59
   6   5  -1  577.74   62.39
  -6  -5  -1  489.45   57.49
  -6  -5  -1  642.04   85.89
  -6  -5   1  434.26   66.49
   6   5   1  491.35   61.39
  -6   5  -1  595.04   69.99
   6  -5  -1  518.75   55.39
   6  -5  -1  626.84   61.29
  -6   5  -1  660.63   75.89
   6   5   1  410.46   51.19
   7   5  -1   32.40   38.40
  -7  -5  -1   45.50   53.49
   7  -5   1   16.40   39.40
  -7   5   1   24.30   37.60
  -7  -5   1   15.00   49.40
  -7   5  -1   27.20   39.80
   7  -5  -1   51.19   56.89
   7   5   1   12.00   40.60
   7  -5  -1   24.80   32.70
  -7   5  -1   31.30   47.60
   0  -6   1 1844.82   69.59
   0   6   1 2021.40   51.69
   0  -6  -1 1908.61   57.49
   0  -6   1 1804.72   69.49
   0  -6   1 1948.11   60.59
   0   6   1 1975.30   57.59
   0   6  -1 1838.02   69.39
   0   6   1 1938.61   65.19
   0  -6   1 1969.40   66.69
   0  -6  -1 1818.02   67.69
   0  -6   1 1966.90   64.49
   0   6   1 1890.51   69.99
   0   6  -1 1936.41   57.89
  -1   6   1 1551.44   47.40
  -1  -6  -1 1590.14   62.79
  -1   6   1 1673.03   55.29
  -1  -6  -1 1599.14   62.79
   1  -6   1 1557.24   62.99
   1  -6   1 1655.83   51.79
   1  -6   1 1560.24   67.29
   1  -6   1 1394.26   41.70
   1  -6   1 1646.64   54.99
  -1  -6  -1 1583.24   46.60
  -1   6   1 1423.86   64.59
  -1   6   1 1708.73   66.39
   1   6  -1 1583.54   60.19
  -1  -6   1 1629.24   69.79
   1  -6  -1 1655.33   59.79
  -1   6  -1 1658.83   60.19
   1   6   1 1577.84   54.39
   1   6   1 1495.45   60.89
  -1   6  -1 1506.25   63.59
   1  -6  -1 1635.04   62.29
   1   6   1 1653.63   48.10
  -1   6  -1 1646.54   49.40
  -1  -6   1 1583.64   63.39
   1   6   1 1646.64   46.60
  -1  -6   1 1478.75   63.29
  -2   6   1  404.86   42.90
  -2   6   1  639.04   40.90
   2  -6   1  609.74   34.70
   2   6  -1  636.74   39.70
   2   6  -1  550.24   36.90
  -2   6   1  622.64   43.10
   2  -6   1  596.84   32.00
  -2   6   1  627.24   51.09
   2  -6   1  540.55   47.60
  -2  -6  -1  606.64   43.70
  -2  -6  -1  511.55   43.20
   2   6  -1  589.24   36.10
   2   6   1  620.14   30.90
   2   6   1  614.54   34.70
  -2   6  -1  638.64   39.90
  -2  -6   1  493.55   44.10
   2  -6  -1  623.74   41.80
   2   6   1  613.84   31.40
  -2  -6   1  663.93   55.09
  -2   6  -1  603.14   46.00
   2   6   1  629.84   43.50
   2   6   1  609.64   39.70
  -2   6  -1  631.34   45.00
  -2  -6   1  631.74   45.70
  -3   6   1  726.73   29.70
  -3   6   1  785.82   51.39
  -3  -6  -1  749.82   47.40
   3  -6   1  755.52   39.40
   3  -6   1  697.53   38.60
  -3   6   1  745.73   58.99
   3   6  -1  744.03   47.10
  -3  -6  -1  720.53   50.79
  -3  -6  -1  755.12   33.90
   3  -6   1  697.53   59.19
  -3   6   1  748.23   50.59
   3   6  -1  771.82   46.50
   3   6  -1  756.02   38.50
  -3  -6   1  764.92   53.29
  -3  -6   1  772.22   28.50
   3  -6  -1  824.02   46.30
   3  -6  -1  797.52   49.60
  -3   6  -1  821.42   52.79
  -3   6  -1  782.82   52.49
   3   6   1  693.43   47.40
  -3  -6   1  715.83   63.79
   3   6   1  772.22   42.60
  -3   6  -1  743.33   54.39
   3   6   1  747.43   30.90
   3  -6  -1  781.42   41.30
   3   6   1  820.82   46.00
  -4   6   1  598.74   54.59
   4  -6   1  475.45   38.20
   4  -6   1  532.15   37.70
  -4  -6  -1  503.45   68.29
   4   6  -1  522.15   45.00
  -4   6   1  520.25   39.70
   4   6  -1  492.45   48.00
  -4   6   1  500.55   53.19
  -4   6   1  495.65   49.00
   4  -6   1  354.76   52.19
   4  -6  -1  505.55   49.60
  -4   6  -1  499.95   54.49
   4   6   1  532.65   46.80
   4  -6  -1  493.95   44.50
  -4  -6   1  508.55   64.49
   4   6   1  494.25   42.60
  -4   6  -1  539.65   54.99
  -4   6  -1  541.35   48.60
   4   6   1  553.84   44.80
   4  -6  -1  511.25   41.40
   5  -6   1  246.78   52.29
   5   6  -1  298.37   42.90
   5   6  -1  284.97   46.40
  -5   6   1  269.37   46.50
  -5   6   1  332.67   46.10
  -5   6   1  277.67   41.10
   5  -6   1  253.77   44.10
   5  -6   1  316.77   36.50
  -5  -6  -1  332.87   64.29
  -5  -6   1  294.07   60.19
   5  -6  -1  236.88   40.50
  -5   6  -1  290.87   40.20
   5  -6  -1  409.56   50.99
  -5   6  -1  273.97   48.00
   5   6   1  285.97   44.30
   5   6   1  276.57   36.30
   5  -6  -1  284.17   39.50
   5   6   1  299.07   38.90
  -5   6  -1  214.28   49.40
  -6  -6  -1  275.87   65.89
   6  -6   1  122.19   54.79
  -6   6   1  235.48   48.10
   6  -6   1  183.38   43.30
   6   6  -1  309.07   51.99
  -6   6   1  236.58   37.50
  -6   6  -1  171.08   42.80
   6   6   1  277.97   51.79
   6  -6  -1  204.58   42.50
  -6  -6   1  260.17   62.99
  -6   6  -1  218.88   50.29
   6   6   1  262.37   48.00
  -6   6  -1  257.97   56.99
   6  -6  -1  363.16   53.39
   7  -6   1  124.89   45.60
   7   6  -1   32.00   39.50
  -7   6   1  184.78   47.90
   7  -6   1   69.09   63.59
  -7  -6  -1  113.79   60.49
   7   6   1   69.49   43.90
  -7   6  -1  121.09   47.80
  -7  -6   1  156.18   59.59
  -7   6  -1   97.69   49.20
   0  -7   1 1548.55   67.59
   0  -7   1 1673.03   65.39
   0   7   1 1544.95   61.59
   0   7   1 1507.85   46.90
   0   7  -1 1518.85   67.49
   0   7  -1 1525.85   52.79
   0   7   1 1588.84   68.49
   0   7   1 1564.54   52.19
   0  -7  -1 1514.85   54.79
   0  -7   1 1591.04   61.59
   0  -7   1 1458.55   67.59
   0  -7  -1 1553.54   66.89
  -1  -7  -1  213.28   33.40
   1  -7   1  161.78   21.30
  -1  -7  -1  203.08   32.30
  -1  -7  -1  208.48   22.50
   1  -7   1  256.87   34.80
   1  -7   1  243.88   29.30
   1  -7   1  246.38   25.70
   1  -7   1  315.17   41.80
  -1   7   1  224.48   26.00
  -1   7   1  223.58   37.70
  -1   7   1  220.48   32.00
   1   7  -1  245.48   33.70
  -1   7   1  204.48   19.90
   1   7   1  233.98   21.40
   1   7   1  225.58   25.40
  -1  -7   1  241.28   31.80
   1   7   1  256.67   21.10
  -1   7  -1  236.78   35.50
   1  -7  -1  207.28   31.10
  -1   7  -1  226.98   29.50
  -1  -7   1  274.67   35.90
  -1  -7   1  279.87   38.20
   1  -7  -1  276.27   31.70
  -1  -7   1  189.68   32.60
  -1   7  -1  213.58   20.80
   1   7   1  258.57   35.00
   2   7  -1 1021.60   42.10
   2   7  -1 1079.79   52.49
  -2  -7  -1 1115.49   59.99
   2  -7   1 1071.99   66.69
   2   7  -1 1005.70   53.29
   2   7  -1 1045.50   51.39
  -2   7   1 1027.10   64.59
  -2   7   1 1004.90   62.89
  -2   7   1 1022.40   51.59
  -2  -7  -1 1023.30   59.69
   2  -7   1 1091.69   48.80
   2  -7   1 1006.00   43.70
   2   7   1 1066.59   57.59
   2  -7  -1 1117.29   61.49
  -2   7  -1 1006.70   60.99
  -2  -7   1 1005.00   60.49
  -2   7  -1 1056.59   58.29
   2   7   1 1043.20   54.29
   2   7   1 1101.29   46.40
   2   7   1 1092.29   42.90
  -2  -7   1 1105.79   59.09
  -2  -7   1 1080.59   58.69
   2   7   1 1020.40   42.50
  -2   7  -1 1053.89   49.50
   2  -7  -1 1052.79   57.79
  -2  -7   1 1044.00   68.09
  -3  -7  -1  505.95   29.00
  -3   7   1  446.26   27.00
   3  -7   1  488.05   57.99
   3  -7   1  445.76   34.70
   3   7  -1  491.95   44.00
   3  -7   1  462.15   37.70
  -3   7   1  456.05   47.60
  -3   7   1  512.05   47.70
  -3  -7  -1  519.55   49.80
  -3   7   1  414.36   49.40
   3   7  -1  491.65   42.10
  -3  -7  -1  426.56   45.50
   3   7  -1  538.55   37.60
   3   7   1  459.05   36.00
  -3   7  -1  479.75   49.40
  -3  -7   1  430.46   59.09
  -3   7  -1  438.16   49.00
   3   7   1  506.95   46.50
  -3   7  -1  474.95   44.90
   3   7   1  446.56   38.30
   3  -7  -1  449.36   45.20
  -3  -7   1  473.75   48.90
   4  -7   1  440.86   38.00
  -4   7   1  542.05   44.90
  -4  -7  -1  336.97   60.69
  -4   7   1  489.95   52.59
   4   7  -1  530.95   51.79
   4  -7   1  388.66   58.19
  -4   7   1  543.95   54.69
   4   7  -1  458.85   44.30
  -4  -7   1  564.64   70.99
  -4   7  -1  545.55   55.29
   4   7   1  488.15   47.00
   4   7   1  434.66   45.70
   4   7   1  425.96   40.70
   4  -7  -1  572.74   55.39
  -4   7  -1  485.65   50.89
  -4   7  -1  508.15   59.59
  -5  -7  -1  225.38   57.09
  -5   7   1  300.67   44.10
   5   7  -1  445.36   57.49
   5   7  -1  399.36   48.50
  -5   7   1  376.16   53.19
   5  -7   1  370.16   64.19
  -5  -7   1  387.26   68.49
   5  -7  -1  350.56   45.90
  -5   7  -1  389.26   52.39
   5   7   1  401.16   44.70
   5   7   1  335.17   42.60
   5   7   1  385.46   49.50
   5  -7  -1  504.15   55.29
  -5   7  -1  328.97   53.79
  -5   7  -1  368.86   45.50
   5  -7  -1  422.06   47.50
   6   7  -1   90.19   41.90
  -6   7   1  147.09   34.90
  -6   7   1  136.89   42.60
   6  -7   1   61.39   52.69
  -6  -7  -1   75.59   57.89
  -6   7  -1  122.89   43.90
  -6  -7   1  104.09   52.49
  -6   7  -1   36.90   39.10
   6   7   1   60.49   38.90
  -6   7  -1   74.69   48.30
   6  -7  -1   94.79   39.90
   7   7   1  190.08   57.69
   0   8   1 1380.06   67.99
   0  -8   1 1420.96   66.19
   0  -8  -1 1465.85   56.89
   0   8   1 1468.75   51.29
   0  -8  -1 1422.86   68.89
   0  -8   1 1459.95   70.39
   0   8   1 1458.65   63.69
   0  -8   1 1387.96   71.79
   0  -8   1 1507.85   65.99
   0   8  -1 1365.76   67.09
  -1   8   1  238.08   36.30
   1  -8   1  269.77   34.80
  -1  -8  -1  264.47   39.90
   1  -8   1  225.38   38.60
  -1   8   1  255.27   27.20
  -1  -8  -1  254.07   39.10
   1   8  -1  295.67   38.00
   1  -8   1  197.98   30.70
  -1   8   1  307.17   43.60
   1  -8   1  282.27   29.20
  -1  -8  -1  244.88   26.60
   1  -8   1  227.58   36.60
  -1   8  -1  257.77   40.00
  -1   8  -1  207.18   30.90
   1   8   1  241.78   23.60
   1   8   1  209.08   27.30
   1   8   1  256.17   37.10
   1  -8  -1  196.68   35.00
  -1  -8   1  200.88   36.20
   1  -8  -1  254.77   34.20
   1   8   1  232.48   22.70
  -1  -8   1  253.47   38.00
  -1  -8   1  208.78   33.80
  -1  -8   1  183.98   35.80
   2   8  -1 1311.57   62.39
  -2   8   1 1280.67   58.59
   2  -8   1 1301.47   77.09
   2  -8   1 1261.57   58.09
   2   8  -1 1245.78   61.89
   2   8  -1 1227.68   49.70
   2   8  -1 1271.07   60.59
   2  -8   1 1296.17   50.99
  -2   8   1 1322.07   73.79
  -2  -8  -1 1251.67   69.79
  -2   8   1 1314.37   73.79
   2  -8   1 1292.57   71.99
  -2  -8  -1 1288.27   70.79
   2  -8  -1 1222.58   67.89
   2   8   1 1297.27   63.99
   2   8   1 1220.98   50.29
  -2  -8   1 1244.88   65.89
   2   8   1 1232.28   48.00
   2   8   1 1197.98   51.79
  -2   8  -1 1235.08   52.29
  -2   8  -1 1327.87   68.39
   2  -8  -1 1273.57   68.89
  -2  -8   1 1311.87   69.29
  -2  -8   1 1187.88   70.49
   2   8   1 1287.67   68.39
  -2   8  -1 1216.88   68.89
  -2  -8   1 1336.67   78.79
   3  -8   1  308.27   51.49
   3   8  -1  419.26   46.10
   3  -8   1  343.87   36.50
  -3  -8  -1  333.37   44.60
  -3   8   1  408.76   45.60
  -3  -8  -1  458.35   48.60
  -3   8   1  352.86   47.20
   3   8  -1  421.46   41.30
   3  -8   1  432.16   36.60
   3   8  -1  360.06   37.50
  -3   8   1  351.86   28.60
  -3   8   1  423.06   50.59
  -3  -8   1  426.56   50.49
  -3  -8   1  449.95   60.99
  -3   8  -1  416.56   50.99
   3   8   1  373.66   43.20
   3   8   1  330.37   34.20
   3  -8  -1  428.16   47.80
   3  -8  -1  414.96   54.29
  -3   8  -1  395.06   42.30
  -3   8  -1  360.76   48.90
   3   8   1  403.86   39.40
  -4   8   1  313.67   42.50
   4   8  -1  317.77   41.70
   4  -8   1  270.57   57.99
   4   8  -1  259.07   42.90
  -4  -8  -1  160.28   54.09
  -4   8   1  203.68   42.40
  -4   8   1  259.57   43.20
  -4   8  -1  261.77   51.09
   4  -8  -1  249.88   44.80
  -4   8  -1  225.58   38.00
  -4   8  -1  266.37   43.80
   4   8   1  289.07   41.70
  -4  -8   1  184.18   50.59
   4   8   1  259.47   39.70
   5   8  -1  309.57   50.09
   5  -8   1  211.98   58.79
  -5   8   1  269.57   48.80
  -5  -8  -1  207.68   62.09
  -5   8   1  221.48   43.80
   5  -8  -1  291.27   48.90
  -5   8  -1  265.77   47.80
   5   8   1  232.88   40.30
   5   8   1  297.47   47.60
  -5  -8   1  281.57   62.39
  -5   8  -1  228.58   44.20
  -5   8  -1  336.77   60.69
   6   8  -1  147.39   44.70
  -6  -8  -1   68.59   60.49
   6  -8   1   66.79   57.89
  -6   8   1  119.79   36.70
  -6   8   1  163.18   46.70
   6   8   1  115.49   44.30
  -6   8  -1  124.09   49.20
  -6  -8   1   83.79   53.79
  -6   8  -1  116.89   41.30
  -6   8  -1   59.69   44.50
   0  -9   1  195.98   39.80
   0   9  -1  279.07   41.40
   0  -9   1  338.97   41.90
   0   9   1  268.37   42.80
   0  -9  -1  323.97   46.20
   0  -9  -1  292.97   35.50
   0   9   1  284.37   36.00
   0  -9   1  338.37   46.50
   0  -9   1  251.27   38.20
  -1  -9  -1  763.72   61.39
  -1   9   1  688.23   57.49
   1   9  -1  784.82   51.99
  -1  -9  -1  715.83   62.09
   1  -9   1  730.73   61.89
  -1   9   1  678.53   40.40
   1   9  -1  714.63   56.19
   1  -9   1  740.23   62.49
   1  -9   1  702.03   51.79
  -1   9   1  733.43   57.29
   1   9   1  666.03   44.90
   1   9   1  683.13   55.79
   1   9   1  682.73   37.30
  -1  -9   1  635.54   61.79
  -1  -9   1  669.33   56.79
   1  -9  -1  723.43   51.09
  -1   9  -1  695.83   47.40
  -1  -9   1  725.43   60.49
  -1  -9   1  741.03   58.09
   1  -9  -1  677.13   59.39
  -1   9  -1  708.13   57.49
   1   9   1  732.03   55.09
   2   9  -1  250.47   39.20
   2  -9   1  267.97   51.09
  -2   9   1  247.58   30.50
  -2  -9  -1  338.77   48.10
  -2   9   1  290.67   33.20
   2   9  -1  313.47   40.80
  -2   9   1  301.97   48.10
   2  -9   1  385.56   53.49
   2  -9   1  281.97   37.00
  -2  -9  -1  196.78   40.60
   2   9  -1  329.97   39.60
  -2   9   1  282.67   43.10
   2  -9  -1  269.97   45.50
   2   9   1  304.47   43.30
  -2   9  -1  351.46   49.90
   2   9   1  293.87   30.70
   2   9   1  348.17   44.60
   2   9   1  306.27   32.70
  -2  -9   1  302.87   44.70
  -2   9  -1  282.37   41.30
  -2  -9   1  319.67   47.90
  -2  -9   1  367.26   50.29
  -2  -9   1  335.27   52.29
   2  -9  -1  334.07   45.50
   3  -9   1  459.95   62.39
  -3  -9  -1  537.35   59.09
  -3  -9  -1  409.66   67.09
  -3   9   1  571.54   53.69
   3  -9   1  423.56   43.60
   3   9  -1  465.25   46.00
  -3  -9  -1  593.24   60.59
  -3   9   1  409.46   50.69
  -3   9   1  479.45   55.09
   3   9  -1  578.64   51.89
  -3   9   1  555.54   50.39
   3   9  -1  463.75   44.10
   3   9   1  480.55   42.90
   3   9   1  444.76   49.00
  -3   9  -1  519.55   58.99
  -3   9  -1  510.25   54.39
  -3  -9   1  433.96   53.79
  -3   9  -1  521.45   58.49
  -3  -9   1  482.05   64.69
   3  -9  -1  518.75   59.99
   3  -9  -1  534.85   58.09
  -4   9   1  309.87   45.90
   4  -9   1  324.47   60.19
  -4   9   1  368.96   48.20
  -4   9   1  288.47   49.00
  -4  -9  -1  208.18   61.79
   4   9  -1  328.37   50.29
   4   9  -1  279.77   41.00
  -4   9  -1  263.47   39.20
  -4   9  -1  346.47   56.89
   4  -9  -1  350.46   53.89
   4  -9  -1  292.77   58.39
  -4   9  -1  349.96   52.89
  -4  -9   1  277.97   61.39
   4   9   1  278.37   42.80
   4   9   1  330.67   45.00
  -5   9   1  221.08   46.10
  -5   9   1  178.88   41.20
   5  -9   1  221.98   63.89
   5   9  -1  164.78   43.60
  -5  -9  -1  117.19   56.89
  -5  -9   1  146.29   56.19
   5  -9  -1  178.28   50.09
  -5   9  -1  253.97   43.70
  -5   9  -1  197.08   53.49
  -5   9  -1  214.78   52.59
   5   9   1  237.28   43.80
  -5   9  -1  128.79   39.00
   5   9   1  162.68   39.60
   5  -9  -1  201.08   61.69
  -6   9   1  167.38   45.20
  -6   9   1  251.27   49.99
  -6  -9  -1  197.38  111.89
   6   9  -1  266.47   52.99
   6  -9  -1  117.49   69.69
  -6  -9   1  175.88   64.89
  -6   9  -1  263.07   49.50
  -6   9  -1   93.09   45.60
   0  10   1   10.10   29.00
   0 -10  -1   10.70   38.20
   0  10  -1  -66.19   25.30
   0 -10   1    7.30   32.00
   0 -10   1   17.40   37.80
   0  10  -1   10.90   30.30
   0 -10   1   32.00   31.00
   0  10   1   15.40   23.50
   0 -10  -1    1.10   34.60
  -1 -10  -1  958.60   71.09
   1 -10   1 1135.39   65.99
   1 -10   1 1181.28   77.59
  -1 -10  -1 1135.09   79.29
   1 -10   1 1070.09   80.19
   1  10  -1 1132.69   62.69
  -1  10   1 1088.79   73.39
   1  10  -1 1054.89   70.59
  -1  10   1 1196.28   71.59
   1  10   1  946.61   67.49
   1  10   1 1098.69   58.49
   1 -10  -1 1057.99   61.99
   1 -10  -1 1009.90   72.79
  -1 -10   1  984.50   69.99
  -1 -10   1 1002.60   69.99
  -1 -10   1 1069.79   76.79
  -1  10  -1  885.81   67.59
  -1 -10   1 1057.09   68.69
   2 -10   1  110.59   34.10
  -2  10   1   90.99   26.20
  -2  10   1  129.59   38.80
   2 -10   1  145.89   47.20
  -2  10   1  111.19   38.60
   2  10  -1  129.29   35.60
   2 -10   1  101.89   44.40
  -2 -10  -1  113.59   43.50
  -2 -10  -1  158.38   45.30
   2  10  -1  147.49   30.60
   2  10  -1  159.28   35.40
  -2 -10   1  126.79   43.70
  -2  10  -1  130.09   41.20
  -2 -10   1  139.29   46.90
   2  10   1  135.89   37.30
  -2 -10   1  108.99   40.10
   2 -10  -1   78.29   35.40
  -2  10  -1  147.89   36.60
  -2 -10   1  163.78   40.70
   2  10   1  128.19   36.60
   2 -10  -1  110.29   43.90
   3  10  -1  510.25   54.49
  -3 -10  -1  456.85   57.09
  -3  10   1  447.46   57.39
  -3 -10  -1  392.36   55.59
  -3  10   1  339.97   49.90
  -3  10   1  396.56   46.50
   3 -10   1  414.86   63.99
   3  10  -1  466.55   50.69
   3 -10   1  381.76   57.19
   3  10  -1  396.16   45.60
  -3 -10  -1  322.37   66.69
  -3 -10   1  413.86   63.89
   3 -10  -1  345.07   53.69
  -3  10  -1  443.96   55.89
   3  10   1  403.06   50.69
   3 -10  -1  446.36   59.09
  -3  10  -1  372.76   54.69
  -3 -10   1  521.55   59.39
  -4  10   1  191.68   41.80
   4 -10   1  113.39   52.49
  -4  10   1  138.89   41.10
   4 -10   1  236.28   59.89
  -4  10   1  197.88   39.80
   4  10  -1  198.28   43.90
  -4 -10  -1  135.59   62.19
  -4 -10   1  166.48   53.39
  -4  10  -1  140.89   45.90
   4  10   1  181.58   42.80
  -4  10  -1  303.07   55.19
   4 -10  -1  182.58   50.69
   4 -10  -1  170.98   51.89
  -4  10  -1   94.19   46.20
  -5 -10  -1   86.39   58.09
   5 -10   1  128.39   59.89
  -5  10   1  140.79   43.50
  -5  10   1  187.48   44.20
   5  10  -1  143.29   43.00
   5 -10  -1  141.59   56.29
  -5 -10   1  148.39   56.49
   5 -10  -1  165.98   57.59
  -5  10  -1  225.48   53.99
   5  10   1  187.08   44.50
  -5  10  -1  134.79   43.00
  -5  10  -1  115.09   48.80
   0 -11   1  229.98   45.60
   0  11   1  247.88   48.60
   0  11   1  314.17   41.60
   0 -11   1  346.37   60.29
   0  11  -1  307.47   46.00
   0 -11  -1  277.17   54.99
   0  11  -1  331.67   52.69
   0 -11  -1  357.26   56.99
   0 -11   1  340.57   53.39
   0  11   1  235.18   43.30
  -1 -11  -1  454.75   67.19
   1 -11   1  363.26   50.19
   1 -11   1  311.97   57.49
  -1  11   1  377.06   46.90
  -1 -11  -1  331.57   55.89
  -1  11   1  340.17   47.70
   1  11  -1  405.36   56.39
   1 -11   1  303.47   54.69
   1  11  -1  329.47   42.60
  -1  11   1  350.46   54.29
   1  11   1  412.56   45.00
  -1 -11   1  334.57   53.49
  -1  11  -1  306.87   50.09
  -1 -11   1  356.76   55.89
  -1  11  -1  357.06   53.89
  -1 -11   1  385.66   53.69
   1  11   1  236.48   46.70
   1  11   1  350.46   51.69
   1 -11  -1  314.27   55.79
  -2  11   1  352.56   51.49
   2  11  -1  274.57   40.80
  -2 -11  -1  287.27   55.69
   2 -11   1  349.17   48.20
  -2  11   1  322.77   52.49
   2  11  -1  363.06   46.70
   2 -11   1  396.06   63.39
  -2 -11  -1  318.47   59.09
   2 -11   1  293.57   56.39
  -2  11   1  236.28   34.80
   2  11  -1  324.77   47.80
   2  11   1  306.77   48.50
  -2 -11   1  247.38   52.19
   2 -11  -1  222.38   51.99
  -2 -11   1  315.37   50.89
  -2  11  -1  239.08   49.99
   2 -11  -1  331.57   76.09
   2  11   1  250.87   47.60
  -2 -11   1  229.28   52.09
  -2  11  -1  268.27   53.09
  -3  11   1  160.48   40.70
  -3 -11  -1   90.39   56.89
   3  11  -1  293.97   43.90
  -3  11   1  191.18   48.90
   3 -11   1  183.58   54.99
   3  11  -1  135.99   34.50
  -3 -11  -1  245.48   51.89
  -3 -11  -1  199.48   52.59
   3 -11   1  197.18   54.09
   3  11  -1  211.88   42.70
   3 -11  -1   55.49   47.30
   3 -11  -1  155.68   47.90
  -3 -11   1  207.28   51.69
   3  11   1  220.08   45.90
  -3  11  -1  147.69   44.90
  -3  11  -1  124.59   46.40
   4  11  -1  266.17   49.10
   4 -11   1  301.97   61.39
  -4 -11  -1  139.29   65.29
  -4  11   1  179.48   43.00
   4 -11   1  255.67   62.69
  -4  11   1  172.88   41.80
   4 -11  -1  231.68   54.19
  -4  11  -1  209.08   46.80
  -4  11  -1  105.89   47.80
  -4  11  -1  255.17   50.49
   4 -11  -1  232.98   57.29
   4  11   1  194.08   45.70
  -4 -11   1  255.27   60.59
   5  11  -1  138.89   43.10
   5  11  -1  101.19   42.10
  -5 -11   1  189.68   64.49
   5  11   1  165.78   57.29
  -5  11  -1  210.28   61.09
   5 -11  -1  157.08   60.19
   0 -12   1  750.52   72.39
   0  12   1  652.53   66.19
   0  12  -1  664.33   72.09
   0  12   1  732.63   71.59
   0 -12  -1  731.43   82.19
   0 -12   1  781.72   86.49
   0 -12  -1  637.44   73.29
   0  12   1  706.53   60.59
   0  12  -1  764.92   67.79
   0 -12   1  633.24   69.19
   1  12  -1   63.09   30.70
  -1  12   1   70.49   32.40
  -1  12   1   95.99   43.90
   1  12  -1   93.09   40.70
  -1 -12  -1   78.69   50.09
   1 -12   1   47.10   52.29
   1 -12   1   12.20   42.40
   1 -12   1   50.89   37.10
  -1 -12  -1  109.69   56.09
  -1  12   1   33.90   30.30
  -1 -12   1   62.69   43.60
  -1  12  -1   94.59   42.20
  -1 -12   1   77.59   50.29
   1 -12  -1   68.49   57.79
   1  12   1   85.49   40.70
   1  12   1   68.89   40.00
   1 -12  -1   16.00   46.50
  -1 -12   1   65.89   40.30
  -1  12  -1  104.29   43.30
   1  12   1   32.30   28.60
  -2 -12  -1  421.16   65.99
   2  12  -1  454.35   53.49
  -2  12   1  278.47   47.80
  -2  12   1  245.78   37.20
  -2  12   1  391.66   57.29
   2  12  -1  345.67   50.69
   2 -12   1  421.86   72.29
  -2 -12  -1  169.28   64.79
  -2 -12  -1  425.76   68.19
   2 -12   1  379.16   61.29
   2 -12  -1  354.96   63.19
   2  12   1  428.36   58.09
  -2  12  -1  367.36   56.89
  -2 -12   1  289.97   61.69
   2  12   1  409.36   57.29
  -2  12  -1  367.06   58.49
  -3  12   1   77.09   39.70
  -3 -12  -1  113.49   48.00
   3  12  -1  111.99   37.80
  -3  12   1   99.29   44.00
   3 -12   1   59.29   47.60
   3  12  -1  176.38   42.40
  -3 -12  -1   11.90   55.89
  -3 -12  -1   91.29   49.00
   3 -12   1  121.99   54.09
  -3  12  -1  115.29   48.30
   3  12   1   37.30   39.40
   3 -12  -1  119.39   52.59
  -3  12  -1   70.79   46.80
   4 -12   1  265.67   66.89
  -4  12   1  191.68   44.20
  -4 -12  -1  169.98   69.39
   4 -12   1  230.48   58.09
  -4  12  -1  277.77   54.79
  -4 -12   1  216.88   60.09
   4 -12  -1  209.78   68.19
   4  12   1  320.17   67.59
   0 -13   1  340.67   72.19
   0  13  -1  391.76   61.39
   0 -13   1  211.98   50.99
   0 -13  -1  223.58   57.99
   0  13   1  298.57   57.19
   0  13  -1  298.57   46.30
   0  13   1  209.38   45.00
   0  13   1  304.67   47.00
   0 -13  -1  283.87   75.09
  -1 -13  -1   22.40   49.90
   1 -13   1   96.39   69.69
  -1 -13  -1  105.29   60.09
   1  13  -1  114.89   45.60
  -1  13   1   -7.40   29.10
   1 -13   1   92.19   56.89
  -1  13   1  116.29   36.10
   1 -13   1  123.09   46.10
  -1  13   1   87.09   42.90
   1 -13  -1  115.19   55.19
   1  13   1  121.89   45.20
  -1 -13   1   97.79   53.39
  -1 -13   1  127.49   49.30
   1  13   1   76.29   43.80
  -1  13  -1   -2.60   39.30
  -1  13  -1  119.79   47.10
   1 -13  -1   89.69   58.89
  -2  13   1  219.38   52.59
  -2  13   1  299.97   52.89
   2 -13   1  201.78   65.19
   2  13  -1  271.57   48.90
  -2 -13  -1  321.17   64.29
  -2 -13  -1  141.79   65.89
  -2 -13  -1  238.68   61.49
   2 -13   1  280.27   63.39
   2  13   1  249.88   51.79
   2 -13  -1  159.68   55.39
   2 -13  -1  104.89   66.49
  -2  13  -1  170.18   49.10
  -2  13  -1  207.38   53.69
  -3  13   1  128.09   57.19
   3 -13   1  252.67   60.39
   3 -13   1   26.20   57.09
  -3 -13  -1   13.70   61.29
  -3 -13  -1  212.18   62.69
   3 -13  -1  107.99   55.69
   0  14   1   80.29   47.90
   0  14   1    4.90   40.40
   0 -14   1  153.98   52.99
  -1  14   1  290.57   63.99
  -1  14   1  174.48   40.70
  -1  14  -1  205.48   46.90
   0   0   2 1105.79   39.80
   0   0   2 1100.69   37.00
   0   0   2 1047.20   37.70
   0   0  -2 1023.00   32.50
   0   0   2 1088.99   38.60
   0   0   2 1041.20   35.40
  -1   0   2  615.14   27.80
   1   0   2  671.93   29.60
  -1   0   2  679.93   27.70
   1   0   2  598.94   29.50
  -1   0  -2  585.44   31.60
  -1   0  -2  652.23   20.90
  -1   0   2  641.14   27.50
  -1   0  -2  646.34   27.20
  -1   0   2  613.44   35.70
   1   0   2  641.14   29.60
   1   0   2  628.74   29.90
  -1   0   2  638.04   31.20
  -1   0   2  625.24   33.00
   1   0  -2  648.84   27.70
   2   0   2   -7.10   12.60
   2   0   2   16.10    7.20
   2   0   2   18.10   12.60
  -2   0  -2   10.20   14.80
   2   0   2    4.10   14.60
  -2   0   2    6.60   11.20
   2   0   2    8.20   13.70
  -2   0   2   18.80    8.60
   2   0  -2   13.20   10.50
  -2   0   2   13.50   14.80
   2   0  -2   14.00   10.40
   2   0   2   12.80   15.80
  -2   0   2   17.20    9.10
  -2   0  -2    9.20   10.40
   3   0   2  982.20   46.90
  -3   0   2  947.71   35.30
   3   0  -2  977.80   45.50
  -3   0   2  882.91   54.39
  -3   0   2  883.81   48.60
  -3   0  -2  934.11   47.70
   3   0   2  966.90   39.60
   3   0   2  951.30   47.50
   3   0   2  893.91   48.40
   3   0  -2  944.71   43.70
   3   0  -2  943.11   31.60
   4   0   2   22.40   21.60
  -4   0   2   11.80   21.70
   4   0  -2    6.30   15.70
  -4   0  -2   -8.10   22.40
  -4   0  -2    6.10   25.40
   4   0  -2   29.50   19.60
   4   0   2    2.30   24.10
  -4   0   2   13.40    9.80
   4   0   2    1.10   20.50
   4   0   2    6.20   13.60
  -4   0   2   28.40   27.30
   5   0   2 1278.97   69.59
   5   0   2 1388.66   52.09
  -5   0  -2 1315.47   76.89
  -5   0  -2 1365.96   53.49
  -5   0  -2 1314.57   72.09
   5   0   2 1285.37   73.29
   5   0  -2 1407.96   69.69
   5   0  -2 1402.06   71.59
  -5   0   2 1313.97   87.59
   5   0   2 1250.17   70.79
  -6   0  -2  -25.20   37.10
  -6   0  -2   -0.40   32.20
   6   0   2   16.40   33.80
   6   0  -2   -2.30   23.90
   6   0  -2    3.30   24.70
  -6   0   2   16.80   34.00
   6   0   2   -6.30   35.00
   6   0   2    0.70   28.00
  -6   0   2   52.29   41.20
   7   0  -2  685.93   69.69
  -7   0   2  757.92   89.29
   7   0   2  656.03   70.59
  -7   0  -2  584.94   75.69
   7   0   2  486.25   64.39
  -7   0   2  834.42   79.99
  -7   0  -2  682.53   70.79
   0  -1   2 4716.53  108.69
   0  -1   2 4490.05  106.89
   0  -1   2 4731.83  107.49
   0   1   2 4826.82  104.49
   0   1   2 4754.82  112.19
   0   1   2 4714.23  103.09
   0   1   2 4751.02  106.79
   0  -1  -2 4808.22  105.49
   0   1  -2 4802.32  108.69
   0  -1   2 4961.60  113.39
   0   1   2 4644.54  108.99
   0  -1   2 4872.41  111.09
  -1   1   2 2561.74   63.29
   1  -1   2 2557.04   71.19
  -1  -1  -2 2647.14   61.69
  -1   1   2 2578.94   61.89
   1  -1   2 2541.85   67.89
  -1   1   2 2570.44   71.99
   1  -1   2 2520.25   68.29
  -1   1   2 2569.44   68.49
  -1  -1  -2 2538.05   61.39
  -1   1   2 2468.05   77.69
   1   1   2 2517.85   59.89
  -1  -1   2 2562.14   64.79
   1   1   2 2442.06   65.59
   1   1   2 2474.45   66.09
  -1   1  -2 2611.34   67.69
  -1  -1   2 2592.54   74.59
  -1  -1   2 2489.35   64.09
  -1   1  -2 2426.56   69.09
  -1   1  -2 2455.35   50.59
  -1  -1   2 2373.36   73.79
  -1  -1   2 2459.95   66.59
   1  -1  -2 2517.15   61.69
  -1   1  -2 2500.95   55.99
   1   1   2 2480.75   67.19
  -1  -1   2 2425.46   65.29
   2  -1   2 3218.88   81.29
  -2  -1  -2 3160.28   74.59
  -2   1   2 3144.29   89.09
   2  -1   2 3183.98   88.49
  -2  -1  -2 3183.28   87.49
  -2  -1  -2 3061.79   79.19
  -2   1   2 3263.87   82.49
   2  -1   2 3180.78   85.59
   2   1  -2 3274.87   86.49
   2  -1   2 3172.88   88.19
  -2   1   2 3259.17   73.39
  -2   1   2 3206.88   81.69
   2   1  -2 3076.79   85.79
  -2   1   2 3216.38   98.99
   2   1   2 3371.66   82.69
   2   1   2 3130.09   84.99
  -2  -1   2 3251.47   76.79
   2  -1  -2 3235.78   82.59
  -2   1  -2 3151.68   88.99
  -2  -1   2 3167.88   84.99
   2   1   2 3076.29   81.49
  -2  -1   2 3177.58   98.49
   2   1   2 3285.87   79.29
  -2  -1   2 3121.19   92.69
   2   1   2 3224.68   82.49
   2   1   2 3171.58   84.29
  -2   1  -2 3036.60   83.79
   2  -1  -2 3294.87   81.09
   3  -1   2  955.70   39.60
   3  -1   2  989.10   49.30
   3  -1   2  961.60   51.79
   3  -1   2  857.91   28.00
  -3   1   2  920.21   50.99
   3  -1   2  987.30   47.80
   3  -1   2  955.70   49.99
   3   1  -2 1003.10   26.40
  -3   1   2 1002.40   39.00
  -3  -1  -2  914.11   46.50
   3   1  -2  991.60   46.40
  -3   1   2  959.40   56.59
   3   1  -2  998.80   46.60
  -3  -1   2 1055.69   49.70
  -3  -1   2  953.20   56.79
   3   1   2 1007.40   41.60
   3   1   2  954.50   47.90
   3  -1  -2  967.30   45.70
   3  -1  -2  994.60   43.60
   3   1   2 1014.30   47.40
  -3   1  -2 1030.70   50.39
  -3  -1   2  952.90   33.20
   3   1   2 1063.99   50.09
  -3   1  -2  927.91   49.99
  -4  -1  -2  932.11   65.59
   4  -1   2  826.02   54.09
   4   1  -2  834.72   49.70
   4  -1   2  870.61   39.50
   4  -1   2  836.42   52.19
  -4   1   2  863.51   59.99
  -4   1   2  893.01   62.19
  -4  -1  -2  840.82   52.99
   4  -1   2  813.22   52.79
   4   1  -2  885.31   50.99
  -4   1   2  937.31   39.00
   4   1   2  811.32   53.59
  -4   1  -2  853.81   43.50
  -4   1  -2  824.82   54.29
   4   1   2  884.51   42.00
   4  -1  -2  874.51   50.99
   4   1   2  827.22   51.89
  -4   1  -2  865.01   53.99
  -4  -1   2  932.11   57.89
  -4  -1   2  858.01   30.50
   4   1   2  904.11   52.69
   4  -1  -2  852.51   47.80
  -4  -1   2  867.61   62.99
   5  -1   2  236.28   40.70
   5  -1   2  130.69   33.40
  -5  -1  -2  300.97   48.50
  -5  -1  -2  300.07   43.50
   5   1  -2  261.57   38.90
  -5   1   2  358.66   55.89
  -5   1   2  164.38   39.20
  -5   1   2  273.07   24.80
   5   1  -2  315.57   39.60
   5  -1   2  232.48   39.90
   5   1   2  223.68   41.00
   5   1   2  289.77   40.80
  -5   1  -2  354.26   47.80
   5   1   2  316.37   44.40
  -5  -1   2  395.16   57.89
   5   1   2  255.97   27.20
   5  -1  -2  262.97   37.20
  -5  -1   2  275.07   45.10
   5  -1  -2  290.97   38.50
  -5   1  -2  278.47   46.20
  -5   1  -2  293.47   32.00
   6  -1   2   99.89   36.80
   6   1  -2  157.38   36.80
   6   1  -2  178.78   39.70
  -6  -1  -2  179.18   46.20
  -6  -1  -2  226.08   49.90
   6  -1   2  115.79   38.80
   6  -1   2  225.38   46.50
  -6   1   2  179.08   48.10
  -6   1   2  184.58   47.60
  -6  -1   2  224.28   45.90
   6   1   2  192.68   44.70
  -6   1  -2   87.39   40.90
  -6   1  -2  195.68   57.59
   6   1   2  116.19   40.80
   6  -1  -2  213.08   41.80
  -6  -1   2  158.48   46.60
   6  -1  -2  164.58   36.50
  -6   1  -2  119.69   46.60
   6   1   2  147.79   39.70
  -7   1   2   71.29   46.50
  -7  -1  -2   36.00   40.20
  -7  -1  -2   35.00   41.00
   7  -1   2   80.69   44.30
  -7  -1  -2  -28.90   46.80
   7   1  -2   24.90   35.40
  -7   1   2   24.00   36.00
   7  -1   2   -1.00   38.00
  -7   1  -2    9.30   42.60
   7   1   2   89.09   45.80
   7  -1  -2   68.89   35.50
  -7   1  -2   32.80   42.40
   7   1   2   12.90   40.60
  -7  -1   2   56.99   34.20
  -7  -1   2   -7.60   39.90
   0  -2   2   56.09   13.80
   0   2  -2   42.30   14.20
   0   2   2   43.10   12.70
   0  -2   2   71.29   13.50
   0  -2  -2   83.29    7.90
   0   2  -2   54.09   12.40
   0  -2   2   60.69   18.90
   0  -2   2   74.79   16.40
   0  -2  -2   55.69   14.70
   0   2   2   91.59   14.80
   0  -2  -2   78.49    8.70
   0  -2  -2   74.29   11.40
   0   2   2   58.89   10.80
   0   2   2   40.00   12.50
   1  -2   2  258.67   29.40
  -1   2   2  228.98   27.10
  -1  -2  -2  209.58   13.30
  -1  -2  -2  219.38   20.30
  -1   2   2  201.88   13.90
  -1   2   2  218.18   17.80
  -1   2   2  207.68   21.40
   1   2  -2  203.68   19.60
   1  -2   2  176.08   18.60
  -1   2   2  180.88   21.10
   1  -2   2  233.28   23.30
   1   2   2  145.79   17.40
  -1  -2   2  148.29   18.90
   1   2   2  193.18   19.20
  -1   2  -2  173.98   15.30
   1  -2  -2  159.28   19.60
   1  -2  -2  164.88   13.90
   1   2   2  177.28   10.30
   1   2   2  184.98   16.50
  -1  -2   2  189.98   18.10
   1  -2  -2  176.88   12.40
  -1   2  -2  183.28   21.40
  -1  -2   2  197.58   23.90
   1   2   2  192.38   20.70
  -1  -2   2  226.98   28.10
  -1   2  -2  190.48   22.50
  -2  -2  -2  710.93   31.60
  -2   2   2  663.73   34.00
   2  -2   2  684.23   36.00
  -2  -2  -2  676.93   36.40
  -2   2   2  641.54   29.80
   2  -2   2  677.73   40.80
  -2  -2  -2  670.83   23.10
   2  -2   2  671.83   31.80
  -2  -2  -2  606.64   28.00
  -2   2   2  679.33   42.60
   2  -2   2  694.13   39.40
  -2   2   2  698.03   25.30
   2   2  -2  657.93   36.40
   2   2  -2  694.73   26.80
  -2   2   2  638.04   37.70
   2   2  -2  678.33   36.80
  -2  -2   2  638.54   42.00
  -2  -2   2  690.63   43.80
   2   2   2  722.23   33.80
  -2   2  -2  637.54   38.50
   2   2   2  716.23   31.20
   2   2   2  673.63   32.30
  -2   2  -2  654.53   34.80
   2   2   2  702.53   26.20
  -2  -2   2  687.63   26.80
   2  -2  -2  689.33   31.30
  -2  -2   2  709.83   32.70
   2   2   2  650.33   35.50
   2   2   2  683.73   34.40
   2  -2  -2  703.53   28.60
  -3   2   2  228.38   34.80
   3  -2   2  191.28   31.20
  -3   2   2  232.28   13.30
  -3   2   2  210.88   28.60
  -3   2   2  253.77   25.20
   3  -2   2  220.18   32.10
   3  -2   2  241.38   23.50
   3   2  -2  189.58   13.80
   3  -2   2  226.78   28.30
  -3  -2  -2  228.68   23.70
   3   2  -2  247.38   29.60
  -3  -2  -2  238.88   28.70
   3   2  -2  256.87   28.10
   3  -2  -2  266.27   27.50
  -3   2  -2  230.28   30.60
   3  -2  -2  251.07   23.90
   3   2   2  281.07   31.60
   3   2   2  189.48   26.10
  -3  -2   2  202.88   33.40
  -3   2  -2  260.47   29.10
  -3   2  -2  248.28   26.90
  -3  -2   2  279.17   29.70
  -3  -2   2  257.67   16.10
   3   2   2  214.98   26.50
   3   2   2  279.67   27.30
   4  -2   2 1273.77   71.69
   4  -2   2 1182.28   64.79
  -4  -2  -2 1306.67   60.59
   4   2  -2 1171.98   59.39
   4  -2   2 1125.29   62.09
  -4  -2  -2 1261.57   77.29
   4  -2   2 1282.47   60.89
  -4   2   2 1261.67   50.79
   4  -2   2 1158.28   45.60
   4   2  -2 1178.38   59.19
  -4   2   2 1187.48   68.69
  -4   2   2 1293.17   73.19
  -4   2  -2 1091.29   62.49
   4   2   2 1231.78   59.79
  -4   2  -2 1200.28   56.19
   4  -2  -2 1241.88   58.39
   4   2   2 1200.28   50.59
  -4   2  -2 1236.18   53.29
   4   2   2 1210.98   62.09
  -4  -2   2 1255.87   62.39
  -4  -2   2 1152.58   72.59
   4   2   2 1246.78   62.09
   4  -2  -2 1185.98   55.09
   5  -2   2   67.29   31.80
  -5  -2  -2   86.39   39.00
  -5   2   2   68.89   32.60
   5  -2   2   46.90   31.00
  -5   2   2   63.59   17.80
   5   2  -2   66.69   28.10
  -5  -2  -2   26.20   27.90
  -5   2   2   73.79   35.30
   5  -2   2   68.99   30.40
   5   2  -2   91.09   29.70
   5   2   2   44.20   28.00
   5   2   2   83.29   21.80
  -5   2  -2  107.89   28.50
  -5  -2   2   92.29   31.30
   5  -2  -2   98.59   28.00
   5   2   2   52.69   32.60
   5  -2  -2   82.49   26.50
  -5  -2   2   61.79   32.70
  -5   2  -2   48.70   23.00
   5   2   2   62.59   32.00
  -5   2  -2   52.89   38.90
   6  -2   2  766.82   69.99
  -6  -2  -2  937.91   84.09
  -6  -2  -2  786.92   66.29
   6  -2   2  928.91   69.19
  -6   2   2  884.01   82.39
   6  -2   2  642.04   83.09
   6   2  -2  861.81   67.89
  -6   2   2  826.02   76.59
   6   2   2  871.81   70.69
   6   2   2  804.52   72.19
  -6   2  -2  772.82   73.29
   6  -2  -2  862.91   62.89
   6  -2  -2  862.31   64.29
   6   2   2  696.33   64.29
  -6  -2   2  939.01   87.59
  -6  -2   2  970.30   73.69
   7  -2   2   50.69   41.40
  -7  -2  -2   33.90   48.50
   7   2  -2   56.19   37.90
   7  -2   2   18.30   41.30
  -7  -2  -2  138.39   50.69
  -7   2   2  108.59   40.20
  -7   2   2   22.20   44.70
   7  -2   2   32.00   52.79
  -7   2  -2   29.10   42.30
   7   2   2   93.59   46.30
   7  -2  -2   61.69   35.20
  -7  -2   2  102.69   48.10
  -7  -2   2   74.79   34.20
  -7   2  -2   46.70   45.00
   7   2   2   39.90   44.20
   0  -3   2  445.76   33.90
   0   3   2  403.46   28.60
   0   3  -2  434.86   28.50
   0   3  -2  454.15   24.30
   0  -3  -2  431.86   28.20
   0  -3   2  402.76   23.00
   0  -3   2  417.16   27.30
   0   3   2  413.66   27.90
   0   3   2  433.16   19.20
   0  -3  -2  414.96   17.80
   0   3   2  447.56   27.60
  -1   3   2 4923.71  101.29
   1   3  -2 5159.68  108.09
   1  -3   2 4987.30  112.79
  -1   3   2 5028.70  112.69
   1   3  -2 5019.80  115.89
  -1  -3  -2 5445.06  119.69
  -1   3   2 4886.21  122.49
  -1  -3  -2 4986.40   98.79
   1  -3   2 4878.71  118.19
  -1   3   2 4842.42  120.39
   1  -3   2 4876.11  116.99
   1  -3   2 5085.19  129.09
   1  -3  -2 4920.31   99.09
  -1   3  -2 4867.81   97.19
  -1  -3   2 4844.52  121.09
   1   3   2 5035.30  110.89
   1   3   2 4879.11  116.99
  -1   3  -2 4649.73  117.69
   1   3   2 5140.79  103.99
  -1  -3   2 4945.10  127.09
   1   3   2 4703.03  114.59
  -1  -3   2 4907.61  117.39
   1  -3  -2 4923.11  102.79
   1  -3  -2 4747.12   97.79
   1  -3  -2 4900.01  119.29
  -1  -3   2 4996.50  108.09
  -1   3  -2 4951.00  118.79
  -2   3   2  658.13   36.20
   2   3  -2  677.03   29.10
  -2   3   2  633.14   38.20
   2   3  -2  683.73   38.20
  -2  -3  -2  657.63   29.00
   2  -3   2  641.64   43.70
  -2  -3  -2  629.04   26.20
  -2   3   2  632.94   43.50
   2  -3   2  638.84   36.10
  -2   3   2  672.83   29.90
  -2   3   2  665.73   26.20
   2  -3   2  719.73   29.10
  -2  -3  -2  672.03   35.70
  -2  -3  -2  669.03   36.40
   2  -3   2  702.53   33.90
   2   3   2  716.83   33.30
  -2  -3   2  627.44   43.00
  -2   3  -2  579.24   35.50
   2   3   2  693.13   35.70
   2   3   2  615.94   18.70
  -2  -3   2  670.73   45.60
   2   3   2  620.84   35.10
  -2  -3   2  675.53   30.10
  -2   3  -2  603.14   40.30
   2  -3  -2  635.84   26.30
   2  -3  -2  691.13   30.40
   2  -3  -2  639.24   38.80
   2   3   2  652.53   29.10
   2   3   2  672.63   19.40
   2   3   2  689.43   32.90
  -3  -3  -2 2416.66   73.39
   3  -3   2 2347.07   59.99
   3   3  -2 2161.68   78.29
  -3  -3  -2 2288.07   74.99
   3  -3   2 2279.07   87.29
  -3   3   2 2309.47   74.99
   3  -3   2 2330.97   67.59
   3  -3   2 2290.87   75.39
   3  -3   2 2389.76   83.49
   3   3  -2 2224.58   78.79
  -3   3   2 2338.27   53.69
   3   3  -2 2279.77   58.19
  -3   3   2 2258.17   88.49
  -3   3   2 2266.17   84.19
  -3  -3  -2 2308.37   74.39
   3   3   2 2495.35   75.49
   3   3   2 2249.27   79.09
   3   3   2 2343.77   77.39
   3  -3  -2 2199.38   68.09
   3   3   2 2440.16   73.09
   3  -3  -2 2379.26   73.59
  -3  -3   2 2392.26   71.89
  -3   3  -2 2231.68   83.19
   3  -3  -2 2170.38   77.39
  -3   3  -2 2189.38   60.39
  -3   3  -2 2322.77   75.49
  -3  -3   2 2300.87   94.69
  -4   3   2  171.88   36.10
   4  -3   2  175.38   31.30
  -4   3   2  223.18   29.00
   4   3  -2  150.28   28.50
  -4   3   2  135.79   32.80
   4  -3   2  146.19   32.20
   4  -3   2  167.78   40.30
   4   3  -2  249.38   36.00
  -4  -3  -2  176.58   43.50
  -4  -3  -2  185.18   30.20
  -4  -3   2  202.78   30.00
   4   3   2  210.78   38.40
   4   3   2  172.98   34.10
  -4   3  -2  204.08   25.10
  -4   3  -2  187.28   29.70
   4   3   2  203.38   31.20
   4  -3  -2  169.18   26.40
   4  -3  -2  163.18   27.80
  -4  -3   2  198.18   40.90
   4   3   2  210.68   26.70
  -4   3  -2  151.68   36.40
   5   3  -2  471.25   48.70
   5   3  -2  437.56   48.30
   5  -3   2  418.06   49.80
  -5   3   2  466.15   55.79
  -5  -3  -2  449.36   47.00
   5  -3   2  567.24   55.69
   5  -3   2  488.45   50.29
  -5   3   2  455.05   60.49
  -5   3   2  476.15   38.90
  -5  -3  -2  447.86   64.39
   5  -3   2  456.05   62.39
  -5   3  -2  498.95   59.59
   5  -3  -2  522.15   47.40
   5   3   2  439.66   38.30
  -5  -3   2  417.76   57.09
  -5   3  -2  493.55   42.40
   5   3   2  431.36   48.90
  -5  -3   2  516.85   49.80
   5   3   2  455.95   48.20
   5  -3  -2  478.35   44.30
   5   3   2  363.16   47.00
   6  -3   2   -3.80   34.70
  -6   3   2   45.90   40.70
  -6  -3  -2   29.90   36.70
   6  -3   2   13.20   47.80
   6   3  -2   36.80   29.90
   6  -3   2  124.89   39.90
  -6  -3  -2   52.49   47.80
  -6   3   2   98.19   38.10
   6   3   2   39.50   39.20
   6   3   2   79.79   38.50
  -6  -3   2   45.90   28.20
   6  -3  -2   -0.10   26.80
   6   3   2   -6.60   30.60
  -6   3  -2   -8.00   39.50
  -6   3  -2   32.30   42.60
  -6  -3   2   39.30   40.10
   6  -3  -2   27.00   28.70
  -7  -3  -2  111.89   52.29
   7   3  -2   46.00   35.20
  -7   3   2   89.29   47.50
   7  -3   2   41.90   42.00
  -7   3   2   65.39   38.00
   7  -3   2   29.80   38.60
   7  -3   2  -13.00   49.90
  -7  -3  -2  -63.09   43.60
  -7  -3   2   71.79   46.70
   7   3   2   35.20   42.90
   7  -3  -2   91.69   36.90
  -7   3  -2    8.80   39.50
   7   3   2   18.40   42.30
   7  -3  -2   90.99   40.50
  -7  -3   2   93.09   37.70
  -7   3  -2   61.79   45.30
   0   4   2   -2.80   12.30
   0   4   2    1.30    6.40
   0  -4   2   11.60   18.00
   0   4   2   -6.60   11.30
   0   4  -2    4.90   10.00
   0  -4  -2   -0.80    6.80
   0  -4   2    9.50   13.60
   0  -4   2    4.90   14.90
   0   4   2    4.30   11.40
   0  -4   2    3.50    8.70
   0  -4  -2   19.60   15.50
   0   4  -2  -10.40   12.60
   1  -4   2  149.69   21.60
   1  -4   2  164.98   29.20
  -1   4   2  131.49   21.40
  -1   4   2  160.38   23.80
   1   4  -2  124.89   13.70
  -1   4   2  145.39   11.30
  -1  -4  -2  117.69   21.30
   1  -4   2  162.38   22.00
  -1   4   2  144.09   18.40
   1   4  -2  155.38   20.50
   1   4   2  150.08   20.30
   1   4   2  177.38   22.90
   1  -4  -2  165.88   24.30
  -1   4  -2  131.19   22.00
  -1   4  -2  148.49   22.50
  -1  -4   2  163.58   29.00
   1   4   2  164.98   12.60
   1  -4  -2  161.58   12.80
  -1  -4   2  170.98   24.50
   1   4   2  135.89   16.40
  -1  -4   2  178.78   24.10
   2   4  -2  329.87   29.80
   2  -4   2  329.77   30.80
  -2  -4  -2  389.16   33.70
  -2   4   2  332.37   20.80
  -2  -4  -2  357.76   27.10
   2   4  -2  387.36   12.80
  -2   4   2  373.06   38.00
  -2   4   2  352.56   22.80
   2   4  -2  376.46   25.90
  -2   4   2  325.87   32.20
  -2   4   2  331.27   33.20
   2  -4   2  385.26   41.70
   2  -4   2  363.46   28.90
  -2  -4  -2  355.96   19.20
  -2   4  -2  325.07   35.90
  -2  -4   2  367.26   21.30
   2  -4  -2  344.97   19.40
   2   4   2  346.17   26.10
   2  -4  -2  329.77   33.10
  -2  -4   2  349.57   39.70
  -2   4  -2  306.67   30.40
   2   4   2  329.07   31.20
   2   4   2  334.27   26.30
   2   4   2  379.06   22.10
   2  -4  -2  373.96   24.00
   2   4   2  317.07   30.70
  -2  -4   2  337.67   37.70
  -3   4   2  698.33   48.80
   3  -4   2  774.32   44.30
  -3   4   2  770.92   54.09
  -3  -4  -2  733.53   44.60
  -3  -4  -2  717.63   41.60
   3  -4   2  739.33   55.99
   3  -4   2  778.72   37.30
   3   4  -2  690.23   45.00
   3   4  -2  717.93   45.30
  -3   4   2  757.72   25.90
   3   4  -2  717.73   31.40
  -3  -4  -2  680.03   33.60
  -3   4   2  716.73   46.70
  -3  -4   2  702.73   52.49
  -3   4  -2  662.83   51.29
  -3  -4   2  706.83   34.60
   3   4   2  720.93   44.00
   3  -4  -2  738.53   35.90
  -3  -4   2  652.03   59.09
   3  -4  -2  664.83   46.10
   3  -4  -2  739.33   39.50
   3   4   2  691.63   42.70
   3   4   2  751.72   40.60
   3   4   2  670.43   34.60
  -3   4  -2  751.22   45.80
  -4   4   2  379.56   40.50
  -4   4   2  356.76   48.20
   4  -4   2  328.07   38.30
  -4  -4  -2  355.36   37.40
   4  -4   2  295.17   47.90
   4   4  -2  367.16   41.00
  -4  -4  -2  245.48   50.09
   4  -4   2  294.97   41.30
   4   4  -2  387.76   43.50
  -4   4   2  382.96   49.00
   4   4   2  350.86   35.90
   4   4   2  337.47   43.50
   4  -4  -2  319.97   33.10
   4   4   2  371.96   45.70
   4   4   2  320.77   38.10
  -4   4  -2  314.57   38.00
   4  -4  -2  336.57   36.10
  -4  -4   2  339.97   52.69
   4  -4  -2  379.86   44.90
  -4  -4   2  327.67   33.20
  -4   4  -2  356.06   49.30
   5   4  -2  630.54   52.59
  -5  -4  -2  608.94   49.70
   5  -4   2  716.13   56.49
  -5  -4  -2  562.34   73.49
  -5   4   2  689.73   67.29
  -5   4   2  634.64   65.59
   5  -4   2  612.34   72.29
  -5   4   2  700.63   48.20
   5  -4   2  582.24   58.89
   5   4  -2  667.73   56.39
  -5  -4   2  641.44   71.99
  -5  -4   2  642.34   49.10
   5   4   2  590.54   58.49
  -5   4  -2  488.55   57.79
   5  -4  -2  675.03   48.50
   5  -4  -2  629.24   59.99
   5   4   2  545.65   50.79
  -5   4  -2  576.64   64.49
   5   4   2  609.14   45.00
  -5   4  -2  631.74   49.60
   5   4   2  644.84   65.49
   5  -4  -2  554.64   49.70
  -6   4   2  447.96   66.19
   6  -4   2  205.28   47.90
   6   4  -2  281.67   46.50
  -6  -4  -2  258.97   62.19
   6  -4   2  328.37   48.10
  -6   4   2  191.68   44.00
   6  -4   2  302.67   65.09
   6   4   2  427.66   61.49
   6  -4  -2  212.28   38.90
  -6  -4   2  316.57   62.39
  -6   4  -2  313.47   58.39
  -6   4  -2  230.58   54.69
   6   4   2  212.68   42.50
   6  -4  -2  397.36   56.19
   6   4   2  153.98   42.60
  -6  -4   2  281.97   45.30
   7  -4   2  315.47   60.79
  -7   4   2  569.54   77.19
  -7  -4  -2  516.55   78.59
   7   4  -2  388.16   59.59
  -7   4   2  478.85   67.39
  -7  -4  -2  250.87   59.59
   7  -4   2  458.55   57.99
   7  -4   2  329.07   70.59
   7  -4  -2  346.47   50.69
  -7   4  -2  445.16   65.99
  -7   4  -2  419.06   68.79
   7  -4  -2  584.04   68.39
   7   4   2  441.56   62.19
   7   4   2  328.07   59.39
  -7  -4   2  537.75   82.69
   0  -5  -2 5003.70  103.59
   0   5  -2 5059.69  116.79
   0   5   2 4952.30  122.79
   0   5   2 5037.70  123.89
   0  -5   2 4889.81  125.49
   0  -5   2 4918.91  121.49
   0  -5   2 4832.02  109.99
   0   5  -2 4890.91  126.19
   0   5   2 5004.00  102.29
   0  -5   2 4752.72  132.89
   0   5   2 4763.42  123.49
   0  -5  -2 4884.51  126.69
   1   5  -2   31.60   10.20
  -1   5   2    0.20   12.60
  -1   5   2   14.30    6.40
  -1   5   2   29.40   17.60
   1   5  -2   20.60   16.00
   1   5  -2   27.00    7.70
  -1   5   2   13.60   14.10
   1  -5   2   27.00   18.10
   1  -5   2   23.30   21.70
   1  -5   2    5.80   15.60
  -1  -5  -2   -6.30   18.70
   1   5   2   14.80   16.10
  -1  -5   2   26.90   17.20
  -1  -5   2   14.80   16.60
   1  -5  -2   12.80   18.50
  -1   5  -2    8.90   16.80
   1   5   2    8.40   10.60
  -1   5  -2   30.00   18.60
   1   5   2   22.10   14.50
  -1  -5   2   22.20   20.70
   1   5   2   13.00    7.00
  -2  -5  -2 2731.03   87.09
   2   5  -2 2786.22   80.79
   2  -5   2 2737.33   64.19
  -2   5   2 2691.63   73.89
   2  -5   2 2806.42   83.09
  -2   5   2 2703.13   91.59
   2   5  -2 2759.42   88.29
  -2   5   2 2682.73   88.19
  -2  -5  -2 2693.93   79.39
   2  -5   2 2881.01   83.39
  -2   5   2 2895.81   74.19
   2  -5   2 2718.03   98.99
   2  -5  -2 2733.03   72.69
  -2   5  -2 2583.84   86.89
  -2  -5   2 2606.24   94.39
   2   5   2 2800.72   78.19
   2   5   2 2762.12   75.29
   2   5   2 2696.93   67.69
   2   5   2 2634.14   85.39
  -2  -5   2 2724.33   63.29
  -2   5  -2 2858.51   93.49
  -2  -5   2 2821.22  101.49
   2  -5  -2 2729.83   64.59
   2  -5  -2 2757.52   89.29
   3  -5   2    3.00   27.20
   3   5  -2    1.70   18.70
   3   5  -2   20.40   18.60
  -3  -5  -2   41.20   18.80
  -3   5   2   -2.40   21.70
  -3   5   2   11.30   19.10
  -3   5   2   12.90   22.50
   3  -5   2   47.00   21.70
  -3  -5  -2   16.30   22.50
   3   5  -2   40.30   13.90
  -3  -5  -2   10.10   17.80
  -3   5   2   12.50    9.00
   3  -5   2   24.20   19.30
   3  -5  -2   -5.90   12.80
  -3  -5   2   29.70   10.80
   3   5   2   12.70   16.40
   3  -5  -2   11.00   15.40
   3   5   2   23.60   21.30
   3   5   2   14.90   13.30
  -3   5  -2   18.10   28.60
  -3  -5   2   16.40   30.90
   3   5   2   -5.40   18.70
  -3   5  -2   26.20   23.50
   3  -5  -2    6.80   21.20
  -3  -5   2   15.10   26.90
  -4   5   2 1295.47   67.99
   4   5  -2 1229.68   64.79
  -4   5   2 1204.18   73.59
   4  -5   2 1240.58   84.49
  -4  -5  -2 1222.48   56.79
  -4   5   2 1250.17   76.09
   4  -5   2 1258.77   61.59
   4   5  -2 1131.19   65.59
  -4   5  -2 1163.78   73.29
   4   5   2 1334.37   69.39
   4  -5  -2 1295.87   61.29
  -4   5  -2 1244.48   64.59
  -4  -5   2 1262.97   86.69
   4   5   2 1287.67   61.59
  -4   5  -2 1266.27   77.39
   4   5   2 1203.38   60.89
   4  -5  -2 1180.78   54.39
   4  -5  -2 1178.18   67.39
  -4  -5   2 1239.58   50.89
  -5   5   2   61.39   34.80
  -5  -5  -2   24.10   47.60
  -5   5   2   52.69   25.80
   5   5  -2   60.19   27.60
  -5  -5  -2   52.99   43.50
   5  -5   2   44.20   43.50
   5  -5   2   71.69   30.90
   5  -5   2   29.50   34.00
   5   5  -2   84.39   33.10
  -5   5   2   55.09   32.10
   5  -5  -2   40.10   24.20
   5  -5  -2   45.90   27.70
  -5   5  -2   66.49   33.00
   5   5   2   36.60   39.80
  -5  -5   2   60.39   44.10
  -5   5  -2   10.50   37.60
  -5   5  -2   78.29   41.10
   5   5   2   36.50   29.60
   5   5   2   28.70   32.70
   5  -5  -2   98.89   39.10
   5   5   2   74.29   26.20
   6  -5   2  150.38   47.20
  -6  -5  -2  162.28   61.19
   6   5  -2  178.68   43.00
   6  -5   2   95.79   55.79
  -6   5   2  110.59   31.50
  -6   5   2  123.19   40.40
  -6   5   2  212.18   53.69
   6  -5   2  151.88   39.30
   6   5   2  196.18   52.29
   6   5   2  119.69   42.10
   6  -5  -2  195.48   49.50
  -6   5  -2  123.19   49.80
  -6  -5   2  180.98   53.99
   6  -5  -2  126.59   38.60
  -6   5  -2   88.09   46.80
  -7  -5  -2  -87.19   42.40
  -7  -5  -2   81.09   59.09
   7   5  -2  -35.40   33.30
   7  -5   2  -37.50   49.10
   7  -5   2    2.40   42.30
  -7   5   2   72.39   42.80
   7   5   2   16.20   40.10
  -7   5  -2   66.89   49.70
  -7   5  -2    4.50   42.20
   7  -5  -2   29.00   43.00
  -7  -5   2   62.39   52.29
   7   5   2  -23.70   38.90
   0   6   2   95.29   23.60
   0  -6   2   56.99   13.40
   0   6   2   67.19   18.10
   0   6   2   62.89    8.80
   0   6  -2   72.79   25.10
   0  -6  -2   79.29   25.90
   0  -6  -2   79.69   13.00
   0  -6   2   69.09   20.50
   0   6  -2   79.79   18.80
   0  -6   2   65.79   23.10
   0   6   2   60.29   19.50
   0  -6   2   76.49   26.20
   1  -6   2   97.49   22.60
  -1   6   2   98.19   27.00
  -1   6   2   99.19   21.60
  -1   6   2  111.69   12.50
  -1  -6  -2  119.29   26.10
   1  -6   2   88.29   27.80
  -1   6   2   99.59   24.30
   1  -6   2   92.99   24.30
  -1   6   2   96.89   19.60
   1   6  -2  140.29   15.30
   1   6  -2  140.59   27.30
   1  -6   2  101.59   19.20
  -1  -6   2  134.89   27.30
   1   6   2  143.49   18.20
   1   6   2  141.69   27.70
  -1  -6   2   95.79   26.70
   1   6   2  105.69   10.50
   1   6   2  111.19   21.20
   1  -6  -2  149.69   29.40
  -1   6  -2  133.19   26.10
  -1   6  -2   76.69   24.50
  -2   6   2  180.38   21.60
  -2   6   2  136.79   29.60
  -2   6   2  140.39   18.60
   2   6  -2  194.38   28.20
   2  -6   2  133.89   34.30
   2  -6   2  165.88   19.70
  -2   6   2  197.78   32.90
   2   6  -2  152.58   27.20
   2  -6   2  203.58   27.80
  -2   6   2  166.68   27.50
   2  -6   2  184.58   31.40
  -2  -6  -2  129.09   30.20
  -2  -6  -2  197.78   28.90
  -2   6  -2  182.68   34.00
  -2   6  -2  186.58   33.90
  -2  -6   2  221.28   40.00
   2  -6  -2  154.18   28.90
   2   6   2  166.88   22.60
   2   6   2  151.38   28.40
  -2  -6   2  157.68   33.70
   2   6   2  136.89   16.50
   2   6   2  156.38   22.50
   3  -6   2  450.25   41.30
  -3  -6  -2  441.16   39.10
  -3   6   2  483.35   51.69
  -3   6   2  429.36   39.80
  -3   6   2  416.76   24.20
   3  -6   2  319.77   45.80
  -3  -6  -2  443.66   45.50
  -3   6   2  367.76   41.80
   3  -6   2  431.36   39.50
  -3  -6  -2  468.65   35.10
   3   6  -2  475.85   33.20
   3   6  -2  446.76   41.50
   3   6  -2  414.86   42.60
   3  -6  -2  392.16   43.10
  -3  -6   2  487.95   60.29
   3   6   2  422.16   43.10
   3  -6  -2  401.16   33.90
  -3   6  -2  459.45   51.19
   3   6   2  444.76   31.60
  -3   6  -2  422.46   49.30
  -3  -6   2  484.25   52.89
  -3   6  -2  443.46   47.40
   3   6   2  465.15   41.00
   3   6   2  415.26   33.60
   3  -6  -2  480.75   37.20
   4  -6   2  283.87   52.99
  -4   6   2  363.46   49.80
   4  -6   2  318.37   37.70
  -4  -6  -2  303.37   41.60
  -4   6   2  263.67   42.10
   4   6  -2  253.67   40.80
   4  -6   2  284.47   60.89
  -4  -6  -2  229.98   31.60
   4   6  -2  266.87   39.40
  -4   6  -2  288.47   45.90
  -4  -6   2  292.57   55.89
   4  -6  -2  266.37   34.80
  -4   6  -2  290.87   50.49
   4   6   2  295.27   42.30
  -4   6  -2  302.57   45.50
   4   6   2  291.17   35.40
   4   6   2  275.17   37.40
   4  -6  -2  367.86   48.80
  -5   6   2  604.44   65.99
   5   6  -2  562.14   55.99
  -5   6   2  514.95   61.79
   5  -6   2  330.17   57.79
  -5   6   2  585.74   55.29
  -5  -6  -2  336.77   66.39
   5   6  -2  605.14   58.89
   5  -6   2  519.95   50.89
  -5   6  -2  477.75   60.39
   5   6   2  510.65   58.99
  -5   6  -2  529.05   65.49
   5   6   2  601.64   52.79
   5  -6  -2  587.54   63.09
  -5  -6   2  541.95   72.99
  -5   6  -2  529.05   56.49
   5  -6  -2  603.54   53.39
  -6   6   2  288.97   54.79
   6   6  -2  326.67   54.09
  -6  -6  -2  317.07   72.79
  -6   6   2  350.06   60.89
   6  -6   2  185.28   61.59
   6  -6   2  455.25   64.89
  -6   6   2  273.37   41.30
   6   6   2  271.17   51.19
  -6  -6   2  279.77   65.69
  -6   6  -2  240.18   55.59
   6   6   2  326.47   62.69
  -6   6  -2  294.47   59.89
   6  -6  -2  322.57   56.99
   7  -6  -2  403.06   63.69
   7   6   2  220.68   54.39
   0  -7   2  118.19   17.50
   0  -7   2   72.09   23.10
   0   7  -2  108.49   31.10
   0   7   2  129.89   28.50
   0  -7   2   87.19   29.00
   0   7   2  111.49   12.30
   0   7   2   89.39   27.50
   0   7   2  108.39   22.00
   0   7   2  119.29   25.60
   0  -7   2  109.39   25.20
   0  -7   2   92.49   27.90
   0  -7  -2   91.49   28.90
   0  -7  -2  154.28   20.20
   0   7  -2  115.99   21.10
  -1   7   2 2649.83   84.99
  -1   7   2 2583.04   83.19
   1   7  -2 2527.65   89.89
   1  -7   2 2527.95   89.19
   1  -7   2 2610.94   77.79
   1   7  -2 2570.74   75.29
  -1  -7  -2 2496.65   90.99
  -1   7   2 2470.35   94.89
   1  -7   2 2483.55   99.59
   1  -7   2 2619.84   81.69
  -1   7   2 2478.85   91.69
  -1   7  -2 2434.86   92.49
  -1   7  -2 2517.65   69.89
   1   7   2 2475.05   91.29
  -1  -7   2 2611.94   91.49
  -1   7  -2 2678.93   86.19
   1   7   2 2520.15   68.99
   1  -7  -2 2464.05   90.59
  -1  -7   2 2404.66   94.09
   1   7   2 2585.34   82.59
   1  -7  -2 2538.55   78.09
  -1  -7   2 2491.55   92.89
  -2   7   2  255.27   39.70
   2  -7   2  242.68   31.60
   2  -7   2  228.48   37.80
  -2  -7  -2  232.28   37.90
   2   7  -2  219.68   31.90
   2  -7   2  140.59   38.00
  -2   7   2  237.18   40.10
  -2   7   2  201.88   31.20
   2  -7   2  188.28   24.10
  -2   7   2  159.98   22.40
  -2  -7  -2  199.38   33.20
   2   7  -2  156.18   29.70
  -2  -7   2  201.68   41.30
   2   7   2  185.68   26.50
   2  -7  -2  143.49   31.00
   2   7   2  166.58   35.10
  -2  -7   2  240.88   41.30
  -2   7  -2  207.48   36.60
  -2   7  -2  191.78   29.10
   2   7   2  148.09   23.50
  -2   7  -2  188.48   38.00
  -3   7   2 1425.56   69.79
   3  -7   2 1406.16   68.39
  -3   7   2 1439.76   49.99
  -3  -7  -2 1355.46   56.69
   3   7  -2 1444.06   72.69
   3   7  -2 1475.15   71.79
   3  -7   2 1434.96   63.59
   3   7  -2 1396.66   58.29
  -3   7   2 1424.56   73.29
  -3  -7  -2 1512.05   67.09
   3  -7   2 1385.66   85.59
  -3  -7  -2 1565.44   75.19
   3   7   2 1425.56   54.39
  -3  -7   2 1388.46   79.09
   3  -7  -2 1334.97   73.09
   3   7   2 1399.66   72.09
  -3   7  -2 1445.46   76.49
  -3   7  -2 1370.86   76.49
   3   7   2 1328.77   62.89
  -3  -7   2 1436.26   91.99
  -3   7  -2 1349.16   70.09
  -4   7   2   92.69   35.80
  -4   7   2   50.29   32.70
   4   7  -2   58.69   31.30
  -4  -7  -2   38.90   31.70
   4   7  -2   51.39   25.80
   4  -7   2   66.89   26.60
   4  -7   2   24.30   38.00
  -4  -7   2   67.49   44.80
  -4   7  -2   30.00   35.20
   4   7   2   64.39   31.70
   4   7   2   20.00   28.00
  -4   7  -2   47.50   33.40
  -4   7  -2   98.59   39.40
   4  -7  -2   50.59   30.60
   4  -7  -2   88.29   37.60
   5  -7   2  295.57   61.19
   5   7  -2  436.26   56.49
  -5   7   2  407.46   59.69
  -5   7   2  281.77   44.00
   5  -7   2  382.06   45.80
  -5  -7  -2  256.77   65.99
   5   7   2  378.96   52.19
  -5   7  -2  402.16   62.39
  -5   7  -2  290.67   50.19
  -5  -7   2  402.96   68.09
   5  -7  -2  455.45   61.59
   5   7   2  397.36   47.50
  -5   7  -2  375.96   54.09
  -6  -7  -2   42.50   55.99
  -6   7   2   41.10   29.00
   6   7  -2   37.80   37.70
  -6   7   2   91.79   42.10
   6  -7   2   42.70   51.89
   6   7   2   72.19   39.80
  -6   7  -2   54.49   48.00
   6   7   2    3.50   47.60
  -6  -7   2   22.00   49.40
   6  -7  -2   62.39   46.40
  -6   7  -2   60.19   43.00
   0  -8   2   11.50   23.40
   0  -8  -2   22.20   28.40
   0   8   2   -9.30   22.90
   0   8   2   29.80   27.40
   0   8   2   20.30   21.60
   0  -8   2   17.90   29.70
   0   8  -2  -35.40   25.20
   0   8  -2   19.20   17.20
   0  -8   2   -5.80   26.00
  -1   8   2   13.40   21.40
   1  -8   2   25.00   27.10
  -1   8   2   23.50   18.90
  -1   8   2    6.20   30.60
   1   8  -2   27.80   27.70
  -1   8   2   29.30   26.00
   1  -8   2   23.60   21.80
   1  -8   2   52.99   23.00
  -1  -8  -2   -1.40   29.00
   1  -8   2   21.50   31.80
  -1  -8   2   28.80   25.20
   1   8   2   16.80   19.30
  -1  -8   2    3.10   28.60
  -1  -8   2   25.80   30.90
  -1   8  -2    8.90   29.90
  -1   8  -2   37.00   22.70
   1   8   2   10.00   13.70
   1   8   2    9.70   26.00
   1  -8  -2   27.50   20.50
   1  -8  -2    5.70   26.00
   2   8  -2  243.08   36.50
   2  -8   2  176.58   40.10
  -2   8   2  174.78   25.30
  -2   8   2  214.18   40.60
  -2  -8  -2  219.18   38.40
   2   8  -2  248.18   36.50
  -2   8   2  186.18   42.60
  -2  -8  -2  167.78   37.30
  -2   8   2  233.08   33.80
   2  -8   2  211.98   39.80
   2  -8   2  193.68   30.60
  -2  -8   2  240.08   44.10
  -2   8  -2  244.58   43.00
   2  -8  -2  199.78   37.40
   2  -8  -2  230.98   40.70
  -2  -8   2  150.18   43.10
   2   8   2  206.38   41.40
   2   8   2  250.37   30.80
  -2   8  -2  227.28   38.30
   3   8  -2   77.79   26.40
  -3   8   2  131.79   36.30
  -3   8   2  111.49   30.90
   3   8  -2  103.69   25.90
   3  -8   2   72.89   26.80
  -3  -8  -2   90.19   35.30
   3  -8   2   91.69   36.40
  -3   8   2   79.29   35.90
   3  -8   2  111.19   44.40
  -3  -8  -2  116.19   24.00
   3   8  -2  105.19   33.30
  -3  -8  -2  113.59   32.60
  -3   8  -2  166.88   42.90
  -3   8  -2   50.99   34.10
  -3  -8   2  152.98   43.30
   3   8   2   27.80   29.90
  -3   8  -2  123.19   29.70
   3  -8  -2  103.29   39.30
  -3  -8   2  118.49   47.10
   4   8  -2  671.13   60.89
  -4  -8  -2  593.04   63.49
   4  -8   2  544.75   72.49
  -4  -8  -2  358.96   67.39
   4  -8   2  635.04   51.09
   4   8  -2  649.83   55.49
  -4   8   2  547.75   60.89
  -4   8   2  708.23   64.99
  -4   8  -2  549.45   59.09
  -4   8  -2  607.54   66.09
   4  -8  -2  652.33   67.19
  -4  -8   2  632.94   80.29
  -4   8  -2  594.04   66.49
   4   8   2  718.53   61.89
  -5   8   2   93.19   42.30
  -5   8   2   81.39   36.90
  -5  -8  -2   55.89   58.69
   5  -8   2   38.50   49.40
   5   8  -2  125.39   42.80
   5  -8  -2  125.69   50.09
  -5   8  -2   92.99   40.90
  -5   8  -2   43.10   41.10
  -5  -8   2  124.19   52.69
   5   8   2  112.99   35.40
  -5   8  -2   71.39   46.20
  -6   8   2  373.36   50.79
   6  -8   2  321.37   69.79
  -6   8   2  440.96   63.59
  -6  -8  -2  352.86   76.09
   6   8  -2  411.66   61.49
  -6   8  -2  415.06   67.29
  -6  -8   2  403.06   76.29
   6   8   2  475.35   68.49
   6  -8  -2  427.96   62.89
  -6   8  -2  447.76   59.49
   0   9  -2 1072.49   72.19
   0  -9  -2 1193.48   73.19
   0   9   2 1195.88   66.39
   0   9   2 1018.60   68.39
   0  -9   2 1283.17   76.99
   0   9   2 1250.57   73.69
   0  -9   2 1254.97   65.89
   0  -9   2 1251.57   77.29
  -1  -9  -2  479.55   55.59
   1  -9   2  528.65   47.00
   1  -9   2  522.85   59.29
  -1   9   2  309.47   37.60
  -1   9   2  450.25   55.89
   1  -9   2  453.45   58.39
   1   9  -2  457.65   50.29
  -1   9   2  525.35   55.09
  -1  -9  -2  540.05   58.69
   1  -9   2  437.26   43.30
  -1   9   2  506.95   42.80
  -1   9  -2  504.35   45.60
  -1  -9   2  566.54   61.49
   1   9   2  469.35   55.79
   1  -9  -2  427.66   53.79
   1   9   2  542.95   46.10
  -1  -9   2  522.45   61.09
  -1   9  -2  523.95   60.49
   2  -9   2 1189.88   76.79
  -2   9   2 1180.48   57.49
   2  -9   2 1113.19   81.79
  -2   9   2 1205.18   65.39
   2  -9   2 1172.68   59.59
  -2   9   2 1257.57   80.69
   2   9  -2 1172.48   65.99
   2   9  -2 1192.28   66.89
  -2  -9  -2 1086.39   75.69
  -2   9   2  934.41   72.79
  -2  -9  -2 1272.37   77.19
  -2  -9   2 1255.97   77.09
  -2  -9   2  871.81   76.69
   2   9   2 1249.57   77.39
   2  -9  -2 1193.58   79.29
   2   9   2 1211.58   58.89
   2  -9  -2 1149.39   67.89
  -2   9  -2 1208.98   69.09
  -2   9  -2 1155.48   77.39
   3  -9   2  195.48   47.00
   3   9  -2  231.58   39.30
   3   9  -2  304.57   39.50
   3   9  -2  283.97   46.80
  -3   9   2  359.26   53.69
  -3  -9  -2  268.07   43.20
  -3  -9  -2  225.98   48.30
   3  -9   2  274.97   55.69
  -3   9   2  201.38   38.40
  -3   9   2  296.17   50.89
   3  -9   2  295.77   41.20
   3  -9  -2  315.87   54.99
  -3  -9   2  279.07   57.89
   3  -9  -2  257.47   49.20
  -3   9  -2  225.28   51.09
   3   9   2  137.09   40.30
  -3   9  -2  264.87   47.80
  -3  -9   2  287.07   54.09
   4  -9   2  356.76   63.19
   4   9  -2  404.76   55.69
  -4   9   2  466.55   60.89
  -4   9   2  419.16   53.79
  -4  -9  -2  352.66   55.69
  -4  -9  -2  229.98   67.09
  -4  -9   2  384.46   65.89
  -4   9  -2  373.56   57.99
   4  -9  -2  355.66   58.39
   4  -9  -2  435.86   66.29
   4   9   2  432.86   54.19
  -4   9  -2  398.26   59.79
  -5   9   2   39.00   37.00
   5  -9   2   80.69   56.49
  -5   9   2   67.39   38.00
  -5  -9  -2  -29.60   57.09
   5   9  -2   82.59   39.00
  -5   9  -2   48.10   48.30
   5  -9  -2   71.89   48.50
  -5  -9   2  133.39   53.89
  -5   9  -2   89.29   41.80
   5   9   2   98.39   37.00
   6  -9  -2   80.99   68.79
   0 -10   2   13.90   39.00
   0 -10   2   26.80   30.00
   0 -10  -2   50.89   38.90
   0  10   2   53.29   35.20
   0  10   2    8.60   27.50
   0  10   2   11.70   29.40
   0  10  -2   25.30   34.60
   0 -10   2   -6.60   37.20
   1 -10   2   39.50   40.40
   1  10  -2   42.10   35.60
  -1  10   2   93.39   34.50
  -1 -10  -2   91.49   40.10
  -1  10   2   48.00   27.80
   1 -10   2   40.40   40.10
  -1 -10  -2   89.19   43.30
  -1  10   2   23.20   38.60
   1 -10   2   97.99   32.40
  -1 -10   2   67.09   43.10
   1 -10  -2   67.19   40.70
  -1  10  -2   63.59   36.80
   1  10   2   64.29   26.50
  -1 -10   2   68.69   39.30
  -1  10  -2   79.79   26.60
   1  10   2    9.70   32.10
  -2  10   2   -2.30   36.40
  -2 -10  -2   96.39   42.10
  -2 -10  -2   54.49   41.40
   2 -10   2   20.20   43.40
   2  10  -2   23.70   29.90
  -2  10   2   27.40   23.70
   2 -10   2    0.70   36.60
  -2  10   2    8.10   33.90
   2  10  -2   27.80   25.40
   2  10  -2   54.19   31.70
  -2  10   2    2.70   20.70
  -2 -10   2   30.70   38.60
   2  10   2   77.39   38.40
  -2  10  -2  -16.00   35.40
   2 -10  -2   28.70   43.10
   2  10   2   45.20   23.60
  -2  10  -2   30.40   31.40
   3 -10   2  281.57   53.09
  -3 -10  -2  293.17   54.39
   3  10  -2  332.17   51.39
   3  10  -2  351.66   44.40
  -3  10   2  307.57   45.20
  -3  10   2  297.67   53.69
  -3 -10  -2  337.57   50.69
   3 -10   2  297.77   62.59
  -3  10   2  254.87   49.70
   3 -10  -2  250.37   54.89
  -3  10  -2  289.17   51.29
   3  10   2  325.17   51.09
  -3 -10   2  313.17   58.39
  -3  10  -2  204.68   50.09
  -3 -10   2  309.17   56.49
  -4 -10  -2   19.40   39.40
  -4 -10  -2   19.70   56.59
   4  10  -2   27.50   33.80
  -4  10   2   -1.10   36.10
   4 -10   2   22.00   50.09
  -4  10   2   77.79   34.10
   4 -10  -2  -30.80   46.80
  -4 -10   2   86.59   49.50
   4 -10  -2  -44.50   48.10
  -4  10  -2   15.50   41.70
  -4  10  -2   22.70   40.50
   4  10   2   13.10   36.10
  -5  10   2  394.86   59.39
   5  10  -2  566.24   69.89
  -5  10   2  500.85   62.39
  -5 -10  -2  341.17   85.59
   5 -10   2  448.86   85.09
   5 -10  -2  416.36   64.99
   5 -10  -2  412.16   73.89
  -5 -10   2  427.96   70.99
  -5  10  -2  336.27   56.59
   5  10   2  310.37   58.19
  -5  10  -2  454.25   68.09
   5  10   2  393.66   52.19
   0 -11   2  822.42   80.69
   0  11   2  738.53   69.09
   0 -11   2  804.62   79.09
   0  11   2  839.42   72.29
   0  11   2  799.02   64.19
   0 -11  -2  807.02   83.59
   0  11  -2  783.52   73.99
   0 -11  -2  855.51   76.29
  -1 -11  -2  526.65   66.89
  -1 -11  -2  415.26   57.29
   1  11  -2  504.35   62.19
  -1  11   2  437.36   63.79
   1 -11   2  492.85   66.69
   1 -11   2  562.24   70.99
  -1  11   2  399.76   46.10
  -1  11   2  634.74   65.09
  -1 -11   2  547.85   67.99
   1 -11  -2  380.56   58.89
   1  11   2  506.75   50.49
  -1  11  -2  467.45   62.99
   1  11   2  423.76   60.59
  -1 -11   2  496.45   64.79
  -2 -11  -2  386.96   58.79
  -2  11   2  509.15   66.49
  -2 -11  -2  436.76   63.49
   2 -11   2  421.86   65.39
   2  11  -2  496.95   58.19
  -2  11   2  374.36   43.10
  -2  11   2  419.86   56.29
   2 -11   2  373.56   57.49
   2  11  -2  459.15   56.59
  -2 -11   2  461.85   64.19
   2  11   2  464.05   59.39
  -2  11  -2  468.55   53.39
  -2  11  -2  509.65   66.19
   2 -11  -2  339.97   61.89
  -3  11   2  255.77   51.19
  -3 -11  -2  309.47   52.89
   3  11  -2  311.67   51.19
  -3 -11  -2  349.47   61.49
  -3  11   2  212.68   49.20
   3 -11   2  283.97   56.99
   3 -11   2  220.48   62.09
  -3 -11   2  284.87   58.09
   3  11   2  234.58   50.29
  -3  11  -2  223.18   53.39
   3 -11  -2  210.98   56.19
  -3  11  -2  287.47   49.90
   4 -11   2  211.98   64.69
  -4  11   2  218.28   54.29
  -4 -11  -2  313.87   55.49
   4  11  -2  177.88   46.10
  -4 -11  -2  134.19   70.79
   4 -11  -2   75.79   52.79
  -4  11  -2  223.98   55.09
   4  11   2  240.98   52.29
  -4 -11   2  226.08   77.69
  -4  11  -2  259.27   53.49
   0 -12  -2  -38.40   42.50
   0  12   2   45.90   31.50
   0  12  -2  -16.20   37.60
   0 -12   2   36.70   45.60
   0 -12  -2   12.40   53.39
   0 -12   2  -11.10   44.30
   0  12   2    7.90   33.20
   0  12  -2 -105.39   34.00
   1  12  -2   42.00   40.80
  -1  12   2   16.90   29.90
  -1  12   2    0.30   32.60
  -1 -12  -2   65.29   50.79
   1 -12   2   17.60   45.70
   1 -12   2   59.19   46.10
  -1 -12  -2   68.59   54.79
  -1  12   2   14.80   40.90
  -1 -12   2   22.80   49.40
   1 -12  -2   28.60   50.09
  -1 -12   2   10.80   41.40
  -1  12  -2   35.90   43.40
   1  12   2   47.50   29.00
   1  12   2   -6.70   36.60
   2  12  -2  194.88   46.00
   2 -12   2  115.89   51.69
   2  12  -2   59.39   36.00
  -2 -12  -2   68.69   48.30
  -2 -12  -2  138.49   54.69
  -2  12   2   72.79   42.70
   2 -12   2  141.19   57.49
  -2  12   2   80.39   45.50
  -2  12  -2  131.39   49.00
  -2 -12   2  161.08   51.69
   2 -12  -2  -32.90   44.80
   2  12   2   68.29   44.20
  -3 -12  -2   79.99   49.70
   3 -12   2   84.19   48.00
  -3 -12  -2  145.39   47.20
   3 -12   2  101.99   51.79
   3  12  -2   32.00   35.50
  -3  12   2   50.39   41.20
  -3 -12  -2  -87.39   59.69
   3  12   2   53.09   43.00
   3 -12  -2  -56.39   47.40
  -3  12  -2   15.60   46.30
  -3  12  -2   49.00   35.90
   0 -13   2  162.98   54.69
   0 -13   2  213.88   63.29
   0  13   2  196.28   43.30
   0 -13  -2  100.59   56.99
   0  13  -2   70.79   45.60
   0 -13  -2  152.78   64.19
   0  13   2   76.09   38.40
  -1  13   2  506.55   56.99
   1 -13   2  734.13   87.09
  -1 -13  -2  539.15   78.69
  -1 -13  -2  453.45   71.39
   1  13  -2  607.94   70.99
  -1  13   2  480.95   59.09
   1 -13   2  625.54   81.29
  -1  13  -2  454.45   65.59
  -1  13  -2  585.34   72.89
   1  13   2  456.85   62.59
   1 -13  -2  468.95   82.89
  -1 -13   2  684.53   79.19
   1 -13  -2  430.96   70.89
   2 -13   2  142.09   55.29
  -2  13   2   91.79   53.59
   2  13  -2   72.69   37.60
   2  13  -2  133.09   43.70
   2 -13   2  119.49   54.79
  -2 -13  -2  124.79   57.39
   2 -13  -2   62.09   58.19
  -2  13  -2   26.10   49.30
   0   0   3    4.90   11.90
   0   0   3   -4.00   10.80
   0   0   3    8.60   14.10
   0   0  -3  -12.50    8.00
   0   0   3    5.90   11.20
   1   0  -3 1598.34   51.89
  -1   0  -3 1537.65   50.89
  -1   0   3 1550.04   52.69
  -1   0   3 1627.74   55.89
  -1   0  -3 1566.94   43.30
  -1   0  -3 1555.84   59.59
  -1   0   3 1568.34   57.89
  -1   0   3 1656.13   52.29
   1   0   3 1477.35   54.39
  -1   0   3 1495.65   64.59
  -1   0   3 1616.14   60.39
   1   0   3 1551.34   55.59
   1   0   3 1595.04   57.79
   1   0   3 1572.74   53.69
  -2   0   3  381.86   27.80
  -2   0   3  398.46   39.80
  -2   0   3  423.06   27.20
  -2   0  -3  408.66   18.30
  -2   0   3  399.16   33.60
  -2   0  -3  383.16   35.30
   2   0   3  436.76   32.20
   2   0  -3  358.06   27.70
   2   0  -3  410.36   28.30
   2   0   3  369.36   30.30
   2   0   3  405.96   35.40
  -3   0   3  433.76   48.20
   3   0   3  442.56   41.00
  -3   0   3  440.66   39.00
   3   0   3  450.15   38.70
   3   0  -3  500.05   35.50
  -3   0  -3  472.55   42.90
   3   0   3  421.16   41.70
   3   0   3  425.16   33.40
   3   0  -3  441.66   33.50
  -3   0   3  456.15   30.30
   4   0  -3  788.02   48.30
   4   0   3  725.23   44.90
  -4   0  -3  725.83   58.59
   4   0   3  787.22   56.09
  -4   0   3  746.13   57.69
   4   0  -3  721.63   49.00
  -4   0   3  747.93   37.60
  -4   0  -3  752.32   61.89
   4   0   3  728.33   54.19
   4   0   3  762.72   55.29
  -4   0   3  725.03   64.29
   5   0   3   70.19   40.10
  -5   0  -3  169.58   39.60
   5   0   3  110.39   25.80
   5   0   3   89.19   39.10
  -5   0  -3  154.48   43.30
   5   0   3  151.48   37.20
  -5   0   3   87.99   38.40
  -5   0  -3  162.38   31.60
  -5   0   3  126.79   38.50
   5   0  -3  143.39   30.10
   5   0  -3  149.69   31.50
   5   0   3  108.79   36.40
  -6   0   3  728.83   82.69
   6   0  -3  765.72   62.49
  -6   0  -3  699.83   70.89
  -6   0   3  705.93   79.29
   6   0   3  586.44   70.09
   6   0   3  748.43   68.79
   6   0   3  469.75   85.29
  -7   0  -3  -52.79   46.40
   7   0  -3   25.00   31.30
   7   0   3   -0.20   41.20
  -7   0   3   99.99   44.30
  -7   0  -3  -42.00   45.80
   7   0   3   47.30   44.90
  -7   0   3   77.79   45.80
   0   1   3 1671.93   60.79
   0   1   3 1632.34   55.59
   0  -1  -3 1724.93   52.89
   0  -1   3 1709.33   56.69
   0  -1   3 1702.43   56.59
   0  -1   3 1670.83   60.79
   0   1   3 1644.14   58.59
   0   1   3 1711.53   54.39
   0   1   3 1705.93   52.79
   0   1  -3 1639.24   58.09
   0  -1   3 1663.23   57.99
   1  -1   3 1925.61   62.99
   1  -1   3 1925.51   63.49
  -1  -1  -3 1913.01   67.89
  -1  -1  -3 1915.51   54.69
   1  -1   3 1951.10   66.19
  -1  -1  -3 1947.41   54.29
  -1   1   3 1904.71   58.79
  -1   1   3 1959.60   56.29
  -1   1   3 1873.11   73.99
  -1   1   3 1843.52   63.09
  -1   1   3 1834.62   66.19
  -1  -1   3 1891.51   60.89
   1  -1  -3 2039.40   56.79
  -1   1  -3 1877.31   45.80
  -1  -1   3 1908.41   69.49
   1   1   3 1832.12   63.49
   1   1   3 1998.30   61.99
   1   1   3 2021.70   56.69
   1  -1  -3 1965.30   62.99
   1   1   3 1856.91   62.39
  -1  -1   3 1847.52   63.39
  -1  -1   3 1846.52   60.79
  -1   1  -3 1984.90   67.39
  -1  -1   3 1898.31   70.89
  -1  -1   3 1794.42   60.39
   2   1  -3  765.12   40.70
   2   1  -3  797.42   41.00
  -2   1   3  790.82   45.30
  -2   1   3  725.93   38.50
  -2  -1  -3  721.83   44.50
   2  -1   3  722.93   39.80
   2  -1   3  726.33   43.50
  -2  -1  -3  713.13   34.60
  -2  -1  -3  779.92   31.00
  -2   1   3  812.52   34.60
   2  -1   3  795.22   45.00
  -2   1   3  725.33   49.80
   2  -1  -3  785.42   35.20
   2  -1  -3  793.92   36.20
  -2  -1   3  784.12   36.80
  -2   1  -3  783.52   46.80
  -2  -1   3  754.32   41.80
   2   1   3  822.72   42.90
  -2  -1   3  763.82   51.39
  -2  -1   3  836.72   50.29
   2   1   3  708.83   40.00
   2   1   3  848.82   36.10
  -2  -1   3  774.02   36.70
   2   1   3  823.02   43.50
   3   1  -3 1160.78   55.29
   3  -1   3 1244.28   53.49
  -3   1   3 1213.18   70.69
  -3   1   3 1276.17   42.00
  -3   1   3 1300.97   51.59
  -3   1   3 1194.08   60.09
   3  -1   3 1195.68   60.69
   3  -1   3 1198.58   60.69
   3   1  -3 1144.69   54.39
   3   1  -3 1148.09   39.10
   3  -1   3 1259.67   59.89
  -3  -1  -3 1172.38   60.99
  -3  -1   3 1155.78   55.49
   3   1   3 1152.58   52.89
  -3   1  -3 1183.98   60.59
  -3  -1   3 1172.68   45.00
  -3  -1   3 1183.78   70.49
   3   1   3 1231.08   50.69
   3   1   3 1094.39   57.99
   3  -1  -3 1200.58   52.09
   3  -1  -3 1186.28   49.60
   3   1   3 1165.88   56.29
  -4   1   3  557.44   53.69
   4  -1   3  556.84   52.79
   4  -1   3  556.94   50.89
  -4   1   3  606.24   36.70
  -4   1   3  552.14   59.99
   4   1  -3  550.44   43.40
  -4  -1  -3  571.84   50.69
   4  -1   3  485.65   52.59
   4   1  -3  529.35   43.70
   4  -1   3  461.55   38.80
   4   1   3  524.15   46.20
   4   1   3  497.45   49.60
   4   1   3  545.85   51.99
   4  -1  -3  550.84   40.00
  -4  -1   3  521.95   58.39
   4  -1  -3  504.75   41.30
  -4   1  -3  494.95   49.80
  -4  -1   3  603.34   49.80
   4   1   3  598.54   41.60
   4   1   3  568.14   45.80
  -4  -1   3  565.94   30.40
  -4   1  -3  501.45   54.39
  -4   1  -3  516.95   43.90
   5  -1   3  216.28   46.30
  -5   1   3  233.78   51.59
  -5  -1  -3  218.18   45.70
   5  -1   3  280.27   32.50
   5   1  -3  238.28   37.10
   5   1  -3  286.57   43.60
  -5  -1  -3  230.48   49.10
  -5   1   3  310.97   51.79
   5  -1   3  251.27   51.09
   5  -1   3  297.67   47.00
   5  -1  -3  272.87   37.50
  -5   1  -3  391.16   42.00
   5   1   3  252.67   46.20
   5   1   3  215.58   44.60
   5   1   3  284.07   34.00
   5   1   3  247.28   42.70
   5  -1  -3  348.97   42.70
   5   1   3  273.87   43.30
  -5   1  -3  231.58   49.40
  -5  -1   3  279.17   46.10
  -5  -1   3  399.06   64.59
   6   1  -3  103.19   34.70
  -6   1   3   88.69   43.70
   6  -1   3   62.99   39.30
   6  -1   3   67.59   48.90
  -6  -1  -3  131.89   46.50
   6  -1   3  118.39   44.10
  -6   1   3  210.98   60.29
  -6  -1  -3   68.69   42.60
   6   1   3  125.49   45.60
   6  -1  -3  130.99   34.90
  -6  -1   3  167.88   43.40
  -6  -1   3  145.49   54.09
  -6   1  -3   80.69   46.90
   6   1   3  175.08   48.20
   6   1   3  139.89   45.70
   7  -1   3    0.70   46.90
  -7   1   3   85.59   53.69
   7  -1   3   79.19   47.00
  -7  -1  -3   27.70   50.59
   7   1  -3   73.49   35.00
  -7   1   3   76.29   41.60
  -7   1  -3   43.20   50.69
  -7  -1   3   86.29   42.10
   7  -1  -3   67.39   33.90
  -7  -1   3  110.69   52.39
   7   1   3   58.89   46.60
  -7   1  -3   56.59   56.99
   7   1   3   37.80   44.10
   0  -2  -3 1455.85   51.19
   0   2   3 1411.76   56.79
   0   2   3 1405.06   51.69
   0  -2   3 1373.66   58.29
   0  -2   3 1436.36   53.79
   0   2  -3 1432.46   52.29
   0   2   3 1495.15   47.20
   0  -2  -3 1458.55   38.90
   0  -2   3 1377.76   53.29
  -1   2   3  253.27   23.40
   1  -2   3  278.07   28.70
  -1  -2  -3  206.38   16.30
  -1  -2  -3  249.78   23.80
  -1   2   3  266.37   20.20
   1  -2   3  166.18   22.40
  -1   2   3  199.48   24.70
   1  -2   3  247.18   32.00
  -1   2   3  170.38   22.30
   1   2   3  198.08   24.00
  -1   2  -3  223.88   27.40
   1  -2  -3  229.38   27.80
  -1   2  -3  232.38   11.30
  -1  -2   3  200.28   23.80
   1  -2  -3  250.67   17.20
  -1  -2   3  221.68   28.90
   1   2   3  222.18   16.80
   1   2   3  280.57   27.20
   1   2   3  250.47   27.90
  -1  -2   3  236.38   24.90
  -1  -2   3  226.88   25.90
  -1  -2   3  304.07   36.30
   1  -2  -3  258.67   18.10
  -1   2  -3  250.47   11.90
  -2  -2  -3  708.73   32.60
  -2   2   3  787.02   42.00
   2  -2   3  763.22   48.00
   2   2  -3  800.72   35.20
  -2  -2  -3  784.72   46.10
   2  -2   3  793.62   41.00
  -2   2   3  807.12   54.19
  -2   2   3  769.52   46.10
  -2  -2  -3  784.62   35.80
   2  -2   3  736.33   44.70
   2   2  -3  813.52   44.00
  -2   2   3  816.02   34.80
  -2  -2   3  890.31   42.40
   2  -2  -3  815.02   46.10
  -2  -2   3  823.22   53.09
   2  -2  -3  791.22   33.40
  -2   2  -3  785.82   48.50
   2   2   3  837.72   44.50
   2  -2  -3  825.82   36.00
  -2  -2   3  777.02   50.79
   2   2   3  837.72   43.50
  -2  -2   3  867.61   37.90
   2   2   3  806.82   30.10
   2   2   3  856.31   44.50
  -3  -2  -3  580.44   45.70
  -3   2   3  639.14   54.69
  -3   2   3  574.84   38.90
   3  -2   3  583.84   47.80
  -3  -2  -3  625.54   35.30
   3  -2   3  634.44   50.69
   3   2  -3  630.24   28.70
   3   2  -3  607.94   43.40
  -3   2   3  667.83   29.30
  -3   2   3  616.54   46.80
   3  -2   3  643.64   39.80
   3   2  -3  633.74   43.70
   3   2   3  547.15   44.90
   3   2   3  710.03   44.50
   3  -2  -3  683.53   38.70
   3   2   3  629.44   32.90
  -3   2  -3  633.04   44.90
  -3  -2   3  714.93   58.19
  -3  -2   3  662.33   32.60
  -3  -2   3  654.33   41.90
  -3   2  -3  623.24   41.80
   3  -2  -3  658.63   35.20
   3   2   3  689.03   43.70
  -3   2  -3  661.13   50.49
  -4  -2  -3  433.76   47.40
   4   2  -3  362.16   40.60
   4  -2   3  363.26   45.90
   4  -2   3  355.36   43.50
  -4   2   3  362.66   53.09
  -4   2   3  371.56   49.20
  -4   2   3  345.77   33.70
   4   2  -3  412.36   40.90
   4  -2   3  404.16   37.00
   4  -2   3  435.96   52.89
   4   2   3  388.36   41.70
  -4   2  -3  314.37   45.00
   4   2   3  382.06   37.30
   4   2   3  370.76   37.80
  -4  -2   3  361.16   39.80
  -4  -2   3  377.16   51.99
   4  -2  -3  421.66   37.70
  -4   2  -3  393.36   41.70
   4   2   3  349.17   43.30
   4  -2  -3  395.36   34.20
   4   2   3  449.66   47.30
   5  -2   3  705.83   62.69
  -5   2   3  585.54   70.29
  -5   2   3  664.33   43.00
   5  -2   3  459.75   57.19
   5  -2   3  679.93   49.00
   5   2  -3  687.73   56.79
  -5   2   3  691.23   73.29
   5   2  -3  737.93   58.19
  -5  -2  -3  616.74   79.39
   5  -2   3  544.15   65.49
  -5  -2  -3  629.74   61.99
   5   2   3  619.04   57.69
   5  -2  -3  672.23   50.99
   5   2   3  571.74   60.39
   5   2   3  543.25   59.89
   5  -2  -3  685.03   49.80
  -5  -2   3  593.34   70.09
   5   2   3  672.53   48.10
  -5   2  -3  594.44   63.09
  -5   2  -3  595.24   50.99
  -5  -2   3  705.53   59.99
  -6   2   3  115.39   48.00
   6  -2   3   38.20   41.40
   6  -2   3  115.99   44.90
   6   2  -3  104.09   34.40
  -6   2   3  137.79   53.89
  -6  -2  -3   61.09   47.30
   6  -2   3  133.29   52.59
  -6  -2  -3   62.99   39.60
  -6  -2   3  115.59   39.60
   6   2   3   60.59   42.00
   6  -2  -3  114.49   33.60
   6   2   3   89.59   43.20
  -6   2  -3  106.39   51.59
  -6  -2   3  168.48   55.29
   6   2   3  101.49   38.80
   7  -2   3  205.28   62.59
  -7   2   3  317.77   63.69
   7   2  -3  392.76   59.39
  -7   2   3  442.86   74.29
   7  -2   3  392.86   61.29
   7  -2   3  281.67   58.69
   7  -2  -3  422.06   55.59
   7   2   3  416.36   64.99
  -7   2  -3  212.18   62.79
   7   2   3  294.87   59.09
  -7   2  -3  272.37   61.79
  -7  -2   3  335.37   65.29
  -7  -2   3  388.66   58.09
   0   3  -3 2002.40   68.29
   0  -3   3 2102.89   68.89
   0  -3  -3 1865.81   49.99
   0   3   3 1961.80   71.19
   0   3  -3 2061.69   65.09
   0   3   3 2135.69   67.19
   0  -3  -3 2105.99   68.49
   0  -3   3 2181.08   65.39
   0   3   3 2079.09   57.29
   0  -3   3 2072.39   68.49
   0   3   3 2084.19   69.89
   1  -3   3  364.46   32.00
   1   3  -3  385.36   29.00
   1   3  -3  381.06   25.30
  -1   3   3  353.86   20.50
  -1  -3  -3  394.16   31.20
  -1  -3  -3  365.06   14.70
  -1   3   3  341.97   32.60
   1  -3   3  406.06   38.90
   1  -3   3  367.86   31.60
  -1   3   3  361.96   33.00
  -1   3   3  359.76   28.00
   1  -3  -3  368.26   19.10
  -1   3  -3  371.66   14.10
  -1   3  -3  360.36   33.20
  -1  -3   3  435.86   35.60
  -1   3  -3  437.86   35.20
   1  -3  -3  369.26   33.70
   1   3   3  401.66   29.00
   1  -3  -3  383.66   16.80
  -1  -3   3  403.46   32.20
   1   3   3  379.36   32.50
   1   3   3  421.56   33.20
  -1  -3   3  384.86   38.80
  -2   3   3 2189.88   75.59
   2  -3   3 2180.98   72.99
  -2  -3  -3 2175.88   77.79
  -2  -3  -3 2094.59   67.49
   2   3  -3 2068.89   65.19
  -2   3   3 2056.39   88.19
  -2   3   3 2320.77   64.19
   2   3  -3 2214.38   77.49
   2  -3   3 2109.19   74.99
   2  -3   3 2241.88   84.49
  -2  -3  -3 2127.29   56.89
   2   3  -3 2273.07   61.19
  -2   3   3 2098.69   79.19
   2  -3  -3 2213.98   78.89
   2  -3  -3 2238.08   64.39
  -2  -3   3 2249.18   86.49
  -2   3  -3 2111.39   76.59
   2   3   3 2341.87   67.09
   2   3   3 2284.17   73.39
  -2  -3   3 2219.28   87.49
   2  -3  -3 2206.58   59.19
   2   3   3 2200.78   75.39
  -2   3  -3 2049.99   78.99
  -2  -3   3 2279.27   69.99
   2   3   3 2245.08   74.09
  -3   3   3  362.96   47.90
  -3  -3  -3  312.97   32.50
   3   3  -3  398.56   42.50
   3   3  -3  350.26   37.50
  -3   3   3  437.56   41.10
   3  -3   3  356.96   34.70
  -3   3   3  260.77   33.60
  -3   3   3  327.57   22.40
   3   3  -3  318.87   23.90
   3  -3   3  320.07   37.70
  -3  -3  -3  324.57   38.40
   3  -3   3  349.96   45.60
   3   3   3  300.97   34.10
  -3   3  -3  337.07   39.50
  -3   3  -3  338.07   44.30
   3   3   3  390.56   41.30
   3  -3  -3  332.37   28.60
  -3  -3   3  338.37   47.40
   3   3   3  362.06   34.20
   3   3   3  326.07   34.60
   3  -3  -3  384.06   43.30
  -3  -3   3  416.86   52.59
  -3  -3   3  330.67   31.50
   3  -3  -3  341.37   25.60
  -4   3   3  556.04   54.69
   4  -3   3  549.74   41.20
  -4   3   3  553.64   59.19
  -4   3   3  597.44   43.90
   4   3  -3  632.24   49.20
   4  -3   3  576.74   62.89
   4  -3   3  585.34   52.99
   4   3  -3  560.74   48.40
  -4  -3  -3  514.15   49.70
  -4  -3   3  586.04   43.30
   4  -3  -3  568.44   38.60
   4   3   3  525.75   49.60
   4  -3  -3  619.04   42.70
   4   3   3  563.04   45.70
  -4  -3   3  504.35   66.09
   4  -3  -3  571.74   51.09
   4   3   3  604.44   46.60
  -4   3  -3  530.65   56.09
  -4   3  -3  601.94   49.50
   4   3   3  545.45   54.59
  -5   3   3  140.89   40.90
  -5   3   3  233.48   52.39
   5  -3   3  190.38   44.00
   5   3  -3  194.88   37.30
  -5   3   3  196.08   30.50
   5  -3   3  154.78   45.10
   5   3  -3  252.57   45.00
   5  -3   3  145.79   41.20
  -5  -3  -3  214.08   56.09
  -5  -3  -3  141.19   37.60
  -5   3  -3  203.18   38.70
   5   3   3  150.58   40.60
  -5  -3   3  223.98   36.30
  -5  -3   3  278.27   59.69
   5   3   3  166.08   42.80
  -5   3  -3  156.98   48.10
   5   3   3  152.28   37.80
   5  -3  -3  253.67   47.00
   5  -3  -3  155.98   31.90
   5   3   3  150.88   32.20
   5  -3  -3  195.28   33.40
  -6  -3  -3   71.39   38.20
  -6   3   3  102.39   45.30
   6  -3   3  154.28   48.30
   6  -3   3  128.19   50.49
   6   3  -3  180.28   44.80
   6  -3   3  246.58   51.59
  -6  -3  -3  134.59   53.09
  -6   3   3  247.78   55.99
   6  -3  -3  230.98   50.09
  -6  -3   3  211.28   39.70
  -6   3  -3   54.09   50.69
   6   3   3   41.40   41.80
   6  -3  -3  176.98   37.90
  -6  -3   3  117.69   47.00
   6   3   3   71.99   42.10
   7   3  -3  173.38   50.09
   7  -3   3  139.99   57.19
  -7   3   3  211.98   59.49
   7  -3   3  217.28   54.49
  -7   3   3  105.99   50.59
   7  -3   3  145.69   72.49
  -7  -3  -3  183.28   63.79
  -7   3  -3   51.29   60.79
  -7   3  -3  128.89   56.09
   7   3   3   88.89   54.79
   7   3   3   89.29   47.40
   7  -3  -3  225.88   54.89
  -7  -3   3  132.79   65.69
   0   4   3  437.66   33.30
   0   4   3  439.46   35.50
   0  -4   3  425.96   42.50
   0   4   3  443.26   23.20
   0   4  -3  445.36   30.70
   0  -4   3  417.26   34.90
   0  -4  -3  439.26   36.40
   0   4  -3  425.16   35.50
   0  -4   3  432.46   28.30
   0   4   3  430.96   35.50
  -1  -4  -3  651.53   42.50
  -1   4   3  601.74   35.80
  -1   4   3  638.64   42.90
   1  -4   3  596.34   40.50
  -1   4   3  679.03   43.00
   1   4  -3  654.93   31.90
   1  -4   3  690.13   50.29
   1   4  -3  677.03   38.50
  -1   4   3  649.93   24.00
   1   4   3  649.14   40.10
  -1  -4   3  584.84   47.40
   1  -4  -3  608.44   42.50
  -1  -4   3  613.94   40.20
   1   4   3  630.04   33.50
  -1   4  -3  619.64   43.40
  -1  -4   3  693.83   42.20
  -1   4  -3  710.63   42.70
   1   4   3  569.94   38.60
  -2   4   3  421.86   39.70
  -2   4   3  389.96   28.00
  -2  -4  -3  421.76   39.50
   2  -4   3  444.86   46.40
   2   4  -3  437.56   37.30
   2   4  -3  444.76   30.60
   2   4  -3  432.76   23.20
  -2  -4  -3  476.65   37.80
   2  -4   3  386.86   37.80
  -2   4   3  380.06   37.10
  -2  -4   3  454.25   47.30
   2  -4  -3  442.16   20.50
   2   4   3  421.76   35.20
  -2   4  -3  426.76   43.80
  -2   4  -3  380.86   38.40
   2   4   3  425.96   27.80
   2  -4  -3  451.85   41.20
  -2  -4   3  423.36   28.70
   2  -4  -3  457.05   25.40
   2   4   3  419.66   36.90
  -2  -4   3  429.96   45.40
   2   4   3  385.76   35.40
   3  -4   3  537.45   46.10
   3  -4   3  513.95   55.09
  -3  -4  -3  581.04   42.70
   3   4  -3  500.25   31.10
  -3   4   3  502.85   43.20
  -3   4   3  476.65   46.40
  -3   4   3  559.84   27.80
   3   4  -3  550.94   45.50
  -3  -4  -3  532.45   45.10
   3   4  -3  498.35   44.00
  -3   4   3  540.35   54.39
   3   4   3  566.84   40.30
   3   4   3  609.34   45.90
   3  -4  -3  612.64   36.00
   3  -4  -3  592.54   31.40
   3   4   3  576.54   47.10
  -3   4  -3  506.55   45.60
   3   4   3  567.74   39.90
  -3   4  -3  555.84   52.49
  -3  -4   3  565.14   36.00
   3  -4  -3  522.95   48.50
  -3  -4   3  596.34   56.89
  -3  -4   3  591.64   60.29
   4   4  -3  515.55   49.00
  -4   4   3  475.35   62.19
  -4   4   3  556.74   45.50
  -4  -4  -3  430.76   47.10
   4  -4   3  391.96   54.29
   4   4  -3  496.85   47.50
  -4   4   3  471.15   53.69
   4  -4   3  520.55   51.69
   4   4   3  397.06   46.30
  -4  -4   3  487.75   66.29
  -4  -4   3  482.75   38.30
  -4   4  -3  447.86   53.69
  -4   4  -3  508.15   50.19
   4   4   3  534.75   44.30
   4   4   3  536.95   56.69
   4  -4  -3  503.65   40.10
   4  -4  -3  496.05   50.59
   4  -4  -3  541.45   37.70
   4   4   3  497.05   46.50
  -5   4   3  613.64   78.09
  -5  -4  -3  362.16   70.79
  -5  -4  -3  365.96   47.60
   5  -4   3  204.78   49.80
  -5   4   3  286.77   48.60
   5   4  -3  456.45   71.39
   5  -4   3  409.76   51.29
   5   4  -3  476.95   60.29
  -5   4   3  411.86   42.90
  -5  -4   3  514.55   59.69
   5   4   3  420.46   59.39
  -5   4  -3  426.76   51.29
  -5  -4   3  394.06   63.99
  -5   4  -3  349.47   58.19
   5   4   3  381.86   55.09
   5   4   3  450.75   46.30
   5  -4  -3  510.95   58.29
   5  -4  -3  420.26   45.30
  -6   4   3  411.66   68.39
   6   4  -3  513.85   67.79
   6  -4   3  230.48   56.09
  -6   4   3  266.27   57.49
  -6  -4  -3  252.17   62.69
   6  -4   3  420.76   56.09
   6  -4  -3  390.66   60.19
   6   4   3  241.68   53.49
  -6  -4   3  233.78   57.29
  -6   4  -3  216.48   58.29
  -6   4  -3  349.57   65.19
   6   4   3  401.66   66.29
  -7   4   3  125.89   67.19
   7  -4   3  192.38   54.49
  -7  -4  -3  161.18   62.49
   7  -4   3   64.59   60.29
   7   4   3   77.19   46.90
   0   5   3    4.20    8.70
   0  -5   3    3.20   18.40
   0   5   3    4.60   14.90
   0  -5   3   -7.30   23.50
   0   5   3   -3.60   15.70
   0   5   3    4.00   17.30
   0  -5   3   -6.30   10.50
   0   5  -3   10.40   14.40
   0  -5  -3    7.90   20.70
   0   5  -3    9.70   19.30
  -1   5   3 2110.39   79.79
  -1   5   3 1956.90   77.39
  -1  -5  -3 2263.77   79.49
   1   5  -3 2248.97   75.89
   1   5  -3 2197.08   63.39
   1  -5   3 1952.60   84.69
  -1   5   3 2214.18   70.69
   1  -5   3 2221.48   77.69
   1   5   3 2275.97   65.09
  -1  -5   3 2098.69   76.89
  -1   5  -3 2341.07   79.79
   1  -5  -3 2203.28   81.59
  -1  -5   3 2224.18   76.19
  -1  -5   3 2110.09   86.09
  -1   5  -3 2139.69   79.89
   1   5   3 2240.38   77.69
   1   5   3 2117.09   77.59
   2  -5   3   83.89   31.60
   2   5  -3   73.19   20.00
  -2   5   3   84.39   18.00
   2  -5   3   77.39   25.80
  -2   5   3   75.79   25.10
  -2  -5  -3   72.29   22.00
  -2  -5  -3   67.39   25.80
   2   5  -3   73.19   22.30
  -2   5   3   61.89   22.50
  -2   5  -3   52.99   28.60
   2   5   3   77.89   25.30
   2  -5  -3   73.19   13.40
  -2  -5   3   77.09   28.80
   2   5   3   62.49   20.50
   2   5   3   67.69   15.20
   2   5   3   71.59   21.40
  -2   5  -3   38.50   24.30
  -2  -5   3   74.69   32.40
   2  -5  -3   63.19   25.70
   3  -5   3  984.10   59.39
  -3   5   3 1021.20   61.69
  -3   5   3 1018.30   63.09
   3   5  -3  969.20   45.10
   3   5  -3  961.00   60.09
  -3   5   3  978.40   38.70
   3   5  -3  997.50   59.79
  -3  -5  -3  998.50   56.79
   3  -5   3  864.71   68.19
  -3  -5  -3 1005.00   55.99
  -3   5  -3  952.10   60.49
  -3   5  -3  862.21   63.89
   3   5   3  938.61   58.09
   3  -5  -3  911.61   60.29
  -3  -5   3 1017.50   75.39
  -3  -5   3  902.51   68.59
   3   5   3 1016.10   59.39
   3  -5  -3 1026.50   45.10
  -3  -5   3 1063.99   44.60
   3   5   3  987.20   50.09
   3   5   3  939.31   47.90
  -4  -5  -3  225.08   36.50
   4  -5   3  216.58   38.40
  -4   5   3  143.19   35.60
  -4   5   3  193.58   35.40
   4   5  -3  269.87   43.50
   4  -5   3  106.99   41.30
  -4   5   3  220.88   49.40
  -4  -5  -3  126.39   31.90
   4   5  -3  217.28   39.90
   4  -5  -3  192.68   39.50
  -4   5  -3  221.58   42.00
   4   5   3  221.38   44.50
   4  -5  -3  232.58   34.50
  -4  -5   3  289.17   57.09
  -4   5  -3  173.88   47.50
   4   5   3  160.38   36.80
   4   5   3  151.18   33.20
  -5   5   3  328.87   56.79
  -5   5   3  305.67   40.10
   5  -5   3  400.36   50.89
   5   5  -3  269.87   45.30
  -5   5   3  347.27   57.29
   5  -5   3  206.58   55.19
  -5  -5  -3  215.98   40.20
  -5  -5  -3  286.77   70.09
  -5  -5   3  303.47   61.99
   5   5   3  374.96   45.30
   5   5   3  239.28   49.80
   5   5   3  225.28   51.09
  -5   5  -3  316.47   50.19
   5  -5  -3  351.16   55.99
  -5   5  -3  335.87   60.79
   6   5  -3  190.88   44.90
   6  -5   3  248.78   47.90
   6  -5   3   63.79   50.49
  -6   5   3  220.58   51.19
  -6  -5  -3  157.08   63.49
  -6   5   3  175.88   46.90
  -6  -5   3  171.68   55.69
   6   5   3  141.79   49.30
   6   5   3  256.47   58.29
  -6   5  -3  152.58   55.59
  -6   5  -3  124.39   54.79
   6  -5  -3  186.38   54.09
   0   6   3  145.39   28.00
   0  -6   3  198.88   22.30
   0   6   3  142.79   26.90
   0   6  -3  188.18   33.60
   0   6  -3  215.48   26.50
   0  -6   3  198.38   32.40
   0   6   3  161.98   15.50
   0  -6  -3  160.08   31.90
   0   6   3  175.98   28.00
   0  -6   3  174.78   38.30
   1   6  -3  474.65   41.50
  -1   6   3  470.65   44.20
   1  -6   3  517.35   45.20
   1  -6   3  440.86   50.39
  -1   6   3  463.85   37.30
  -1   6   3  420.76   41.50
  -1  -6  -3  439.96   46.10
   1   6  -3  489.75   29.80
  -1  -6   3  468.45   50.19
  -1   6  -3  503.95   41.30
   1  -6  -3  495.05   45.30
  -1  -6   3  453.15   37.50
   1   6   3  446.56   42.50
   1   6   3  455.65   28.90
   1   6   3  511.35   42.00
  -1   6  -3  442.56   44.00
  -1  -6   3  423.46   41.30
  -2  -6  -3  357.86   39.80
  -2   6   3  446.46   32.20
  -2   6   3  397.26   45.20
  -2  -6  -3  442.26   45.50
  -2   6   3  516.85   51.49
   2  -6   3  490.15   46.20
   2   6  -3  426.46   39.00
   2  -6   3  439.46   40.70
   2  -6   3  315.67   46.40
   2   6  -3  409.66   41.40
  -2  -6   3  444.16   53.39
  -2   6  -3  442.96   48.50
   2  -6  -3  481.65   50.59
   2   6   3  448.66   36.40
  -2  -6   3  443.36   50.29
  -2   6  -3  432.96   47.60
   2   6   3  417.26   39.80
   2   6   3  395.46   44.40
   3   6  -3  402.76   48.40
  -3  -6  -3  243.08   38.40
  -3   6   3  332.97   46.00
   3   6  -3  350.46   34.40
   3  -6   3  246.98   47.30
   3   6  -3  309.87   45.70
  -3   6   3  349.27   45.40
   3  -6   3  357.06   41.80
  -3  -6  -3  351.16   39.10
   3  -6  -3  297.47   43.90
   3   6   3  370.06   44.80
  -3  -6   3  357.16   57.49
  -3   6  -3  318.67   49.20
   3   6   3  342.07   42.60
  -3   6  -3  353.76   46.40
  -3  -6   3  351.96   52.59
   3   6   3  275.27   32.50
  -4  -6  -3  501.05   54.19
  -4   6   3  510.45   59.09
  -4  -6  -3  409.36   46.10
   4  -6   3  516.85   52.09
   4   6  -3  528.85   52.19
   4   6  -3  480.65   52.89
  -4   6   3  441.96   51.19
   4  -6   3  507.15   68.29
   4   6   3  476.85   49.10
  -4  -6   3  611.94   78.39
   4  -6  -3  471.95   57.19
   4   6   3  321.77   51.49
  -4   6  -3  415.16   59.99
  -4   6  -3  422.96   55.19
   5  -6   3  252.87   60.89
   5  -6   3  282.77   45.90
   5   6  -3  216.98   43.60
  -5   6   3  281.87   42.70
  -5   6   3  364.76   59.79
  -5  -6  -3  185.38   66.49
   5   6   3  245.38   55.59
   5   6   3  234.28   39.90
  -5   6  -3  256.37   50.49
   5  -6  -3  267.37   54.39
  -5   6  -3  202.08   54.29
  -5  -6   3  319.27   67.09
  -5   6  -3  261.87   59.79
  -6   6   3  321.97   63.99
  -6  -6  -3  166.88   68.79
   6  -6   3  241.28   47.50
  -6   6   3  271.37   54.09
   6  -6   3  278.37   65.79
   6   6  -3  347.27   58.89
   6  -6  -3  245.08   55.69
  -6   6  -3  243.88   62.39
   6   6   3  333.77   63.79
  -6  -6   3  266.27   63.69
  -6   6  -3  193.78   56.99
   0  -7   3 1531.75   82.89
   0  -7   3 1692.83   72.19
   0   7   3 1534.15   71.79
   0   7  -3 1588.44   62.69
   0   7  -3 1699.43   77.79
   0  -7  -3 1551.04   77.29
   0   7   3 1613.44   72.49
  -1  -7  -3  101.19   32.60
   1  -7   3   85.19   31.90
   1  -7   3  142.19   31.00
  -1   7   3  109.39   29.90
  -1   7   3  111.29   24.50
   1   7  -3   81.59   29.60
  -1   7   3  104.99   26.80
  -1   7  -3   89.69   31.80
   1   7   3  104.19   17.90
  -1   7  -3  106.09   29.20
  -1  -7   3   85.79   36.10
   1   7   3   77.29   25.70
   1  -7  -3   59.49   28.20
   1   7   3   62.49   27.30
  -1  -7   3  103.69   24.80
   2   7  -3  995.40   61.19
  -2   7   3 1061.09   65.69
  -2  -7  -3 1097.19   60.09
  -2   7   3 1073.59   71.09
   2  -7   3  969.40   74.19
  -2  -7  -3  988.70   66.29
   2   7  -3 1112.99   60.59
   2  -7   3 1177.98   63.59
   2  -7   3 1116.29   61.39
  -2   7   3 1065.69   49.50
   2   7   3  993.60   49.70
   2   7   3 1051.89   67.09
  -2  -7   3 1213.88   72.09
  -2  -7   3 1000.20   73.49
   2   7   3 1041.30   56.59
  -2   7  -3 1002.80   65.09
  -2   7  -3 1075.99   68.29
   2  -7  -3 1014.60   66.69
  -3  -7  -3  119.99   36.40
   3  -7   3  164.78   49.20
   3   7  -3  155.18   28.30
  -3   7   3  130.49   38.80
   3  -7   3  143.59   35.10
   3   7  -3  145.49   36.70
  -3   7   3  127.29   34.40
   3   7  -3  168.68   34.20
  -3  -7  -3  156.18   31.90
   3   7   3  119.19   26.30
  -3   7  -3  215.38   47.70
  -3  -7   3  147.99   44.40
   3   7   3  109.29   34.70
  -3   7  -3  170.98   42.30
  -3  -7   3  236.68   50.99
   3  -7  -3  170.38   40.30
   3   7   3  110.79   31.80
   4  -7   3  343.07   57.99
   4   7  -3  388.36   52.69
  -4  -7  -3  430.66   51.59
  -4   7   3  541.05   64.09
  -4   7   3  409.86   55.89
   4  -7   3  468.95   50.69
  -4  -7  -3  462.95   46.70
  -4  -7   3  433.96   70.59
  -4   7  -3  406.16   56.09
   4   7   3  447.56   50.89
   4   7   3  333.37   55.79
  -4   7  -3  397.96   60.69
   4  -7  -3  499.05   61.19
  -4   7  -3  355.16   57.59
  -5   7   3  197.78   44.30
  -5   7   3  250.77   50.89
  -5  -7  -3   91.79   64.99
   5  -7   3  196.88   41.70
   5  -7   3  150.78   53.99
   5   7  -3  225.58   49.00
  -5   7  -3  193.48   55.49
  -5  -7   3  202.48   60.99
  -5   7  -3  119.09   46.40
   5   7   3  116.09   51.79
   5   7   3  154.88   37.00
  -5   7  -3  127.49   49.90
   5  -7  -3  245.88   57.09
  -6   7   3   90.79   49.00
   6   7  -3  160.88   78.69
  -6  -7  -3   -9.00   67.09
   6  -7   3   48.50   51.39
  -6   7   3   94.19   33.90
   6  -7  -3   69.69   52.09
  -6   7  -3   72.49   48.40
  -6   7  -3   58.19   71.39
  -6  -7   3   73.59   52.69
   6   7   3   81.29   52.69
   0   8  -3  397.06   51.79
   0  -8   3  331.17   53.09
   0   8   3  367.16   44.60
   0   8   3  394.26   47.50
   0  -8  -3  309.67   44.70
   0  -8   3  401.66   44.70
  -1   8   3  101.99   31.70
   1  -8   3   74.59   35.30
  -1  -8  -3  113.09   38.60
   1  -8   3   85.29   39.10
   1   8  -3   61.69   32.00
  -1   8   3   90.79   29.20
  -1   8   3   67.29   24.30
   1  -8   3   94.09   31.70
   1   8   3   78.99   28.20
  -1   8  -3   84.69   29.50
  -1  -8   3   99.09   38.30
   1  -8  -3   90.79   35.40
   1   8   3   75.79   33.00
  -1   8  -3  119.59   39.40
  -2  -8  -3  356.16   48.80
  -2   8   3  356.16   45.10
   2  -8   3  417.86   49.40
   2  -8   3  335.77   43.40
  -2   8   3  335.47   50.39
   2  -8   3  283.57   49.60
   2   8  -3  328.87   44.80
  -2  -8  -3  370.06   45.60
   2   8  -3  432.36   48.10
  -2   8   3  337.07   34.70
   2   8   3  340.47   41.10
  -2   8  -3  352.16   48.60
  -2  -8   3  415.86   58.89
   2  -8  -3  324.97   49.10
  -2  -8   3  372.26   49.99
  -2   8  -3  381.36   52.09
   2   8   3  358.46   49.80
   2   8   3  331.77   38.90
  -3   8   3  307.97   52.19
   3  -8   3  468.45   49.70
   3   8  -3  336.07   45.90
  -3   8   3  459.65   54.39
  -3  -8  -3  373.86   52.09
   3   8  -3  535.55   62.29
  -3  -8  -3  435.76   42.30
   3  -8   3  331.87   54.49
  -3  -8   3  401.66   63.59
   3   8   3  327.77   48.80
   3  -8  -3  405.36   57.69
  -3   8  -3  413.86   57.79
  -3   8  -3  422.36   57.19
   3   8   3  495.85   49.99
  -3  -8   3  474.35   67.89
  -4  -8  -3  206.38   44.70
   4  -8   3  277.37   45.10
  -4   8   3  222.38   49.80
   4   8  -3  236.98   47.30
   4  -8   3  205.38   59.19
  -4   8   3  246.98   48.50
   4  -8  -3  291.17   59.59
  -4  -8   3  223.28   58.89
   4   8   3  198.08   44.80
  -4   8  -3  195.08   52.79
  -4   8  -3  260.07   56.89
  -4  -8   3  271.27   59.89
   4   8   3  213.28   49.90
  -5  -8  -3  182.48   70.39
  -5   8   3  254.77   49.70
   5  -8   3  162.48   53.39
   5   8  -3  323.57   57.09
  -5   8   3  401.56   61.79
  -5   8  -3  331.27   60.89
  -5   8  -3  263.47   58.29
   5   8   3  183.88   54.89
   5  -8  -3  261.77   60.09
  -5   8  -3  304.37   81.29
  -5  -8   3  391.46   71.79
   5   8   3  264.97   44.70
   0   9  -3  337.47   51.99
   0   9   3  394.76   47.90
   0  -9   3  302.87   51.89
   0   9   3  335.87   48.00
   0  -9  -3  308.27   48.90
  -1   9   3  704.13   54.49
  -1   9   3  753.32   58.09
  -1   9   3  815.52   67.09
  -1  -9  -3  606.04   65.39
   1   9  -3  729.03   65.59
   1  -9   3  700.23   73.69
   1  -9   3  703.33   68.99
   1  -9   3  756.42   56.19
  -1   9  -3  623.04   66.99
   1  -9  -3  623.44   65.19
   1   9   3  633.44   65.59
  -1   9  -3  710.83   52.99
   1   9   3  728.03   57.49
  -1  -9   3  723.33   72.79
   2   9  -3  211.28   41.20
  -2   9   3  213.88   30.40
  -2  -9  -3  243.68   49.00
   2   9  -3  206.18   39.90
  -2   9   3  216.38   46.20
  -2  -9  -3  311.47   46.20
   2  -9   3  168.58   49.30
   2  -9   3  171.58   44.20
  -2   9   3  244.38   41.00
   2  -9   3  267.37   42.90
  -2   9  -3  229.38   43.00
   2   9   3  201.88   34.70
   2   9   3  205.58   45.40
  -2   9  -3  200.68   47.90
  -2  -9   3  184.28   49.40
   2  -9  -3  154.48   45.70
  -3   9   3  442.86   54.69
   3   9  -3  536.75   65.69
   3  -9   3  449.95   50.09
  -3   9   3  308.47   54.69
  -3  -9  -3  449.46   58.09
   3  -9   3  464.05   71.49
   3  -9  -3  464.45   64.99
  -3  -9   3  532.55   71.79
  -3   9  -3  391.06   54.49
  -3  -9   3  440.16   66.19
   3   9   3  382.96   53.89
  -3   9  -3  416.66   60.39
   4   9  -3  148.49   45.40
  -4  -9  -3  174.68   45.50
   4  -9   3  152.58   57.29
  -4   9   3  146.59   48.30
  -4   9   3  192.78   46.40
   4   9   3  183.68   47.20
  -4   9  -3  174.58   50.39
   4   9   3  110.99   48.40
  -4  -9   3  175.18   55.49
  -4   9  -3  164.88   53.09
   4  -9  -3  192.38   54.99
  -4  -9   3  164.38   55.09
   5  -9   3  103.89   61.29
  -5   9   3  100.09   44.60
   5   9  -3  217.98   55.79
  -5   9   3  190.28   51.29
  -5  -9  -3   -4.00   72.19
  -5   9  -3   65.29   48.40
  -5  -9   3  190.08   60.09
  -5   9  -3  178.88   55.39
   5   9   3  121.79   41.40
   5  -9  -3  142.19   58.59
   5   9   3  138.29   54.39
   0  10   3   -7.20   31.30
   0 -10  -3  -10.20   40.70
   0  10  -3  -26.70   37.30
   0 -10   3   28.80   44.40
   0  10   3   25.10   31.30
   1 -10   3  295.67   46.60
   1 -10   3  289.97   54.59
  -1 -10  -3  257.27   52.79
  -1  10   3  265.77   46.70
   1  10  -3  283.57   51.99
  -1  10   3  270.87   40.40
  -1  10   3  325.17   43.90
   1 -10   3  345.97   60.49
  -1 -10  -3  319.17   58.89
   1  10   3  255.47   41.80
  -1  10  -3  287.97   54.69
   1  10   3  160.68   46.50
   1 -10  -3  271.47   55.39
  -1 -10   3  302.67   59.59
  -2  10   3  155.18   45.80
   2 -10   3   90.69   49.10
  -2  10   3   65.89   25.40
  -2 -10  -3  117.29   45.00
   2 -10   3  189.28   46.70
   2 -10   3  139.39   37.00
  -2 -10  -3   94.29   45.70
   2  10  -3  111.49   37.10
  -2  10   3  133.29   35.90
   2 -10  -3  106.09   49.90
  -2 -10   3  110.79   50.59
   2  10   3  173.38   35.00
   2  10   3  109.99   44.40
  -2  10  -3  164.48   40.80
  -2  10  -3  152.48   48.30
  -3  10   3  303.07   49.90
   3 -10   3  253.27   63.29
   3  10  -3  286.67   54.69
  -3 -10  -3  202.88   51.59
  -3  10   3  223.98   53.69
  -3 -10   3  289.97   62.09
  -3  10  -3  277.17   50.69
  -3  10  -3  171.78   51.89
   3  10   3  219.98   51.09
   3 -10  -3  215.48   59.39
  -4 -10  -3  267.57   52.79
   4 -10   3  214.38   65.69
  -4  10   3  218.78   57.39
  -4  10   3  307.77   55.49
   4  10  -3  287.47   56.79
   4  10   3  261.77   53.39
  -4  10  -3  232.08   53.49
  -4  10  -3   85.69   50.19
   4 -10  -3  166.58   59.19
   0 -11  -3  215.28   53.09
   0 -11   3  325.17   68.79
   0  11   3  202.78   44.40
   0  11   3  280.47   46.50
   0  11  -3  400.16   63.59
  -1 -11  -3  473.55   65.59
   1 -11   3  531.75   68.19
   1 -11   3  439.56   68.79
  -1  11   3  349.37   47.40
  -1  11   3  489.35   60.69
  -1 -11  -3  370.96   59.79
   1  11  -3  415.26   61.39
   1  11   3  273.67   56.39
   1 -11  -3  450.45   67.39
   1  11   3  431.76   50.99
  -1  11  -3  448.26   66.79
  -1 -11   3  563.64   74.59
  -2  11   3  100.59   43.20
  -2 -11  -3  182.78   56.49
   2  11  -3  286.47   51.59
   2  11  -3  244.28   52.59
   2 -11   3  128.39   50.39
  -2 -11  -3  241.78   54.59
   2 -11   3  250.57   63.89
   2 -11  -3  132.39   56.29
   2  11   3  183.88   54.19
  -2  11  -3  196.58   55.29
  -2 -11   3  231.88   59.69
  -3  11   3  236.08   53.89
  -3 -11  -3  209.98   55.19
   3  11  -3  240.48   52.39
   3 -11   3  161.78   62.59
  -3  11  -3  138.09   55.49
  -3  11  -3  196.68   48.70
   3  11   3  234.08   54.49
   3 -11  -3  145.49   58.19
  -3 -11   3  184.68   60.89
  -4  11  -3  158.58   74.39
   0 -12  -3  216.48   61.49
   0 -12   3  264.27   63.99
   0  12   3  243.58   49.30
   0  12   3  229.98   45.40
   0 -12  -3  160.18   65.89
   0  12  -3  168.18   51.49
  -1  12   3   98.69   40.40
  -1  12   3   39.40   33.40
  -1 -12  -3   86.49   50.19
   1 -12   3   90.39   58.49
   1  12  -3   51.19   41.50
  -1 -12  -3   56.79   48.60
  -1  12  -3   14.70   43.30
   1 -12  -3    9.10   48.70
   1  12   3    1.10   42.10
   1  12   3   22.00   34.20
  -1 -12   3  120.49   50.79
  -2  12   3  190.18   50.39
   2 -12   3  261.57   86.09
   2  12  -3  286.27   51.39
  -2 -12  -3  137.09   61.99
  -2 -12  -3  183.28   60.89
   2 -12   3  159.98   63.49
   2  12  -3  168.68   48.30
   2 -12  -3  215.78   66.19
  -2 -12   3  203.58   60.89
  -2  12  -3  124.79   50.19
   2  12   3  204.38   54.39
   0  13   3  283.27   69.39
   0  13   3  339.27   62.39
  -1  13   3   67.19   36.50
   0   0   4 2379.26   79.79
   0   0   4 2385.76   82.89
   0   0   4 2498.95   78.39
   0   0  -4 2472.65   71.69
   0   0   4 2465.35   81.59
   1   0   4   83.49   21.90
  -1   0   4  107.99   26.60
  -1   0  -4   80.29   26.20
   1   0   4   56.79   19.40
  -1   0   4   85.99   22.40
  -1   0   4  100.99   23.10
   1   0  -4   73.49   16.40
  -1   0  -4   79.49   14.30
  -1   0   4   85.39   19.80
   1   0   4   94.89   23.80
   1   0   4   70.89   20.50
   1   0  -4   53.89   19.30
  -1   0   4  112.59   22.80
  -2   0   4 2123.49   81.49
  -2   0   4 2067.59   70.19
   2   0  -4 1944.21   70.29
  -2   0   4 1978.60   92.19
  -2   0  -4 2046.90   83.49
   2   0   4 1905.71   74.79
   2   0   4 2135.69   73.09
   2   0  -4 2034.70   70.69
  -2   0   4 2125.89   75.49
   2   0   4 2061.69   79.29
   3   0   4   30.30   23.80
  -3   0  -4   29.60   27.50
   3   0  -4   50.99   19.00
  -3   0   4   10.10   16.80
  -3   0   4   37.00   27.40
   3   0  -4   34.70   15.10
  -3   0   4   66.79   24.70
   3   0   4   22.10   28.30
   3   0   4   70.89   24.70
  -4   0   4  921.41   49.20
   4   0   4  970.80   64.19
   4   0  -4 1014.00   56.59
   4   0   4 1020.40   68.39
  -4   0   4 1012.20   81.99
  -4   0   4 1034.40   69.59
   4   0   4  981.60   60.19
   4   0  -4  994.70   58.39
  -4   0  -4 1045.00   74.79
   5   0  -4  134.19   31.00
  -5   0   4  108.79   42.40
  -5   0  -4   49.70   46.00
  -5   0  -4  175.88   37.10
   5   0   4   56.59   39.20
   5   0  -4   93.19   29.10
   5   0   4  100.29   32.20
  -5   0   4  144.69   41.90
  -6   0   4  106.99   39.60
   6   0   4  123.99   47.20
   6   0  -4  162.38   37.40
  -6   0  -4   83.49   54.19
  -6   0   4   78.39   44.80
   0  -1   4  184.28   30.50
   0  -1   4  166.18   26.40
   0   1   4  247.38   29.10
   0   1   4  224.98   30.20
   0   1   4  287.57   30.10
   0   1  -4  238.48   23.90
   0   1   4  177.28   27.40
   0  -1  -4  226.18   25.60
   0   1  -4  190.38   30.00
   0  -1   4  212.48   29.60
   0  -1   4  192.98   28.90
  -1   1   4  158.28   29.90
  -1   1   4  122.89   22.90
  -1  -1  -4  106.79   29.70
  -1   1   4   98.99   22.70
   1  -1   4  101.19   24.50
   1  -1   4  107.39   26.10
  -1  -1  -4  100.09   17.10
   1  -1   4   81.29   21.20
  -1   1   4  108.39   20.70
   1   1  -4  102.79   20.40
  -1  -1   4  139.59   25.70
   1   1   4  108.99   20.60
  -1  -1   4  135.19   26.00
  -1  -1   4  119.79   28.10
   1   1   4   96.09   22.00
   1  -1  -4  123.39   18.40
   1  -1  -4   98.59   23.60
  -1  -1   4  118.59   22.80
  -1  -1   4  118.69   28.80
  -1  -1   4  118.49   22.70
  -1   1  -4   80.79   12.70
   1   1   4   66.59   20.80
   1   1   4   97.09   22.60
  -1   1  -4   71.79   24.50
  -2   1   4  183.18   36.30
  -2   1   4  189.48   25.30
  -2   1   4  269.37   36.70
   2  -1   4  197.38   30.60
  -2   1   4  267.07   33.50
   2  -1   4  215.28   33.20
  -2  -1  -4  236.98   37.90
   2  -1   4  262.57   37.00
   2   1  -4  161.38   24.70
  -2  -1   4  272.27   34.30
   2   1   4  215.38   25.80
  -2  -1   4  237.48   39.40
   2  -1  -4  157.48   30.00
  -2  -1   4  258.67   30.40
  -2  -1   4  213.68   27.80
  -2  -1   4  238.58   39.70
   2  -1  -4  205.08   24.20
   2  -1  -4  264.57   28.50
   2   1   4  176.08   27.30
  -2   1  -4  215.48   37.40
   2   1   4  216.08   32.30
  -3  -1  -4  280.37   42.70
  -3   1   4  309.37   28.30
   3  -1   4  304.17   40.50
   3  -1   4  292.57   39.70
   3   1  -4  369.26   35.60
  -3   1   4  252.27   36.40
   3   1  -4  290.77   35.10
   3   1  -4  366.06   27.70
   3  -1   4  216.38   33.10
  -3   1   4  363.96   38.40
  -3   1   4  241.28   45.20
   3   1   4  319.87   40.50
   3   1   4  292.17   36.20
   3  -1  -4  306.47   29.50
   3  -1  -4  316.07   30.40
   3   1   4  329.87   44.40
  -3  -1   4  309.17   37.50
  -3  -1   4  316.97   30.90
  -3   1  -4  340.97   47.40
  -3  -1   4  404.66   56.89
   4  -1   4  248.38   42.60
   4   1  -4  203.48   33.70
  -4   1   4  253.27   49.90
   4  -1   4  243.78   42.30
   4   1  -4  268.57   38.00
   4  -1   4  254.97   36.00
  -4  -1  -4  222.98   44.80
  -4   1   4  267.67   44.40
  -4   1   4  255.17   32.00
  -4  -1   4  244.78   39.80
   4  -1  -4  335.37   38.30
   4  -1  -4  221.98   31.90
  -4   1  -4  227.58   41.10
  -4  -1   4  242.58   28.60
  -4  -1   4  229.78   50.19
   4   1   4  229.38   36.50
  -4   1  -4  220.08   48.00
   4   1   4  184.68   41.00
  -5   1   4  573.14   78.79
   5   1  -4  533.35   52.69
  -5   1   4  570.24   68.99
   5  -1   4  495.65   48.20
  -5  -1  -4  556.94   67.99
   5  -1   4  542.65   61.99
  -5   1  -4  603.64   55.39
   5   1   4  489.15   49.30
   5   1   4  381.16   54.89
   5   1   4  433.56   53.29
   5  -1  -4  529.85   46.40
  -5  -1   4  561.54   77.39
   5  -1  -4  473.85   49.30
  -5  -1   4  583.74   61.79
  -5   1  -4  491.25   67.29
   6   1  -4  227.98   43.40
  -6   1   4  265.07   59.89
  -6  -1  -4  175.78   57.69
   6  -1   4  222.68   52.29
  -6   1   4  174.58   51.79
   6  -1  -4  197.38   46.40
   6   1   4  137.59   44.20
  -6  -1   4  126.29   52.69
  -6   1  -4  168.28   59.49
  -6  -1   4  259.17   49.50
   6   1   4  178.38   50.89
   0  -2  -4  145.89   15.80
   0  -2   4  122.19   30.10
   0  -2  -4   85.59   19.70
   0   2  -4  128.99   17.70
   0   2   4   93.59   24.80
   0   2   4   88.29   20.20
   0   2   4   89.99   19.60
   0   2  -4  111.19   24.00
   0  -2   4  132.79   27.20
   0  -2   4  136.59   27.70
   1   2  -4 2071.99   71.59
  -1   2   4 2140.39   72.59
  -1   2   4 2208.58   81.19
  -1   2   4 2077.29   83.39
   1  -2   4 2063.49   77.39
  -1   2   4 2146.49   66.19
   1  -2   4 2130.59   82.69
  -1  -2  -4 2173.98   68.69
   1  -2   4 2193.38   78.19
   1   2   4 2080.39   77.19
  -1  -2   4 2145.19   76.19
  -1  -2   4 2061.69   75.59
  -1  -2   4 2189.68   85.59
   1  -2  -4 2133.49   61.89
   1  -2  -4 2081.39   61.19
   1   2   4 2122.89   79.69
   1  -2  -4 2159.08   76.89
   1   2   4 2111.89   61.49
  -1  -2   4 2150.68   85.69
   1   2   4 2275.17   73.79
  -1   2  -4 2224.68   81.79
  -2  -2  -4  268.77   40.20
  -2   2   4  315.07   38.20
  -2  -2  -4  215.98   23.80
   2  -2   4  189.48   32.20
   2   2  -4  212.58   29.50
   2  -2   4  269.87   39.50
  -2   2   4  251.27   28.00
   2  -2   4  267.27   35.20
  -2   2   4  220.98   34.00
   2   2  -4  255.47   29.80
   2   2   4  213.58   32.00
  -2   2  -4  246.58   38.30
  -2  -2   4  250.97   40.70
  -2  -2   4  231.18   29.90
  -2  -2   4  293.47   43.60
   2  -2  -4  222.28   22.00
   2  -2  -4  223.08   22.60
   2   2   4  214.88   32.40
   2   2   4  276.87   35.30
   2  -2  -4  195.58   31.40
  -3   2   4 1371.26   73.79
   3   2  -4 1449.46   53.79
  -3   2   4 1444.66   65.59
  -3   2   4 1274.47   51.09
  -3   2   4 1244.98   82.89
   3  -2   4 1431.76   74.29
   3   2  -4 1355.86   66.59
   3  -2   4 1396.76   65.29
  -3  -2  -4 1354.26   73.59
   3   2  -4 1489.35   69.09
   3  -2   4 1310.57   70.59
  -3   2  -4 1284.07   68.79
   3  -2  -4 1297.67   52.39
  -3  -2   4 1253.37   82.59
   3   2   4 1256.37   68.09
  -3   2  -4 1278.07   73.99
   3  -2  -4 1335.97   57.39
   3  -2  -4 1279.67   68.59
   3   2   4 1307.47   66.59
  -3  -2   4 1339.57   65.29
   4  -2   4  164.68   42.00
  -4   2   4  155.88   44.30
   4   2  -4  194.18   35.50
  -4   2   4  168.68   29.00
  -4   2   4  240.88   45.70
   4  -2   4  176.78   32.60
  -4  -2  -4  124.09   40.30
   4  -2   4  173.78   41.70
   4   2  -4  186.58   36.70
  -4  -2   4  249.68   39.00
   4  -2  -4  183.88   27.90
   4  -2  -4  171.68   29.30
   4   2   4  182.48   33.70
  -4  -2   4  185.68   47.90
  -4   2  -4   99.59   44.40
  -4   2  -4  215.88   41.20
   4  -2  -4  186.58   40.80
   4   2   4  159.08   40.40
   5  -2   4  286.67   48.50
  -5   2   4  358.56   59.89
  -5   2   4  392.26   65.99
  -5  -2  -4  256.77   63.39
  -5  -2  -4  291.47   56.69
   5  -2   4  270.97   52.79
   5  -2   4  303.87   40.60
   5   2  -4  398.96   53.19
  -5  -2   4  305.77   61.19
  -5   2  -4  265.27   56.49
   5  -2  -4  320.97   51.69
   5   2   4  360.86   57.79
   5   2   4  317.07   42.50
  -5   2  -4  376.76   52.19
  -5  -2   4  374.26   50.69
   5   2   4  231.58   47.50
   5  -2  -4  283.17   38.70
   6  -2   4   73.19   45.30
  -6  -2  -4   70.39   48.40
  -6   2   4   65.29   38.00
  -6   2   4   93.69   46.50
   6   2  -4   33.60   29.90
  -6   2  -4   66.59   55.39
  -6  -2   4   39.70   49.50
   6   2   4   97.99   46.30
   6  -2  -4  100.39   45.10
  -6  -2   4   18.50   28.80
   6   2   4   42.50   45.10
   0  -3   4   12.80   24.60
   0   3   4    5.60   13.70
   0   3  -4   -3.00   19.70
   0   3   4    5.20   17.80
   0  -3   4    7.40   19.40
   0  -3  -4   17.90   17.80
   0   3   4  -10.10   17.10
   0  -3   4   -3.20   21.40
   0   3  -4   -3.80   15.60
  -1  -3  -4  263.37   30.20
   1   3  -4  222.58   31.40
  -1   3   4  220.98   31.30
  -1   3   4  233.08   23.90
   1  -3   4  161.18   33.80
  -1   3   4  251.97   36.60
   1   3  -4  244.28   28.40
   1  -3   4  218.48   32.70
   1  -3   4  239.18   31.70
  -1   3   4  297.77   32.60
  -1   3  -4  226.88   36.50
   1   3   4  229.38   32.90
  -1  -3   4  246.48   36.40
   1   3   4  288.07   31.50
  -1  -3   4  282.87   34.70
   1   3   4  233.88   35.00
  -1  -3   4  288.77   44.20
   1  -3  -4  226.68   32.60
  -1   3  -4  225.98   34.40
  -2   3   4  251.87   36.00
   2  -3   4  161.48   32.10
  -2  -3  -4  200.38   34.60
  -2   3   4  282.57   30.40
   2  -3   4  185.58   37.70
   2  -3   4  179.98   32.40
   2   3  -4  252.87   31.80
   2   3  -4  223.68   31.90
  -2   3   4  282.17   41.30
  -2  -3  -4  158.48   24.90
   2   3  -4  253.87   25.70
  -2  -3   4  244.98   44.00
   2   3   4  187.48   30.60
  -2  -3   4  244.08   29.90
  -2   3  -4  168.38   35.00
   2  -3  -4  168.28   21.50
   2   3   4  202.98   31.80
  -2   3  -4  217.98   36.70
  -2  -3   4  249.78   40.80
   2   3   4  169.58   30.30
   2  -3  -4  142.59   30.30
   3   3  -4  163.68   30.00
   3   3  -4  142.29   30.90
   3  -3   4  106.79   34.90
  -3   3   4  172.78   22.50
  -3   3   4  180.68   38.30
   3  -3   4  108.19   29.50
  -3  -3  -4  161.78   36.70
  -3   3   4  186.18   45.60
   3  -3   4  191.58   38.70
   3   3  -4  171.58   31.30
  -3   3   4  170.28   31.10
   3  -3  -4  176.08   34.40
  -3  -3   4  195.58   47.50
   3   3   4  145.89   32.40
   3  -3  -4  170.68   27.10
   3   3   4  192.88   35.90
  -3  -3   4  168.98   27.50
  -3   3  -4  117.89   38.10
  -3  -3   4  192.48   44.10
  -3   3  -4  200.88   38.70
  -4  -3  -4  587.24   59.69
   4  -3   4  544.15   50.19
  -4   3   4  619.14   49.20
  -4   3   4  570.44   63.49
   4   3  -4  569.54   53.59
   4  -3   4  591.64   59.39
   4  -3   4  500.65   61.89
  -4   3   4  523.85   66.59
   4   3  -4  652.93   53.19
   4  -3  -4  565.84   56.69
   4   3   4  575.64   55.29
   4   3   4  569.74   52.29
  -4  -3   4  637.54   49.70
  -4   3  -4  618.74   68.99
  -4   3  -4  634.64   59.09
   4   3   4  492.85   55.39
  -4  -3   4  573.34   72.69
  -5  -3  -4  -33.40   48.80
  -5   3   4   46.90   24.10
  -5   3   4   47.20   35.00
  -5   3   4   33.80   40.60
   5  -3   4    3.70   36.40
   5  -3   4   45.50   42.30
  -5  -3  -4   52.79   41.10
   5   3  -4   72.49   31.50
  -5   3  -4   62.39   35.70
   5  -3  -4   76.39   36.70
   5   3   4   47.80   29.90
  -5  -3   4   39.40   47.20
   5   3   4   38.60   39.60
  -5  -3   4   48.80   26.60
  -5   3  -4   55.69   47.70
   5   3   4  -31.80   33.50
   6   3  -4  559.54   62.79
  -6  -3  -4  325.87   58.69
   6  -3   4  334.17   68.49
   6  -3   4  443.66   62.59
  -6   3   4  581.54   83.79
  -6  -3  -4  423.26   94.89
  -6   3   4  544.65   76.69
  -6  -3   4  622.84   88.69
   6  -3  -4  559.84   71.29
  -6   3  -4  378.86   73.29
   0  -4   4 1654.13   80.59
   0  -4   4 1648.64   72.09
   0   4  -4 1756.52   68.19
   0   4  -4 1719.73   73.49
   0   4   4 1765.52   71.09
   0   4   4 1738.13   56.49
   0  -4  -4 1771.12   71.89
   0   4   4 1694.73   74.09
  -1   4   4  554.14   49.10
  -1   4   4  607.64   42.50
   1   4  -4  523.85   35.40
  -1  -4  -4  546.05   44.40
   1   4  -4  592.24   43.60
  -1   4   4  628.14   48.30
   1  -4   4  504.45   46.60
   1  -4   4  556.84   53.69
  -1   4   4  569.94   29.00
  -1   4  -4  532.65   46.10
  -1  -4   4  494.45   52.69
   1   4   4  586.84   46.60
   1   4   4  583.74   47.70
  -1  -4   4  572.54   46.60
   1   4   4  521.45   37.10
   1  -4  -4  545.05   46.60
  -1   4  -4  582.54   48.40
  -1  -4   4  556.74   45.30
  -2   4   4 1156.98   51.59
   2  -4   4 1186.78   62.89
  -2   4   4 1158.78   63.39
   2   4  -4 1251.77   63.59
  -2   4   4 1052.09   65.49
   2   4  -4 1173.58   54.89
   2  -4   4 1249.47   75.29
  -2  -4  -4 1128.59   56.19
   2  -4   4 1162.48   64.29
   2   4  -4 1398.36   65.99
  -2  -4  -4 1186.18   65.49
   2   4   4 1214.88   62.99
  -2   4  -4 1075.49   63.89
   2   4   4 1198.18   63.59
  -2  -4   4 1097.39   72.99
   2  -4  -4 1205.88   66.49
  -2   4  -4 1206.48   69.39
   2   4   4 1131.89   57.49
  -2  -4   4 1219.18   71.59
  -3  -4  -4  485.35   43.50
  -3   4   4  490.95   53.99
  -3   4   4  442.96   33.30
   3   4  -4  521.55   57.19
  -3   4   4  514.25   49.00
   3  -4   4  403.26   47.00
  -3  -4  -4  455.45   50.29
   3   4  -4  478.15   47.50
   3  -4   4  478.25   58.79
   3   4   4  475.75   49.20
  -3  -4   4  448.96   38.20
   3   4   4  479.25   48.60
  -3  -4   4  665.33   73.09
  -3  -4   4  451.65   60.89
   3   4   4  484.25   46.60
  -3   4  -4  464.65   57.79
  -3   4  -4  525.85   52.89
   3  -4  -4  471.85   53.99
   4   4  -4  359.96   48.80
   4   4  -4  377.16   47.90
   4  -4   4  268.57   50.79
  -4   4   4  389.66   44.80
   4  -4   4  436.26   55.09
  -4   4   4  327.57   56.59
  -4  -4  -4  395.56   51.59
  -4   4   4  587.34   69.89
  -4  -4   4  444.56   69.79
  -4   4  -4  361.86   56.99
   4   4   4  429.46   50.69
  -4   4  -4  429.66   54.69
   4   4   4  312.07   48.10
   4  -4  -4  413.96   53.89
   4   4   4  461.55   58.09
  -5   4   4  172.08   51.79
  -5   4   4  135.99   45.80
  -5  -4  -4   70.69   61.29
   5  -4   4  144.19   44.90
   5  -4   4  111.99   47.90
  -5   4   4  198.68   36.10
   5   4  -4  164.08   43.50
  -5  -4  -4  112.59   41.00
   5   4   4   98.29   47.00
  -5   4  -4   49.20   47.80
  -5  -4   4  194.88   62.29
  -5   4  -4  109.19   42.60
   5  -4  -4  143.99   44.50
   5   4   4  110.59   36.70
   6   4  -4  174.08   45.80
   6  -4   4  166.18   49.30
  -6  -4  -4   87.89   61.79
  -6   4   4  208.78   56.99
  -6  -4  -4   69.89   46.70
  -6   4   4  110.39   45.50
   6  -4   4  135.29   55.99
  -6  -4   4  116.69   60.59
   6   4   4  107.89   54.79
  -6   4  -4   20.10   59.59
   6  -4  -4  157.98   54.19
   0   5  -4  311.57   42.90
   0   5   4  246.28   23.10
   0  -5  -4  207.58   34.80
   0   5  -4  249.88   31.90
   0   5   4  254.97   35.90
   0   5   4  183.18   30.00
   0  -5   4  220.88   42.90
   0  -5   4  236.98   36.20
  -1  -5  -4   63.29   27.10
   1   5  -4  105.39   21.20
   1   5  -4   73.79   25.80
  -1   5   4   78.49   25.80
  -1   5   4  101.09   24.30
   1  -5   4  123.59   36.70
  -1   5   4   92.89   28.20
   1  -5   4   72.09   29.90
  -1  -5   4   99.39   28.10
  -1   5  -4  123.89   32.70
   1   5   4   86.09   28.10
   1  -5  -4   96.59   29.00
  -1   5  -4   90.69   28.70
  -1  -5   4   89.89   32.60
  -1  -5   4  111.29   26.40
   1   5   4   57.49   24.80
   1   5   4  102.99   21.40
   2   5  -4   93.49   24.90
  -2   5   4   98.79   31.00
  -2  -5  -4   56.89   29.70
   2   5  -4  102.89   28.80
   2  -5   4   72.39   31.20
  -2  -5  -4   81.19   26.90
  -2   5   4  108.89   23.60
  -2   5   4   99.79   30.90
   2  -5   4   49.90   35.90
   2   5   4   83.19   24.70
   2  -5  -4   51.39   26.90
   2   5   4   68.59   26.90
  -2   5  -4  126.79   35.30
  -2   5  -4   84.89   33.40
  -2  -5   4   55.09   28.60
  -2  -5   4  114.69   39.90
   2   5   4   63.39   26.90
  -3  -5  -4  377.66   41.90
   3   5  -4  502.15   58.49
  -3   5   4  294.77   43.30
   3  -5   4  413.36   50.69
  -3  -5  -4  491.95   52.39
   3   5  -4  444.86   47.40
   3  -5   4  297.97   50.39
  -3   5   4  377.26   46.80
  -3   5  -4  407.66   54.09
   3   5   4  321.17   42.30
   3  -5  -4  295.67   42.30
   3   5   4  378.86   42.30
  -3   5  -4  354.96   53.19
   3   5   4  412.86   47.10
  -3  -5   4  580.44   70.59
  -3  -5   4  465.65   64.29
  -4  -5  -4   52.59   34.50
   4  -5   4   92.79   40.70
   4   5  -4  139.09   37.50
  -4   5   4  105.89   39.40
  -4   5   4   58.99   30.90
   4  -5   4   67.39   42.80
  -4  -5   4   79.49   47.30
  -4   5  -4   74.79   39.40
   4   5   4   48.00   38.00
  -4   5  -4   70.29   44.60
   4  -5  -4   57.99   34.60
   4   5   4   60.09   33.00
  -5  -5  -4  342.87   51.29
   5   5  -4  463.45   61.79
  -5   5   4  493.35   67.39
  -5  -5  -4  367.96   80.49
  -5   5   4  528.35   55.79
   5  -5   4  538.05   62.59
   5  -5   4  339.07   62.59
  -5   5  -4  417.56   69.69
   5   5   4  551.74   69.89
  -5   5  -4  618.24   68.99
  -5  -5   4  546.35   83.19
   5   5   4  532.85   56.29
   5  -5  -4  590.94   71.89
   6  -5   4   -1.30   40.70
   6  -5   4   28.30   51.99
  -6  -5  -4  -66.39   58.79
  -6  -5   4   51.59   62.69
   6   5   4  -12.40   49.80
   0   6   4 1026.20   63.29
   0   6  -4 1009.20   64.79
   0  -6  -4 1130.49   68.79
   0   6   4 1174.78   62.39
   0  -6   4  871.51   71.59
   0  -6   4 1098.79   65.09
   0   6  -4 1124.79   56.39
   1   6  -4  781.42   56.49
   1  -6   4  798.12   58.89
  -1   6   4  744.53   61.19
  -1   6   4  841.92   51.49
   1  -6   4  729.53   66.09
  -1  -6  -4  828.32   60.99
  -1   6   4  787.22   57.59
   1  -6  -4  659.13   58.69
   1   6   4  778.32   43.20
   1   6   4  770.72   57.39
  -1   6  -4  701.63   57.49
   1   6   4  765.62   56.49
  -1  -6   4  727.13   57.99
  -1   6  -4  805.22   56.49
  -1  -6   4  750.32   66.59
  -2   6   4  728.53   45.80
  -2  -6  -4  851.11   60.19
   2   6  -4  731.93   55.49
   2   6  -4  734.63   51.59
   2  -6   4  774.92   60.09
  -2   6   4  721.83   61.59
   2  -6   4  690.83   69.29
  -2   6   4  769.32   63.59
   2   6   4  671.43   54.59
  -2   6  -4  738.73   60.09
  -2  -6   4  655.93   68.69
  -2   6  -4  754.32   63.89
   2   6   4  722.73   46.10
   2   6   4  746.33   58.59
   2  -6  -4  744.63   62.29
  -2  -6   4  752.52   60.79
  -3   6   4  415.96   57.69
   3  -6   4  349.57   49.50
  -3   6   4  286.67   48.10
  -3  -6  -4  243.48   39.80
  -3  -6  -4  331.37   45.50
   3   6  -4  216.88   38.00
   3  -6   4  286.27   53.79
   3   6  -4  234.78   43.00
   3   6   4  258.07   42.50
  -3   6  -4  285.77   53.29
  -3   6  -4  277.07   48.60
   3  -6  -4  265.87   45.10
   3   6   4  318.57   40.40
  -3  -6   4  327.87   61.99
   3   6   4  295.97   39.50
  -3  -6   4  432.56   62.79
  -4   6   4  325.37   50.69
   4  -6   4  322.47   61.39
   4  -6   4  353.86   52.49
  -4  -6  -4  261.97   45.70
   4   6  -4  305.77   48.90
  -4   6   4  246.48   46.40
  -4   6  -4  328.77   56.79
   4  -6  -4  248.88   48.70
   4   6   4  208.18   46.60
   4   6   4  320.27   47.20
  -4   6  -4  227.38   57.09
  -4  -6   4  312.57   65.29
  -5  -6  -4   81.29   70.69
   5  -6   4  115.39   52.19
  -5   6   4  179.88   48.70
   5   6  -4  213.08   48.60
   5  -6   4  184.48   45.30
  -5   6   4  134.19   39.30
   5  -6  -4  175.68   54.69
  -5   6  -4   94.69   56.79
   5   6   4  148.79   40.10
   5   6   4  111.69   51.39
  -5  -6   4  146.29   60.09
  -5   6  -4  117.39   49.10
   0   7   4   -2.30   22.50
   0   7  -4   11.60   25.30
   0   7  -4   26.20   31.10
   0  -7  -4   26.80   32.50
   0  -7   4   -5.70   27.50
   0  -7   4   11.40   35.00
   0   7   4    6.10   24.10
   1   7  -4  106.89   34.40
  -1  -7  -4   88.79   35.20
  -1   7   4   47.00   29.90
   1  -7   4  100.99   39.60
   1  -7   4   74.69   32.70
  -1   7   4   81.79   26.70
  -1   7   4   70.19   30.40
   1  -7  -4   71.99   36.20
  -1   7  -4   88.69   32.20
  -1  -7   4  107.49   44.70
   1   7   4   93.19   31.90
  -1   7  -4  100.79   38.20
   1   7   4  106.09   31.80
   2   7  -4  276.77   41.80
  -2   7   4  294.97   46.60
  -2   7   4  342.17   51.79
  -2  -7  -4  195.48   39.90
  -2   7   4  345.27   36.20
   2  -7   4  184.98   49.50
   2  -7   4  234.68   44.60
   2   7  -4  190.78   37.60
   2  -7  -4  218.28   40.50
  -2  -7   4  228.88   49.40
  -2   7  -4  248.08   46.40
  -2   7  -4  264.87   49.60
   2   7   4  309.87   42.60
   2   7   4  276.47   45.40
  -3  -7  -4  144.99   34.90
  -3  -7  -4   96.19   37.00
   3  -7   4  129.39   40.70
   3  -7   4   98.29   45.70
  -3   7   4  117.59   41.30
  -3   7   4  176.68   43.10
   3   7  -4  119.09   37.20
  -3  -7   4  133.19   45.30
  -3  -7   4  170.98   53.79
  -3   7  -4  130.29   44.60
   3   7   4  133.19   31.50
   3   7   4  104.59   30.50
  -3   7  -4   88.09   45.80
   3  -7  -4   53.59   37.80
   3   7   4  101.29   36.30
   4  -7   4  328.37   64.99
  -4   7   4  315.27   55.29
   4   7  -4  384.86   58.79
   4  -7   4  369.46   54.29
  -4   7   4  268.07   51.29
  -4  -7  -4  299.57   45.80
  -4   7  -4  300.97   62.89
   4  -7  -4  298.77   55.19
   4   7   4  248.28   48.70
  -4  -7   4  284.17   66.59
   4   7   4  324.67   52.29
  -4   7  -4  345.77   61.99
  -5   7   4   38.20   35.60
   5   7  -4   99.89   40.10
   5  -7   4   92.29   54.29
  -5   7   4   49.30   37.50
   5  -7   4   92.99   43.10
  -5  -7  -4  -90.09   63.99
   5  -7  -4   84.59   51.09
  -5   7  -4   -6.20   50.89
   5   7   4   65.39   49.40
  -5   7  -4  -52.59   42.70
  -5  -7   4  -19.20   52.99
  -5   7  -4  -77.69   47.40
   5   7   4   55.19   37.50
   0  -8   4  237.38   44.10
   0   8   4  222.48   38.70
   0   8  -4  191.48   45.80
   0  -8  -4  222.58   48.20
   0   8   4  161.98   38.60
   0  -8   4  154.28   52.39
  -1  -8  -4 1063.99   76.69
  -1   8   4 1055.19   74.59
   1  -8   4  960.10   82.29
  -1   8   4 1018.00   61.49
  -1   8   4 1112.69   74.19
   1  -8   4 1036.30   70.89
   1   8  -4 1115.09   74.59
   1   8   4 1225.78   75.99
  -1   8  -4 1092.49   78.29
   1  -8  -4  955.20   76.69
   1   8   4 1144.29   71.49
  -1  -8   4 1067.49   86.29
  -1   8  -4 1006.60   67.99
  -2   8   4  104.49   36.20
  -2   8   4  108.29   42.70
  -2  -8  -4  128.09   41.30
   2  -8   4   90.89   42.10
  -2   8   4  108.59   26.80
   2  -8   4  171.48   41.10
   2   8  -4  153.48   40.40
   2  -8  -4  176.38   44.40
  -2   8  -4   94.39   42.40
  -2  -8   4  127.49   50.79
   2   8   4  157.48   36.20
  -2   8  -4  106.49   41.60
   2   8   4  121.79   40.70
   3  -8   4  489.55   71.69
   3   8  -4  628.04   73.09
  -3  -8  -4  409.36   54.89
  -3  -8  -4  528.95   51.59
   3  -8   4  531.55   57.49
  -3   8   4  463.75   61.79
  -3   8   4  410.56   62.09
  -3   8  -4  512.05   67.29
   3   8   4  467.25   57.39
  -3  -8   4  423.96   68.29
   3  -8  -4  557.24   65.59
  -3   8  -4  479.45   64.59
   3   8   4  506.15   68.29
  -4   8   4  136.39   43.20
  -4  -8  -4  108.39   48.90
   4  -8   4   70.99   42.50
   4  -8   4  103.19   51.99
  -4   8   4   74.99   46.80
   4   8  -4  125.69   41.40
  -4   8  -4   16.00   48.70
   4  -8  -4  142.79   53.59
   4   8   4  119.99   45.30
  -4  -8   4   34.70   51.79
  -4   8  -4   48.20   48.40
  -5   8   4  204.98   72.29
   5  -8   4  131.19   46.10
  -5  -8   4   67.49   61.69
   5   8   4  119.09   59.19
  -5   8  -4   31.00   61.99
   0  -9   4    1.70   45.20
   0  -9   4  -18.00   34.90
   0  -9  -4   -7.00   37.70
   0   9   4    5.30   30.00
   0   9   4   40.40   32.90
   0   9  -4   -0.40   40.10
   1   9  -4   52.59   39.00
  -1  -9  -4   32.00   42.10
   1  -9   4   68.19   39.10
  -1   9   4   26.70   25.80
   1  -9   4   33.60   40.90
  -1   9   4   64.89   38.80
   1   9   4   62.39   32.90
   1   9   4   52.29   38.30
  -1   9  -4    6.70   39.50
  -1  -9   4   70.59   42.40
   1  -9  -4   81.39   41.40
   2   9  -4  187.88   44.60
   2  -9   4  188.38   44.80
  -2   9   4  141.39   37.20
  -2   9   4  151.88   48.50
   2  -9   4  114.09   51.69
  -2   9   4  101.49   39.40
  -2  -9  -4  196.78   48.60
   2   9   4  138.29   38.50
  -2   9  -4  111.99   41.30
  -2  -9   4  137.59   53.39
   2   9   4  156.18   47.70
   2  -9  -4  101.89   47.80
  -2   9  -4  129.49   49.50
   3  -9   4  159.68   57.39
  -3   9   4  118.49   52.89
   3   9  -4  199.98   51.49
  -3   9   4  188.38   44.00
  -3  -9  -4  153.38   47.80
   3  -9   4  192.98   46.30
  -3  -9  -4  185.38   40.80
  -3   9  -4  128.59   49.00
   3   9   4  180.48   46.50
   3  -9  -4   74.49   49.90
  -3  -9   4  174.38   57.19
  -3   9  -4   94.79   49.90
  -4   9   4   50.49   49.40
  -4  -9  -4   54.79   42.60
   4  -9   4   16.10   38.60
   4   9  -4  114.39   47.70
  -4   9   4  124.79   45.40
   4  -9   4   72.19   53.39
   4  -9  -4  143.29   61.19
   4   9   4   79.09   41.80
  -4   9  -4   93.99   49.80
  -4   9  -4   14.90   49.50
   0 -10   4  970.50   93.39
   0  10   4  983.20   77.49
   0  10   4  877.71   73.79
   0  10  -4  908.31   84.99
   0 -10  -4  991.10   88.09
  -1  10   4   34.80   28.50
   1  10  -4  -12.30   38.40
  -1  10   4   15.90   36.40
  -1 -10  -4 -112.99   44.70
  -1 -10  -4   20.60   45.80
   1 -10   4  -30.30   46.80
   1 -10   4  -20.80   35.00
   1  10   4   28.10   41.80
   1  10   4    6.00   29.90
   1 -10  -4   14.40   43.30
  -1 -10   4   27.40   43.40
  -1  10  -4  -22.00   41.60
   2 -10   4  720.33   87.39
  -2  10   4  631.14   76.69
  -2 -10  -4  491.65   65.59
   2  10  -4  643.24   67.59
   2 -10   4  591.84   62.69
  -2  10   4  645.74   70.19
   2 -10  -4  574.54   73.89
   2  10   4  579.54   62.89
   2  10   4  477.95   66.79
  -2  10  -4  602.34   75.79
  -2 -10   4  709.83   88.89
   3 -10   4   73.99   40.70
  -3 -10  -4   61.89   44.00
  -3  10   4  -37.10   45.20
  -3  10   4   79.49   40.30
   3 -10   4   -1.80   51.49
   3  10  -4   36.30   36.90
   3  10   4  100.49   48.60
  -3  10  -4    3.90   45.40
   3 -10  -4    4.30   53.39
  -3  10  -4   44.50   40.30
  -3 -10   4  -32.20   50.69
   0  11  -4   48.80   50.19
   0  11   4   61.49   38.80
   0 -11  -4   -6.70   47.20
   0 -11   4   57.49   57.89
   0  11   4   10.80   34.60
   1  11  -4   19.70   43.20
  -1  11   4   15.40   29.10
   1 -11   4   50.59   54.89
  -1  11   4   74.79   43.00
  -1 -11  -4   44.30   50.89
  -1 -11   4   49.90   51.89
  -1  11  -4   40.30   49.30
   1 -11  -4  -32.50   43.70
   1  11   4   45.70   35.00
   1  11   4   22.70   45.30
   2 -11   4   14.70   43.30
  -2  11   4   49.40   67.99
  -2 -11  -4   76.59   50.69
  -2 -11   4   41.40   61.19
   2  11   4  -25.00   62.79
  -1  12   4  373.36   71.89
   0   0   5  -38.60   19.40
   0   0   5   -6.40   21.10
   0   0   5   -8.50   21.00
   0   0   5  -22.90   19.60
   0   0  -5    1.00   26.50
   0   0  -5  -16.90   12.90
   1   0   5 1722.43   76.19
   1   0   5 1489.15   72.49
  -1   0   5 1638.74   71.19
  -1   0   5 1673.63   76.59
  -1   0  -5 1560.14   78.19
   1   0  -5 1580.14   67.19
  -1   0   5 1664.93   69.09
   1   0  -5 1500.35   61.79
   1   0   5 1647.94   69.59
  -1   0   5 1623.94   76.09
  -2   0   5   29.70   24.30
   2   0   5   42.40   30.00
  -2   0   5   52.09   23.70
   2   0  -5    9.90   16.50
  -2   0  -5   45.80   31.90
  -2   0   5   50.99   22.70
   2   0  -5   15.90   14.50
   2   0   5   59.79   30.00
   2   0  -5    5.20   22.40
  -3   0  -5  527.15   64.59
   3   0   5  544.25   57.29
   3   0  -5  710.53   59.59
   3   0  -5  607.84   43.70
  -3   0   5  642.44   49.20
  -3   0   5  682.73   72.29
   3   0   5  647.64   58.79
  -3   0   5  612.74   58.49
   3   0  -5  540.85   41.80
  -4   0  -5   81.39   45.70
   4   0  -5   99.09   30.10
  -4   0   5   42.70   25.50
   4   0   5   53.49   33.20
  -4   0   5   71.09   44.60
  -4   0   5   50.89   29.30
   4   0   5   43.00   37.20
   5   0   5  181.58   46.90
  -5   0  -5  292.37   44.40
  -5   0   5  222.48   58.59
   5   0   5  166.68   39.50
  -5   0  -5  149.09   62.19
  -5   0   5  276.67   51.89
   0  -1   5   59.49   28.60
   0   1   5   85.29   28.90
   0  -1  -5   85.19   32.70
   0   1   5   75.39   24.50
   0   1   5   94.19   25.50
   0   1   5   29.40   24.30
   0   1  -5  112.09   32.70
   0  -1  -5   78.69   20.40
   0  -1   5   78.79   29.10
   0  -1   5   64.29   24.20
   1   1  -5  237.38   29.60
   1   1  -5  205.98   29.60
  -1   1   5  310.97   42.90
  -1   1   5  308.37   35.30
   1  -1   5  281.67   39.20
   1  -1   5  175.98   32.40
   1  -1   5  302.57   39.40
   1   1  -5  254.37   38.80
  -1   1   5  254.47   34.00
  -1  -1  -5  318.67   46.50
   1  -1  -5  304.57   36.40
  -1  -1   5  260.57   34.80
  -1  -1   5  322.17   38.90
  -1   1  -5  313.87   45.50
  -1  -1   5  264.57   43.20
   1   1   5  306.77   39.50
   1   1   5  228.18   37.00
   1   1   5  228.88   37.70
  -2   1   5  382.06   45.50
  -2  -1  -5  326.17   47.80
  -2   1   5  366.76   48.20
   2   1  -5  282.57   31.00
   2  -1   5  313.57   42.00
   2  -1   5  328.87   45.90
  -2   1   5  278.47   34.00
   2  -1   5  252.47   37.70
   2   1  -5  305.97   38.80
   2   1   5  345.67   43.80
  -2   1  -5  269.77   46.70
   2  -1  -5  419.06   47.80
   2   1   5  279.57   41.10
  -2  -1   5  458.85   46.90
  -2  -1   5  386.16   46.60
  -2  -1   5  397.76   58.29
  -2  -1   5  293.37   36.00
  -3   1   5  210.88   52.49
   3   1  -5  186.98   32.90
   3  -1   5  182.48   42.80
   3  -1   5  172.48   37.50
  -3   1   5  198.58   36.40
  -3  -1  -5  127.29   41.50
  -3   1   5  173.08   28.10
  -3   1   5  204.38   41.10
   3   1  -5  205.48   31.50
   3   1   5  200.18   41.70
   3  -1  -5  145.99   37.00
  -3  -1   5  126.19   27.30
  -3  -1   5  175.78   35.40
   3   1   5  201.08   42.30
  -3  -1   5  226.88   54.49
  -3   1  -5  180.38   45.00
  -4   1   5  358.96   65.19
  -4  -1  -5  214.78   53.79
   4  -1   5  264.07   43.00
  -4   1   5  250.77   48.40
  -4   1   5  306.47   42.40
   4  -1   5  289.97   51.29
   4   1  -5  313.47   52.69
   4   1  -5  303.67   42.90
   4  -1  -5  330.67   51.19
  -4  -1   5  308.47   59.59
   4   1   5  297.67   47.00
  -4   1  -5  248.38   57.79
  -4   1  -5  391.86   53.29
  -4  -1   5  294.37   45.70
   4   1   5  243.08   49.90
   5  -1   5  217.88   42.10
  -5   1   5  254.87   55.19
   5   1  -5  177.48   38.90
   5  -1   5  207.18   52.09
  -5   1   5  247.88   61.79
  -5  -1  -5  141.59   57.79
   5   1   5  208.48   44.50
  -5  -1   5  173.68   52.29
  -5  -1   5  263.67   47.80
   5  -1  -5  338.87   57.29
   5   1   5  211.98   54.99
  -5   1  -5  180.28   58.09
  -5   1  -5  279.27   48.10
  -6  -1   5  387.06   70.79
   0  -2   5 1383.26   70.29
   0   2   5 1394.46   73.59
   0   2   5 1421.76   69.79
   0  -2   5 1366.16   69.99
   0  -2  -5 1478.45   63.19
   0  -2   5 1427.36   74.89
   0   2   5 1406.06   61.89
   0   2  -5 1378.76   69.29
   1   2  -5  111.79   23.80
  -1   2   5  188.88   32.60
   1  -2   5  146.19   35.40
  -1   2   5  157.28   35.10
   1   2  -5  175.28   32.20
  -1  -2  -5  198.68   40.20
  -1   2   5  207.88   28.70
   1   2  -5  134.69   31.20
   1  -2   5  148.69   34.80
   1   2  -5  187.08   28.50
   1  -2   5  194.98   34.70
   1   2   5  227.88   35.10
   1   2   5  168.28   34.20
  -1  -2   5  144.59   32.00
  -1  -2   5  184.48   40.10
  -1   2  -5  132.59   35.90
   1   2   5  161.48   33.20
   1  -2  -5  163.78   29.50
  -1  -2   5  204.38   36.70
   2  -2   5 1101.39   68.49
   2  -2   5 1052.59   64.99
   2  -2   5  972.60   66.09
   2   2  -5 1028.30   57.09
  -2   2   5  937.41   68.69
  -2  -2  -5  953.40   68.19
   2   2  -5 1009.50   54.09
   2   2  -5  997.90   53.59
  -2   2   5 1048.60   66.49
  -2   2   5  996.40   54.19
  -2   2  -5 1076.49   67.89
   2   2   5 1065.29   64.09
   2  -2  -5 1036.60   65.09
  -2  -2   5  994.70   73.79
  -2   2  -5  991.90   70.69
   2   2   5 1068.29   66.49
  -2  -2   5 1051.19   74.19
   3  -2   5  111.89   40.70
  -3   2   5   75.49   30.40
  -3   2   5   55.99   21.70
   3   2  -5  144.49   32.00
   3   2  -5   96.39   25.10
   3  -2   5  113.19   35.50
   3  -2   5   46.80   31.90
  -3  -2  -5   91.39   38.00
  -3   2   5   67.19   28.20
   3   2   5  100.39   37.20
   3  -2  -5   63.79   30.40
  -3   2  -5  119.99   36.20
  -3  -2   5   33.10   37.40
   3   2   5   84.59   32.80
  -3   2  -5   64.79   39.00
  -3  -2   5   73.39   27.60
  -4  -2  -5  252.87   53.99
   4   2  -5  395.76   49.90
  -4   2   5  342.57   43.20
  -4   2   5  377.36   57.39
   4  -2   5  421.66   59.49
   4  -2   5  291.07   46.40
  -4   2   5  269.27   55.49
  -4   2  -5  418.26   56.39
   4   2   5  274.97   49.20
   4   2   5  309.07   47.20
   4  -2  -5  469.95   61.59
  -4  -2   5  431.06   52.29
  -4   2  -5  380.86   64.49
  -4  -2   5  453.95   73.59
   5   2  -5  125.39   34.70
   5  -2   5  132.69   48.50
  -5   2   5   93.09   44.20
  -5  -2  -5   37.10   52.09
  -5   2   5   76.89   38.80
   5  -2   5   33.50   33.50
  -5  -2   5   66.09   33.10
   5   2   5   15.00   34.50
  -5  -2   5  112.59   49.80
  -5   2  -5  114.39   43.10
   5   2   5   80.79   46.70
   5  -2  -5   92.29   39.90
  -5   2  -5  -50.69   48.50
   0   3   5  337.77   46.50
   0   3  -5  358.96   42.90
   0  -3   5  375.86   46.20
   0   3  -5  389.56   46.80
   0   3   5  333.57   34.60
   0  -3   5  276.97   40.20
   0  -3  -5  380.76   41.00
   0  -3   5  377.76   49.20
   0   3   5  376.96   43.80
  -1   3   5   90.89   31.40
  -1   3   5   93.79   21.80
  -1   3   5   59.09   24.70
   1  -3   5   50.79   28.10
   1   3  -5  114.19   30.20
   1  -3   5   97.39   35.20
  -1  -3  -5   78.19   24.60
   1  -3   5   69.99   30.40
   1   3  -5   69.29   22.40
  -1   3   5  100.79   32.60
  -1  -3  -5  104.79   35.10
   1   3   5   63.69   28.20
   1   3   5   82.59   28.30
  -1   3  -5  106.79   33.40
  -1   3  -5   94.59   32.80
  -1  -3   5   58.49   26.90
  -1  -3   5   67.59   34.80
   1   3   5  101.99   26.30
   1  -3  -5   94.49   27.50
  -2  -3  -5  183.78   42.10
  -2   3   5  133.69   28.80
   2   3  -5  207.38   37.20
   2  -3   5  181.58   39.20
   2  -3   5  117.79   38.50
   2  -3   5  216.38   43.70
   2   3  -5   84.19   23.90
   2   3  -5  168.28   31.20
  -2   3   5  224.58   42.20
  -2   3   5  184.88   38.40
   2   3   5  149.19   36.00
  -2  -3   5  147.79   40.00
  -2  -3   5  172.08   45.90
  -2   3  -5  110.09   40.20
   2   3   5  126.09   33.80
   2   3   5  124.89   33.00
   2  -3  -5  228.48   41.10
  -2   3  -5  171.28   38.70
  -3  -3  -5  453.15   61.29
   3  -3   5  334.07   48.80
  -3   3   5  421.76   57.59
   3   3  -5  301.87   43.00
   3  -3   5  308.47   50.49
   3   3  -5  274.57   38.10
   3  -3   5  368.96   49.60
  -3   3   5  508.95   54.79
   3   3   5  395.16   50.59
  -3  -3   5  470.15   64.49
  -3  -3   5  343.57   42.30
   3  -3  -5  408.66   55.19
  -3   3  -5  465.65   56.59
  -3   3  -5  380.56   61.09
   3   3   5  424.86   51.49
   4  -3   5  194.38   40.40
  -4  -3  -5  153.58   49.30
   4  -3   5  155.78   43.60
   4   3  -5  126.49   35.00
   4  -3   5  116.39   45.00
  -4   3   5  191.38   38.10
  -4   3   5  103.89   37.70
  -4   3  -5  191.68   48.00
   4   3   5  123.29   44.90
  -4   3  -5  141.89   52.89
   4   3   5  162.78   41.40
  -4  -3   5  194.18   55.79
   4  -3  -5  135.79   39.40
   5   3  -5  439.66   58.19
  -5   3   5  362.36   69.09
  -5  -3  -5  186.18   53.99
  -5   3   5  347.57   63.49
   5  -3   5  289.77   57.19
   5   3   5  206.38   54.49
   5  -3  -5  255.57   49.70
   5   3   5  329.47   49.40
  -5  -3   5  325.77   70.39
  -5   3  -5  358.06   57.99
  -5   3  -5  268.37   67.89
   0   4   5  574.74   43.30
   0  -4   5  590.24   64.49
   0   4   5  485.25   52.09
   0  -4   5  595.64   54.39
   0   4   5  580.84   51.89
   0   4  -5  619.64   49.10
   0   4  -5  633.14   55.79
   0  -4  -5  563.44   51.69
  -1   4   5  705.93   63.19
   1   4  -5  688.33   46.50
   1  -4   5  719.23   61.39
   1   4  -5  658.43   54.39
  -1  -4  -5  740.33   54.09
   1  -4   5  695.03   66.49
  -1   4   5  811.32   54.09
  -1   4   5  776.62   61.59
   1  -4  -5  692.03   57.79
  -1   4  -5  831.62   60.89
   1   4   5  697.93   57.99
   1   4   5  800.72   48.80
   1   4   5  707.53   61.19
  -1  -4   5  737.33   59.79
  -1  -4   5  747.73   69.49
  -1   4  -5  765.42   60.39
   2   4  -5  188.08   32.10
   2  -4   5  238.58   41.60
  -2  -4  -5  344.87   51.69
   2  -4   5  261.57   50.19
  -2   4   5  340.97   39.60
  -2   4   5  250.67   42.20
  -2   4   5  259.07   45.50
   2   4  -5  235.58   36.60
   2   4   5  286.17   44.90
  -2  -4   5  325.37   51.59
   2   4   5  190.88   39.50
   2   4   5  341.07   40.70
  -2   4  -5  257.77   46.20
  -2  -4   5  325.67   58.29
  -2   4  -5  254.97   49.30
   2  -4  -5  158.08   36.40
  -3   4   5  627.94   60.29
  -3  -4  -5  598.74   63.69
   3  -4   5  572.24   68.49
   3  -4   5  636.24   66.29
  -3   4   5  667.93   67.59
   3   4  -5  580.54   56.49
   3   4   5  624.24   61.89
   3  -4  -5  667.63   64.39
   3   4   5  544.95   56.89
  -3   4  -5  530.65   63.69
  -3  -4   5  632.54   77.29
  -3  -4   5  518.45   67.99
  -3   4  -5  610.54   71.39
   4  -4   5  144.79   45.40
   4   4  -5  154.98   41.00
  -4  -4  -5  119.39   45.90
  -4   4   5  196.48   50.29
   4  -4   5   60.89   44.20
  -4   4   5  113.09   35.70
  -4   4  -5  138.89   53.19
  -4   4  -5  136.99   45.70
  -4  -4   5  240.88   62.79
   4  -4  -5  115.69   42.50
   4   4   5  118.39   40.00
   4   4   5  113.49   43.10
   5  -4   5  102.99   47.20
  -5   4   5  249.78   57.59
  -5  -4  -5  127.89   48.70
  -5  -4  -5  -82.79   65.19
   5   4  -5  124.39   39.10
   5   4   5  118.09   40.10
   5  -4  -5  134.89   46.50
  -5   4  -5  127.79   49.00
  -5  -4   5  196.88   65.49
  -5   4  -5  118.09   61.29
   5   4   5  100.69   49.99
   0   5   5   -1.00   24.90
   0  -5  -5  -10.60   26.50
   0  -5   5  -19.90   27.40
   0   5   5   15.90   27.70
   0   5  -5    3.50   30.90
   0   5  -5   28.10   23.80
   0  -5   5    7.00   35.20
  -1  -5  -5  150.68   35.40
  -1   5   5  272.47   48.40
  -1   5   5  284.17   39.30
   1   5  -5  318.87   46.80
   1  -5   5  191.68   41.60
  -1   5   5  199.58   39.60
   1  -5   5  175.88   45.70
  -1   5  -5  218.98   41.50
  -1  -5   5  176.78   38.60
   1   5   5  217.38   42.10
   1   5   5  199.18   38.90
  -1  -5   5  182.88   47.80
  -1   5  -5  189.58   43.60
   1  -5  -5  261.87   43.60
   2  -5   5  169.08   44.10
   2   5  -5  138.89   41.30
  -2   5   5  103.39   26.60
  -2  -5  -5  181.08   45.40
  -2   5   5   91.09   35.80
   2  -5   5   99.79   40.70
  -2   5   5  153.98   35.80
   2   5  -5  129.19   31.80
   2   5   5   78.09   33.80
  -2  -5   5  205.88   52.39
  -2  -5   5  175.88   41.20
  -2   5  -5  151.28   42.50
   2  -5  -5  137.19   38.20
   2   5   5   97.19   28.80
  -2   5  -5  140.49   44.70
   2   5   5  168.18   40.80
  -3   5   5  191.38   44.00
   3  -5   5  105.89   43.10
   3   5  -5  252.17   48.40
  -3  -5  -5  150.78   44.20
   3  -5   5  161.78   42.40
  -3   5   5  224.28   48.00
   3  -5  -5  112.09   36.70
   3   5   5  109.69   40.80
  -3  -5   5  147.79   49.80
   3   5   5  154.98   37.30
  -3  -5   5  171.68   47.60
  -3   5  -5  152.08   45.30
  -3   5  -5   98.89   48.30
   3   5   5  122.29   34.50
  -4   5   5  358.66   51.49
   4  -5   5  262.07   60.09
  -4   5   5  263.77   52.19
   4  -5   5  317.47   55.69
  -4  -5  -5  263.47   53.49
   4   5  -5  287.57   47.30
  -4   5  -5  280.57   58.79
  -4   5  -5  327.47   64.09
  -4  -5   5  321.17   67.09
   4   5   5  381.76   55.59
   4   5   5  255.07   52.49
   4  -5  -5  286.77   49.90
   5  -5   5   77.49   51.99
   5   5  -5   35.60   43.90
  -5   5   5   51.09   30.60
  -5  -5  -5    9.40   42.70
  -5  -5   5   55.09   56.09
  -5   5  -5   30.80   45.40
   5   5   5  -36.80   46.00
   5   5   5   50.69   37.80
   0  -6  -5  261.37   44.20
   0   6  -5  372.76   54.99
   0  -6   5  356.36   49.30
   0   6   5  460.45   56.09
   0   6   5  333.47   45.60
   0  -6   5  319.97   59.69
  -1  -6  -5  491.55   54.29
  -1   6   5  671.23   63.39
   1   6  -5  570.34   58.39
   1  -6   5  641.74   75.29
  -1   6   5  622.24   52.69
   1  -6   5  608.34   62.89
   1  -6  -5  595.24   64.79
  -1  -6   5  727.63   80.39
   1   6   5  579.74   58.99
  -1  -6   5  663.63   67.29
   1   6   5  741.93   65.59
  -1   6  -5  651.23   67.79
  -1   6  -5  562.24   58.19
  -2   6   5  310.57   50.89
  -2   6   5  240.58   46.00
   2  -6   5  262.17   52.69
   2   6  -5  336.27   46.80
  -2   6   5  315.17   39.60
   2  -6   5  313.07   50.19
  -2  -6  -5  305.77   50.29
  -2  -6  -5  249.08   42.60
   2  -6  -5  283.47   48.60
   2   6   5  321.27   50.69
  -2   6  -5  381.16   57.89
   2   6   5  267.37   44.70
  -2  -6   5  294.47   56.79
  -2   6  -5  282.67   52.39
  -3   6   5  465.75   61.79
  -3   6   5  431.76   64.29
   3  -6   5  277.07   58.29
  -3  -6  -5  434.96   59.59
   3  -6   5  358.56   53.59
   3   6  -5  306.97   50.79
  -3  -6   5  550.04   79.59
   3   6   5  345.57   56.99
  -3   6  -5  321.57   55.89
  -3   6  -5  272.77   57.79
   3   6   5  313.47   52.59
   3   6   5  296.57   47.60
   3  -6  -5  305.97   53.79
   4  -6   5  165.48   53.99
  -4   6   5  244.08   53.29
   4   6  -5  325.97   56.09
   4  -6   5  204.88   51.49
  -4  -6  -5  188.08   49.20
  -4   6   5  251.07   47.90
   4   6   5  234.98   49.10
  -4   6  -5  171.18   62.19
  -4   6  -5  203.38   57.49
  -4  -6   5  298.57   68.59
   4   6   5  161.98   47.50
   4  -6  -5  204.88   49.00
   0  -7   5  138.29   50.59
   0   7   5  146.69   37.50
   0   7   5  152.58   39.90
   0  -7   5  116.39   42.80
   0  -7  -5  151.48   43.70
   0   7  -5  186.98   47.60
  -1   7   5   28.30   32.50
  -1   7   5   35.80   27.40
  -1  -7  -5   12.40   34.90
   1  -7   5    1.30   34.80
   1  -7   5    6.70   45.80
   1   7  -5   58.39   37.80
   1   7   5   33.00   33.00
  -1   7  -5  -21.30   30.90
   1   7   5   15.30   31.30
  -1   7  -5    4.60   36.90
   1  -7  -5   -7.70   33.90
  -1  -7   5   12.20   40.50
   2  -7   5  110.99   49.20
  -2   7   5  169.18   46.20
  -2  -7  -5  198.08   45.20
  -2  -7  -5  156.38   41.70
   2   7  -5  165.88   42.10
  -2   7   5  148.29   32.30
  -2   7   5  181.28   43.90
   2  -7   5  191.68   46.20
  -2   7  -5  118.29   45.20
   2   7   5  172.08   41.10
  -2  -7   5  125.99   51.89
  -2   7  -5  157.98   48.60
   2  -7  -5  191.38   47.60
   2   7   5  165.48   45.00
  -3  -7  -5  211.38   47.20
   3  -7   5   82.79   46.90
  -3   7   5  120.19   43.20
   3   7  -5  124.09   40.00
  -3   7   5  154.48   47.30
   3  -7   5  129.99   46.20
   3   7   5  155.88   38.60
  -3  -7   5  163.38   60.09
   3  -7  -5  114.09   43.70
  -3   7  -5  150.18   48.50
  -3   7  -5  103.09   51.89
   3   7   5  175.08   46.90
   4  -7   5   84.29   49.99
  -4   7   5  254.77   92.09
  -4  -7  -5  104.69   43.70
  -4   7   5   68.89   42.10
   4  -7   5   61.69   45.40
   4   7  -5  111.99   54.09
  -4   7  -5   22.40   53.99
   4   7   5   80.59   49.99
  -4   7  -5  119.69   56.39
   0  -8   5  548.55   73.39
   0   8   5  588.84   65.59
   0   8  -5  553.44   70.39
   0  -8  -5  494.25   61.19
   0   8   5  452.65   53.89
   0  -8   5  637.74   70.89
   1   8  -5   66.49   42.90
  -1   8   5   87.59   32.30
   1  -8   5   84.19   41.10
  -1   8   5   33.10   36.70
  -1  -8  -5   69.89   42.00
   1  -8   5   80.19   48.40
  -1   8  -5   99.49   45.60
   1   8   5  114.49   40.20
  -1  -8   5   53.99   49.90
   1   8   5   55.69   37.50
   1  -8  -5   24.90   42.50
   2  -8   5  466.05   59.59
  -2  -8  -5  688.23   66.89
   2   8  -5  781.82   93.09
   2  -8   5  291.77   59.09
  -2   8   5  499.15   64.09
  -2   8   5  651.83   74.79
  -2  -8  -5  507.45   60.49
   2  -8  -5  511.55   64.99
  -2   8  -5  451.75   65.79
  -2   8  -5  609.04   70.99
   2   8   5  536.65   65.79
   2   8   5  642.34   66.89
  -2  -8   5  610.84   83.39
  -3   8   5   91.89   45.10
   3  -8   5   80.79   43.80
  -3   8   5  117.29   49.99
   3  -8   5   43.10   46.60
   3   8  -5  117.99   45.90
  -3  -8  -5  142.69   41.70
  -3   8  -5   49.30   50.39
   3   8   5   55.79   42.80
  -3   8  -5   11.60   45.10
  -3  -8   5   29.00   50.79
   3  -8  -5   52.69   43.40
   0  -9   5   11.80   56.99
   0   9  -5   62.09   48.80
   0  -9  -5   19.70   43.30
   0   9   5  -12.00   33.00
   0   9   5   33.70   33.50
   0  -9   5  -44.80   39.20
   1  -9   5   44.70   46.80
  -1   9   5   67.39   31.10
   1  -9   5  148.09   46.90
   1   9  -5   60.99   47.10
  -1   9   5  122.59   42.90
  -1  -9  -5   70.09   45.40
  -1  -9   5   87.29   51.49
   1   9   5  145.09   43.20
   1   9   5  121.09   45.30
  -1   9  -5  135.29   55.59
   1  -9  -5  107.79   48.60
  -2   9   5   20.40   42.50
   2  -9   5   37.10   50.29
  -2  -9  -5  205.68   44.90
  -2   9   5   75.39   39.80
   2  -9   5   88.39   44.30
  -2  -9  -5   13.70   43.00
   2  -9  -5   20.80   46.50
  -2   9  -5   38.20   49.80
  -2  -9   5   45.90   55.09
   2   9   5    9.00   35.00
   2   9   5   70.29   46.70
  -3  -9  -5  199.68   44.60
  -3   9  -5   24.20   62.99
   0  10   5  -20.60   35.90
   0  10  -5  -22.30   46.80
   0 -10  -5  -46.30   52.19
   0  10   5   25.10   41.00
  -1 -10  -5  365.46   68.79
   1 -10   5  524.65   91.79
   1  10  -5  444.36   69.19
  -1  10   5  466.35   52.49
   1  10   5  494.15   63.69
   0   0   6  223.78   38.80
   0   0  -6  248.38   46.90
   0   0   6  177.68   36.80
  -1   0  -6   18.40   35.10
   1   0   6   28.20   30.30
  -1   0   6    6.60   26.40
  -1   0   6   -2.30   25.00
   1   0  -6   67.89   33.80
   1   0   6   -2.60   30.00
  -2   0   6   86.39   30.80
   2   0  -6  105.19   31.10
  -2   0  -6   97.69   43.60
  -2   0   6  156.48   35.30
   2   0  -6  150.48   38.60
   2   0   6  118.39   38.30
   2   0   6  109.89   41.90
  -3   0  -6  167.78   53.69
  -3   0   6  159.98   37.90
   3   0   6  173.48   45.60
   3   0   6  154.98   44.60
   3   0  -6  223.58   42.20
  -3   0   6  163.88   41.20
  -4   0  -6   43.20   51.09
   4   0   6   86.09   46.90
   4   0   6  114.69   42.70
  -4   0   6  195.88   48.70
  -4   0  -6  235.08   47.70
   4   0  -6  119.99   39.90
   0   1  -6  530.95   57.59
   0  -1  -6  594.54   62.69
   0   1   6  564.64   52.99
   0  -1   6  652.93   63.59
   0  -1   6  440.56   54.59
   0   1   6  567.24   61.19
   0  -1   6  586.74   56.69
   0   1   6  625.94   62.09
   1  -1   6  351.76   51.79
  -1   1   6  279.67   38.40
  -1   1   6  367.06   47.00
   1  -1   6  269.57   45.50
  -1  -1  -6  310.77   54.79
   1   1  -6  426.76   51.99
  -1   1   6  295.77   47.00
   1  -1  -6  334.77   52.99
   1   1   6  260.57   43.40
  -1  -1   6  274.57   41.80
  -1  -1   6  374.06   52.99
  -1   1  -6  322.87   51.49
  -1  -1   6  252.57   40.90
   1   1   6  289.67   45.50
  -2  -1  -6  531.65   65.19
   2  -1   6  477.35   58.19
  -2   1   6  384.86   44.40
   2   1  -6  463.15   45.80
   2  -1   6  511.05   62.49
  -2   1   6  573.84   57.89
   2   1  -6  476.15   48.20
   2  -1  -6  502.35   54.89
   2   1   6  541.45   59.89
  -2   1  -6  457.05   63.79
   2   1   6  439.06   54.99
  -3  -1  -6  311.97   61.09
   3   1  -6  301.67   47.80
   3  -1   6  185.98   47.30
  -3   1   6  169.18   44.30
   3  -1   6  142.99   44.20
  -3   1   6  286.27   46.50
   3   1   6  252.27   49.99
  -3   1  -6  372.56   55.29
   3  -1  -6  200.88   43.70
  -3   1  -6  156.08   51.49
   3   1   6  254.27   50.59
   4  -1   6  218.88   53.09
   4   1  -6  376.66   54.29
  -4  -1  -6  228.38   58.29
   4  -1   6  228.08   50.29
  -4   1   6  217.58   49.20
  -4  -1   6  316.17   51.79
  -4  -1   6  250.67   63.99
   4   1   6  270.37   50.69
   4  -1  -6  305.57   52.69
  -4   1  -6  374.76   55.19
  -4   1  -6  165.58   61.19
   4   1   6  200.78   52.69
   0  -2   6   -4.80   29.80
   0   2   6   -0.40   23.90
   0   2  -6   30.30   29.00
   0  -2   6   11.90   31.60
   0  -2  -6   -4.20   34.50
   0  -2   6  -34.70   27.40
   0   2  -6   19.70   29.80
   0   2   6  -20.50   29.60
   0   2   6   27.90   32.00
   1   2  -6  129.69   33.90
   1  -2   6  118.39   37.50
  -1   2   6  183.28   38.50
  -1  -2  -6  224.68   50.29
   1   2  -6  181.38   38.60
   1  -2   6  140.29   39.50
   1  -2   6  147.79   43.00
  -1   2   6  160.58   38.90
  -1  -2   6   98.19   32.80
  -1   2  -6  198.48   46.40
   1   2   6   95.79   36.90
   1   2   6  164.68   35.70
  -1  -2   6  137.79   41.70
   1  -2  -6  199.88   37.10
  -1   2  -6  175.18   41.30
   1   2   6  200.48   44.30
  -2  -2  -6   96.09   44.20
   2   2  -6  130.79   31.20
   2  -2   6  114.19   40.40
  -2   2   6  108.49   35.50
  -2   2   6   67.39   26.80
   2  -2   6  112.29   41.20
   2   2  -6   29.00   24.30
   2   2   6  106.69   37.70
   2   2   6  165.38   43.60
  -2   2  -6  140.39   38.10
   2  -2  -6  126.89   35.40
  -2   2  -6  113.19   46.40
   3  -2   6  157.88   48.70
  -3   2   6  106.39   41.80
   3  -2   6   68.19   40.40
  -3   2   6  139.29   37.40
   3   2  -6  104.29   32.10
   3   2  -6   77.89   33.70
  -3  -2  -6  109.69   47.80
   3   2   6  127.89   41.50
  -3   2  -6  137.39   53.79
  -3   2  -6  158.78   41.40
   3  -2  -6   82.99   35.10
   3   2   6  103.19   42.90
  -4   2   6  236.88   48.00
  -4  -2  -6  154.78   57.59
   4  -2   6  231.88   59.39
  -4   2   6  180.98   48.00
   4  -2   6  129.69   43.80
   4  -2  -6  274.27   52.49
  -4   2  -6  179.08   75.29
  -4  -2   6  306.27   65.59
   4   2   6  221.88   49.70
  -4   2  -6  313.37   55.39
   4   2   6  226.28   52.39
   0   3   6  126.49   37.10
   0  -3   6   93.09   38.70
   0   3  -6  152.38   40.40
   0  -3  -6  234.58   50.99
   0   3  -6  191.08   39.50
   0  -3   6   70.19   39.50
   0   3   6  175.48   42.30
   1  -3   6  733.33   69.69
  -1   3   6  641.04   65.39
   1  -3   6  601.74   63.39
  -1   3   6  719.63   61.19
  -1  -3  -6  656.83   69.99
   1   3  -6  688.33   53.79
   1   3  -6  699.43   59.59
   1  -3   6  585.84   66.09
  -1  -3   6  723.13   63.59
   1   3   6  646.14   54.99
  -1  -3   6  588.74   69.09
  -1   3  -6  685.83   67.19
  -1   3  -6  710.33   64.59
   1   3   6  667.23   66.49
   1   3   6  717.53   69.39
   1  -3  -6  709.93   60.79
   2  -3   6   78.19   44.30
   2   3  -6   31.90   26.50
   2  -3   6   85.09   39.80
  -2   3   6   23.60   32.30
   2  -3   6   50.39   37.40
  -2  -3  -6  116.69   42.50
  -2   3   6   87.19   29.10
   2   3  -6   60.09   31.30
  -2   3  -6   81.69   37.20
   2   3   6   80.69   39.10
  -2  -3   6   34.30   40.50
  -2   3  -6   51.09   41.80
   2   3   6   85.09   35.10
   2  -3  -6  102.59   34.50
   3   3  -6  368.06   49.30
  -3   3   6  471.75   64.39
  -3  -3  -6  492.35   67.49
   3  -3   6  422.46   58.19
  -3   3   6  638.34   68.79
   3  -3   6  252.77   49.00
  -3  -3   6  502.15   72.39
  -3   3  -6  418.06   69.19
   3   3   6  332.67   51.69
   3   3   6  501.65   61.49
  -3   3  -6  495.95   62.99
   3  -3  -6  339.47   52.39
   4   3  -6  132.69   36.00
  -4   3   6   72.39   34.90
  -4  -3   6  223.48   58.99
   4   3   6  123.79   63.19
   4   3   6  113.39   45.40
   4  -3  -6   97.89   44.10
   0  -4   6   76.89   40.90
   0  -4   6  147.69   43.80
   0   4  -6  129.89   37.00
   0   4  -6  114.89   40.80
   0   4   6  135.89   38.80
   0   4   6   76.39   32.40
  -1   4   6   88.89   38.30
   1   4  -6  136.89   39.00
   1  -4   6  109.49   41.20
  -1   4   6   53.49   31.90
  -1  -4  -6  139.29   45.50
   1  -4   6   66.59   36.10
  -1  -4   6   42.80   36.70
   1  -4  -6   90.49   35.70
  -1   4  -6   36.20   35.70
   1   4   6  100.59   40.00
  -1   4  -6   21.70   35.40
   1   4   6  106.39   39.00
  -1  -4   6   66.49   37.20
  -2   4   6  104.69   30.80
   2  -4   6   56.49   38.00
   2  -4   6  103.49   41.80
  -2   4   6  141.79   41.60
  -2  -4  -6  191.98   49.50
   2   4   6  142.99   44.00
  -2   4  -6   70.29   45.00
   2  -4  -6   84.59   36.90
  -2   4  -6  139.19   44.70
  -2  -4   6  122.79   48.00
   2   4   6  129.69   43.60
  -3  -4  -6  176.18   51.49
  -3   4   6  126.49   39.60
   3   4  -6  108.19   34.80
  -3   4   6  139.09   44.70
   3  -4   6  102.29   41.30
  -3   4  -6  114.09   47.60
  -3   4  -6  111.29   55.59
   3   4   6  136.59   41.50
   3   4   6  155.58   45.20
   3  -4  -6   94.99   38.10
  -4   4   6   93.39   39.90
   4   4  -6   79.29   44.90
   4   4   6  115.69   45.30
  -4  -4   6   85.79   57.69
   0  -5   6  793.32   72.69
   0   5  -6  854.51   72.89
   0  -5   6  543.65   67.89
   0   5   6  680.13   69.29
   0   5   6  690.33   63.79
   0  -5  -6  672.13   90.99
  -1   5   6   30.70   35.70
  -1   5   6   51.69   29.30
   1   5  -6   21.50   35.70
   1  -5   6   51.39   39.80
  -1  -5  -6   89.89   42.40
   1  -5   6   39.70   37.80
  -1  -5   6  -15.90   38.80
  -1   5  -6   50.79   38.90
   1   5   6    9.10   33.40
  -1  -5   6   35.10   39.70
   1  -5  -6   61.69   39.50
   1   5   6   17.20   32.40
  -1   5  -6    4.40   37.00
  -2  -5  -6  719.93   71.29
  -2   5   6  710.03   74.49
   2  -5   6  401.06   62.29
   2  -5   6  574.64   66.39
  -2   5  -6  510.05   65.19
  -2  -5   6  630.44   80.99
   2  -5  -6  649.04   70.99
   2   5   6  554.44   62.39
   2   5   6  688.73   69.19
  -2   5  -6  531.05   69.79
  -3   5   6    2.70   33.20
  -3  -5  -6   59.29   42.90
   3  -5   6   25.50   42.40
   3  -5   6   68.09   45.60
   3   5  -6   28.40   31.00
  -3   5   6   33.00   36.60
   3  -5  -6   19.80   36.70
  -3   5  -6   66.29   48.50
   3   5   6   42.20   37.80
  -3   5  -6  -43.10   46.70
   0   6   6  105.49   40.20
   0  -6  -6   54.49   39.40
   0   6   6  116.19   37.20
   0  -6   6   73.99   48.90
   0  -6   6  118.29   43.90
   0   6  -6  125.59   44.30
  -1  -6  -6  181.18   47.60
  -1   6   6   84.89   32.10
   1   6  -6   69.49   42.40
  -1   6   6   52.39   37.60
   1  -6   6   97.49   46.90
   1  -6   6   73.39   45.60
   1   6   6   97.59   39.10
   1  -6  -6   38.60   40.60
  -1  -6   6   68.89   45.20
  -1   6  -6   86.09   44.40
   1   6   6   87.59   40.50
   2  -6   6   98.09   42.60
  -2   6   6   72.19   39.90
  -2  -6  -6  107.29   47.80
   2  -6   6  111.59   50.99
  -2  -6   6   63.09   51.39
   2  -6  -6   81.19   42.00
  -2   6  -6   83.49   45.40
   2   6   6  115.19   39.30
  -2   6  -6   33.80   47.10
   2   6   6   79.09   39.40
   3  -6   6   25.70   46.00
   0   7   6   52.89   34.00
   0  -7  -6   53.09   43.70
   0   7  -6   49.10   44.40
   0   7   6   56.39   38.20
   0  -7   6    9.40   41.20
   0  -7   6   -5.40   44.00
   1  -7   6  596.24   74.09
   1  -7   6  529.55   75.49
  -1  -7  -6  563.84   70.29
  -1   7   6  504.85   68.39
   1   7  -6  705.63   76.59
  -1   7   6  536.85   56.69
  -1  -7   6  514.85   75.89
   1   7   6  681.83   73.79
   1   7   6  527.25   64.79
  -1   7  -6  511.65   70.39
   1  -7  -6  428.76   64.19
   2  -7   6   33.70   55.39
   2   7   6   40.00   42.30
   0  -8  -6  -32.30   42.70
  -1   8   6   94.69   34.90
   0   0   7   -0.40   31.40
   0   0  -7   49.40   38.40
   0   0   7  -39.80   32.10
   1   0  -7   61.79   35.40
   1   0   7   28.50   43.40
   1   0   7   81.59   40.20
  -1   0  -7   90.79   46.00
  -1   0   7   24.30   32.50
   2   0   7   92.19   50.09
   0  -1   7  236.48   50.79
   0   1   7  192.68   46.40
   0  -1  -7  253.67   54.59
   0   1  -7  246.78   45.90
   0   1  -7  238.58   49.90
   0  -1   7  207.58   44.10
  -1   1   7  340.57   52.09
   1  -1   7  336.47   73.69
   1   1  -7  474.65   59.59
   1   1  -7  686.23   60.69
  -1  -1  -7  474.95   78.39
   1  -1   7  420.26   59.39
  -1  -1   7  309.07   49.99
  -1   1  -7  754.22   97.99
   1   1   7  563.24   75.19
  -1   1  -7  390.06   62.19
   1  -1  -7  550.24   65.79
   1   1   7  381.56   51.09
  -2   1   7  124.39   39.90
   2  -1  -7  340.97   56.19
   0   2   7   47.50   36.70
   0   2  -7  191.68   42.30
   0   2  -7   -1.30   35.70
   0  -2  -7  133.89   48.40
   0  -2   7   57.29   38.20
   1   2  -7  119.59   36.00
  -1   2   7   24.60   34.00
  -1   2   7   -9.00   39.60
   1  -2   7   41.60   37.30
  -1  -2   7  -26.80   33.90
  -1   2  -7   27.90   43.70
   1  -2  -7  150.98   45.30
   2   2   7   65.69   61.59
   0   3   7  511.75   66.19
   0  -3   7  619.94   81.69
   0   3  -7  683.43  106.49
   0   3  -7  774.62   91.99
   1   3  -7   89.79   41.10
  -1   3   7   31.00   34.90
  -1   3  -7   -9.70   43.20
  -1  -3   7   63.89   59.19
_computing_structure_solution     'SHELXT 2014/4 (Sheldrick, 2014)'
;
_shelx_hkl_checksum              46949
_shelx_res_file
;
    sad_a.res created by SHELXL-2014/7
TITL sad_a.res in P2(1)2(1)2(1)
REM Old TITL sad in P2(1)2(1)2(1)
REM SHELXT solution in P2(1)2(1)2(1)
REM R1 0.025,  Rweak 0.025,  Alpha 0.002,  Orientation as input
REM Flack x = -0.030 ( 0.043 ) from Parsons' quotients
REM Formula found by SHELXT:  O2 Te
CELL  0.71073   4.8809   8.5668   4.3433   90.000   90.000   90.000
ZERR    4.000   0.0002   0.0004   0.0002    0.000    0.000    0.000
LATT -1
SYMM 1/2-X, -Y, 1/2+Z
SYMM -X, 1/2+Y, 1/2-Z
SYMM 1/2+X, 1/2-Y, -Z
SFAC O TE
UNIT 8 4
TEMP 23
L.S. 10
BOND $H
LIST 6
FMAP 2
PLAN 20
rem koordinaten und Gitterparameter wie in Originalpublikation
rem colourless needle
size 0.18 0.01 0.01
acta
WGHT    0.014000    0.017100
FVAR       0.58554
TE1   2    0.969756    0.101218    0.136981    11.00000    0.01128    0.00983 =
         0.01058   -0.00096   -0.00163    0.00182
O1    1    0.770444    0.282205    0.177800    11.00000    0.01429    0.01143 =
         0.01834    0.00062   -0.00119    0.00564
O02   1    0.860171    0.037921    0.734692    11.00000    0.01441    0.02002 =
         0.00750   -0.00364    0.00061   -0.00673
HKLF 4
REM  sad_a.res in P2(1)2(1)2(1)
REM R1 =  0.0252 for     816 Fo > 4sig(Fo)  and  0.0326 for all     893 data
REM     28 parameters refined using      0 restraints
END
WGHT      0.0140      0.0171
REM Highest difference peak  1.807,  deepest hole -1.281,  1-sigma level  0.319
Q1    1   0.9716  0.1078  0.2921  11.00000  0.05    1.81
Q2    1   0.9919  0.0607  0.1417  11.00000  0.05    1.37
Q3    1   0.9656  0.1493  0.1404  11.00000  0.05    1.33
Q4    1   0.7933  0.3421  0.2114  11.00000  0.05    1.13
Q5    1   1.2903  0.1004  0.3641  11.00000  0.05    1.11
Q6    1   1.1145  0.1027  0.2951  11.00000  0.05    1.09
Q7    1   0.7602  0.3040  0.3630  11.00000  0.05    1.09
Q8    1   0.9760  0.1043 -0.0375  11.00000  0.05    1.07
Q9    1   0.8000  0.4021  0.0776  11.00000  0.05    1.05
Q10   1   1.1408 -0.0403  0.7259  11.00000  0.05    1.05
Q11   1   0.8424  0.0196  0.2510  11.00000  0.05    1.03
Q12   1   0.9536  0.1000  0.7211  11.00000  0.05    1.02
Q13   1   0.5342  0.3176  0.1652  11.00000  0.05    1.00
Q14   1   0.9029  0.1846  0.7919  11.00000  0.05    0.97
Q15   1   0.8632  0.1030  0.0448  11.00000  0.05    0.97
Q16   1   1.0926  0.1892  0.2356  11.00000  0.05    0.97
Q17   1   0.8779  0.1031  0.2560  11.00000  0.05    0.96
Q18   1   0.9514 -0.0547  0.7656  11.00000  0.05    0.94
Q19   1   0.8107  0.0978 -0.0205  11.00000  0.05    0.94
Q20   1   1.0893  0.0239  0.2485  11.00000  0.05    0.93
;
_shelx_res_checksum              99805
loop_
_space_group_symop_operation_xyz
'x, y, z'
'-x+1/2, -y, z+1/2'
'-x, y+1/2, -z+1/2'
'x+1/2, -y+1/2, -z'
loop_
_atom_site_type_symbol
_atom_site_label
_atom_site_fract_x
_atom_site_fract_y
_atom_site_fract_z
_atom_site_U_iso_or_equiv
_atom_site_adp_type
_atom_site_calc_flag
_atom_site_occupancy
Te Te1 0.96976(6) 0.10122(4) 0.13698(7) 0.01056(7) Uani d 1
O O1 0.7704(7) 0.2822(4) 0.1778(9) 0.0147(8) Uani d 1
O O2 0.8602(7) 0.0379(4) 0.7347(8) 0.0140(7) Uani d 1
loop_
_atom_site_aniso_label
_atom_site_aniso_U_11
_atom_site_aniso_U_22
_atom_site_aniso_U_33
_atom_site_aniso_U_12
_atom_site_aniso_U_13
_atom_site_aniso_U_23
Te1 0.01128(12) 0.00983(11) 0.01058(11) 0.00182(11) -0.00163(11) -0.00096(13)
O1 0.0143(16) 0.0114(17) 0.018(2) 0.0056(12) -0.0012(14) 0.0006(15)
O2 0.0144(18) 0.0200(19) 0.0075(15) -0.0067(14) 0.0006(13) -0.0036(14)
loop_
_atom_type_symbol
_atom_type_description
_atom_type_scat_dispersion_real
_atom_type_scat_dispersion_imag
_atom_type_scat_source
O O 0.0106 0.0060 'International Tables Vol C Tables 4.2.6.8 and 6.1.1.4'
Te Te -0.5308 1.6751 'International Tables Vol C Tables 4.2.6.8 and 6.1.1.4'
loop_
_geom_angle_atom_site_label_1
_geom_angle_atom_site_label_2
_geom_angle_atom_site_label_3
_geom_angle_site_symmetry_1
_geom_angle_site_symmetry_3
_geom_angle
O1 Te1 O2 . 1_554 100.36(17)
O1 Te1 O2 . 2_654 93.14(17)
O2 Te1 O2 1_554 2_654 78.68(9)
O1 Te1 O1 . 4 91.69(9)
O2 Te1 O1 1_554 4 75.60(14)
O2 Te1 O1 2_654 4 154.28(13)
Te1 O1 Te1 . 4_455 131.6(2)
Te1 O2 Te1 1_556 2_655 125.18(18)
loop_
_geom_bond_atom_site_label_1
_geom_bond_atom_site_label_2
_geom_bond_site_symmetry_2
_geom_bond_distance
Te1 O1 . 1.839(3)
Te1 O2 1_554 1.906(3)
Te1 O2 2_654 2.048(3)
Te1 O1 4 2.241(4)
O1 Te1 4_455 2.241(3)
O2 Te1 1_556 1.906(3)
O2 Te1 2_655 2.048(3)

_cod_database_fobs_code 1548796
