#------------------------------------------------------------------------------
#$Date: 2018-02-17 09:22:08 +0200 (Sat, 17 Feb 2018) $
#$Revision: 206485 $
#$URL: file:///home/coder/svn-repositories/cod/cif/1/54/89/1548931.cif $
#------------------------------------------------------------------------------
#
# This file is available in the Crystallography Open Database (COD),
# http://www.crystallography.net/. The original data for this entry
# were provided by IUCr Journals, http://journals.iucr.org/.
#
# The file may be used within the scientific community so long as
# proper attribution is given to the journal article from which the
# data were obtained.
#
data_1548931
loop_
_publ_author_name
'Wang, Sai'
'Liu, Cong'
'Fan, Changzeng'
_publ_section_title
;
 Al~10~Ni~3~Fe~0.83~, an Fe-depleted phase in the Al--Ni--Fe system
;
_journal_coeditor_code           WM4071
_journal_issue                   2
_journal_name_full               IUCrData
_journal_page_first              x180237
_journal_paper_doi               10.1107/S2414314618002377
_journal_volume                  3
_journal_year                    2018
_chemical_formula_iupac          'Al10 Ni3 Fe0.83'
_chemical_formula_sum            'Al10 Fe0.83 Ni3'
_chemical_formula_weight         492.52
_chemical_name_systematic
;
Decaaluminium trinickel iron
;
_space_group_crystal_system      hexagonal
_space_group_IT_number           194
_space_group_name_Hall           '-P 6c 2c'
_space_group_name_H-M_alt        'P 63/m m c'
_symmetry_space_group_name_Hall  '-P 6c 2c'
_symmetry_space_group_name_H-M   'P 63/m m c'
_audit_creation_method           SHELXL-2016/6
_cell_angle_alpha                90
_cell_angle_beta                 90
_cell_angle_gamma                120
_cell_formula_units_Z            2
_cell_length_a                   7.6981(2)
_cell_length_b                   7.6981(2)
_cell_length_c                   7.6231(2)
_cell_measurement_reflns_used    3731
_cell_measurement_temperature    293(2)
_cell_measurement_theta_max      74.20
_cell_measurement_theta_min      5.80
_cell_volume                     391.227(18)
_computing_cell_refinement
;
APEX3 and SAINT (Bruker, 2015)
;
_computing_data_collection
;
APEX3 and SAINT (Bruker, 2015)
;
_computing_data_reduction
;
APEX3 and SAINT (Bruker, 2015)
;
_computing_molecular_graphics
;
DIAMOND (Brandenburg & Putz, 2017)
;
_computing_publication_material
;
publCIF (Westrip, 2010)
;
_computing_structure_refinement
;
SHELXL2014 (Sheldrick, 2015b)
;
_computing_structure_solution
;
SHELXT (Sheldrick, 2015a)
;
_diffrn_ambient_temperature      293(2)
_diffrn_measured_fraction_theta_full 0.988
_diffrn_measured_fraction_theta_max 0.989
_diffrn_measurement_device_type  'Bruker APEXII Photon 100 CMOS'
_diffrn_measurement_method       'Phi and omega scans'
_diffrn_radiation_type           CuK\a
_diffrn_radiation_wavelength     1.54178
_diffrn_reflns_av_R_equivalents  0.0352
_diffrn_reflns_limit_h_max       9
_diffrn_reflns_limit_h_min       -9
_diffrn_reflns_limit_k_max       9
_diffrn_reflns_limit_k_min       -9
_diffrn_reflns_limit_l_max       9
_diffrn_reflns_limit_l_min       -9
_diffrn_reflns_number            5095
_diffrn_reflns_theta_full        67.679
_diffrn_reflns_theta_max         74.188
_diffrn_reflns_theta_min         6.640
_exptl_absorpt_coefficient_mu    30.591
_exptl_absorpt_correction_T_max  0.170
_exptl_absorpt_correction_T_min  0.104
_exptl_absorpt_correction_type   multi-scan
_exptl_absorpt_process_details
;
(<i>SADABS</i>; Bruker, 2015)
;
_exptl_crystal_colour            metallic
_exptl_crystal_density_diffrn    4.181
_exptl_crystal_description       Grain
_exptl_crystal_F_000             471
_exptl_crystal_size_max          0.09
_exptl_crystal_size_mid          0.09
_exptl_crystal_size_min          0.06
_refine_diff_density_max         0.530
_refine_diff_density_min         -0.415
_refine_ls_extinction_coef       0.0025(7)
_refine_ls_extinction_expression Fc^*^=kFc[1+0.001xFc^2^\l^3^/sin(2\q)]^-1/4^
_refine_ls_extinction_method
;
SHELXL2014 (Sheldrick, 2015b)
;
_refine_ls_goodness_of_fit_ref   1.085
_refine_ls_hydrogen_treatment    undef
_refine_ls_matrix_type           full
_refine_ls_number_parameters     21
_refine_ls_number_reflns         178
_refine_ls_number_restraints     0
_refine_ls_restrained_S_all      1.085
_refine_ls_R_factor_all          0.0292
_refine_ls_R_factor_gt           0.0288
_refine_ls_shift/su_max          0.000
_refine_ls_shift/su_mean         0.000
_refine_ls_structure_factor_coef Fsqd
_refine_ls_weighting_details
'w=1/[\s^2^(Fo^2^)+(0.0460P)^2^+2.8861P] where P=(Fo^2^+2Fc^2^)/3'
_refine_ls_weighting_scheme      calc
_refine_ls_wR_factor_gt          0.0890
_refine_ls_wR_factor_ref         0.0897
_reflns_number_gt                177
_reflns_number_total             178
_reflns_threshold_expression     'I > 2\s(I)'
_cod_data_source_file            wm4071sup1.cif
_cod_data_source_block           I
_cod_original_cell_volume        391.23(2)
_cod_database_code               1548931
_shelx_space_group_comment
;
The symmetry employed for this shelxl refinement is uniquely defined
by the following loop, which should always be used as a source of
symmetry information in preference to the above space-group names.
They are only intended as comments.
;
_shelx_estimated_absorpt_t_min   0.159
_shelx_estimated_absorpt_t_max   0.270
_shelx_hkl_file
;
   0  -1   0  754.22   30.80
   0  -1   0  688.53   30.80
   0   1   0  724.03   30.90
   0   1   0  742.43   30.80
   0   1   0  727.13   30.70
   1  -1   0  791.92   30.90
   1  -1   0  704.63   31.10
   1  -1   0  636.34   31.20
   1   0   0  786.12   31.10
  -1   1   0  745.43   31.00
  -1   1   0  656.33   31.20
   0  -1   0  737.53   30.90
  -1   0   0  624.84   30.90
  -1   0   0  771.92   31.20
   1  -2   0   12.60    1.50
   1   1   0    9.00    1.70
   1   1   0   14.20    1.80
  -1   2   0    9.20    1.60
  -1   2   0   10.90    0.70
   2  -1   0    9.10    2.00
  -1   2   0   12.50    1.30
  -1  -1   0   12.60    2.20
  -2   1   0   13.50    2.80
  -2   1   0   12.70    1.90
  -2   2   0  813.82   40.50
   0  -2   0  950.30   39.90
   0   2   0  943.11   40.00
   0   2   0  958.50   39.80
   0   2   0  898.91   39.60
  -2   2   0  960.30   40.20
  -2   0   0  889.61   40.90
   2   0   0  960.30   40.40
  -2   0   0  890.41   40.10
   2  -2   0  991.80   40.20
  -2  -1   0   27.20    3.40
  -1  -2   0   29.10    2.50
   1   2   0   28.50    3.10
   1   2   0   32.90    2.80
   2  -3   0   32.90    3.10
   3  -1   0   29.60    4.10
   2   1   0   27.90    3.40
  -3   2   0   29.50    3.10
   2   1   0   31.20    3.50
  -3   1   0   25.20    3.00
  -1   3   0   29.10    3.10
  -1   3   0   31.90    2.70
   3  -2   0   28.30    3.60
  -2   3   0   21.80    3.40
  -2  -1   0   27.70    2.80
  -3   1   0   30.70    4.30
  -2   3   0   35.00    3.20
  -2   3   0   29.10    2.20
  -3   0   0 2032.50   85.79
   0  -3   0 2028.10   84.49
   0   3   0 1947.71   84.49
  -3   3   0 2080.99   84.89
   3  -3   0 2074.19   84.99
   3   0   0 1966.40   85.19
   0   3   0 2012.50   84.19
  -3   0   0 1889.11   84.59
   3   0   0 1975.00   85.49
  -3   3   0 1700.33   85.09
   4  -2   0 9999.00  408.26
  -2   4   0 9156.68  407.96
   2   2   0 9759.82  407.26
  -4   2   0 9976.80  407.26
  -2  -2   0 9653.93  406.96
   2  -4   0 9965.40  407.26
  -2   4   0 8690.63  408.66
  -4   2   0 9429.16  408.36
  -2  -2   0 9858.21  407.16
   4  -3   0    4.60    2.60
  -4   1   0    1.80    2.90
  -4   1   0    8.30    2.50
  -1  -3   0    4.30    2.20
   3   1   0    3.50    2.70
  -3   4   0    5.00    2.60
  -3  -1   0    4.70    2.60
  -4   3   0    4.40    3.00
  -4   3   0    5.20    2.40
  -3  -1   0    3.90    2.10
  -1   4   0    3.80    1.60
   1   3   0    4.00    1.90
   3  -4   0    4.10    2.10
  -3   4   0    3.20    2.80
   0   4   0  236.88   11.50
  -4   4   0  208.58   12.90
  -4   0   0  243.28   12.10
  -4   0   0  241.58   14.00
   0  -4   0  222.58   11.90
   4   0   0  235.58   13.40
   4  -4   0  214.28   12.70
  -4   4   0  231.78   12.30
  -5   2   0  150.48   10.50
   2  -5   0  148.79    9.20
  -5   2   0  143.79    8.90
  -5   3   0  148.69   10.70
   3  -5   0  145.59    9.50
  -5   2   0  142.79    7.50
   2   3   0  143.89    9.10
   3   2   0  145.29    9.60
  -2  -3   0  153.18    8.30
   2  -5   0  145.09    9.30
  -5   3   0  160.18    9.20
  -5   3   0  133.49    7.60
  -3  -2   0  146.89    8.20
  -3  -2   0  148.79   11.00
   3  -5   0  149.69    9.90
  -4  -1   0  253.57   13.00
   1  -5   0  234.78   12.20
  -4  -1   0  274.27   14.20
  -5   4   0  214.78   11.30
   4   1   0  235.88   14.00
   5  -1   0  229.18   14.40
  -5   1   0  236.68   12.60
  -1  -4   0  236.38   11.70
  -5   1   0  233.68   11.10
   1   4   0  236.28   12.50
   4  -5   0  232.98   13.40
   1  -5   0  220.98   12.90
   4  -5   0  231.98   13.90
  -5   1   0  258.17   14.60
   5  -4   0  226.88   14.80
  -5   4   0  224.88   14.20
  -4  -1   0  229.98   11.40
  -1  -4   0  227.48   12.80
   5  -5   0  256.57   14.60
  -5   0   0  260.67   14.00
  -5   0   0  265.57   15.60
  -5   0   0  251.27   12.00
   0  -5   0  251.57   12.80
   0  -5   0  242.78   14.30
   5   0   0  258.87   15.70
  -3   6   0 6744.43  286.97
  -3  -3   0 6340.37  288.17
  -6   3   0 6840.12  286.17
   3  -6   0 6793.32  287.97
  -6   3   0 6805.02  286.97
   3  -6   0 6511.85  288.77
  -3   6   0 6878.61  286.77
   3   3   0 6718.03  286.97
  -6   3   0 6807.32  286.77
   3   3   0 6825.92  287.47
  -3  -3   0 7158.18  287.57
  -6   3   0 6921.11  286.77
  -3   6   0 7275.07  287.47
   3   3   0 6373.96  287.07
   3   3   0 6505.95  286.77
  -2  -4   0   23.50    5.60
  -2  -4   0   32.80    6.20
   4  -6   0   24.80    8.10
   4   2   0   43.40    6.30
   6  -2   0   24.50    5.40
  -2   6   0   26.50    4.50
  -2  -4   0   29.20    4.30
  -4   6   0   22.90    3.50
   6  -2   0   41.80    6.30
   2   4   0   26.20    3.90
   2  -6   0   28.70    5.10
  -6   2   0   24.30    3.70
   4   2   0   22.40    4.30
   4  -6   0   12.60    5.20
  -6   2   0   24.20    3.10
  -6   4   0   26.00    4.20
  -4  -2   0   26.50    4.10
  -4  -2   0   16.00    4.50
  -2   6   0   23.70    4.30
  -6   4   0   23.90    3.60
  -6   4   0   25.70    4.10
  -6   4   0   23.10    2.80
   2   4   0   25.10    3.60
   4   2   0   23.00    4.50
   4   2   0   23.10    4.60
  -6   2   0   25.10    4.90
  -6   2   0   28.10    4.20
  -2   6   0   26.10    4.30
  -2   6   0   29.90    4.70
  -4  -2   0   28.90    3.90
   4  -6   0   23.00    8.10
  -4   6   0   26.90    4.30
   2  -6   0   21.70    5.80
   2  -6   0   34.10    5.50
   4   2   0   23.10    3.70
   6  -4   0   20.50    6.00
   2   4   0   28.80    4.60
   2   4   0   33.80    5.30
  -1  -5   0    6.20    2.60
  -6   1   0    6.00    1.80
  -5   6   0    5.80    3.70
   5   1   0    2.80    4.10
   1   5   0    3.70    2.60
   1   5   0    6.00    2.80
  -1   6   0    7.20    2.60
   5   1   0    0.70    3.40
  -6   5   0    6.70    3.00
  -1   6   0    3.00    3.80
   1  -6   0    8.10    3.80
   5   1   0   11.10    3.90
  -6   1   0    5.20    2.80
  -5   6   0    4.30    3.70
   1   5   0    5.30    2.90
   6  -5   0   11.30    5.20
   5  -6   0   11.80    4.80
  -6   5   0    4.20    2.60
   1  -6   0    3.60    3.10
  -1  -5   0    5.70    3.50
   1   5   0   10.90    3.30
   6  -1   0    9.30    3.70
  -6   5   0    9.70    3.50
  -6   1   0    5.80    2.50
   5   1   0    4.30    3.30
  -5  -1   0    7.00    2.90
  -5  -1   0    4.00    1.90
   5  -6   0   -3.90    4.40
   6  -1   0    7.20    4.20
  -1   6   0    5.70    2.60
  -5   6   0    7.40    2.70
  -1   6   0    6.70    3.70
   6  -1   0   -1.30    4.20
  -6   0   0   62.49    5.80
   0   6   0   64.49    5.70
   0  -6   0   64.19    7.10
  -6   0   0   54.49    5.60
  -6   6   0   52.69    5.90
   6   0   0   55.49    6.90
  -6   6   0   65.79    6.80
   0   6   0   50.09    5.60
   6  -6   0   49.10    8.50
   6   0   0   54.89    6.70
   0  -6   0   62.59    5.40
   0   6   0   62.69    5.10
  -6   6   0   64.19    5.00
   6   0   0   61.19    6.70
  -6   0   0   59.39    4.10
   3   4   0  300.97   17.70
  -4  -3   0  331.67   14.80
   3  -7   0  337.57   15.90
   4   3   0  345.67   18.00
   4   3   0  331.67   16.80
  -3   7   0  285.97   18.10
   4  -7   0  340.97   16.10
  -7   3   0  323.07   14.30
  -4  -3   0  373.26   17.90
   3  -7   0  291.87   19.50
  -3  -4   0  317.07   18.30
  -3  -4   0  319.17   15.00
   3   4   0  266.87   16.20
  -4   7   0  332.97   16.00
   4  -7   0  269.47   19.70
  -7   3   0  306.07   15.60
  -7   3   0  305.67   16.30
   3   4   0  336.27   16.70
  -7   4   0  283.87   15.50
  -7   4   0  335.97   16.70
  -2   7   0  458.25   20.70
  -2   7   0  490.55   21.40
   2  -7   0  447.86   21.30
   7  -5   0  460.95   22.30
  -5   7   0  469.85   20.90
   5   2   0  432.86   21.20
   2   5   0  458.95   20.90
  -2  -5   0  470.15   21.70
  -5  -2   0  477.95   20.40
  -7   2   0  451.75   20.60
   5   2   0  425.26   21.00
   5   2   0  455.95   21.00
  -2   7   0  429.46   23.70
   5  -7   0  466.25   22.80
   5  -7   0  469.35   21.70
  -2   7   0  458.35   20.80
   5   2   0  438.06   21.30
  -7   2   0  463.25   20.10
   2   5   0  452.45   20.80
  -7   5   0  466.55   20.90
  -7   5   0  460.45   20.80
   2   5   0  454.95   21.40
   7  -2   0  428.56   21.20
  -7   2   0  453.55   20.80
  -7   5   0  438.36   20.80
   2  -7   0  473.65   22.10
   5   2   0  474.45   21.30
  -7   5   0  483.65   20.80
  -5   7   0  461.95   21.10
  -2  -5   0  458.15   20.90
  -5  -2   0  452.45   21.10
   1  -7   0   80.79    6.70
   6   1   0  100.19    6.70
  -7   6   0  100.09    6.00
   1   6   0   97.39    6.30
  -6  -1   0   94.99    6.30
  -7   1   0  108.09    6.20
  -1   7   0  104.09    6.20
  -1   7   0   92.29    5.90
   6   1   0   99.39    6.60
  -7   6   0   92.89    6.30
  -1   7   0   94.59    6.50
   1   6   0   94.79    5.90
   1   6   0   87.59    6.10
   7  -6   0  102.89    8.20
  -1   7   0   97.79    6.70
  -1  -6   0   96.79    6.40
   7  -1   0  101.99    7.20
   1   6   0   99.99    6.30
  -6  -1   0   97.79    5.50
  -7   6   0   99.99    6.40
   6  -7   0  107.09    8.70
  -6  -1   0  100.19    6.30
   1  -7   0  105.79    7.60
  -7   1   0  107.79    6.00
  -6   7   0   93.79    6.10
  -6   7   0  103.89    6.60
  -7   1   0  107.89    6.10
   7  -1   0  100.89    6.50
  -1  -6   0  108.29    7.10
   6   1   0  106.99    6.60
   7  -7   0   22.60    3.90
   7   0   0   27.20    3.70
   7   0   0   26.10    4.00
  -7   0   0   28.00    3.00
  -7   7   0   18.90    3.10
  -7   0   0   21.10    3.10
   0  -7   0   22.10    3.10
   7   0   0   33.60    4.10
  -7   7   0   25.10    3.60
   0   7   0   25.00    3.10
   0  -7   0   15.90    3.00
   0   7   0   23.60    3.30
   0   7   0   24.60    3.90
   0   7   0   21.60    3.50
  -7   0   0   22.50    2.60
   4   4   0    3.90    2.40
  -4  -4   0    9.00    2.20
  -8   4   0    4.30    1.70
  -8   4   0    5.40    1.70
   4   4   0    6.20    2.30
  -4   8   0    3.60    2.30
   4   4   0    6.90    2.60
   4  -8   0    3.00    3.80
   4   4   0    7.10    2.20
   4  -8   0    4.10    3.30
  -4   8   0    9.00    2.50
  -4  -4   0    5.80    1.90
  -8   4   0    6.30    1.90
   4   4   0    6.70    2.00
  -8   5   0  108.59    5.80
  -3  -5   0  110.49    6.10
  -3   8   0  112.29    6.00
  -3  -5   0  113.19    6.80
   5   3   0  110.99    6.30
   3   5   0  111.09    6.30
  -3   8   0  106.99    6.10
  -3   8   0  108.09    6.40
   3   5   0   96.69    6.00
   3  -8   0  108.39    7.60
  -8   3   0  110.99    5.80
   3   5   0  108.69    6.10
   5   3   0  108.29    6.40
  -8   3   0  103.39    5.80
   5   3   0  108.19    6.20
  -5   8   0  104.49    6.00
   5  -8   0  107.49    8.10
   8  -3   0  103.19    6.70
  -8   5   0  114.99    6.10
  -5  -3   0  108.59    6.40
  -8   3   0  110.39    5.90
   5   3   0  115.99    6.40
  -5   8   0  102.59    6.40
   3   5   0  101.59    6.60
  -5  -3   0  108.49    5.70
   3  -8   0  109.19    7.40
   6   2   0    3.20    2.00
   2   6   0    7.40    2.00
   6  -8   0    5.50    3.20
  -6  -2   0    0.50    1.60
  -2   8   0    3.90    1.90
  -2  -6   0    0.00    2.10
  -6  -2   0    5.90    1.80
   2   6   0    1.70    1.80
  -8   2   0    4.70    2.20
  -8   6   0    4.50    2.00
   2  -8   0    3.30    2.90
  -8   2   0    3.50    1.50
  -2   8   0    5.30    2.20
  -8   2   0    4.60    1.50
  -8   6   0    5.00    2.00
   6   2   0    5.70    2.80
  -8   6   0    2.10    1.50
  -6  -2   0    1.00    1.50
   6   2   0    1.80    1.90
  -2  -6   0    3.10    2.20
   2  -8   0    0.10    2.60
  -2   8   0    5.50    2.10
  -6   8   0    1.80    1.80
   1  -8   0 2118.49   90.59
  -8   7   0 2143.99   89.79
  -7   8   0 2032.20   89.89
  -1   8   0 2183.08   90.19
  -7  -1   0 2009.00   89.59
  -1  -7   0 2002.40   90.19
   1   7   0 2217.48   90.09
   7   1   0 2182.98   90.09
  -7   8   0 2166.58   89.79
   1  -8   0 1959.80   90.39
   1   7   0 2100.79   89.99
   7   1   0 2084.69   89.89
  -8   1   0 2141.19   89.99
  -8   1   0 2049.99   89.79
  -1   8   0 2098.69   89.99
  -7  -1   0 2036.30   89.79
  -7  -1   0 2138.09   89.99
  -1   8   0 2239.08   89.99
  -1   8   0 1987.60   89.79
   7   1   0 2144.89   90.09
  -8   7   0 2097.19   89.89
   7  -8   0 2206.18   90.69
   8  -1   0 2083.99   89.99
  -8   1   0 2182.98   89.89
  -1  -7   0 2134.19   90.39
   8  -7   0 2152.78   90.29
   1   7   0 2200.08   89.89
  -8   0   0   97.89    4.80
   0   8   0   98.99    4.90
  -8   0   0  100.49    4.80
  -8   0   0   94.99    4.70
   0   8   0   98.29    5.20
   0  -8   0   94.39    5.40
   8   0   0  101.09    5.00
   8  -8   0   95.39    6.10
  -8   8   0  100.19    4.70
  -9   4   0   64.39    3.50
  -5  -4   0   58.29    3.60
  -4  -5   0   59.59    3.70
  -9   5   0   61.39    3.40
  -5   9   0   61.69    3.80
  -5  -4   0   60.99    3.80
  -5  -4   0   59.69    3.70
   4   5   0   67.39    3.70
  -4   9   0   61.39    3.80
  -4   9   0   60.69    3.60
   4   5   0   58.09    3.70
   4   5   0   62.09    5.60
  -9   5   0   60.79    3.60
   5   4   0   66.29    3.80
   5  -9   0   68.49    5.80
   5   4   0   64.39    3.70
   5   4   0   61.99    3.80
   4  -9   0   56.19    4.90
  -9   4   0   65.39    3.40
  -5   9   0   60.99    3.60
   5   4   0   61.89    4.70
  -4  -5   0   60.59    3.80
   4   5   0   63.89    3.70
  -9   3   0   20.30    1.90
  -6   9   0   16.20    1.90
  -9   3   0   19.60    1.70
  -3  -6   0   21.60    2.70
   3   6   0   13.00    2.30
  -9   6   0   21.20    2.20
  -6  -3   0   19.60    1.90
  -9   6   0   20.40    1.70
   6   3   0   18.00    2.20
  -3   9   0   18.10    2.70
   6   3   0   16.20    2.00
  -6  -3   0   18.70    2.00
   3   6   0   18.20    2.20
  -3  -6   0   19.80    2.40
  -6   9   0   17.70    2.30
   6  -9   0   20.10    3.60
   3  -9   0   19.00    3.20
  -9   3   0   18.70    2.00
   3   6   0   20.90    2.10
  -3   9   0   18.50    2.20
  -9   2   0  198.28    8.50
  -7   9   0  191.08    8.50
   7  -9   0  199.28    9.10
  -7  -2   0  189.08    8.40
   7   2   0  182.38    8.50
  -7  -2   0  174.58    8.50
   7   2   0  186.58    8.50
   2   7   0  199.08    8.60
   2  -9   0  184.58    9.60
  -9   2   0  194.08    8.40
   2   7   0  202.58    8.70
   9  -2   0  183.48    8.60
  -7  -2   0  195.58    8.60
  -9   2   0  177.48    8.50
  -2  -7   0  196.88    8.80
  -9   7   0  182.58    8.50
   2   7   0  195.08    8.60
   0   0   1    0.40    0.30
   1   0   1  105.79    5.80
   0  -1  -1  107.19    4.90
   0   1  -1  106.99    5.30
   0   1   1  107.79    4.80
   0  -1  -1  112.59    5.00
   1   0   1  114.49    5.00
  -1   1   1  110.59    4.90
   1  -1  -1  114.59    5.30
   0  -1  -1  110.99    4.90
  -1   1  -1  114.49    5.30
  -1   1  -1  115.29    5.50
  -1   0  -1  118.09    5.30
   1  -1   1  103.79    5.20
  -1   0  -1  111.09    5.60
  -1   1  -1  114.49    5.20
   1   0  -1  101.39    5.40
   0  -1  -1  119.99    5.00
   0  -1   1  107.69    5.20
   1   0  -1  120.19    5.70
   1   0   1  108.89    5.30
   1  -1   1  108.79    5.00
   0   1  -1  107.59    5.00
   0   1  -1  103.39    5.00
   1  -1   1  102.99    4.90
   1  -1  -1   95.59    5.50
  -1   1   1  107.99    5.40
   0   1   1  124.99    5.30
  -1   0   1  104.49    5.20
   0  -1   1  113.79    4.90
  -1   0   1  109.59    5.60
  -1   0  -1  108.69    5.10
  -1   0  -1   99.39    5.50
   2  -1  -1    3.70    1.80
   1   1  -1    2.00    1.30
  -1  -1  -1    4.80    1.10
  -1  -1  -1    4.30    1.30
   2  -1   1    0.00    1.30
  -2   1  -1    3.30    1.70
  -1   2   1    2.50    0.40
   1   1  -1    3.10    1.20
  -2   1   1   -0.10    1.70
   1  -2  -1    3.40    1.00
  -1   2   1    2.90    1.00
  -1   2  -1    1.10    1.20
   1  -2  -1    2.10    1.60
   1   1   1    0.70    1.10
   2  -1   1    0.50    1.30
   0  -2  -1 2585.44  105.69
   2  -2  -1 2618.14  106.29
   0   2  -1 2531.85  105.59
   2  -2   1 2704.43  106.19
   0   2  -1 2518.65  106.19
   2   0  -1 2720.03  106.69
  -2   0  -1 2367.36  106.79
  -2   2  -1 2267.57  108.19
  -2   2   1 2226.18  106.49
  -2   0   1 2304.17  106.69
  -2   2  -1 2368.76  106.09
   2   0   1 2378.96  106.69
   0  -2  -1 2560.64  105.19
  -2   0  -1 2285.67  105.89
   0   2   1 2472.75  105.79
   0   2   1 2566.84  105.89
   0  -2   1 2565.74  105.29
   0  -2  -1 2685.13  105.99
  -2   2   1 2434.16  106.19
   0  -2   1 2592.14  106.09
  -2   0   1 2389.96  106.19
   2   0   1 2642.24  106.09
  -1   3  -1   11.50    2.50
  -2   3   1   10.60    2.00
  -1   3  -1   11.50    1.60
  -3   2  -1    9.30    2.60
   2  -3   1   12.50    2.50
  -1  -2   1    8.90    1.20
  -1   3  -1   11.40    2.50
   3  -1   1    8.60    3.00
  -3   2  -1   10.10    2.40
  -3   1   1   13.80    2.90
  -3   1   1   10.90    2.80
   2   1  -1   13.00    2.50
  -2  -1  -1   10.40    2.00
   3  -1   1   10.90    2.50
   1  -3  -1    9.80    2.00
   1   2   1   12.70    3.10
   3  -2  -1   12.40    3.50
  -1  -2   1   11.10    2.50
   1   2   1   11.00    2.10
  -2  -1  -1    7.20    2.30
  -2   3   1   11.00    1.10
   2   1  -1    7.40    2.20
  -2  -1   1    9.20    2.10
  -3   2   1   12.40    2.90
  -2  -1   1    6.50    2.00
   2  -3  -1   10.80    2.30
  -1  -2  -1   10.50    1.90
  -2   3  -1   10.30    2.00
  -2   3  -1    9.40    2.10
   1  -3   1   13.90    2.40
  -1  -2  -1    9.60    1.80
  -3   2   1    6.00    2.00
  -1   3   1   10.80    2.00
  -3   1  -1    9.40    2.50
  -1   3   1    7.50    2.60
   2   1   1    9.60    2.10
   1   2  -1   10.50    2.20
   3  -1  -1    8.60    2.70
   1   2  -1    9.80    2.30
  -3   1  -1   15.00    2.30
   3  -3  -1 7815.82  321.57
   3  -3   1 8112.89  321.57
  -3   0   1 7477.75  321.37
   0  -3   1 8009.20  321.27
   3   0  -1 7653.83  321.97
   0  -3   1 7652.53  319.77
  -3   0  -1 7726.93  321.07
  -3   3   1 7787.02  321.87
   0   3  -1 7554.64  321.27
  -3   3  -1 6878.21  321.67
  -3   3   1 7679.73  321.37
  -3   3  -1 7122.69  321.07
  -3   0   1 8034.40  322.47
   3   0   1 7411.16  321.67
  -3   0  -1 6749.02  321.97
   4  -2   1    0.30    2.70
   2  -4   1    5.20    2.30
  -2   4  -1   -1.50    2.10
   2  -4  -1    2.80    1.90
  -4   2  -1   -0.40    1.70
   2   2  -1    0.10    2.10
  -2  -2   1    3.60    1.50
  -2  -2  -1    0.90    2.00
  -2  -2  -1   -0.50    1.60
   2   2  -1    1.00    2.80
  -4   2   1    2.30    2.10
  -4   2   1    1.40    2.90
  -2  -2   1    1.40    1.90
   2   2   1   -1.50    1.80
  -4   2  -1    1.20    2.70
  -2   4  -1    0.90    2.20
   4  -2  -1    2.40    3.10
  -3   4   1  805.52   37.40
  -1   4  -1  838.62   37.50
  -4   3  -1  756.42   38.30
   4  -3  -1  870.11   38.30
   4  -1   1  858.81   38.30
  -4   1   1  813.02   37.40
   3   1  -1  789.82   40.30
  -4   3  -1  861.81   37.40
   1   3   1  836.62   37.10
   3  -4   1  873.71   37.70
  -1   4  -1  883.21   37.40
  -4   1   1  962.10   39.20
   3   1  -1  874.21   38.30
   1  -4  -1  898.51   37.30
  -3  -1  -1  849.22   37.20
  -1  -3   1  872.51   37.40
  -3  -1  -1  875.11   38.20
  -1  -3  -1  860.31   37.10
  -3   4  -1  740.03   37.20
  -3   4  -1  781.42   37.80
   4  -1  -1  733.63   38.10
   3  -4  -1  787.62   37.40
  -3  -1   1  823.32   37.60
  -4   3   1  902.71   38.70
   3   1   1  856.61   37.90
  -4   1  -1  874.81   37.30
  -1   4   1  832.12   36.90
  -4   3   1  810.92   37.50
  -4   1  -1  787.42   38.50
   1   3  -1  861.61   36.90
  -3  -1   1  866.11   38.20
  -4   4   1  118.99    8.40
  -4   0   1  106.29    7.50
  -4   4  -1   90.39    8.10
   0  -4   1  119.69    8.90
   0  -4  -1  105.89    6.80
  -4   4  -1  100.89    7.30
  -4   0   1  115.59    8.60
  -4   0  -1   97.99   11.00
   0  -4   1  110.69    7.30
   4  -4  -1  107.49    8.20
   4   0  -1  112.69    8.80
   4  -4  -1  105.19    9.80
   4   0   1  112.39    8.40
  -4   0  -1  106.19    6.80
  -2  -3   1   40.80    4.90
  -5   2   1   41.70    4.30
   2  -5  -1   49.00    6.30
   3  -5   1   43.00    6.20
  -5   2   1   43.10    5.60
   3   2  -1   53.09    7.10
   2  -5  -1   39.60    5.20
  -5   3  -1   37.20    7.10
   2   3   1   46.00    5.30
   5  -2   1   49.50    7.50
  -3  -2  -1   43.90    4.90
  -5   2   1   49.90    6.90
   3  -5   1   47.10    5.80
  -3  -2  -1   40.10    4.90
   5  -3  -1   38.20    5.80
  -5   3  -1   45.50    5.20
  -2  -3   1   41.20    5.70
   5  -3  -1   40.60    7.60
  -5   3  -1   41.80    3.80
   2   3  -1   50.19    5.90
   2  -5   1   47.90    6.60
  -5   2  -1   43.20    3.70
   3  -5  -1   50.19    6.90
  -2  -3  -1   46.10    4.80
  -5   3   1   42.30    6.80
  -2  -3  -1   41.50    4.90
   3   2   1   45.60    5.80
   2  -5   1   39.20    5.90
  -5   2  -1   41.70    7.10
  -3  -2   1   40.30    4.80
  -5   4  -1 1316.57   57.99
  -4  -1  -1 1418.46   59.59
   1  -5  -1 1345.67   58.69
   4   1  -1 1354.16   60.59
  -4  -1  -1 1332.97   58.19
  -5   1   1 1509.85   61.29
   5  -1   1 1350.46   60.59
   5  -4  -1 1259.07   60.79
   1   4   1 1292.97   59.19
  -1  -4   1 1341.07   59.79
  -5   1   1 1392.06   59.79
   1  -5  -1 1398.46   59.69
   5  -4  -1 1254.67   59.09
  -5   1   1 1388.76   57.89
  -4  -1  -1 1423.46   60.59
  -1  -4   1 1386.26   58.49
  -5   1  -1 1402.56   59.29
   5  -1  -1 1177.58   60.49
  -5   1  -1 1343.37   60.89
  -1  -4  -1 1362.06   58.39
  -1  -4  -1 1343.27   59.29
  -5   1  -1 1345.07   57.99
   4  -5  -1 1311.47   59.19
   1  -5   1 1406.26   60.39
  -4  -1   1 1361.06   58.09
   4  -5  -1 1316.97   60.29
  -1   5   1 1265.77   58.79
  -4  -1   1 1396.66   60.09
   1  -5   1 1340.87   58.69
  -4   5  -1 1246.78   57.99
  -4  -1   1 1483.65   60.79
   4   1   1 1330.57   60.39
  -5   4   1 1422.06   60.59
   5   0   1   45.80    7.10
   0   5  -1   40.60    6.20
   5  -5  -1   61.59   10.00
  -5   0  -1   47.90    4.00
  -5   0  -1   51.19    5.80
   0   5   1   33.50    6.70
  -5   5   1   56.19    5.30
   5   0   1   54.09    9.30
   0  -5   1   52.09    7.00
   5   0   1   56.09    8.60
  -5   0  -1   56.29    8.80
  -5   0   1   64.59    5.80
  -5   0   1   49.30    8.30
  -5   5  -1   42.90    7.40
   5  -5  -1   54.99    9.30
   0   5   1   48.50    5.40
   5   0  -1   53.49    7.00
  -5   5  -1   50.19    9.60
   0  -5  -1   44.80    5.20
  -5   0   1   48.70    6.00
   5  -5  -1   43.80    6.90
  -5   5  -1   43.50    5.90
  -5   0   1   45.60    4.00
   0   5  -1   46.00    6.40
   5   0  -1   43.50    7.00
   0   5   1   41.80    4.80
  -5   0   1   52.49    7.40
   0  -5   1   44.50    5.30
   0  -5   1   48.20    7.70
  -5   5  -1   47.30    4.30
   0   5   1   49.70    8.50
   3  -6  -1    4.00    4.60
   6  -3   1    3.50    4.60
  -3  -3   1    3.30    3.60
   3  -6   1   -2.50    4.50
  -3   6   1    1.50    2.40
  -3   6   1   -0.70    3.60
   3   3   1    1.60    2.90
   3  -6   1    0.10    4.20
  -3   6   1    2.00    3.20
  -3  -3  -1    0.60    2.80
  -6   3  -1   -0.10    2.50
   3  -6  -1   -1.20    5.00
   3   3   1   -1.80    3.30
  -3  -3  -1   11.30    4.50
   3   3  -1    6.40    4.10
  -6   3  -1    1.00    1.70
  -3   6  -1   -5.40    3.70
  -3   6  -1    0.40    2.80
  -6   3   1   -0.30    2.90
  -6   3  -1   -2.70    3.60
  -3  -3   1   -1.60    4.80
  -6   3   1   -0.20    3.30
  -3   6   1    0.80    4.20
   3   3   1   -7.20    5.30
   3   3  -1   -2.50    5.40
  -3   6  -1   11.90    4.80
  -3  -3  -1    1.80    4.00
   3   3   1    2.80    3.40
   3   3  -1   -0.10    4.10
  -6   3   1   -1.40    2.70
   6  -3  -1   -2.00    4.80
   3   3   1   -0.20    3.50
   3  -6  -1    3.60    3.70
   3   3  -1   -3.10    2.90
  -3  -3   1   -1.10    2.40
  -3   6  -1    2.20    3.00
  -3   6  -1   -2.00    5.60
  -6   3   1    1.20    2.30
  -2   6  -1   15.00    3.10
   2   4   1   11.80    3.00
   2   4   1    8.20    3.60
  -4  -2  -1    5.40    3.70
  -4  -2  -1    5.80    2.30
   2  -6  -1   15.10    3.50
  -6   2   1   16.50    3.70
  -2   6  -1   11.10    3.10
  -2   6  -1    7.30    4.00
   6  -2   1    6.90    4.40
  -2  -4   1    8.50    3.60
   4   2  -1   18.90    5.00
   4   2  -1   12.80    4.20
  -4   6   1    6.10    4.80
   4  -6   1   12.20    5.30
  -4   6   1    8.10    3.30
  -4   6   1    7.40    2.60
   4  -6   1   -0.90    5.20
   2   4   1   16.30    3.30
  -4  -2  -1    6.30    4.10
   2  -6  -1   13.50    5.00
   4   2  -1   13.90    4.60
   6  -2   1   -2.10    4.00
  -6   4  -1    4.00    2.70
  -2  -4   1   14.70    5.50
  -6   4  -1   13.80    2.20
  -6   4  -1    5.60    2.80
   6  -2   1   14.70    5.40
  -6   2   1    7.90    2.60
   6  -4  -1   21.50    5.60
  -2  -4   1   14.70    3.00
  -4   6   1   13.70    4.10
   2  -6  -1   11.90    4.40
  -6   2   1    8.60    3.10
   2   4   1    2.90    3.20
   4  -6  -1   10.00    5.00
  -2  -4  -1   13.70    4.90
   2   4  -1    5.30    3.30
   4  -6  -1    9.00    5.90
  -2   6   1    9.00    3.70
  -6   4   1    7.60    3.50
  -2   6   1   13.10    3.40
  -4  -2   1    2.50    4.80
  -6   4   1    5.50    3.20
   6  -2  -1   13.40    5.30
  -4  -2   1   14.10    3.50
   4   2   1   12.60    3.50
   2  -6   1   19.90    4.90
   2   4  -1    5.20    4.50
  -2   6   1   11.00    3.40
  -6   2  -1    7.80    1.80
  -4  -2   1    8.20    2.40
   2   4  -1    5.40    2.60
  -6   4   1    7.80    3.20
   4  -6  -1    4.30    3.90
  -6   4   1    6.80    2.70
   4   2   1   17.70    4.00
  -2  -4  -1    9.50    2.60
  -6   2  -1    8.30    2.80
   2  -6   1    6.20    3.60
   4   2   1    7.60    3.00
  -4   6  -1   13.80    3.50
  -2  -4  -1   11.60    4.10
  -4   6  -1    7.30    3.30
   4   2   1   11.20    3.70
  -6   2  -1    7.70    3.70
   6  -2  -1    9.10    4.50
  -4   6  -1    6.60    3.00
   1   5   1  575.84   27.20
  -5  -1  -1  611.24   26.60
   5   1  -1  656.33   27.40
  -6   5  -1  581.24   26.90
  -5   6   1  565.74   27.40
  -1   6  -1  630.74   27.80
  -6   5  -1  578.54   27.20
   1  -6  -1  615.84   28.10
   1   5   1  608.54   26.90
   6  -5  -1  629.64   28.80
   6  -1   1  580.34   27.40
  -6   1   1  594.94   26.30
   6  -1   1  605.44   27.80
  -6   5  -1  609.94   26.40
  -5   6   1  593.84   27.10
   6  -5  -1  611.24   27.80
   1   5   1  598.74   27.30
  -6   1   1  606.74   27.10
  -1   6  -1  594.24   26.80
   1   5   1  597.24   27.00
  -5  -1  -1  586.04   27.30
   5   1  -1  605.84   27.60
   1   5   1  568.74   27.00
  -1  -5   1  680.23   28.10
   5   1  -1  585.94   27.80
   5  -6   1  609.14   29.30
  -1   6  -1  591.04   27.10
  -6   1   1  596.74   26.90
  -1   6  -1  608.24   27.00
  -1  -5   1  622.84   27.10
   6  -1   1  588.64   27.50
  -5   6   1  620.34   27.10
   1  -6  -1  617.24   27.30
  -6   5   1  607.24   27.00
   5   1   1  577.24   27.30
   5  -6  -1  615.14   27.90
   5   1   1  587.44   27.50
  -6   5   1  610.54   27.40
  -1   6   1  638.14   26.90
  -1   6   1  609.34   27.00
  -1  -5  -1  618.94   27.00
   5   1   1  598.24   27.30
  -5  -1   1  619.24   26.50
  -6   1  -1  611.04   26.40
  -5  -1   1  615.64   27.30
   1   5  -1  546.85   26.90
  -1   6   1  605.84   27.10
   6  -5   1  643.34   29.50
  -1  -5  -1  614.84   27.90
   5   1   1  617.34   27.60
   1   5  -1  591.54   26.90
  -5   6  -1  612.54   27.30
   6  -1  -1  586.04   27.70
  -6   1  -1  584.74   27.00
   5   1   1  598.74   27.60
  -6   5   1  583.44   27.30
  -6   1  -1  584.34   27.10
  -5   6  -1  572.14   27.30
  -5   6  -1  599.04   27.00
   6  -1  -1  578.64   27.50
  -1   6   1  625.74   27.40
   1   5  -1  584.14   27.30
   6  -1  -1  566.54   28.50
   5  -6  -1  589.84   28.80
   1  -6   1  637.74   27.40
   1  -6   1  617.44   28.20
   1   5  -1  574.64   26.90
  -6   5   1  602.64   27.10
  -6   0   1 1354.96   58.19
  -6   0  -1 1391.06   58.29
   0  -6  -1 1350.56   58.89
   0  -6   1 1351.56   58.99
   6  -6  -1 1353.06   59.29
  -3   7  -1   14.20    3.70
  -7   3   1   16.40    2.80
   4  -7   1   15.20    4.80
  -7   4  -1   12.70    2.40
   3   4   1   13.60    3.00
   3  -7  -1   11.10    3.50
  -3   7  -1   11.30    3.00
  -3  -4   1   13.90    3.40
  -3   7  -1   15.10    3.90
  -4   7   1   18.30    3.30
   3   4   1   17.00    2.80
   3  -7  -1   12.40    4.00
   4   3  -1   11.70    3.40
  -7   3   1   13.70    2.60
  -7   3   1   12.30    2.30
  -4  -3  -1   16.80    2.50
  -4   7   1   15.10    3.40
  -4   7   1   13.90    3.40
   3   4   1   21.50    3.50
  -4   7   1   10.10    2.40
  -7   4  -1   15.60    2.60
   4   3  -1   13.90    3.90
   7  -3   1   21.60    3.80
  -3   7  -1   19.30    2.80
   3   4   1   15.50    3.00
   4   3  -1   18.30    3.10
   4   3  -1   12.00    3.20
   7  -4  -1   15.80    4.10
   4   3  -1   13.30    3.50
  -4  -3  -1   11.70    3.20
  -3  -4   1   15.70    2.60
  -7   3  -1   17.20    2.50
  -3   7   1   20.10    3.40
   7  -3  -1   10.80    4.30
  -7   4   1   21.60    3.90
  -7   4   1   16.30    2.50
  -4  -3   1   15.20    3.10
  -3  -4  -1   16.80    2.80
  -3  -4  -1   15.80    3.60
   4   3   1   18.90    3.80
   3   4  -1   15.50    3.30
   7  -4   1   19.40    5.20
   4  -7  -1   13.70    3.80
  -4   7  -1   21.70    4.30
  -4   7  -1   14.60    2.70
  -3   7   1   17.50    3.20
   4   3   1   13.30    3.00
   4   3   1   16.50    2.80
   4  -7  -1   14.80    4.40
   4   3   1   14.70    3.40
   3   4  -1   18.00    2.90
  -7   4   1   13.20    2.70
   3  -7   1   23.10    4.30
  -3   7   1   21.30    3.40
   3   4  -1   18.60    4.80
   3   4  -1   12.60    3.60
  -7   3  -1   17.30    2.50
  -3   7   1   16.60    3.60
  -7   3  -1   19.00    3.60
  -4   7  -1   17.20    3.60
   3  -7   1   11.20    4.10
  -4   7  -1   11.90    3.00
   4   3   1   16.80    3.30
  -4  -3   1   11.20    2.30
   5   2  -1 1554.14   69.89
  -5   7   1 1665.03   70.09
  -7   5  -1 1605.44   69.89
   5   2  -1 1611.04   70.29
  -2  -5   1 1574.84   69.89
  -2   7  -1 1666.13   69.99
   2   5   1 1618.24   70.09
  -2   7  -1 1638.34   69.99
   5  -7   1 1650.53   71.39
  -7   5  -1 1620.84   69.39
  -2   7  -1 1550.94   69.79
  -7   2   1 1679.53   69.79
  -5  -2  -1 1638.24   70.19
  -5   7   1 1576.74   69.89
  -2  -5   1 1629.74   70.69
   7  -5  -1 1671.63   70.99
  -5   7   1 1593.14   70.09
  -5  -2  -1 1638.84   69.69
   5   2  -1 1654.73   70.29
  -2   7  -1 1705.33   70.49
   2   5   1 1580.24   69.89
   7  -2   1 1608.84   70.19
   2  -7  -1 1620.24   70.89
  -7   2   1 1637.24   69.79
  -7   5  -1 1637.84   70.09
   2  -7  -1 1603.04   70.39
   2   5   1 1570.54   70.09
  -7   2   1 1666.13   69.99
   5   2   1 1695.53   70.39
  -2   7   1 1614.54   69.99
   5  -7  -1 1662.53   70.59
   5  -7  -1 1632.34   71.39
  -7   5   1 1654.33   69.89
   5   2   1 1610.54   70.09
  -5   7  -1 1651.83   69.99
   2   5  -1 1563.24   69.89
   2  -7   1 1597.24   70.29
   5   2   1 1610.44   70.19
  -7   5   1 1687.33   69.89
  -5  -2   1 1631.44   70.19
  -2   7   1 1668.93   69.89
  -7   2  -1 1648.44   69.99
   2   5  -1 1704.43   70.29
  -5   7  -1 1596.04   70.09
  -7   2  -1 1556.04   69.69
  -5  -2   1 1670.33   69.49
  -2   7   1 1681.63   70.19
  -5   7  -1 1593.34   70.19
  -7   2  -1 1706.53   69.39
  -2  -5  -1 1652.03   69.99
   5   2   1 1640.94   70.09
   2   5  -1 1526.35   69.89
   5   2   1 1644.44   70.19
   7  -2  -1 1537.95   70.09
  -2  -5  -1 1639.84   70.59
  -7   5   1 1616.94   69.99
   2  -7   1 1591.14   71.09
  -7   6  -1   65.59    4.80
   1  -7  -1   65.49    6.40
   6   1  -1   60.29    5.70
   6   1  -1   66.19    5.40
  -1   7  -1   73.79    5.70
  -6   7   1   66.09    4.90
   6   1  -1   57.19    5.60
  -6   7   1   66.19    5.20
  -1  -6   1   71.99    6.20
  -7   6  -1   72.49    5.10
  -7   1   1   64.19    4.80
   1   6   1   60.29    5.00
   1   6   1   71.39    5.50
  -7   1   1   68.09    4.90
  -6  -1  -1   61.79    5.10
  -7   6  -1   67.09    5.00
   7  -1   1   59.69    5.70
  -6  -1  -1   63.49    5.00
   1   6   1   66.89    5.40
   7  -1   1   71.19    5.50
   1   6   1   67.89    4.60
   7  -6  -1   71.79    7.10
  -6  -1  -1   61.19    5.20
   1   6   1   59.09    5.90
  -1   7  -1   70.09    4.90
   6  -7   1   84.69    8.00
   7  -1   1   66.29    5.50
  -1   7  -1   54.69    4.80
  -1  -6   1   62.39    7.70
   1   6   1   68.39    5.00
  -1   7  -1   71.29    5.30
  -6   7   1   70.59    5.70
   6   1   1   63.89    5.40
  -7   6   1   67.69    4.60
   7  -1  -1   62.59    5.20
  -7   1  -1   70.79    4.80
   6  -7  -1   63.89    7.10
  -7   1  -1   64.39    4.70
  -7   6   1   62.89    4.90
  -1   7   1   71.49    5.00
   6  -7  -1   71.29    7.30
  -1   7   1   62.89    5.20
  -1  -6  -1   65.39    7.10
   1  -7   1   66.89    6.40
   1  -7   1   55.59    6.30
  -6  -1   1   67.19    5.10
   6   1   1   65.49    5.30
  -1  -6  -1   68.59    5.90
  -6   7  -1   70.69    4.90
  -6   7  -1   68.89    5.30
   7  -6   1   78.69    9.00
  -6  -1   1   70.79    4.50
   1   6  -1   68.09    5.00
  -6   7  -1   72.79    5.40
   6   1   1   65.69    5.30
  -6  -1   1   68.89    5.10
   6   1   1   68.59    6.00
   1   6  -1   64.59    5.00
  -1   7   1   69.99    4.70
   7   0  -1   56.49    4.40
   0  -7   1   52.29    5.50
  -7   7  -1   54.29    4.20
   0   7   1   59.89    4.60
   7   0   1   51.39    4.50
  -7   0   1   58.09    4.00
  -7   0  -1   53.99    3.90
  -7   0   1   58.89    4.10
   0  -7   1   49.20    5.30
   7  -7  -1   55.09    5.80
  -7   0  -1   54.39    3.40
   0  -7  -1   55.59    4.80
  -7   7   1   51.59    3.90
  -7   7  -1   53.29    3.90
   0   7  -1   51.69    4.30
   7   0   1   49.90    4.40
   0   7   1   46.90    3.90
  -7   7  -1   51.49    4.20
   0   7   1   54.99    7.40
   0   7  -1   49.50    5.90
   0   7   1   57.59    4.10
   7   0   1   55.79    4.60
   0   7   1   55.59    4.10
   0  -7  -1   47.60    5.00
  -7   0  -1   52.09    3.90
   0   7  -1   54.39    4.10
  -7   7   1   43.50    5.40
  -8   4  -1   -0.20    1.40
   4   4  -1    0.70    2.00
  -8   4  -1   -0.30    1.50
  -8   4   1    1.30    1.60
  -4  -4   1    1.20    1.80
  -8   4   1    0.30    1.60
   8  -4  -1    4.80    3.70
   4   4   1   -1.10    1.90
  -4  -4  -1    0.80    1.70
  -8   4   1   -0.80    1.50
   4   4   1    0.80    2.00
   4   4   1    3.00    2.00
   4   4  -1   -0.40    2.20
   4   4  -1    2.90    1.90
  -4  -4  -1    2.80    2.00
   4   4  -1    3.30    2.40
   4   4  -1    1.00    2.80
   4  -8  -1    1.70    3.00
  -4   8   1    0.40    2.10
   4  -8   1    2.30    3.10
  -4   8  -1    2.70    2.10
  -4  -4   1   -2.30    1.90
   4  -8  -1    4.80    3.20
  -4   8   1    1.70    2.10
   8  -4   1    5.40    3.50
  -8   4  -1   -0.10    1.60
  -4   8   1    1.10    1.60
  -4   8  -1    2.50    1.90
  -8   5  -1  522.55   23.20
  -8   3   1  516.95   22.90
   3  -8  -1  534.15   23.80
   5   3  -1  525.45   23.30
  -5   8   1  528.15   23.20
  -5   8   1  483.85   24.20
  -3   8  -1  528.35   24.50
  -3   8  -1  516.05   23.20
  -3  -5   1  519.95   23.00
   5   3  -1  529.95   23.20
  -5   8   1  543.95   23.20
   3  -8  -1  504.85   24.20
   3   5   1  513.15   23.10
  -5  -3  -1  534.55   22.90
   3   5   1  527.45   23.30
  -8   3   1  508.35   23.00
  -8   5  -1  517.95   23.00
  -8   3   1  537.35   23.00
  -3  -5   1  525.55   23.60
  -8   5  -1  519.95   23.00
  -3   8  -1  542.85   23.90
   3   5   1  509.75   23.30
   3   5   1  499.85   23.20
   8  -3   1  520.95   23.40
   5  -8   1  521.75   24.40
   8  -5  -1  540.55   24.00
  -5  -3  -1  530.75   23.30
   5   3  -1  533.55   23.30
   5   3   1  505.95   23.20
  -8   3  -1  519.75   23.00
   5  -8  -1  529.65   24.50
  -8   3  -1  541.45   22.70
  -8   5   1  539.25   23.00
   3   5  -1  508.95   23.20
   3   5  -1  493.85   23.10
  -3   8   1  548.45   23.40
  -3   8   1  524.15   23.30
  -5   8  -1  550.74   23.40
   5  -8  -1  523.75   23.80
   5   3   1  525.95   23.30
   3   5  -1  507.75   23.10
  -3  -5  -1  520.15   23.50
   5   3   1  536.55   23.30
  -5  -3   1  517.65   23.20
  -5  -3   1  523.45   22.80
   3  -8   1  506.55   24.30
  -5   8  -1  511.25   23.10
   5   3   1  521.55   23.30
  -8   5   1  514.15   23.40
  -8   3  -1  519.75   23.10
  -8   5   1  525.75   23.00
  -3   8   1  517.55   23.10
  -5  -3   1  528.25   23.40
  -3  -5  -1  538.85   23.20
  -2   8  -1   34.40    3.60
  -2  -6   1   31.20    3.80
  -8   6  -1   43.20    5.00
   6  -8   1   36.40    5.90
   6   2  -1   36.20    3.70
   6   2  -1   33.70    4.70
  -2  -6   1   29.80    4.50
  -6  -2  -1   32.20    2.70
  -8   2   1   33.20    3.10
  -2   8  -1   33.50    4.00
   2  -8  -1   34.30    4.30
  -6   8   1   30.60    3.80
  -6   8   1   33.60    3.70
   2   6   1   37.10    4.20
   2   6   1   31.40    4.60
  -6  -2  -1   38.30    4.10
  -8   6  -1   31.90    4.10
  -2   8  -1   29.60    4.20
   8  -6  -1   32.70    5.00
  -6   8   1   25.10    3.80
   2   6   1   39.60    3.80
   2   6   1   30.10    4.60
  -8   6  -1   35.30    3.40
   6   2   1   32.50    4.30
   6   2   1   35.90    4.10
  -2  -6  -1   39.40    3.60
  -8   6   1   33.60    3.20
  -8   2  -1   33.70    3.20
  -6  -2   1   32.40    4.20
  -8   2  -1   33.90    3.20
   6  -8  -1   32.20    5.90
  -8   2  -1   33.50    2.70
  -8   2  -1   32.90    3.20
  -8   6   1   31.80    3.40
  -2  -6  -1   32.70    4.20
   2   6  -1   35.20    3.70
   2  -8   1   23.20    4.50
  -2   8   1   31.30    4.70
   6   2   1   31.80    5.40
  -6  -2   1   28.70    3.70
  -6   8  -1   30.20    3.30
   8  -2  -1   33.50    4.00
   2   6  -1   36.30    4.50
   1  -8  -1    9.90    2.30
   1   7   1    8.50    1.70
  -1  -7   1    8.00    2.30
   1   7   1   13.70    2.20
  -8   7  -1    8.40    1.70
   1  -8  -1    6.80    2.30
  -8   7  -1    5.70    1.60
   7   1  -1    8.10    2.10
  -8   1   1    8.00    1.50
  -7  -1  -1    9.20    1.50
   7  -8   1   11.40    3.20
   1   7   1   11.30    2.10
  -8   1   1    9.70    1.60
  -8   1   1   11.50    1.90
  -7  -1  -1    9.20    1.70
   8  -7  -1   10.30    2.80
  -8   7  -1    9.00    1.50
  -1   8  -1   15.50    2.50
  -7   8   1    8.10    1.60
   8  -1   1    7.50    1.80
  -7  -1  -1    8.10    1.40
  -7   8  -1    7.90    1.80
  -1  -7  -1    7.80    2.20
  -8   1  -1   11.90    2.10
   1   7  -1   10.70    1.90
  -7  -1   1    7.60    1.50
   7   1   1   10.90    2.00
  -7   8  -1    6.00    1.60
   7  -8  -1    5.00    2.70
  -1  -7  -1    8.50    2.10
  -1   8   1   14.20    2.40
   7   1   1    8.10    1.80
  -1   8   1    5.90    1.80
  -7  -1   1    7.30    1.50
   1   7  -1    9.30    1.80
   1   7  -1    9.40    1.80
  -8   1  -1    6.90    1.50
  -8   7   1    8.70    1.70
  -1   8   1    7.00    1.60
  -8   1  -1    8.40    1.50
   7   1   1    9.50    1.90
  -8   7   1    8.20    1.50
   1  -8   1    5.00    2.20
   8  -1  -1   11.90    2.10
  -8   8   1    0.30    0.90
   0   8  -1    3.60    1.60
   0  -8  -1   -1.70    2.10
  -8   0  -1   -0.40    1.00
  -8   0   1   -1.10    1.10
   0   8  -1    1.60    1.30
   0   8   1   -0.20    1.30
  -8   0   1    0.00    0.90
   0  -8  -1    1.30    2.40
  -8   0  -1    0.10    1.00
   8  -8  -1   -1.20    2.00
   8   0   1    1.80    1.20
   0   8  -1    0.50    1.30
  -8   8  -1   -0.20    1.10
  -8   8  -1   -1.30    1.00
   0  -8   1    1.80    1.70
  -8   0   1   -0.80    0.90
   0   8   1   -0.10    1.50
  -8   0  -1    2.00    1.00
  -5  -4  -1    3.80    1.40
   4   5   1    3.40    1.40
  -9   5  -1    4.00    1.10
  -5  -4  -1    3.10    1.50
   4   5   1    3.00    1.40
   5   4  -1    3.80    1.50
  -5  -4  -1    3.40    1.30
  -5   9   1    1.50    1.80
  -9   4   1    1.50    1.60
  -9   5  -1    3.00    1.10
  -4   9  -1    5.30    1.30
   4   5   1    1.90    1.30
   5  -9   1   -1.60    2.30
  -9   4   1    2.50    1.00
   4  -9  -1    4.30    2.20
   5   4  -1    5.60    1.90
  -4  -5   1    3.90    1.40
  -5   9   1    3.40    1.20
   5   4  -1    1.50    1.20
   4   5   1    4.40    1.50
  -4  -5   1    6.10    1.30
  -4   9   1    1.80    1.10
  -5   9  -1    4.00    1.60
   5  -9  -1    4.60    2.40
  -4  -5  -1    0.70    1.30
  -5   9  -1    5.10    1.50
   4   5  -1    1.90    1.40
  -4  -5  -1    2.30    1.40
  -5  -4   1    7.50    1.50
   5   4   1    3.20    1.30
  -9   4  -1    4.70    1.70
  -9   4  -1    3.70    1.00
   4  -9   1    4.80    2.20
   4   5  -1    3.40    1.30
  -9   5   1    4.40    1.10
  -9   4  -1    6.40    1.20
  -5  -4   1    2.50    1.40
  -4   9   1    3.80    1.50
   5   4   1    7.10    1.50
  -4   9   1    0.50    1.50
   5   4   1    3.90    1.30
   6  -9   1   74.19    5.20
  -9   6  -1   74.99    3.70
   6   3  -1   71.79    4.00
   9  -3   1   76.89    4.20
  -6  -3  -1   73.29    3.90
  -6  -3  -1   68.09    3.80
  -9   6  -1   71.89    4.00
   3   6   1   69.69    4.10
  -6  -3  -1   79.99    4.00
  -3  -6   1   77.39    4.40
   3   6   1   73.79    4.00
  -3   9  -1   79.69    4.10
  -9   6  -1   72.49    3.90
   3  -9  -1   74.29    4.80
  -3  -6   1   75.79    4.20
   3   6   1   75.99    4.10
  -9   3   1   70.89    4.10
  -6   9   1   74.69    3.90
  -9   3  -1   75.29    4.70
  -3  -6  -1   75.49    4.20
  -9   3  -1   79.79    3.90
  -3  -6  -1   73.19    4.30
  -9   3  -1   74.89    3.70
   6  -9  -1   83.59    5.10
   6   3   1   70.29    4.00
  -3   9   1   79.09    4.20
   3   6  -1   77.09    4.00
  -6  -3   1   76.49    3.90
  -9   6   1   74.19    3.70
   6   3   1   73.59    4.00
   6   3   1   77.19    4.00
  -6   9  -1   78.39    4.00
  -3   9   1   77.19    4.10
  -6  -3   1   79.39    4.00
  -6   9  -1   67.79    3.90
   6   3   1   69.29    4.10
   3   6  -1   74.99    4.00
   3   6  -1   72.19    4.20
   3  -9   1   78.09    4.90
  -3   9   1   73.29    3.90
  -2   9  -1   75.19    3.80
  -7   9   1   69.79    3.60
   2  -9  -1   77.99    4.50
   2   7   1   75.29    3.80
  -7  -2  -1   75.99    3.70
   2   7   1   78.89    3.90
   9  -2   1   73.39    3.90
  -9   2   1   72.19    4.00
  -9   2   1   74.09    3.70
  -7  -2  -1   70.89    3.60
   7   2  -1   74.99    3.80
  -9   7  -1   72.69    3.60
  -2  -7   1   70.19    4.00
  -9   2   1   71.19    3.50
   7   2   1   73.89    3.80
   2   7  -1   69.69    4.70
  -2   9   1   77.89    3.90
   2  -9   1   74.99    4.50
  -7  -2   1   72.49    3.60
  -7   9  -1   74.49    3.70
  -2   9   1   74.59    3.70
   2   7  -1   75.19    3.80
   2   7  -1   76.89    3.80
  -9   2  -1   74.89    3.70
  -9   7   1   72.59    3.60
  -9   2  -1   73.09    3.50
  -7  -2   1   72.89    3.70
   7  -9  -1   77.49    4.60
  -2  -7  -1   74.69    4.00
   7   2   1   71.29    3.80
   0  -1  -2   10.90    1.00
   0   1  -2   10.10    1.40
  -1   0  -2   14.10    1.10
   1  -1   2   16.10    1.40
   0   1   2   11.30    1.20
  -1   0  -2   12.50    1.90
   0   1   2   12.90    1.80
   1  -1   2   11.00    1.70
   0   1  -2   10.30    1.70
   1   0  -2    9.60    2.20
   1  -1  -2    9.80    1.80
   1   0  -2   13.70    2.20
   1   0   2   15.40    1.60
  -1   1  -2   12.50    1.60
   1   0   2   11.00    1.30
  -1   1   2   13.80    1.30
   1  -1  -2    9.60    1.70
   0  -1   2   11.30    1.30
  -1   1  -2   12.60    1.60
   0   1  -2   16.10    2.30
   0  -1   2   14.50    1.70
  -1   2   2   10.60    1.80
  -1   2  -2    8.90    1.70
  -1  -1   2    8.80    1.40
  -1  -1  -2    8.10    1.80
  -2   1  -2   11.50    2.10
   1  -2  -2   10.40    2.00
  -2   1  -2    9.00    1.90
  -1   2   2    9.50    1.10
  -2   1   2    7.10    1.30
   1  -2   2    8.90    2.00
   1  -2  -2    7.70    2.00
  -1  -1   2   10.40    2.20
   1   1   2    7.90    1.60
   2  -1  -2   10.90    3.40
  -1  -1  -2   10.70    1.50
  -2   1  -2    6.70    1.80
  -2   1   2   12.20    2.60
   2  -1   2    8.00    1.40
  -2   1   2    9.50    2.10
   1   1  -2    6.00    1.70
   2  -2   2   31.60    3.10
   0   2  -2   30.00    2.10
  -2   0  -2   26.70    3.40
  -2   2   2   35.20    3.20
  -2   0  -2   29.50    2.40
   0  -2   2   30.90    3.10
   0   2  -2   31.30    3.10
   0   2   2   30.70    2.00
   2  -2  -2   29.80    3.30
   0  -2  -2   31.70    2.40
  -2   2  -2   35.70    2.70
  -2   2   2   31.80    2.20
  -2   0   2   24.80    3.30
   0  -2  -2   31.10    2.00
   0  -2  -2   29.40    2.30
  -2   2   2   23.30    3.70
  -2   0   2   30.10    3.60
   0  -2   2   31.50    2.10
  -2   0   2   31.90    2.60
  -2   2  -2   36.20    3.50
   0   2   2   32.10    2.80
   2   0   2   34.00    2.90
   3  -2  -2 5166.58  210.38
  -3   1   2 4611.44  209.68
   1  -3  -2 5234.98  209.08
   2   1  -2 5295.97  210.18
  -1  -2   2 5041.90  208.58
   2  -3   2 5381.06  209.58
  -3   2  -2 4762.82  210.28
   1   2   2 5031.80  209.38
  -2  -1  -2 4916.91  208.98
  -1   3  -2 4903.31  209.48
  -1  -2   2 5278.07  209.58
  -3   1   2 4641.44  210.48
   3  -1   2 4709.53  209.48
  -3   2  -2 5116.49  209.38
  -2   3   2 4965.80  208.28
  -2  -1  -2 4287.37  209.78
  -3   1   2 4307.17  208.88
  -2  -1   2 5135.49  208.88
   3  -1  -2 4779.72  210.28
  -1  -2  -2 4522.35  208.88
   1   2  -2 4986.20  209.78
  -3   2   2 4456.05  210.08
  -1   3   2 4995.40  208.18
  -1   3   2 5018.10  209.28
  -2  -1   2 5029.80  209.68
  -1  -2  -2 5171.88  208.88
   1   2  -2 5240.98  209.18
   2  -3  -2 5044.50  209.38
   3  -2   2 4743.13  209.08
   1  -3   2 4981.90  208.48
   2   1   2 4976.40  209.48
  -3   1  -2 4741.13  210.38
  -3   1  -2 5139.19  209.28
  -2   3  -2 5362.16  210.08
  -3   2   2 4618.04  208.78
  -2   3  -2 4876.21  209.48
  -3   0   2  272.97   13.70
   0   3  -2  304.57   14.40
  -3   3   2  288.27   13.20
  -3   0   2  287.07   15.30
   3   0  -2  291.97   15.10
   0  -3   2  318.27   15.10
   0  -3   2  303.77   13.00
  -3   3  -2  287.87   15.00
  -3   3   2  276.37   14.30
   0  -3  -2  303.97   13.60
  -3   3  -2  304.17   14.20
  -3   0   2  269.37   14.60
   3   0   2  281.27   14.50
  -3   0  -2  298.27   13.80
   0   3   2  311.87   14.10
   3  -3  -2  304.27   14.80
  -3   0  -2  277.57   15.10
  -4   2   2  237.08   12.90
   2   2  -2  224.78   11.80
   4  -2  -2  212.58   12.70
   2   2  -2  191.48   11.80
  -2   4  -2  216.98   11.50
  -4   2  -2  235.18   11.20
  -2  -2  -2  220.68   10.70
  -2  -2   2  222.78   10.40
   2   2   2  223.38   13.00
   2  -4  -2  216.88   11.20
  -2  -2   2  209.08   11.60
  -2   4  -2  219.78   11.70
  -4   2  -2  189.18   14.50
   4  -2   2  209.98   11.90
   4  -1   2   34.00    5.70
  -1  -3   2   29.90    4.70
   4  -3  -2   26.00    5.50
  -3  -1  -2   26.10    5.60
  -4   3  -2   29.20    5.40
   1   3   2   31.70    4.00
  -1   4  -2   26.90    4.30
  -4   3  -2   31.50    3.90
   3   1  -2   31.90    6.40
   3   1  -2   26.10    5.40
  -4   1   2   32.60    5.80
  -1   4  -2   36.60    4.70
  -3  -1  -2   35.30    3.60
  -4   1  -2   18.70    6.40
   3  -4  -2   30.00    4.70
   1  -4   2   23.20    4.30
  -3  -1   2   33.00    3.90
  -3  -1   2   29.60    5.10
   3   1   2   26.20    4.70
  -4   3   2   27.70    3.30
   4  -1  -2   25.30    5.70
  -1  -3  -2   33.00    3.20
  -3   4  -2   32.40    4.20
   1   3  -2   29.80    5.00
  -1   4   2   29.00    4.90
  -4   1  -2   29.80    3.50
  -4   3   2   25.90    5.60
  -3   4  -2   25.90    5.10
  -4   4  -2  285.17   13.30
   4  -4  -2  250.37   15.40
  -4   0  -2  305.37   14.20
   0  -4   2  290.27   14.70
   4   0  -2  298.27   15.30
   4   0   2  293.17   15.50
   0   4   2  294.57   14.40
   0  -4   2  300.27   15.20
  -4   0   2  332.67   14.40
  -4   0  -2  289.97   13.90
  -4   4  -2  265.87   15.80
   4  -4  -2  315.37   16.90
  -4   4  -2  278.07   14.60
  -4   0  -2  272.97   16.10
   4   0  -2  251.57   15.90
   5  -3  -2  874.41   38.60
  -3  -2  -2  852.41   38.30
  -2   5  -2  822.92   37.20
   3   2  -2  925.91   39.70
  -5   2   2  929.51   38.00
  -2  -3   2  760.82   39.00
  -3  -2  -2  882.01   37.60
  -5   3  -2  888.31   38.70
   2   3   2  796.82   38.60
   2  -5  -2  801.62   38.60
   5  -2   2  879.51   39.90
   2  -5  -2  891.71   38.40
  -5   3  -2  854.01   37.10
   5  -3  -2  865.91   40.50
  -2  -3   2  895.31   37.70
   3  -5  -2  915.31   38.70
  -3  -2   2  850.01   37.40
   5  -2  -2  838.02   38.40
  -3  -2   2  863.51   37.80
   3  -5  -2  813.82   39.00
  -3   5  -2  774.62   38.90
  -5   3   2  852.21   37.70
  -2  -3  -2  829.62   38.10
   3   2   2  830.02   39.10
  -5   2  -2  866.51   37.10
  -5   3   2  993.80   40.50
  -5   2  -2  895.11   38.40
  -5   2  -2  753.82   39.90
  -3   5  -2  883.31   37.20
  -5   1   2   49.00    7.90
  -1  -4   2   55.09    6.00
   5  -4  -2   40.80    8.60
  -4  -1  -2   44.50    4.80
  -5   4  -2   44.20    3.90
   1  -5  -2   36.50    5.10
   5  -4  -2   48.10    7.20
   1   4   2   41.80    5.80
  -4  -1  -2   45.10    5.30
   5  -1   2   46.40    8.30
   1  -5  -2   39.60    6.30
  -5   4  -2   49.40    6.10
  -5   1   2   56.39    5.40
   4   1  -2   46.30    8.60
  -5   4   2   50.09    8.40
  -4   5  -2   44.10    3.90
  -5   1  -2   43.30    3.90
  -1  -4  -2   48.90    5.60
  -5   4   2   44.80    7.70
   4  -5  -2   49.20    7.40
  -4  -1   2   54.69    6.20
   4  -5  -2   45.90    7.70
  -1   5   2   50.89    5.60
  -5   1  -2   47.70    5.10
   4   1   2   42.50    7.20
  -5   1  -2   42.90    8.40
   1  -5   2   46.70    7.20
  -1  -4  -2   46.00    4.90
  -4   5  -2   33.40    6.70
  -4  -1   2   48.80    4.50
   5  -1  -2   44.80    5.90
  -4   5  -2   40.00    6.50
   5  -5  -2 5512.45  235.98
  -5   0   2 5612.54  235.48
   5   0   2 5299.27  235.48
   5   0   2 5570.54  235.78
  -5   5  -2 5239.88  234.98
   5   0   2 5636.54  235.58
  -5   0   2 5811.52  235.38
   0   5   2 5534.55  235.18
   0   5  -2 5541.65  235.18
   0   5  -2 5476.35  235.98
   0  -5  -2 5039.80  236.18
  -5   5   2 5635.34  235.58
   5   0   2 5764.22  235.98
   0   5   2 5404.16  235.18
   0   5   2 5678.73  235.28
   5  -5  -2 5766.72  236.78
  -5   0  -2 5572.74  235.48
   0   5  -2 5615.84  235.48
   0  -5   2 5818.72  235.48
   0   5  -2 5506.75  235.18
   0   5   2 5601.64  235.18
  -5   5   2 5647.24  235.38
   0   5   2 5427.76  235.28
  -5   5   2 5690.83  235.38
   5   0  -2 5394.26  235.68
   5  -5  -2 5281.77  238.08
   5   0  -2 5449.65  235.98
  -5   5  -2 5629.34  235.58
  -5   5  -2 4873.91  236.48
  -5   0  -2 5767.32  236.18
   0   5  -2 5459.55  235.68
   0  -5   2 5978.00  236.28
  -5   5  -2 5593.24  235.28
  -5   0  -2 5684.43  234.98
  -3   6  -2 1111.89   54.59
   3   3  -2 1213.98   53.29
  -6   3   2 1260.77   53.49
  -3  -3   2 1285.37   54.19
  -6   3   2 1263.07   53.29
  -3   6  -2 1231.68   53.49
   3   3   2 1178.48   53.49
   3  -6   2 1199.98   54.89
  -3  -3  -2 1293.97   53.19
   3   3  -2 1183.18   53.79
  -3  -3   2 1290.07   53.09
   3  -6   2 1117.99   54.69
   3  -6  -2 1322.07   54.19
  -3   6   2 1277.87   53.79
   3   3   2 1189.88   53.79
  -3   6   2 1239.68   53.39
  -3   6  -2 1208.58   53.59
  -3   6   2 1256.47   53.39
  -6   3  -2 1231.78   53.29
  -6   3  -2 1276.57   52.79
  -6   3   2 1350.86   53.69
   6  -3   2 1197.38   53.99
  -3   6  -2 1188.48   53.59
   3   3  -2 1202.18   53.79
   3  -6  -2 1212.88   54.49
   3   3   2 1277.07   53.79
   3   3   2 1202.88   53.59
   6  -3  -2 1199.18   53.89
   6  -3  -2 1214.18   54.59
  -3   6   2 1204.08   53.39
  -3   6   2 1215.38   53.69
  -6   3  -2 1231.58   53.59
  -6   3   2 1233.28   53.29
  -4   6   2   71.49    6.10
   6  -2   2   65.29    6.70
   4   2  -2   59.19    7.40
  -2  -4   2   81.99    6.00
  -6   2   2   62.79    5.70
  -4   6   2   64.29    5.70
   4  -6   2   41.10   11.90
   4   2  -2   65.19    6.40
   2   4   2   76.29    5.40
   2   4   2   68.09    6.50
  -4   6   2   64.99    5.40
   2  -6  -2   58.29    8.20
   2   4   2   67.89    5.70
  -2   6  -2   70.29    5.80
  -6   4  -2   62.89    5.50
  -6   2   2   65.49    5.40
  -2  -4   2   67.79    6.90
  -6   4  -2   63.79    4.40
  -6   2   2   56.69    6.50
  -2   6  -2   59.99    6.20
   2  -6  -2   66.19    6.60
  -4  -2  -2   61.59    5.20
  -6   4  -2   64.99    5.40
  -2   6  -2   64.09    8.40
   6  -4  -2   62.49    7.80
   2   4   2   66.79    6.30
   4   2  -2   53.09    8.80
   2   4   2   60.79    5.60
   4  -6   2   71.69    9.70
   4   2  -2   54.39    6.20
   6  -2   2   61.49    6.80
   6  -4  -2   75.59    7.40
  -4   6   2   58.29    7.00
  -6   2   2   61.09    5.70
   4  -6  -2   56.69    7.20
   4   2   2   61.39    6.40
  -4   6  -2   67.39    5.80
  -2   6   2   73.09    5.10
  -2   6   2   63.49    6.20
  -2   6   2   66.39    6.10
  -2   6   2   57.29    5.60
   6  -2  -2   70.79    7.90
  -6   4   2   56.99    5.40
  -4  -2   2   70.59    6.20
   4   2   2   67.99    6.10
  -2   6   2   56.89    6.60
  -6   2  -2   69.39    4.20
   4   2   2   60.39    6.10
   4   2   2   72.39    6.20
  -2  -4  -2   71.29    5.30
   6  -4   2   70.79    8.10
  -6   4   2   71.09    5.80
  -6   2  -2   57.99    5.70
  -4   6  -2   57.39    5.70
   2   4  -2   60.09    6.70
   2   4  -2   62.09    5.50
   4  -6  -2   53.69    8.00
  -6   4   2   60.89    5.30
   2  -6   2   71.09    8.40
  -4  -2   2   65.79    5.00
   4   2   2   66.69    7.80
   6  -1   2  272.47   15.90
   1   5   2  259.77   13.20
  -6   5  -2  274.57   12.40
  -5  -1  -2  265.07   13.50
   1   5   2  268.77   13.90
  -5   6   2  259.17   13.60
   5   1  -2  275.87   14.70
   5   1  -2  230.38   14.30
  -5   6   2  272.17   13.30
  -1  -5   2  268.37   13.50
   6  -1   2  267.77   13.70
   1  -6  -2  267.77   13.50
   6  -5  -2  275.37   14.00
  -1  -5   2  273.87   14.30
  -1   6  -2  273.37   13.20
   1   5   2  281.17   13.00
   1   5   2  251.87   13.20
  -5   6   2  266.47   13.40
  -5   6   2  284.57   13.30
  -1   6  -2  267.87   13.40
   1   5   2  266.47   13.20
   6  -1   2  279.27   14.00
  -5  -1  -2  256.97   12.50
   5   1  -2  255.87   13.60
  -1   6  -2  266.07   13.20
  -1   6  -2  278.87   14.40
   6  -1   2  267.07   14.20
  -6   1   2  263.97   13.10
  -6   5  -2  264.57   13.20
   6  -5  -2  270.17   15.20
   1   5   2  281.47   13.90
   5  -6   2  274.77   16.90
  -6   1   2  259.77   13.00
   1  -6  -2  259.37   14.40
  -1   6   2  267.27   13.10
   5  -6  -2  275.97   15.20
  -5   6  -2  258.67   13.30
  -1   6   2  261.17   13.40
   6  -1  -2  251.27   14.00
   1   5  -2  266.57   15.20
   5  -6  -2  280.07   14.30
   1   5  -2  262.37   13.00
  -5  -1   2  289.07   13.30
  -1   6   2  273.87   12.90
  -1  -5  -2  241.78   17.80
  -1  -5  -2  276.77   13.10
   5   1   2  255.67   13.60
   1   5  -2  254.47   13.10
   1  -6   2  296.17   14.70
   1  -6   2  256.87   17.70
  -6   1  -2  277.57   12.40
   1   5  -2  262.67   14.00
   5   1   2  257.77   13.70
  -5   6  -2  251.07   12.50
  -6   1  -2  261.77   13.20
  -6   5   2  270.97   13.30
  -1   6   2  276.97   13.30
  -6   5   2  271.87   13.10
  -5   6  -2  264.37   13.20
  -5  -1   2  277.77   13.40
  -1   6   2  250.87   13.20
  -6   5   2  277.07   13.30
   6  -1  -2  265.37   14.60
  -5   6  -2  267.47   13.60
   5   1   2  257.07   13.60
   5   1   2  274.77   14.00
   6   0   2  168.28    9.40
  -6   6  -2  163.68    8.60
   0   6  -2  158.48    8.80
  -6   6   2  162.18    8.80
   6  -6  -2  165.68    9.80
  -6   6   2  166.88    9.00
  -6   0  -2  164.48    8.80
  -6   0   2  163.38    8.70
  -6   6   2  159.48    8.90
  -6   6  -2  159.68    9.00
   6  -6  -2  162.78   11.20
  -6   6   2  158.48    8.90
   6   0   2  169.78    9.30
   0   6   2  154.68    8.70
  -6   0  -2  164.88    8.10
   0   6  -2  162.78    8.70
  -6   0  -2  164.58    9.00
   0  -6  -2  168.68   10.00
   0   6   2  163.08    9.10
   6   0   2  157.48    9.40
   0  -6  -2  165.98    9.10
   6   0  -2  171.08   10.40
   0   6   2  162.48    8.90
   6   0  -2  165.98    9.40
   6   0   2  158.68    9.60
  -6   6  -2  156.38    8.20
   0   6   2  157.18    9.70
   0   6   2  163.48    8.50
  -6   6  -2  151.58    9.00
  -6   0   2  168.98    8.90
   0  -6   2  164.78   10.00
   0  -6   2  161.48   12.60
   7  -3   2 1213.08   52.99
  -4   7   2 1275.67   52.79
   4   3  -2 1180.98   53.19
   4   3  -2 1138.29   52.59
   3   4   2 1162.38   52.89
  -7   3   2 1221.28   52.59
  -4   7   2 1239.38   52.69
  -3   7  -2 1213.08   52.69
  -4  -3  -2 1254.97   52.49
  -3  -4   2 1254.67   53.29
  -3  -4   2 1204.98   52.29
  -3   7  -2 1195.88   52.79
   3   4   2 1189.88   52.79
   4   3  -2 1224.08   52.99
  -7   3   2 1244.28   52.49
  -4   7   2 1208.48   52.69
   3  -7  -2 1206.88   53.29
  -7   3   2 1239.98   52.39
   3  -7  -2 1180.28   53.69
  -7   4  -2 1182.48   52.69
   4  -7   2 1215.48   54.09
   3   4   2 1219.28   52.89
  -7   4  -2 1233.08   52.49
  -4  -3  -2 1204.08   52.99
   4   3  -2 1193.28   52.69
   3   4   2 1181.98   52.69
  -3   7  -2 1179.38   52.79
  -7   4  -2 1258.57   52.09
   7  -4  -2 1228.98   53.69
  -4   7   2 1188.58   52.79
   4   3   2 1226.58   52.79
  -4  -3   2 1210.68   52.99
   4  -7  -2 1194.78   53.89
   7  -4   2 1187.38   53.09
  -7   4   2 1268.87   52.79
  -7   4   2 1197.08   52.59
   3   4  -2 1246.38   52.99
  -4   7  -2 1206.68   52.89
  -4   7  -2 1218.88   52.79
  -7   3  -2 1227.48   52.09
  -3   7   2 1226.98   52.69
   4   3   2 1227.28   52.89
  -7   4   2 1224.08   52.59
   3   4  -2 1203.68   52.59
  -7   3  -2 1172.18   52.49
  -3   7   2 1271.07   52.89
  -3   7   2 1227.88   52.59
  -3   7   2 1222.28   52.79
  -4  -3   2 1194.58   52.19
   4   3   2 1272.57   53.09
  -4   7  -2 1199.18   52.89
  -3  -4  -2 1220.68   53.19
  -3  -4  -2 1244.68   52.59
   7  -3  -2 1245.98   53.59
   4   3   2 1221.18   52.99
  -7   3  -2 1181.98   52.69
  -7   4   2 1258.47   52.49
   4   3   2 1188.88   52.89
   4  -7  -2 1292.27   53.49
   3  -7   2 1179.18   53.89
   2   5   2   28.30    4.30
  -7   2   2   32.50    3.70
  -7   5  -2   32.30    3.00
  -5  -2  -2   26.40    4.40
   5   2  -2   22.50    3.40
  -2   7  -2   29.60    4.30
   2   5   2   30.10    4.70
  -5   7   2   26.40    4.10
  -7   5  -2   29.70    4.10
   5  -7   2   28.10    5.60
  -5   7   2   24.30    4.00
  -5   7   2   35.80    3.90
  -2   7  -2   25.80    4.20
   2   5   2   27.30    3.50
  -7   2   2   29.20    3.70
   5   2  -2   29.90    3.80
  -7   2   2   29.70    3.80
  -5  -2  -2   29.00    3.30
  -2   7  -2   24.90    3.60
   5   2  -2   33.10    4.50
   7  -2   2   34.40    4.70
   2   5   2   22.20    3.10
   7  -5  -2   27.20    4.50
  -2  -5   2   20.20    3.60
  -7   5  -2   23.30    3.70
   2  -7   2   21.90    4.30
   5  -7  -2   24.30    4.20
  -7   2  -2   28.00    2.70
  -5   7  -2   27.70    4.20
   7  -2  -2   27.80    4.20
  -5   7  -2   35.30    5.40
  -5  -2   2   24.20    4.20
  -2   7   2   27.20    3.50
  -7   5   2   26.50    3.90
  -7   2  -2   27.30    3.70
  -2  -5  -2   27.90    4.00
   2   5  -2   29.50    3.90
  -5  -2   2   23.00    3.90
  -2   7   2   29.90    4.60
  -2  -5  -2   25.10    3.80
   5   2   2   26.40    4.30
   5   2   2   30.40    4.60
   2   5  -2   28.20    3.50
   2   5  -2   31.40    5.20
   5   2   2   39.80    4.40
  -5   7  -2   25.00    4.30
  -7   5   2   26.30    3.60
  -5   7  -2   29.70    4.30
   7  -2  -2   26.20    4.20
  -2   7   2   29.40    4.60
   5  -7  -2   23.00    4.50
  -2   7   2   29.00    4.10
   7  -6  -2   23.70    4.00
   1   6   2   22.70    3.10
  -6  -1  -2   31.20    3.90
   7  -1   2   25.70    4.00
  -7   1   2   27.80    3.40
   1   6   2   25.40    3.20
  -7   6  -2   23.50    3.60
  -6   7   2   26.20    3.40
   7  -6  -2   15.20    5.10
   1   6   2   26.00    3.60
  -7   6  -2   27.70    3.30
   6   1  -2   23.90    4.00
  -1  -6   2   21.60    3.40
  -1   7  -2   26.50    3.90
   1  -7  -2   21.60    3.20
  -7   1   2   23.70    3.50
  -7   1   2   21.30    3.40
  -7   6  -2   27.70    3.70
   1   6   2   28.40    3.80
   7  -1   2   27.30    4.10
  -6   7   2   25.10    3.70
  -6  -1  -2   27.40    2.80
  -1   7  -2   25.60    3.60
   1  -7  -2   21.70    3.70
   1   6   2   28.00    4.30
   7  -1   2   27.30    4.50
  -6  -1  -2   24.70    3.60
   7  -1  -2   20.20    3.90
  -7   6   2   28.70    3.60
  -7   6   2   20.40    3.20
  -7   6   2   26.90    3.60
   6  -7  -2   20.80    4.10
   1  -7   2   26.60    5.10
  -6   7  -2   39.90    4.90
   1   6  -2   25.30    3.50
  -1   7   2   26.00    3.70
  -1  -6  -2   23.00    3.40
  -1  -6  -2   30.20    3.80
   6   1   2   25.40    3.40
   6   1   2   23.60    4.10
  -1   7   2   29.90    3.90
   6  -7  -2   19.60    3.90
   6   1   2   21.60    3.00
  -7   1  -2   23.90    2.60
   1   6  -2   23.10    2.90
  -6   7  -2   25.80    3.80
  -6   7  -2   24.00    3.90
  -6  -1   2   25.50    3.60
  -1   7   2   24.20    4.40
   7  -1  -2   21.50    3.20
   6   1   2   25.40    4.00
  -7   1  -2   24.40    3.40
  -1   7   2   24.90    3.30
  -6   7  -2   28.30    3.70
   7   0   2  121.49    6.80
  -7   0  -2  120.59    6.50
   0  -7  -2  125.69    7.40
   0   7  -2  132.59    6.70
  -7   7  -2  124.99    6.60
  -7   0   2  126.89    6.50
  -7   0  -2  127.99    6.00
  -7   7   2  125.89    6.50
   7  -7  -2  121.09    8.10
   7   0   2  117.69    7.10
  -7   7  -2  124.79    6.50
   0  -7  -2  126.89    7.00
   0   7   2  121.89    7.00
   0   7   2  121.89    6.30
  -7   7  -2  123.49    7.50
   0   7   2  126.49    7.10
   0   7  -2  122.99    8.20
   0   7   2  113.59    7.60
   0  -7   2  113.59    7.60
  -4   8  -2  110.49    6.70
  -4  -4   2   98.19    6.00
   4   4  -2  108.29    6.10
  -4  -4  -2  104.99    5.60
  -8   4  -2  106.99    5.20
  -4   8   2  105.39    5.90
   4   4   2  102.09    5.90
   4  -8  -2  107.29    7.10
  -4   8   2   92.79    5.70
  -8   4   2  103.89    5.50
  -4  -4  -2  107.29    6.40
   8  -4  -2   87.49    8.80
  -4   8   2  105.29    6.40
  -4   8   2  100.29    5.90
   4   4  -2   92.99    7.30
   4   4   2   95.39    5.90
  -8   4   2   97.49    6.10
  -8   4   2   97.59    6.20
   4  -8  -2   94.99    7.50
   4   4  -2   96.39    5.70
  -4   8  -2  104.79    6.00
  -8   4  -2  101.39    5.70
  -8   4  -2  102.69    5.40
   4   4   2   96.09    5.90
   4   4   2  101.19    6.00
  -5  -3  -2    6.10    1.60
  -3  -5   2    5.80    2.10
  -8   3   2    7.30    1.60
  -8   5  -2   11.60    3.40
   3  -8  -2    6.30    2.80
   5   3  -2   10.60    2.30
   5  -8   2    5.40    3.80
  -8   3   2    4.10    1.80
  -3   8  -2    4.50    1.90
   3   5   2    5.20    2.00
   5   3  -2   10.40    2.70
  -8   5  -2    5.10    1.70
  -3   8  -2    5.10    2.60
   8  -5  -2    5.40    4.40
  -8   3   2    6.90    1.80
  -5   8   2    5.90    1.80
   3   5   2    6.40    1.90
  -8   5  -2    6.80    2.10
  -8   5  -2    7.60    1.80
  -5  -3  -2    4.80    2.00
   3   5  -2    6.70    2.50
   5   3   2    9.80    2.00
  -5  -3   2    7.70    2.00
  -3   8   2    4.70    1.60
  -3   8   2    4.00    2.50
  -8   5   2    8.90    2.40
  -8   5   2    7.00    2.50
  -5   8  -2    7.40    2.30
  -3  -5  -2    8.00    2.00
   3   5  -2    7.70    1.90
  -5   8  -2    7.10    2.00
   5  -8  -2    5.30    3.10
   5   3   2    7.70    2.50
  -5   8  -2    5.10    2.70
  -8   3  -2    9.10    1.60
   8  -3  -2    3.50    3.00
  -3  -5  -2    8.40    2.30
  -8   3  -2    5.80    1.60
   5   3   2    9.40    2.60
   5   3   2    7.90    2.20
  -3   8   2    7.20    2.20
   5  -8  -2    2.70    3.20
  -8   3  -2    4.90    1.40
  -8   6  -2  897.61   37.70
   6   2  -2  876.51   37.80
  -2   8  -2  874.41   37.60
   8  -6  -2  881.51   38.30
   8  -2   2  850.91   37.80
  -2  -6   2  879.41   38.10
  -6  -2  -2  891.21   37.60
  -8   2   2  869.21   37.50
  -8   6  -2  853.01   37.40
   2  -8  -2  871.71   38.30
  -6  -2  -2  873.91   37.60
   2   6   2  887.21   37.70
  -8   6  -2  897.61   37.60
   2   6   2  884.71   37.80
  -6  -2  -2  898.51   37.40
   2   6   2  824.32   37.70
  -6   8   2  854.01   37.60
  -8   2   2  858.71   37.50
   2  -8  -2  843.22   37.90
  -2   8  -2  918.31   37.70
   6   2  -2  825.82   37.50
  -8   2   2  888.31   37.40
  -6   8   2  877.91   37.70
   2   6   2  905.61   37.70
   2   6  -2  874.01   37.60
  -2   8   2  894.11   37.70
  -8   2  -2  901.81   37.50
  -6   8  -2  819.22   37.60
   6  -8  -2  857.31   38.00
  -6  -2   2  876.21   37.50
  -2  -6  -2  842.62   37.90
  -8   6   2  856.81   37.40
   6  -8  -2  892.41   38.70
   6   2   2  886.31   37.80
   2   6  -2  816.72   37.50
  -2   8   2  896.61   37.70
  -8   6   2  879.61   37.50
   2  -8   2  848.62   38.40
  -2  -6  -2  871.31   37.70
  -6   8  -2  868.91   37.70
  -8   6   2  871.41   37.50
  -6   8  -2  847.82   37.70
  -8   2  -2  870.61   37.60
   8  -2  -2  850.31   37.80
   6   2   2  875.21   37.70
   6   2   2  850.31   37.70
  -8   2  -2  874.81   37.20
  -2   8   2  885.71   37.60
   6   2   2  908.51   37.70
  -6  -2   2  865.91   37.70
  -7   8   2  146.49    7.00
  -8   7  -2  153.88    7.10
  -8   7  -2  147.49    7.00
   1   7   2  153.98    8.30
  -1   8  -2  163.58    7.30
   1   7   2  164.98    7.40
   1   7   2  161.38    7.30
   7  -8   2  133.09    7.90
   7   1  -2  156.98    7.30
  -8   1   2  149.59    7.00
  -1  -7   2  143.69    7.70
  -7   8   2  153.58    7.10
  -7  -1  -2  141.39    7.00
  -1   8  -2  154.98    7.20
   8  -1   2  144.29    7.30
  -7  -1  -2  151.68    7.10
  -7  -1  -2  143.19    6.80
  -8   7  -2  153.18    7.20
  -8   1   2  147.99    7.00
   1  -8  -2  134.29    7.60
   1  -8  -2  142.89    7.80
   8  -7  -2  152.78    8.00
   1   7  -2  155.58    7.20
  -8   7   2  153.78    7.00
   1  -8   2  141.09    8.00
  -7  -1   2  154.98    7.10
   7   1   2  150.68    7.20
  -1   8   2  141.59    7.10
  -7   8  -2  124.09    7.60
  -1  -7  -2  140.79    7.60
  -1  -7  -2  142.49    7.60
  -1   8   2  154.28    7.30
  -8   7   2  143.49    7.00
  -8   1  -2  151.68    7.00
  -8   1  -2  154.48    7.10
   7  -8  -2  156.58    8.30
   7   1   2  146.49    7.20
   7   1   2  157.58    7.40
  -7   8  -2  147.89    7.20
   1   7  -2  143.69    7.20
  -7  -1   2  155.98    7.00
  -1   8   2  148.19    7.20
  -8   1  -2  148.69    6.80
   8  -1  -2  139.29    7.30
  -7   8  -2  150.28    7.20
  -8   8   2  284.07   12.10
   0   8  -2  288.67   12.20
  -8   8  -2  285.07   12.10
   0  -8  -2  248.58   12.60
   8  -8  -2  290.27   12.70
   8   0  -2  269.57   12.20
   8   0   2  269.27   12.30
   0   8  -2  296.67   12.20
  -8   0  -2  285.87   12.10
  -8   0  -2  262.47   12.10
  -8   0   2  273.47   12.10
   0   8  -2  256.17   12.10
   0   8   2  293.47   12.30
   8  -8   2  271.87   12.40
   0  -8   2  277.27   12.50
  -8   0   2  272.57   12.00
   4   5   2   56.59    3.40
  -5   9   2   48.80    2.90
  -4  -5   2   52.09    3.20
  -5  -4  -2   44.70    3.10
  -4  -5   2   47.20    3.10
  -4   9  -2   48.70    3.00
   4   5   2   46.40    3.00
  -9   5  -2   49.00    2.70
  -9   4   2   46.70    2.70
  -9   5  -2   51.49    2.90
   4  -9  -2   49.60    4.70
   4  -9  -2   49.80    4.20
  -9   4   2   49.20    2.70
  -9   5  -2   48.10    4.00
   4   5   2   54.19    3.10
   5   4  -2   49.10    3.20
  -5   9   2   45.50    3.00
  -5  -4  -2   47.00    2.90
  -5  -4  -2   44.20    2.80
  -4  -5  -2   48.10    3.30
  -4  -5  -2   46.10    2.90
  -9   5   2   47.00    3.00
   5   4   2   52.89    3.00
   4  -9   2   43.50    4.40
  -5  -4   2   46.00    3.40
  -9   5   2   51.09    2.90
  -5  -4   2   49.70    3.00
  -5   9  -2   49.80    3.00
  -4   9   2   51.59    3.10
  -9   4  -2   48.60    2.70
   4   5  -2   43.20    3.10
  -4   9   2   46.70    2.90
  -9   4  -2   50.19    2.90
   5   4   2   48.90    3.00
   4   5  -2   47.30    3.20
   4   5  -2   48.80    3.00
   5   4   2   53.09    3.00
  -9   5   2   47.00    2.70
   5  -9  -2   49.50    4.30
   3   6   2   23.70    2.80
  -3  -6   2   27.20    2.80
  -6  -3  -2   24.40    2.20
   9  -3   2   22.20    2.40
  -9   6  -2   27.90    1.80
   3  -9  -2   25.20    3.40
  -6   9   2   22.70    2.10
   9  -6  -2   26.90    3.60
   3   6   2   24.10    2.30
  -9   6  -2   27.50    2.00
   6   3  -2   30.40    3.20
  -9   6  -2   20.70    2.40
  -6  -3  -2   23.50    2.00
   3   6   2   25.90    2.70
  -6  -3  -2   24.30    1.90
  -6   9  -2   23.00    2.20
  -3   9   2   21.50    2.30
  -3   9   2   29.60    2.70
   3  -9   2   24.30    3.50
  -3   9   2   34.00    3.30
   6   3   2   22.70    2.30
  -3  -6  -2   23.30    2.40
   3   6  -2   28.50    2.20
   6  -9  -2   25.10    3.70
  -6  -3   2   22.80    2.10
  -6  -3   2   23.80    1.90
   6   3   2   28.70    2.30
  -9   6   2   25.60    1.80
   6   3   2   24.80    2.40
  -9   3  -2   27.50    2.40
  -9   6   2   23.70    1.90
   0   0  -3   -0.20    1.20
   0   0  -3    1.30    0.90
   0   0   3   -0.20    0.80
   1   0   3  837.32   38.30
   0   1   3  898.11   37.80
  -1   0  -3  896.21   37.60
   0   1  -3  882.81   38.30
   1   0  -3  897.71   38.50
  -1   0   3  852.91   37.90
  -1   1  -3  837.82   38.00
   1  -1   3  881.21   37.90
   0   1   3  876.11   38.20
   0  -1  -3  935.61   37.60
  -1   1   3  859.51   37.80
  -1   0  -3  863.61   37.60
   1  -1  -3  904.91   38.50
   1   0   3  859.21   37.80
   0  -1  -3  791.42   37.50
  -1   1  -3  885.31   38.10
  -1   0  -3  980.60   39.00
   0  -1   3  922.31   37.90
  -2   1  -3    0.70    1.90
   1   1   3    1.30    1.50
   2  -1  -3    0.70    2.20
  -1   2  -3    4.50    1.60
  -1  -1  -3    0.60    1.70
   2  -1   3    2.20    1.20
  -1   2   3    1.50    0.90
   1  -2  -3   -1.40    1.60
   1   1   3    1.70    1.00
  -2   1   3    3.70    1.30
   1   1  -3    2.80    1.70
  -2   1  -3   -0.60    1.00
   1  -2  -3    1.20    2.00
   1  -2   3    0.70    1.00
   2  -1   3    3.00    1.40
   2   0   3 8615.44  370.66
  -2   2  -3 9137.59  371.86
   0   2  -3 8195.78  370.96
   0  -2  -3 8929.21  370.66
   2   0  -3 9046.90  371.56
   2  -2   3 8940.31  370.26
   0   2   3 8575.64  370.76
  -2   0   3 8916.41  370.36
   2  -2  -3 8566.64  371.36
   0  -2   3 8991.70  370.16
  -2   0  -3 8422.16  371.66
  -3   2  -3   11.50    3.20
   3  -1   3   11.50    2.50
   3  -2  -3    9.30    3.30
   2   1  -3    7.90    2.60
   2  -3   3    9.80    1.80
  -3   1   3   14.30    2.30
  -1   3  -3   11.70    2.70
  -3   2  -3    9.90    2.20
   1  -3  -3   12.70    2.20
  -1  -2   3    9.40    1.60
  -2   3   3   11.30    1.90
   1   2   3    7.10    2.20
  -2  -1  -3    8.70    3.00
  -2  -1  -3    8.50    1.80
  -2  -1   3   12.00    2.00
   2  -3  -3   12.80    2.90
  -1  -2  -3    8.90    1.50
   2   1   3    7.80    2.20
  -3   2   3    8.10    1.80
  -3   1  -3    8.10    3.00
   1  -3   3   11.00    1.70
  -2   3  -3    8.70    2.20
  -3   1  -3   10.30    2.40
   1   2  -3   12.30    2.80
   3  -1  -3   16.70    3.90
  -1   3   3    8.90    1.30
  -2   3  -3    8.30    2.90
  -3   3  -3  924.91   46.00
   3   0   3  993.80   45.00
   3  -3  -3  976.20   45.70
   3   0  -3 1086.99   46.00
  -3   3  -3 1083.09   44.90
  -3   0  -3 1076.09   44.30
   0   3  -3  946.91   45.00
  -3   0  -3  985.90   46.00
  -3   0   3  988.50   44.40
   0  -3   3 1077.99   43.80
  -3   3   3 1045.60   43.80
   0  -3  -3  984.70   44.00
   0   3   3 1054.09   44.80
   4  -2  -3   -2.00    3.90
  -4   2  -3    0.60    2.10
  -4   2   3   -1.50    2.10
   2   2   3    1.80    2.40
  -4   2  -3   -1.00    3.30
  -4   2  -3    2.60    2.50
  -2   4  -3    2.40    1.90
   2   2  -3    0.00    3.30
   2   2  -3    0.20    2.30
  -2   4  -3    0.60    2.80
  -2  -2   3    0.70    2.10
   4  -2  -3   -1.00    3.20
  -2  -2  -3   -2.20    1.60
   2  -4  -3    1.30    2.70
  -4   2   3    5.60    4.00
  -2   4  -3    1.30    3.10
  -1   4  -3  381.46   16.40
   3   1  -3  372.16   18.90
  -1   4  -3  365.36   18.00
   3   1  -3  367.76   19.30
   1  -4  -3  336.07   17.10
   4  -3  -3  341.97   19.10
  -4   1   3  358.06   17.30
  -4   3  -3  333.57   19.10
  -4   3  -3  365.16   16.30
  -4   3  -3  391.06   17.60
   4  -1   3  334.37   18.60
   4  -3  -3  340.47   17.70
  -1   4  -3  410.26   18.70
  -3  -1  -3  361.06   16.80
   3   1  -3  348.27   16.90
   1   3   3  366.46   17.60
  -4   1   3  386.86   19.80
   4  -1  -3  353.96   19.20
   1   3  -3  359.46   16.40
  -1  -3  -3  331.17   16.40
  -4   3   3  337.07   16.70
  -4   1  -3  379.36   17.10
  -3   4  -3  368.66   20.00
  -4   1  -3  353.46   19.30
   3  -4  -3  367.26   18.80
  -3   4  -3  382.06   16.40
  -3   4  -3  355.96   18.90
  -4   3   3  340.07   18.70
   3  -4  -3  362.56   18.50
   3   1   3  354.36   18.00
  -3  -1   3  377.86   17.20
   4  -1  -3  349.87   17.30
   1   3  -3  384.36   18.50
   4   0  -3 1632.04   68.89
   0   4   3 1606.24   69.59
  -4   4  -3 1646.44   68.29
  -4   4  -3 1635.04   69.89
   4   0   3 1565.24   70.49
  -4   0  -3 1753.22   69.19
   4  -4  -3 1557.04   71.09
   4  -4  -3 1567.94   69.59
  -4   0  -3 1495.95   71.19
  -4   4  -3 1451.05   71.09
   0   4  -3 1677.13   68.39
   0  -4  -3 1421.56   68.89
   4   0  -3 1623.34   71.29
  -4   0   3 1717.53   69.39
  -3  -2  -3 1092.69   51.39
   2   3   3 1188.08   55.59
  -2   5  -3 1156.28   51.39
  -3   5   3 1244.68   52.29
   3   2  -3 1214.18   51.19
  -2   5  -3 1261.87   50.79
   5  -3  -3 1147.99   51.79
   5  -2   3 1155.68   52.09
  -3   5   3 1063.69   53.49
  -5   3  -3 1217.08   50.69
   2  -5  -3  995.70   52.29
   2   3   3 1311.17   51.89
   2   3   3 1202.88   51.39
  -5   3  -3 1189.68   52.19
   3   2  -3 1157.88   51.69
   2  -5  -3 1257.87   51.99
   3   2  -3 1195.08   51.89
  -2   5  -3 1205.48   51.49
   5  -3  -3 1129.99   54.09
   5  -3  -3 1115.69   52.59
  -3   5   3 1175.18   51.29
  -5   2   3 1198.08   51.49
   5  -2  -3 1128.69   52.39
   3  -5  -3 1260.17   52.29
  -5   3   3 1247.38   52.19
   3   2   3 1121.79   51.89
  -5   2  -3 1231.38   51.89
   2  -5   3 1153.38   52.29
   5  -2  -3 1152.48   54.19
  -5   2  -3 1211.48   50.69
  -3   5  -3 1066.29   53.99
  -3   5  -3 1191.38   51.49
  -2   5   3 1211.08   51.29
   2   3  -3 1172.58   51.69
  -3   5  -3 1233.88   50.79
   3  -5  -3 1093.09   53.09
  -2   5   3 1146.79   51.59
   5  -3   3 1179.28   52.39
   5  -2  -3 1184.38   51.69
  -5   3   3 1119.99   51.39
   2   3  -3 1206.28   51.09
  -5   3   3 1223.28   54.19
  -3   5  -3 1158.78   52.79
  -5   3   3 1192.48   51.39
  -2   5   3 1218.78   51.59
   3   2   3 1239.58   51.99
   1  -5  -3   30.30    6.00
  -5   1   3   38.80    6.30
  -1   5  -3   37.10    5.30
  -1   5  -3   44.10    4.30
   1  -5  -3   51.19    7.00
   1   4   3   41.50    5.10
   1   4   3   41.60    4.80
  -4   5   3   49.10    5.50
   1   4   3   42.40    6.00
  -4   5   3   36.50    6.50
   5  -4  -3   37.30    6.50
  -4   5   3   44.40    6.40
  -1  -4   3   42.10    5.70
  -1   5  -3   60.59    6.50
  -5   4  -3   39.90    6.40
   4  -5   3   36.60    6.20
  -5   4  -3   47.20    3.80
  -4   5   3   39.50    5.50
   5  -4  -3   49.50    9.80
   5  -1   3   46.80    6.60
  -4  -1  -3   38.00    5.60
   1   4   3   45.50    6.30
   1   4   3   56.49    6.40
  -4   5   3   58.19    6.00
  -1   5  -3   45.50    5.60
   5  -1   3   46.70    5.30
  -5   4  -3   31.00    5.80
   5  -1   3   46.90    7.40
   4   1  -3   39.70    4.80
   4   1  -3   38.60    6.50
   4   1  -3   41.30    6.50
  -5   1   3   41.40    5.20
   5  -4  -3   49.70    5.80
  -4  -1   3   40.40    6.10
  -1   5   3   38.10    6.10
   1   4  -3   37.70    4.90
   1   4  -3   42.30    5.50
  -4   5  -3   37.60    5.60
   1  -5   3   59.59    9.10
  -4   5  -3   39.90    7.20
   5  -4   3   46.90    6.10
   4  -5  -3   34.50    6.80
   5  -4   3   41.10    6.60
  -5   4   3   45.70    5.40
  -5   1  -3   48.40    5.30
   1  -5   3   44.50    6.10
  -5   4   3   35.90    4.80
   4   1   3   39.30    6.20
   4   1   3   51.89    6.80
   4  -5  -3   42.80    5.60
   4   1   3   52.79    6.30
  -4  -1   3   44.40    6.80
   4   1   3   47.60    6.70
  -1   5   3   32.00    5.00
   1   4  -3   47.20    5.50
   5  -1  -3   39.50    6.50
  -1   5   3   53.19    5.20
   4  -5  -3   40.20    9.00
  -5   4   3   49.90    5.70
  -4   5  -3   33.50    5.80
  -4   5  -3   47.70    3.90
  -1   5   3   39.10    5.70
  -1   5   3   48.50    4.60
   5   0   3   45.30    6.40
  -5   5   3   45.90    5.30
   0   5   3   41.70    4.40
   0   5   3   42.00    5.20
   5   0   3   44.20    6.00
   0   5   3   32.60    5.80
   5   0   3   37.20    5.70
  -5   5   3   47.40    5.20
   5   0  -3   44.40    5.90
   5   0   3   48.10    6.80
   5   0  -3   36.20    6.20
   5  -5   3   30.00    6.10
   0  -5   3   52.59    7.40
   0   5  -3   32.40    5.20
  -5   5  -3   40.40    5.30
   0   5   3   40.00    5.90
  -5   5   3   36.40    5.30
   5  -5  -3   36.10    5.10
   0  -5  -3   54.59    5.80
   0   5   3   44.40    4.90
  -5   5   3   36.40    5.20
  -5   0   3   43.40    5.40
  -5   5  -3   41.20    5.20
  -5   5  -3   40.30    3.70
   0   5  -3   45.80    6.20
   5   0  -3   34.30    5.10
   5  -5  -3   35.00    5.90
  -5   0  -3   39.50    3.80
   0   5  -3   42.50    4.60
   3   3  -3    0.20    2.80
  -3   6   3    2.30    3.20
  -3   6  -3   -2.30    2.30
  -6   3  -3    3.00    2.80
  -6   3  -3   -2.90    2.40
  -3  -3  -3    1.40    2.70
   3   3   3    1.30    2.90
   3   3  -3    5.20    3.20
   3  -6   3   -1.30    5.90
   3   3   3    0.70    3.10
  -3   6   3    0.30    2.90
  -3  -3   3   -1.70    3.20
  -3   6   3   -0.20    2.50
  -3   6   3   -0.30    2.50
   6  -3  -3    0.60    3.80
   3  -6  -3   -3.20    3.50
   6  -3   3   -8.60    5.70
   3  -6  -3    6.50    4.60
  -3   6  -3    0.40    3.10
   6  -3  -3   -4.80    3.80
  -6   3   3    2.30    2.40
   6  -3   3   -1.80    3.80
  -6   3  -3    2.10    1.50
  -6   3   3    1.80    2.90
   3  -6   3    2.50    5.30
   3   3  -3    2.20    2.80
   3   3   3    1.60    3.60
   3   3   3    1.80    3.40
  -3   6  -3    0.00    2.50
  -3   6  -3   -5.30    2.80
  -2   6  -3  120.79    7.50
   4  -6   3  106.89    9.80
   2   4   3  116.69    7.30
   4   2  -3  116.89    8.20
   4   2  -3  120.19    7.90
   6  -2   3  126.79    8.50
   2   4   3  128.19    8.30
   2   4   3  113.99    7.70
  -4   6   3  120.39    7.40
   6  -4  -3  112.39    9.40
   6  -4  -3  122.49    8.70
  -6   2   3  117.49    7.70
   2   4   3  120.69    9.10
   6  -2   3  111.59    8.60
  -6   4  -3  121.19    7.80
  -4  -2  -3  116.69    7.00
  -2   6  -3  115.49    7.70
  -4   6   3  118.79    7.30
  -4   6   3  118.29    7.50
  -2   6  -3  118.89    7.50
  -6   4  -3  122.99    6.40
  -6   2   3  117.89    7.10
  -4   6   3  124.19    8.00
   2   4   3  120.19    7.30
   2  -6  -3  111.39    8.30
  -6   4  -3  119.09    7.60
  -2  -4   3  124.09    8.90
  -2  -4  -3  131.19    7.30
  -4  -2   3  132.69    7.90
   6  -4   3  111.29    8.70
   6  -2  -3  120.19    8.90
  -2   6   3  122.19    7.80
  -4  -2   3  114.69    8.20
  -6   4   3  123.19    7.40
   6  -2  -3  117.79    9.20
   4   2   3  135.09    9.40
   4   2   3  109.69    7.80
   2   4  -3  117.19    7.20
  -4   6  -3  125.99    7.70
  -2   6   3  113.59    7.30
  -4   6  -3  116.69    7.50
  -6   4   3  124.19    7.40
  -6   2  -3  118.09    7.80
  -4   6  -3  118.69    6.70
  -6   4   3  117.79    7.60
   2   4  -3  113.59    7.90
  -6   2  -3  132.59    6.30
   4   2   3  133.99    8.30
  -2   6   3  117.29    7.50
   4  -6  -3  114.49   10.00
   2  -6   3  105.79   10.30
   4   2   3  126.39    8.20
   2  -6   3  106.39    9.10
  -2   6   3  121.69    7.00
   4  -6  -3  118.29    9.00
   6  -1   3 1577.34   64.19
  -6   5  -3 1471.95   64.09
   6  -1   3 1457.25   64.09
   1   5   3 1506.85   63.69
  -1   6  -3 1442.66   64.09
  -5   6   3 1494.65   63.79
  -1   6  -3 1491.65   63.59
  -1   6  -3 1470.95   63.69
  -6   5  -3 1454.55   63.19
  -5   6   3 1429.36   63.79
   1   5   3 1449.76   63.79
   5   1  -3 1502.25   64.09
   6  -1   3 1443.66   63.99
   6  -5  -3 1528.95   65.19
   5   1  -3 1478.35   64.39
  -5   6   3 1525.05   63.79
  -1  -5   3 1544.55   64.59
  -6   5  -3 1472.15   64.49
  -5  -1  -3 1468.95   63.29
   1   5   3 1399.66   63.59
   1   5   3 1512.85   64.29
  -6   1   3 1524.85   63.59
   1   5   3 1450.95   63.79
  -6   1   3 1425.76   63.59
  -5   6   3 1471.85   63.79
  -1   6  -3 1460.55   63.89
   6  -5  -3 1383.06   64.29
   5  -6   3 1431.36   64.49
   1  -6  -3 1513.05   63.99
   5  -6  -3 1483.45   65.19
   6  -1  -3 1447.76   64.59
  -5   6  -3 1468.65   64.09
   1  -6   3 1446.06   64.69
  -6   5   3 1521.75   63.79
  -1   6   3 1474.65   63.69
  -1   6   3 1515.75   63.59
   5  -6  -3 1521.65   64.59
   5   1   3 1605.44   64.39
  -1   6   3 1450.65   63.69
  -1  -5  -3 1501.35   63.59
  -1   6   3 1464.45   63.89
  -5   6  -3 1397.46   63.19
  -6   1  -3 1444.36   63.89
  -5  -1   3 1522.55   63.89
   6  -1  -3 1396.26   64.09
   1   5  -3 1456.15   63.59
  -1   6   3 1512.35   63.89
  -6   5   3 1473.05   63.69
   5   1   3 1411.16   63.99
   5   1   3 1499.55   64.09
  -6   1  -3 1519.65   63.19
   1   5  -3 1472.85   63.99
  -5   6  -3 1430.76   63.79
   1   5  -3 1448.66   63.79
  -5  -1   3 1550.24   63.69
  -6   5   3 1540.05   63.89
   0   6   3  337.67   16.10
  -6   6   3  347.27   16.10
   0   6   3  342.47   16.20
   6   0  -3  346.37   17.00
   0  -6  -3  344.17   16.60
   0   6   3  325.17   16.50
   6   0  -3  332.67   16.50
   6   0   3  348.87   16.40
  -6   6   3  339.27   16.00
   0   6  -3  333.27   16.00
  -6   0   3  345.07   16.10
  -6   6  -3  342.07   16.20
  -6   6   3  363.96   16.10
   6   0   3  338.87   16.40
  -6   0  -3  354.46   15.60
   0   6   3  340.57   15.90
  -6   6  -3  350.96   16.40
   6  -6  -3  348.57   17.00
   6  -6  -3  351.06   17.80
   0   6   3  337.07   16.10
   6   0   3  366.06   16.70
  -6   0   3  365.76   16.10
  -6   6   3  351.96   16.20
   0   6  -3  350.66   16.70
   0   6  -3  342.07   16.00
   0  -6   3  341.87   17.20
  -6   0  -3  340.07   16.20
   6   0   3  348.77   16.40
   0   6  -3  348.67   16.30
  -3   7  -3   24.70    3.30
  -4   7   3   37.20    3.80
   3   4   3   24.00    4.10
  -7   4  -3   30.90    3.90
   4   3  -3   24.90    4.20
   4   3  -3   28.60    5.20
  -4  -3  -3   23.90    3.20
   7  -4  -3   26.20    4.30
  -3  -4   3   23.00    3.30
  -7   4  -3   26.00    3.50
   3   4   3   27.10    3.60
  -7   3   3   25.90    3.40
   7  -3   3   22.20    3.60
  -7   3   3   26.70    3.90
  -4   7   3   23.20    3.20
   7  -4  -3   18.80    4.40
  -4   7   3   24.60    3.80
  -3   7  -3   21.20    4.00
   3  -7  -3   24.90    4.20
   4   3  -3   28.30    4.50
   3   4   3   27.10    3.60
  -4   7   3   26.50    4.20
   3   4   3   24.00    4.00
  -3   7   3   37.90    4.30
   4   3   3   25.30    4.30
  -3  -4  -3   29.00    3.50
   4   3   3   29.00    4.40
  -3   7   3   28.50    4.10
  -4  -3   3   20.90    4.10
  -7   4   3   28.00    3.70
   4  -7  -3   25.40    4.40
   3  -7   3   18.10    4.90
  -4   7  -3   20.90    3.20
  -4   7  -3   22.50    3.40
  -7   3  -3   27.10    3.40
   7  -4   3   29.40    4.90
  -3   7   3   27.40    3.50
   4   3   3   27.00    4.10
   3   4  -3   30.30    3.80
  -3   7   3   33.50    4.30
  -7   3  -3   29.30    3.70
  -4   7  -3   24.90    4.10
  -7   4   3   24.40    3.60
   3   4  -3   30.60    4.50
  -4  -3   3   26.70    4.70
   7  -3  -3   35.50    5.40
   3   4  -3   24.20    3.60
  -7   4   3   27.80    3.80
   4   3   3   20.10    3.20
   7  -2   3   23.80    3.50
   5   2  -3   15.30    3.00
   2   5   3   20.50    3.20
   2  -7  -3   23.50    4.00
   2  -7  -3   19.50    3.30
   5   2  -3   25.90    3.60
  -2  -5   3   16.00    3.20
  -7   5  -3   23.10    3.70
  -5   7   3   24.10    3.60
   7  -5  -3   19.50    3.90
   2   5   3   19.70    2.90
  -2   7  -3   24.80    4.00
  -7   2   3   19.80    3.20
   2   5   3   33.60    5.40
  -5   7   3   22.90    3.70
  -5   7   3   21.70    3.70
  -2   7  -3   16.50    2.70
  -7   5  -3   21.00    3.50
   7  -5  -3   15.60    3.90
   2   5   3   18.90    2.90
  -7   5  -3   23.40    2.60
  -5   7   3   18.80    3.00
  -5  -2  -3   20.90    3.00
  -2   7  -3   24.70    3.90
  -7   5   3   21.70    3.20
   5  -7  -3   21.60    4.20
  -5   7  -3   26.40    4.40
  -2  -5  -3   19.30    2.80
   5   2   3   17.70    2.80
  -2   7   3   21.40    3.70
  -2   7   3   20.90    3.10
  -7   2  -3   22.90    3.50
  -7   2  -3   20.40    2.40
  -5  -2   3   21.60    3.70
   2   5  -3   20.50    3.40
  -5   7  -3   18.10    2.80
   5   2   3   15.20    2.90
  -2   7   3   20.20    2.90
  -5  -2   3   19.40    3.60
  -2   7   3   21.70    3.10
   7  -2  -3   27.60    5.10
   2   5  -3   24.00    3.20
   5   2   3   22.50    3.40
   5   2   3   23.00    3.20
  -5   7  -3   19.60    3.00
   2   5  -3   18.70    3.20
  -7   5   3   19.60    3.40
  -7   5   3   21.00    3.20
  -2   7   3   18.70    3.30
  -1   7  -3   13.90    2.90
  -1  -6   3   16.60    3.00
   6  -7   3   16.20    3.90
  -1   7  -3   21.80    4.20
   1  -7  -3   14.80    2.80
  -1   7  -3   13.60    2.30
   1   6   3   13.50    2.10
  -7   6  -3   11.30    2.20
  -7   1   3   15.50    2.80
  -7   6  -3   14.80    3.00
   7  -6  -3   15.50    3.50
  -7   6  -3   19.10    2.80
   6   1  -3    9.20    2.50
   7  -6  -3   13.40    3.60
   1   6   3   13.50    2.90
  -7   6  -3   12.90    2.20
  -6   7   3   13.10    2.50
  -6  -1  -3   15.40    3.50
   1   6   3   10.70    2.40
   7  -1   3   15.50    5.40
   7  -1   3   13.50    2.70
  -6   7   3   12.60    2.30
  -6   7   3   14.70    2.30
   1   6   3   12.60    2.40
   6   1  -3   13.70    5.30
  -7   1  -3   14.40    2.30
  -7   6   3   17.00    2.90
   1   6  -3   19.10    3.10
   6   1   3   15.20    2.70
   6  -7  -3   15.20    3.60
  -6   7  -3   13.10    2.60
   6   1   3   11.70    2.50
  -1   7   3   16.00    2.80
  -6  -1   3   10.30    2.10
  -1   7   3   13.10    2.40
  -7   1  -3   16.10    2.10
  -6   7  -3    8.50    2.20
   7  -1  -3   16.60    3.10
  -1   7   3   14.60    2.60
  -7   6   3   14.70    2.10
   6   1   3   12.60    2.60
   1  -7   3   15.90    3.40
  -6  -1   3   12.60    2.10
  -1  -6  -3   10.50    2.40
   6   1   3   12.10    2.40
   6  -7  -3    9.90    3.40
  -1   7   3    9.40    1.90
  -6   7  -3   10.50    2.30
  -7   6   3   12.90    2.20
   0   7   3  517.85   23.30
   7   0   3  541.05   23.50
  -7   0  -3  523.15   23.00
  -7   7   3  539.75   23.30
  -7   7  -3  564.04   23.30
   0  -7  -3  518.65   23.50
  -7   0  -3  532.95   23.30
  -7   7   3  544.85   23.20
   7   0  -3  520.75   23.40
   0  -7   3  522.45   24.00
  -7   7   3  513.55   23.20
   0   7   3  552.84   23.50
  -7   7  -3  529.85   23.30
  -7   7  -3  521.15   23.40
   0   7   3  536.65   23.40
   7  -7  -3  526.55   24.20
   7  -7   3  570.64   24.20
  -7   0   3  536.35   23.20
   0   7   3  508.95   23.30
   0   7  -3  487.25   23.20
   7   0   3  524.55   23.30
   0   7  -3  538.05   23.30
  -7   0   3  545.35   23.20
   7   0   3  560.24   23.50
  -4   8  -3    0.10    1.70
  -4   8   3    1.10    1.60
  -8   4  -3    1.60    1.40
  -4   8  -3   -0.20    1.90
  -4  -4   3    0.30    2.10
  -4   8   3   -0.30    1.70
  -8   4  -3    0.10    1.10
  -4  -4  -3    3.50    1.50
   4   4  -3    6.00    1.80
   8  -4   3    1.20    2.20
   4  -8  -3    3.80    2.70
   4   4  -3    0.40    1.90
  -8   4   3    1.00    1.80
  -4   8   3   -4.10    2.40
   4   4   3    0.70    1.80
   4  -8  -3   -4.50    2.80
  -4   8   3    1.00    1.90
  -4  -4   3    1.30    1.80
   4   4   3   -0.50    1.90
   8  -4  -3    5.40    2.60
  -4   8  -3    2.40    2.00
   4   4   3    1.90    1.90
  -8   4  -3    3.60    1.50
   8  -4   3    4.20    2.20
   3   5   3 1744.43   73.79
  -3  -5   3 1710.83   73.79
  -5   8   3 1745.93   73.69
   3   5   3 1721.83   73.79
   8  -3   3 1735.33   73.79
  -3   8  -3 1733.23   73.59
  -3   8  -3 1638.24   73.59
  -8   5  -3 1695.73   73.39
  -5  -3  -3 1716.23   73.39
  -3   8  -3 1768.82   73.69
   3  -8  -3 1638.34   74.19
   5   3  -3 1593.54   73.39
  -5   8   3 1716.53   73.69
   5   3  -3 1763.92   73.79
   3  -8  -3 1680.73   73.99
  -8   5  -3 1721.33   73.69
  -5   8   3 1741.73   73.39
  -8   5  -3 1722.73   73.49
  -8   5  -3 1700.53   73.29
   8  -5  -3 1804.82   74.29
   3   5   3 1799.92   73.69
  -8   3   3 1722.03   73.49
   3   5   3 1737.13   73.69
   3  -8   3 1684.63   74.29
  -5   8  -3 1716.23   73.69
   8  -3  -3 1752.12   74.09
  -8   5   3 1689.63   73.49
   5  -8  -3 1764.42   74.09
  -5   8  -3 1691.03   73.69
   5   3   3 1737.03   73.69
  -5   8  -3 1744.63   73.59
  -3  -5  -3 1675.43   73.59
   5   3   3 1717.73   73.69
  -5  -3   3 1744.93   73.49
   8  -5   3 1748.03   74.09
  -8   3  -3 1737.03   73.69
  -8   5   3 1727.83   73.39
   3   5  -3 1658.13   73.49
  -8   3  -3 1800.62   73.29
  -3   8   3 1727.43   73.69
  -3   8   3 1667.33   73.49
   3   5  -3 1842.12   73.79
   5  -8  -3 1753.02   74.49
   5   3   3 1765.12   73.79
  -3   8   3 1761.22   73.69
  -8   3  -3 1765.62   73.49
  -5  -3   3 1737.53   73.69
  -8   5   3 1707.33   73.49
  -8   2   3    8.80    1.40
   2   6   3    9.90    1.90
   2  -8  -3   11.40    2.80
  -6   8   3   12.50    1.70
   2  -8  -3    9.20    2.50
  -2   8  -3   14.90    1.90
  -2  -6   3    9.20    2.10
   8  -6  -3   10.10    2.70
  -8   6  -3   10.30    1.70
  -6  -2  -3   15.20    2.50
  -6   8   3   14.80    1.80
  -2   8  -3   12.40    1.90
  -8   6  -3    8.40    1.60
   6   2  -3   11.90    2.00
   8  -2   3   10.50    2.00
   2   6   3   12.00    2.00
   2   6   3   10.20    2.10
  -8   6  -3    8.10    1.60
  -6   8  -3   11.20    1.90
  -2  -6  -3   19.40    2.90
   2   6  -3   11.40    2.30
  -6  -2   3    9.60    1.70
  -6   8  -3   10.50    1.80
  -8   2  -3   12.60    2.20
   6  -8  -3    6.30    2.70
  -6  -2   3    9.40    1.60
  -2   8   3   10.60    1.90
  -2   8   3    7.00    1.60
   8  -2  -3   10.00    2.50
   6   2   3   14.70    2.60
  -8   2  -3   13.10    1.90
  -2   8   3   13.20    2.50
  -8   2  -3   11.90    1.80
  -8   6   3   11.60    2.00
   8  -6   3   14.10    2.40
  -8   6   3   12.80    2.10
   2  -8   3   12.60    3.00
   2   6  -3   11.80    1.80
   6   2   3   11.60    1.90
  -2   8   3   13.30    2.40
  -6   8  -3   11.90    2.10
   6  -8  -3    7.70    2.80
  -8   6   3   12.50    2.10
   6   2   3   12.40    2.10
   1   7   3   39.30    3.10
   1  -8  -3   29.30    3.40
  -7   8   3   33.00    2.40
  -1  -7   3   31.00    3.40
  -8   7  -3   38.80    2.50
   1   7   3   30.90    3.30
  -1   8  -3   33.20    2.90
   7  -8   3   26.20    4.00
  -8   1   3   33.40    2.20
  -7  -1  -3   33.40    2.20
   7   1  -3   34.10    2.60
  -8   7  -3   34.50    2.40
   8  -1   3   32.30    2.60
   1   7   3   35.10    3.00
  -1   8  -3   33.10    2.60
   8  -7  -3   35.00    3.50
  -7   8   3   33.80    2.20
   1   7  -3   33.60    2.50
  -1  -7  -3   33.00    3.10
   7  -8  -3   35.20    3.70
  -1   8   3   33.80    2.60
  -7   8  -3   30.00    2.50
  -8   7   3   31.40    2.30
   7   1   3   34.90    2.70
   8  -7   3   31.70    3.20
  -1   8   3   32.90    2.40
  -8   1  -3   34.50    2.50
  -7   8  -3   35.10    3.10
  -8   1  -3   35.70    2.20
  -7  -1   3   35.90    2.30
   7   1   3   26.00    3.40
  -8   1  -3   29.90    2.10
   7   1   3   43.60    3.80
   1  -8   3   35.00    4.00
  -8   7   3   28.90    2.40
  -1   8   3   34.70    3.30
  -7  -1   3   31.50    2.60
  -4  -5   3  244.88   11.30
  -5  -4  -3  219.58   11.00
  -5   9   3  250.77   10.90
   5   4  -3  248.28   10.90
   4   5   3  260.17   10.90
   4   5   3  256.37   11.00
  -4   9  -3  239.98   10.90
  -9   4   3  249.68   10.80
  -9   5  -3  262.47   10.90
   4  -9  -3  222.28   11.50
  -9   5  -3  255.97   10.90
   9  -5  -3  252.77   11.70
  -9   4   3  242.68   10.80
  -9   5   3  237.38   10.80
  -5   9  -3  254.27   10.90
  -9   4  -3  236.38   10.80
   9  -5   3  239.98   11.10
   5   4   3  257.17   11.00
   5   4   3  256.07   10.90
   5  -9  -3  245.68   11.60
  -4   9   3  255.87   10.90
   4   5  -3  250.77   10.90
  -9   4  -3  257.57   10.80
   4   5  -3  238.08   10.80
  -4   9   3  255.17   10.90
  -9   5   3  250.77   10.80
   5   4   3  241.28   10.90
  -9   4  -3  256.47   10.90
  -1   0  -4  382.86   16.60
   1   0  -4  379.16   17.60
   0  -1  -4  320.07   16.60
   0  -1  -4  385.86   16.50
  -1   1   4  363.26   16.90
  -1   0   4  384.36   17.00
   0  -1   4  374.36   17.00
  -1   1  -4  395.06   17.20
   1  -1   4  395.76   17.00
   0   1   4  383.36   16.90
   1  -1  -4  378.76   17.40
  -1   0  -4  418.46   18.60
   1   0   4  387.56   17.00
   0   1  -4  362.16   17.40
  -1  -1  -4  118.09    7.80
   1   1   4  113.79    6.10
   1  -2   4  116.79    6.20
   1   1   4  121.59    7.00
  -1  -1   4  113.59    6.30
  -2   1  -4  116.79    6.20
   1   1  -4  121.69    7.20
  -1   2  -4  109.89    6.70
  -2   1  -4  119.39    8.20
  -1   2   4  111.79    5.90
   2  -1  -4  113.89    7.70
   1  -2  -4  107.69    6.80
  -2   1   4  111.09    6.30
  -2   2  -4   20.90    4.70
  -2   0  -4   20.50    2.20
   2  -2   4   22.80    3.10
   0   2  -4   20.90    3.50
   2   0   4   15.20    2.90
  -2   2   4   23.10    2.80
   0   2   4   17.40    2.60
  -2   2  -4   19.60    3.10
   0  -2   4   26.30    3.00
  -2   0  -4   20.50    5.10
   2   0  -4   29.50    4.50
   0   2   4   22.60    4.60
   2  -2  -4   20.90    4.80
  -2   0   4   18.90    3.20
   1  -3  -4  362.16   18.50
   3  -2  -4  366.46   19.80
   2   1  -4  386.56   17.50
   2  -3   4  382.56   17.80
  -3   2  -4  402.56   18.10
  -1   3  -4  441.26   19.10
   1   2   4  375.96   18.60
  -1  -2   4  390.46   17.70
  -1   3  -4  396.06   17.30
  -2   3   4  386.96   17.30
  -3   2  -4  368.96   20.10
  -3   1   4  382.16   18.10
  -2   3  -4  376.16   18.40
  -3   1  -4  359.46   20.00
   2   1   4  376.66   18.70
  -2   3  -4  422.16   20.00
   3  -1  -4  381.06   19.70
  -3   2   4  382.06   17.70
  -2  -1   4  409.16   17.90
  -3   1  -4  396.06   18.10
  -2   3  -4  385.86   17.40
   1   2  -4  397.46   17.50
   1  -3   4  393.86   17.60
   2  -3  -4  351.66   19.40
  -3   3  -4  176.88    8.70
  -3   0  -4  172.48   12.10
  -3   3  -4  188.58    9.90
   3   0  -4  178.18   11.30
   3   0   4  159.28   10.80
  -3   0   4  168.88    9.80
   0   3   4  177.48   10.00
   0  -3   4  183.18    9.10
   0   3  -4  175.18   10.40
   0   3  -4  181.98    8.80
   3  -3  -4  160.38   11.70
   3  -3  -4  146.89   11.10
  -3   3   4  180.18    9.00
  -3   3  -4  177.68   11.80
  -3   0  -4  177.28    8.80
   2   2  -4 2538.95  103.19
   2   2   4 2351.66  102.39
   4  -2  -4 2277.67  101.29
   2   2  -4 2527.75  100.89
  -2   4  -4 2453.05  102.39
  -2  -2   4 2361.86  101.19
  -4   2  -4 2429.56  100.69
   4  -2  -4 2272.27  103.59
  -2   4  -4 2535.15  100.69
  -4   2  -4 2158.68  103.69
   2  -4  -4 2030.90  102.49
  -4   2  -4 2479.85  101.59
  -2   4  -4 2465.65  103.49
  -4   2   4 2200.88  101.29
   1  -4  -4   25.60    5.20
   4  -3  -4   27.10    6.10
  -4   1   4   24.80    5.10
  -1   4  -4   38.00    7.90
  -4   3  -4   33.90    4.90
  -3  -1  -4   23.80    3.40
  -1   4  -4   29.90    3.60
  -4   3  -4   19.70    6.60
  -4   3  -4   29.60    3.60
  -1   4  -4   29.00    6.00
   3   1  -4   32.10    6.00
   4  -3  -4   29.80    4.50
   1   3  -4   32.60    6.50
   4  -1  -4   32.30    5.10
  -4   1  -4   30.70    4.00
   4  -1  -4   23.20    5.60
  -3   4  -4   24.00    5.80
  -3  -1   4   28.00    4.20
   3  -4  -4   31.40    5.80
   1   3  -4   32.90    3.60
  -4   3   4   28.70    3.90
  -3   4  -4   34.00    3.50
   3  -4  -4   22.30    6.20
  -4   1  -4   29.30    6.30
  -3   4  -4   32.90    5.50
   3   1   4   20.50    5.10
   0   4   4   16.60    4.10
  -4   4   4   10.50    3.70
   4   0  -4    7.60    4.80
   4   0  -4   15.00    4.00
   0  -4  -4   16.30    4.80
  -4   4   4   19.80    3.80
  -4   4   4   16.50    3.90
   4   0  -4   20.40    7.30
   4  -4  -4   14.50    4.50
   0   4  -4   18.80    3.40
  -4   4   4   14.70    3.80
  -4   0  -4   12.60    3.30
  -4   4  -4   10.70    3.90
  -4   4  -4   19.20    3.10
   0   4   4   20.20    3.70
   4   0   4   11.20    5.40
   4  -4   4   20.50    5.10
   0   4   4   25.70    4.50
   0   4   4   17.10    3.50
   4   0  -4   14.20    3.30
   0  -4   4   17.70    4.40
   0   4  -4   10.80    5.70
  -4   4  -4   13.20    4.00
   4   0   4   17.30    4.60
   0   4  -4   15.70    3.20
   0   4  -4   17.30    2.50
   4  -4  -4   17.50    6.50
   4  -4  -4   33.20    7.50
  -4   0   4   15.90    4.60
   4   0   4   24.10    4.80
  -5   2   4  577.54   26.70
   3   2  -4  576.54   26.60
  -5   3  -4  577.54   25.50
  -2   5  -4  587.64   26.40
   3   2  -4  553.54   26.50
  -3   5   4  583.34   26.10
   2   3   4  538.75   27.10
  -3   5   4  553.54   26.30
   2   3   4  619.34   26.20
  -2   5  -4  597.04   26.30
   5  -3  -4  549.74   27.70
   5  -2   4  552.44   26.60
  -3   5   4  498.95   26.90
  -5   3  -4  585.14   27.00
  -3   5   4  604.64   26.10
   5  -2   4  572.54   27.40
   5  -2   4  622.04   27.40
   2   3   4  590.94   26.90
  -3   5   4  616.54   26.30
   3  -5   4  553.94   26.80
  -2   5  -4  594.64   25.60
   3   2  -4  571.64   26.00
  -5   2   4  590.64   26.10
   5  -3  -4  575.84   26.80
   3   2   4  601.14   27.00
   2  -5   4  590.54   26.90
   2   3  -4  564.84   26.30
  -2   5   4  608.04   26.10
  -5   2  -4  575.54   25.50
  -3   5  -4  595.24   26.50
   5  -3   4  521.05   27.50
   3   2   4  598.34   27.10
  -3   5  -4  574.84   26.40
   5  -3   4  578.84   26.90
   3   2   4  553.44   27.10
   5  -2  -4  591.84   26.70
   2   3  -4  543.95   26.00
  -2   5   4  595.74   26.10
   3  -5  -4  599.94   27.50
  -2   5   4  600.54   26.10
  -5   3   4  589.24   26.30
  -2   5   4  541.25   26.30
   3   2   4  595.74   26.30
  -5   3   4  572.04   26.60
  -3   5  -4  600.14   25.60
   5  -2  -4  572.84   27.40
   2   3  -4  586.14   26.60
   5  -3   4  584.94   26.80
   1   4   4  250.27   12.60
   4  -5   4  247.18   15.00
   4   1  -4  243.38   13.40
  -5   1   4  252.37   12.80
  -4   5   4  255.57   13.10
  -4   5   4  258.17   12.90
   4   1  -4  239.88   13.30
  -4   5   4  240.48   13.30
   1   4   4  278.77   12.90
  -1   5  -4  242.78   12.10
   5  -1   4  272.07   13.60
   5  -1   4  260.77   13.60
   5  -4  -4  245.98   14.00
  -1   5  -4  254.27   12.80
   4   1  -4  264.57   12.90
  -5   4  -4  254.37   13.60
  -5   4  -4  253.37   12.00
   1   4   4  230.58   14.40
   4  -5   4  252.57   13.90
  -4   5   4  257.57   12.80
  -4   5   4  257.07   13.30
  -5   1   4  255.47   16.60
   1   4   4  272.77   14.20
   1   4   4  255.37   13.20
  -1   5  -4  267.67   13.00
   5  -4  -4  234.68   14.90
   5  -1   4  273.97   14.50
   1   4  -4  244.68   12.20
   4  -5  -4  261.57   15.80
  -4   5  -4  258.27   13.10
  -1   5   4  264.17   12.60
  -5   4   4  239.88   13.00
   1   4  -4  261.27   12.90
   4   1   4  257.57   13.50
  -1   5   4  257.17   13.20
  -4   5  -4  267.37   12.10
   4  -5  -4  256.57   14.50
   4   1   4  258.07   13.70
  -4  -1   4  275.57   15.30
   1  -5   4  263.57   13.70
   5  -1  -4  261.87   13.30
  -4   5  -4  254.17   13.20
  -1   5   4  267.77   12.70
   1   4  -4  252.27   13.20
   5  -4   4  256.77   13.90
  -1   5   4  259.37   12.70
   4   1   4  259.57   14.40
  -5   4   4  250.77   13.00
   1   4  -4  247.78   12.50
  -5   1  -4  262.97   12.00
   4   1   4  257.37   13.90
   5  -5  -4  431.96   22.30
   5   0  -4  450.35   22.30
  -5   5   4  506.65   22.40
   5   0   4  429.76   21.90
   0   5  -4  436.56   20.90
  -5   5   4  441.76   21.50
   5  -5   4  475.45   25.60
  -5   5  -4  463.95   22.50
   5   0  -4  478.45   21.70
   5   0  -4  461.95   23.90
   0   5  -4  484.15   21.70
   0   5  -4  469.95   21.80
  -5   0  -4  492.05   20.70
  -5   5   4  488.15   22.40
  -5   0   4  494.15   23.20
   5  -5   4  459.15   23.60
   5   0   4  483.95   23.50
   5   0   4  481.65   24.10
   0   5   4  475.65   21.30
  -5   5  -4  499.65   22.50
  -5   5   4  402.26   23.60
   5  -5  -4  452.95   24.20
   0   5   4  449.06   22.50
  -5   5  -4  478.35   20.80
   0   5   4  460.75   21.50
   6  -3  -4 2890.41  124.19
   3   3  -4 2704.83  123.29
   6  -3  -4 2928.41  124.69
  -6   3  -4 2787.42  123.99
  -3   6   4 2958.60  123.59
   3   3  -4 2782.52  123.79
   3  -6   4 2814.32  124.19
   6  -3   4 3129.59  124.79
  -6   3   4 3024.30  123.79
  -6   3  -4 2825.82  123.09
  -3   6  -4 2984.80  123.89
   6  -3   4 2796.12  123.69
  -3  -3   4 2799.52  123.69
  -3   6   4 2915.11  123.59
  -3   6  -4 2947.71  123.49
  -6   3   4 2929.81  123.49
  -3   6  -4 2862.11  123.69
  -3   6  -4 2854.11  123.19
   3   3   4 3018.80  124.19
   3   3   4 2934.01  123.69
   3   3   4 2926.91  123.99
   3   3  -4 2704.13  123.79
  -3   6   4 2840.62  123.69
   6  -3   4 3026.20  124.19
   3   3   4 2846.32  123.89
  -3   6   4 3035.40  123.59
   3  -6  -4 2965.90  124.19
  -4   6   4  154.58    8.70
  -6   4  -4  156.98    9.10
   4   2  -4  153.48    9.00
  -6   2   4  166.48    8.80
  -2  -4   4  158.28    9.70
  -4   6   4  147.19    9.20
  -6   4  -4  154.48    7.70
   4  -6   4  151.58   10.10
   2   4   4  167.88    9.30
   6  -2   4  155.18    9.90
  -4   6   4  155.28    8.70
  -2   6  -4  139.19    8.00
   2   4   4  168.18    9.70
   6  -2   4  160.98    9.90
  -2   6  -4  143.69    8.70
  -6   2   4  153.88    8.20
   2   4   4  152.08    8.50
  -2   6  -4  154.98    8.70
  -4   6   4  162.58    8.60
   2  -6  -4  150.78    9.40
  -2   6  -4  152.98    9.00
   6  -2   4  152.38    9.10
   6  -4  -4  144.99    9.60
  -4   6   4  158.48    8.50
   4  -6   4  140.19   11.80
   6  -4  -4  174.68   10.70
   4   2  -4  154.58    8.80
   4  -6  -4  153.78   11.00
   6  -2  -4  152.98    9.90
  -6   4   4  166.58    8.50
   2  -6   4  147.79    9.90
  -2   6   4  154.28    9.00
   4   2   4  153.78    8.90
  -2   6   4  158.78    8.50
  -6   2  -4  148.89    7.60
  -2   6   4  150.78    8.40
   6  -2  -4  135.89    9.50
   4   2   4  162.98    9.30
  -6   2  -4  144.59    9.50
  -6   4   4  163.48    8.50
   4  -6  -4  161.08   10.10
   4   2   4  163.68    9.50
   6  -4   4  169.28   10.50
  -4   6  -4  147.89    7.80
   6  -4   4  140.39    9.30
  -4   6  -4  157.38    8.90
   6  -4   4  142.09    9.40
   2   4  -4  135.19    8.30
   2   4  -4  148.99    9.00
  -2   6   4  161.68    8.30
  -4   6  -4  164.48    9.00
  -4  -2   4  156.28    9.10
   5  -6   4    7.60    3.90
  -6   5  -4    3.60    2.50
  -6   1   4    3.50    2.10
   6  -1   4    6.70    2.90
   1   5   4    9.90    3.30
  -1  -5   4   10.00    4.00
  -5   6   4    6.30    2.80
   6  -5  -4   10.90    3.70
   1   5   4    0.30    2.70
  -6   5  -4    8.70    2.60
  -5  -1  -4    5.20    2.60
   5  -6   4    8.00    4.30
   6  -5  -4    6.80    3.80
   5   1  -4    4.00    2.80
  -1   6  -4    5.70    2.30
  -5   6   4    6.00    2.80
  -5   6   4    6.20    2.40
  -5   6   4    4.40    2.40
  -1   6  -4    2.40    3.00
   1   5   4    4.40    2.10
   5   1  -4   12.40    3.10
  -1   6  -4    0.10    2.10
   1   5   4    6.10    2.60
   1   5   4    2.20    3.40
   6  -1   4    0.70    3.20
  -6   5  -4    3.40    1.60
   1  -6  -4    2.70    3.50
   5  -6  -4   11.50    4.20
  -6   5   4    8.70    2.50
   6  -5   4   12.00    3.70
   5   1   4    6.60    3.00
  -1  -5  -4   12.70    4.00
  -5  -1   4   10.30    2.70
  -5   6  -4    2.20    2.30
   1   5  -4    4.00    2.80
   5   1   4   -3.50    3.30
   5   1   4    7.30    2.90
  -1   6   4    1.80    2.10
   6  -1  -4   -0.30    5.40
  -5   6  -4    8.40    2.70
   5  -6  -4    1.00    3.50
  -1   6   4   11.40    2.60
  -6   5   4    4.70    2.10
  -6   5   4    3.40    2.20
   1   5  -4    8.60    2.30
  -1   6   4    9.10    2.70
   1   5  -4    5.30    2.10
   6  -1  -4    4.90    3.20
   5   1   4    8.30    3.00
   6  -5   4    9.00    4.10
  -6   0  -4   11.40    1.80
   0   6   4   11.10    3.30
  -6   6   4    6.70    2.20
   6  -6   4   13.80    3.70
   6   0  -4   11.50    3.00
  -6   6   4    7.70    2.40
   6   0   4    9.60    2.90
   0   6   4    8.10    2.40
   6  -6   4   13.80    3.80
  -6   6   4    4.50    2.00
   0  -6  -4    6.40    2.70
   6   0   4    8.70    3.10
  -6   6  -4    6.00    2.20
   0   6   4    4.90    1.90
   0   6  -4    9.60    2.70
   0   6  -4    9.50    2.10
   6  -6  -4   14.00    3.50
   0  -6   4    5.70    4.50
   0   6   4    8.30    2.40
   6   0  -4    7.40    2.80
  -6   6  -4   10.50    2.40
   0   6  -4    7.40    2.20
   6  -6  -4    9.80    3.70
   6   0   4    7.80    2.50
  -6   6   4    5.70    2.10
  -6   6  -4   10.10    1.90
   4  -7   4   11.10    3.80
   4   3  -4   12.60    2.70
   3  -7  -4   21.00    3.50
  -4  -3  -4   15.00    2.30
  -7   3   4   12.70    2.20
  -4   7   4   12.70    2.60
  -7   3   4    8.90    1.90
   3   4   4    8.30    2.60
  -4   7   4   13.70    2.50
   7  -4  -4   14.20    3.30
  -7   4  -4   13.80    2.50
  -7   4  -4   14.80    2.20
   7  -3   4   20.40    3.20
   7  -3   4   12.30    3.00
   7  -3   4   20.70    4.20
  -4   7   4   17.70    2.50
   3   4   4   16.00    2.60
   4   3  -4   12.70    2.60
  -3   7  -4   14.50    2.60
   3   4   4   13.80    2.90
  -4   7   4    8.40    2.30
  -7   4   4   12.20    2.10
  -7   4   4   14.30    2.10
   3   4  -4   11.50    2.30
  -3   7   4   11.00    2.20
   4   3   4   15.20    2.90
   3   4  -4   13.80    2.80
  -7   3  -4   19.80    3.60
  -3  -4  -4   13.90    2.50
   4  -7  -4    7.90    4.20
   7  -3  -4   14.80    3.30
   4  -7  -4    7.30    3.40
   7  -4   4   14.40    3.20
   4   3   4   14.90    2.60
  -4   7  -4   11.30    2.30
   7  -4   4   10.30    2.90
  -3   7   4   14.60    2.70
  -3   7   4   19.60    3.40
  -4   7  -4   14.40    2.60
  -4   7  -4   15.80    2.70
   3   4  -4    8.80    2.40
  -3   7   4   10.20    2.40
   4   3   4   13.70    2.70
   7  -5  -4   28.40    5.00
   2  -7  -4   24.00    3.40
   7  -5  -4   25.50    3.80
  -7   2   4   22.20    2.80
  -5   7   4   25.70    3.40
  -5   7   4   23.80    3.80
  -5   7   4   24.60    3.20
  -7   5  -4   26.10    2.50
  -2   7  -4   24.60    3.30
   2   5   4   16.20    3.90
  -2  -5   4   25.60    4.60
   2   5   4   25.30    3.30
   7  -2   4   23.50    3.40
  -5  -2  -4   25.80    2.80
   5   2  -4   24.80    3.50
  -7   5  -4   28.00    3.20
  -2   7  -4   32.90    4.00
  -2   7  -4   26.90    3.50
  -7   5  -4   20.80    3.40
   7  -2   4   19.60    3.10
   5  -7   4   19.80    6.40
   5   2   4   20.60    2.90
   2   5  -4   20.70    3.50
   5   2   4   29.00    3.80
  -7   2  -4   22.60    3.90
  -7   2  -4   26.00    2.40
  -2   7   4   21.70    3.00
  -7   5   4   27.50    3.00
  -7   2  -4   25.70    3.40
   2   5  -4   23.80    4.00
   7  -5   4   30.20    4.90
  -5   7  -4   20.90    3.50
  -2   7   4   22.50    3.50
   5   2   4   20.90    3.00
   2   5  -4   23.70    3.70
  -5  -2   4   25.60    3.80
  -7   5   4   25.00    2.80
   5  -7  -4   27.10    3.90
  -5   7  -4   22.50    3.60
  -2   7   4   22.00    3.30
  -7   5   4   26.00    3.00
   5   2   4   24.10    5.00
  -2  -5  -4   23.70    2.90
   7  -2  -4   25.40    4.60
  -5   7  -4   20.10    2.80
  -6   7   4    1.70    1.80
  -6   7   4   -0.70    1.70
   7  -6  -4    7.60    2.90
   1   6   4    1.90    2.40
   6  -7   4    7.50    3.20
  -7   6  -4    1.50    1.40
   6   1  -4    3.70    2.10
   7  -1   4   -1.70    2.00
   7  -6  -4    8.10    2.80
  -6   7   4    0.70    1.60
  -1  -6   4   -0.30    3.20
   1  -7  -4   -0.30    2.10
  -1   7  -4    0.20    1.70
   1   6   4    0.10    1.70
   1   6   4   -0.30    2.40
  -7   6  -4    3.70    1.70
  -7   6  -4    1.20    1.50
  -6  -1  -4    1.40    1.30
   7  -1   4    1.90    2.10
  -1   7  -4   -0.70    1.80
   6   1  -4   -1.50    2.20
   6  -7  -4   -0.20    3.00
   1   6  -4    3.10    2.20
   6   1   4   -2.20    2.10
   1   6  -4    1.20    1.60
  -7   6   4    3.60    1.60
  -7   1  -4    2.60    1.10
   1   6  -4    0.40    2.00
   6   1   4   -1.50    1.80
   7  -1  -4    1.10    2.40
   6   1   4    1.90    2.30
  -1   7   4    4.20    1.90
   6   1   4    1.60    1.80
  -7   6   4    4.20    1.60
  -6   7  -4    4.30    2.00
  -7   6   4    0.00    1.40
   7  -6   4    6.80    2.70
  -1   7   4    0.80    1.80
  -6   7  -4    2.20    1.80
  -1  -6  -4    1.90    2.00
  -6   7  -4    3.20    1.80
  -6  -1   4    1.20    1.70
   6  -7  -4    1.40    2.70
  -1   7   4    3.90    1.70
   0   7   4   88.09    4.70
   0   7   4   79.29    4.50
  -7   7   4   86.89    4.40
  -7   7   4   87.59    4.50
   0  -7  -4   83.29    5.00
   7  -7  -4   86.79    5.60
  -7   7  -4   88.39    4.60
   7   0  -4   85.99    5.70
   7   0   4   86.79    4.70
  -7   0   4   88.69    4.40
   7  -7   4   84.19    5.50
   7   0   4   90.69    4.80
  -7   7  -4   85.29    4.70
  -7   7   4   80.19    4.50
   0   7  -4   86.69    4.50
  -7   0  -4   84.49    4.20
  -7   7  -4   82.29    4.60
   7  -7  -4   78.09    5.80
   7   0  -4   74.49    5.80
  -4  -4  -4    2.90    1.50
   4   4   4    5.70    2.00
   8  -4  -4    3.50    2.20
   4   4   4    4.90    1.60
  -4   8   4    4.90    1.50
  -8   4   4    3.20    1.20
   4   4  -4    7.70    1.80
  -4   8  -4    4.60    1.60
  -8   4  -4    3.50    1.40
   4  -8  -4    3.50    2.40
  -4   8  -4    1.50    1.40
  -4   8   4    4.10    1.50
  -4   8  -4    4.80    1.60
  -4   8   4    5.30    1.80
  -4   8   4    4.50    1.60
   8  -4   4    4.40    2.00
   4  -8  -4   -3.00    3.90
   4   4   4    3.50    1.80
   5   3  -4    7.70    1.70
  -5   8   4    4.90    1.40
  -5  -3  -4    7.00    1.30
  -3   8  -4    8.10    1.60
  -3   8  -4    6.60    1.70
  -8   3   4    6.40    1.30
  -5   8   4    8.30    1.50
   3  -8  -4    6.70    2.30
   3   5   4    9.60    1.70
  -8   5  -4    7.00    1.30
  -8   5  -4    6.40    1.50
   8  -5  -4    7.70    2.40
   3   5   4    7.10    1.80
  -5   8   4    8.30    1.90
  -8   5  -4    8.40    1.30
  -5   8   4    6.40    1.50
   8  -3   4    7.20    1.80
  -8   3  -4    7.50    1.00
  -3   8   4    7.60    1.80
  -5   8  -4    7.00    1.70
   3   5  -4    8.00    1.80
  -5   8  -4    8.20    1.60
   5   3   4    9.00    1.70
  -3   8   4    8.00    1.50
  -5   8  -4    8.20    1.60
  -8   3  -4    4.50    1.70
  -3   8   4   10.00    1.70
   3   5  -4    8.80    1.50
   5  -8  -4   10.00    2.50
   8  -3  -4    3.60    1.90
  -8   5   4    5.60    1.30
   3   5  -4    7.30    2.00
   8  -5   4   11.60    2.10
   5  -8  -4    4.80    2.90
   5   3   4    7.10    1.80
  -8   5   4    5.40    1.30
  -3  -5  -4    6.70    1.70
   5   3   4    8.20    1.60
  -8   3  -4    7.20    1.50
   6   2  -4   70.49    3.90
  -6   8   4   73.89    3.90
   8  -6  -4   72.09    4.60
  -8   6  -4   72.99    3.70
  -6   8   4   68.89    3.70
  -8   6  -4   73.59    3.80
   2  -8  -4   66.69    4.60
  -2   8  -4   72.89    3.90
  -6  -2  -4   67.99    3.60
   8  -2   4   67.99    3.90
   2   6   4   73.09    3.90
  -6   8   4   69.19    3.60
   2   6   4   71.19    4.10
  -8   2   4   70.39    3.60
  -2   8   4   69.19    3.80
  -8   6   4   70.69    3.60
  -8   2  -4   67.79    3.70
   6  -8  -4   73.89    5.10
  -8   6   4   69.29    3.60
  -2  -6  -4   61.19    4.20
  -6   8  -4   71.09    4.00
   6   2   4   74.19    4.40
  -8   2  -4   69.59    3.50
  -8   2  -4   66.29    4.00
  -6   8  -4   71.49    3.90
   2   6  -4   69.59    4.00
   8  -2  -4   69.39    4.30
   8  -6   4   71.49    4.40
  -2   8   4   71.29    3.80
   2   6  -4   67.89    3.80
  -2   8   4   66.79    4.00
  -6   8  -4   69.69    3.80
   6   2   4   70.59    3.80
   6  -8  -4   74.99    7.20
  -8   7  -4  774.62   32.70
  -8   1   4  756.82   32.60
  -8   7  -4  774.52   32.70
  -7   8   4  747.33   32.60
   8  -7  -4  785.22   33.00
   1   7   4  788.62   32.70
  -1   8  -4  810.22   32.70
   8  -1   4  750.92   32.70
  -8   7   4  741.03   32.60
   1   7  -4  776.52   32.70
  -7   8  -4  758.92   32.70
  -1   8   4  736.73   32.60
   7  -8  -4  755.72   33.10
   8  -7   4  779.82   32.90
  -7   8  -4  757.42   32.60
   0   0   5    1.90    1.90
  -1   0  -5  333.07   15.10
  -1   0   5  333.37   15.90
  -1   1   5  330.87   15.70
   0  -1   5  340.67   15.90
   0   1   5  327.97   15.60
   1   0  -5  343.37   16.50
   1   0   5  347.87   15.90
  -1   1  -5  332.17   15.80
  -1   1  -5  375.26   18.40
   1  -1  -5  337.27   16.00
   1  -1   5  339.57   15.90
   0  -1  -5  360.66   17.90
  -1   0  -5  358.76   18.10
   0   1  -5  326.67   16.20
  -1   2  -5    8.20    2.30
   2  -1  -5    9.00    3.60
  -1  -1   5   -0.20    2.30
  -2   1  -5   -0.60    1.80
  -1   2  -5    0.10    2.40
  -2   1   5   -2.20    2.20
   1   1  -5    3.50    2.20
   2  -1   5    1.70    2.30
   1  -2   5   -0.10    2.30
  -1   2   5    0.40    2.10
  -2   1  -5    1.40    4.10
   1  -2  -5    2.00    2.10
   1   1  -5    1.10    2.80
  -2   0  -5   61.59    8.80
   0   2   5   70.89    5.20
   2   0  -5   80.39    5.40
  -2   2  -5   68.89    5.40
  -2   0   5   59.99    5.90
   0   2  -5   69.39    6.10
   2   0  -5   77.79    7.10
   2  -2   5   65.49    5.50
  -2   2  -5   83.29    8.50
   0   2  -5   69.79    4.80
   0  -2   5   63.29    5.30
  -2   2   5   63.19    5.20
   2  -2  -5   65.09    7.00
  -1  -2   5    8.10    3.30
   3  -2  -5   11.70    5.50
  -1   3  -5   14.10    2.30
   2   1  -5    8.00    2.30
   2   1  -5   13.00    4.50
  -2   3   5   16.40    4.00
   3  -1   5   12.40    4.70
  -3   2  -5   11.30    2.90
  -1   3  -5   10.10    3.70
   2  -3   5   10.30    7.50
  -2   3   5   15.70    7.30
   2  -3   5    8.00    3.40
   3  -2  -5   11.70    3.60
  -2   3   5   17.90    6.00
  -3   1   5   17.90    5.70
   3  -1   5    5.40    6.90
   2  -3   5   14.20    4.40
  -3   1   5   10.60    4.20
  -1   3   5    8.00    4.20
  -3   1  -5   14.50    3.30
   1   2  -5   14.40    4.10
  -1   3   5   15.80    5.80
   3  -2   5   15.50    4.00
   1   2  -5   13.20    2.30
  -2   3  -5    8.60    2.10
   3  -1  -5   13.00    5.70
  -3   2   5   13.40    3.70
   3  -2   5   10.90    4.60
  -3   2   5   11.20    4.00
   1  -3   5   12.40    3.60
   1  -3   5    6.90    5.00
  -3   1  -5    4.70    5.60
  -2   3  -5    8.00    3.50
   2  -3  -5    7.10    5.10
  -3   2   5    5.90    3.90
   0  -3   5 5495.35  219.58
  -3   0   5 5377.76  219.58
   3  -3  -5 4817.42  219.58
  -3   3   5 5009.20  219.88
   3  -3   5 5262.87  220.38
   0   3   5 4840.22  219.48
   3   0   5 5061.59  219.98
   3   0  -5 5042.90  221.78
  -3   3  -5 5175.98  220.18
  -3   3   5 5319.87  219.48
   3   0  -5 5252.87  220.18
  -3   3   5 5176.68  219.38
  -3   3   5 5456.85  219.58
   3  -3  -5 4608.64  221.68
   0   3  -5 5519.75  219.78
  -3   0   5 5043.20  219.88
   3   0   5 5179.98  219.98
   0   3   5 5493.05  219.38
   0   3  -5 5138.79  219.38
   3   0   5 4909.81  219.78
   3  -3   5 5006.00  219.78
   0   3  -5 5512.65  219.08
   0   3  -5 5162.08  220.88
  -2   4  -5   -3.60    3.10
  -4   2   5    0.50    2.80
   2   2   5   -3.20    3.30
  -4   2  -5   -0.70    2.40
   2  -4   5   -3.00    4.40
   4  -2   5    1.60    4.10
   2   2  -5    1.00    2.10
   2   2  -5   -2.20    2.80
   2  -4   5    0.60    3.80
  -2   4   5   -6.70    4.40
  -2   4   5    2.50    3.50
   4  -2  -5   -3.00    4.80
  -2   4   5    0.50    2.60
  -2   4   5    1.90    3.30
   4  -2  -5   -1.00    3.00
   2   2   5    1.20    4.60
   4  -2   5    4.40    3.40
   2   2  -5    6.50    3.20
  -4   2   5    1.50    4.40
  -2   4  -5    3.50    1.90
   4  -2   5    4.40    4.00
  -4   2   5   -1.60    3.60
  -4   1   5  369.56   17.90
   4  -1   5  392.06   18.80
   4  -1   5  384.56   19.30
   3  -4   5  380.16   19.30
   4  -1   5  394.86   19.20
   4  -3  -5  371.26   20.70
   3   1  -5  362.56   18.70
   3   1  -5  397.26   18.70
  -4   1   5  364.76   18.80
   4  -3  -5  380.56   18.70
  -4   3  -5  399.56   17.50
  -3   4   5  361.06   18.80
   1   3   5  358.16   19.30
   1   3   5  404.26   18.00
   3  -4   5  376.46   18.60
   1   3   5  348.27   18.30
  -1   4  -5  406.76   18.40
  -1   4  -5  411.36   18.20
  -3   4   5  394.56   18.00
  -1   4  -5  396.86   17.50
  -3   4   5  396.86   18.20
  -3   4   5  361.56   18.10
  -1  -3   5  405.56   18.70
   1   3  -5  388.56   17.50
   1   3  -5  399.36   18.30
  -1   4   5  370.56   18.20
  -1   4   5  402.06   18.10
  -4   3   5  381.86   18.50
   4  -3   5  378.86   18.70
   3   1   5  398.76   19.30
   4  -1  -5  398.46   19.50
  -4   3   5  393.36   18.30
   3   1   5  371.36   19.60
  -3   4  -5  376.66   18.60
  -4   3   5  381.76   17.90
  -4   3   5  356.76   18.60
   4  -3   5  372.56   19.50
   3  -4  -5  363.66   19.70
  -3  -1   5  401.66   18.20
  -1   4   5  392.96   17.90
  -3   4  -5  412.46   17.50
   4  -1  -5  373.66   18.30
   1  -4   5  406.46   18.60
   4  -4   5   28.10    4.60
   4   0   5   33.70    5.90
  -4   0   5   28.90    4.90
   0   4  -5   32.50    4.80
   0   4  -5   31.60    3.60
  -4   4  -5   28.10    4.40
   4   0  -5   33.50    6.00
   4  -4   5   37.50    5.70
  -4   4  -5   31.30    3.50
   4  -4  -5   31.10    5.00
   0   4  -5   36.50    4.60
  -4   4   5   30.50    4.60
   0   4   5   33.90    4.40
   4   0   5   20.90    5.00
   4   0  -5   30.40    4.70
   0   4   5   25.20    4.10
  -4   4   5   29.00    4.00
  -4   4  -5   26.20    4.60
   4   0  -5   35.10    8.80
  -4   4   5   36.50    4.60
   5  -2   5  375.56   18.10
  -5   2   5  394.26   17.80
   5  -3  -5  382.36   18.30
   3  -5   5  367.06   18.70
   3   2  -5  365.36   17.30
  -2   5  -5  381.86   17.10
   5  -2   5  382.86   18.50
  -5   3  -5  368.26   17.00
  -3   5   5  362.76   18.30
  -3   5   5  383.46   17.60
  -3   5   5  375.06   17.50
  -2   5  -5  357.96   17.60
  -3   5   5  369.06   17.70
   2   3   5  382.76   17.60
   5  -2   5  369.56   18.80
  -5   2   5  376.46   18.10
   5  -3  -5  367.76   19.20
   3  -5   5  379.46   18.30
  -2   5  -5  376.86   17.80
   2   3   5  345.27   18.60
   3   2  -5  370.66   17.90
   3   2  -5  382.06   18.00
   3  -5  -5  405.26   19.20
  -5   3   5  360.46   17.90
   5  -2  -5  383.56   18.10
  -3   5  -5  373.16   17.90
  -5   2  -5  367.66   17.00
   5  -3   5  368.96   19.00
   3   2   5  363.16   18.60
  -3  -2   5  373.96   17.60
  -2   5   5  395.16   17.50
  -5   3   5  372.26   17.70
   5  -3   5  381.76   18.10
  -2   5   5  392.26   17.50
   5  -2  -5  379.36   19.00
   2   3  -5  374.56   17.80
  -2   5   5  368.06   17.80
   3   2   5  378.66   17.70
   2   3  -5  372.66   17.80
   2  -5   5  370.06   18.20
  -3   5  -5  385.16   17.10
   5  -3   5  374.06   18.30
  -4   5   5 1201.98   51.49
   1   4   5 1212.78   51.39
   5  -4  -5 1178.58   52.29
  -5   4  -5 1155.68   50.99
   5  -1   5 1224.58   51.89
   5  -1   5 1162.08   52.09
  -5   1   5 1182.18   51.69
   4   1  -5 1199.08   51.39
  -5   4  -5 1195.38   52.09
  -5   1   5 1221.08   51.39
  -1   5  -5 1164.88   50.99
   4  -5   5 1129.99   52.39
  -1   5  -5 1203.28   51.39
   4  -5   5 1136.29   51.89
  -4   5   5 1191.98   51.49
   1   4   5 1118.79   51.89
   4   1  -5 1220.78   52.09
   4   1  -5 1119.49   51.69
  -1   5  -5 1205.28   51.59
   1   4   5 1112.99   51.29
   5  -1   5 1205.18   52.19
  -4   5   5 1146.09   51.69
   5  -4  -5 1204.08   52.79
  -4   5   5 1200.78   51.39
   1  -5   5 1240.08   51.99
   1   4  -5 1159.38   51.19
   4  -5  -5 1234.18   52.59
   1   4  -5 1222.78   51.59
   4   1   5 1158.28   51.59
  -1   5   5 1224.88   51.49
  -5   4   5 1186.58   51.49
  -5   1  -5 1167.38   50.89
   4   1   5 1209.08   52.09
   1   4  -5 1116.39   51.59
  -1   5   5 1193.18   51.29
  -4  -1   5 1178.28   51.29
  -4   5  -5 1197.38   51.49
  -1   5   5 1162.88   51.59
   5  -4   5 1187.68   51.79
  -5   4   5 1126.09   51.49
   4   1   5 1125.09   51.89
  -5   4   5 1204.98   51.79
  -5   4   5 1193.08   51.19
   4   1   5 1207.68   51.99
   5  -1  -5 1211.88   52.39
  -4   5  -5 1222.48   51.09
  -1   5   5 1250.87   51.39
  -4   5  -5 1220.18   51.89
   5  -1  -5 1228.88   51.79
   5  -4   5 1164.18   52.89
   1   4  -5 1176.38   51.09
   5  -5  -5   26.90    5.20
  -5   5   5   26.40    4.00
  -5   5  -5   28.40    3.70
   0   5  -5   32.40    3.80
   5   0   5   26.70    4.20
   5   0  -5   32.40    4.40
   5   0  -5   42.70    5.50
   5   0  -5   27.90    5.10
   0   5   5   32.30    4.20
   5  -5   5   29.40    4.10
   5   0   5   31.50    5.00
   0   5  -5   30.10    4.10
   0   5  -5   27.50    4.40
  -5   0  -5   33.70    3.70
   0   5  -5   31.20    3.70
   5  -5   5   29.40    5.00
   0   5   5   27.20    3.80
  -5   5  -5   20.10    3.40
  -5   5   5   24.50    4.10
   0   5   5   38.50    4.40
  -5   5   5   40.10    4.30
  -5   5   5   33.70    4.20
   6  -3   5   -1.60    2.60
  -3   6  -5    1.60    2.10
  -3   6   5    1.10    2.20
   6  -3  -5    6.30    3.50
  -6   3  -5   -1.70    4.70
  -3  -3   5    0.90    2.30
   3  -6  -5   -2.70    3.70
   3  -6   5   -2.50    3.10
   3   3  -5   -0.50    2.00
   3   3   5    0.40    2.30
  -3   6  -5   -1.50    1.90
   6  -3   5    0.40    3.10
  -3   6   5    3.60    2.50
  -3   6  -5    0.10    2.30
  -3   6   5   -0.20    3.00
   3   3  -5    0.90    2.40
  -6   3   5   -1.00    2.00
   6  -3   5    0.50    3.10
   6  -3  -5    9.50    3.40
   3   3   5   -0.20    3.00
  -6   3   5    1.10    2.00
  -6   3  -5    1.00    1.50
  -3   6   5    1.60    2.10
   6  -4  -5   -2.50    3.10
   6  -2   5    2.80    3.00
   2   4   5    0.70    2.10
  -4   6   5    0.10    2.60
   4   2  -5    2.20    2.30
   4  -6   5   -1.30    3.70
  -2   6  -5    2.10    1.90
   6  -2   5    2.40    3.00
  -6   4  -5    3.10    1.50
   4   2  -5    2.40    2.50
   2  -6  -5   -2.90    3.30
  -4   6   5    6.30    2.30
   2   4   5    2.50    3.00
  -2   6  -5    2.50    2.30
  -6   4  -5    4.10    2.80
  -2   6  -5    2.30    2.20
   6  -2   5    7.60    2.60
   4  -6   5    5.50    3.10
   6  -4  -5   -5.80    3.10
  -4   6   5    1.80    2.20
  -6   2   5    0.00    2.20
  -4   6   5    0.50    2.30
  -6   2   5    1.30    2.00
   6  -2  -5   -1.60    3.40
  -6   2  -5    2.80    1.60
   4  -6  -5    1.00    3.70
   6  -2  -5   -3.10    2.80
   6  -4   5    1.30    3.30
  -6   4   5    0.50    2.00
   6  -4   5    0.10    2.50
   2   4  -5    1.90    2.20
  -4   6  -5    1.50    2.40
  -4   6  -5    2.80    2.20
  -6   4   5    0.60    1.90
  -2   6   5   -2.10    2.40
  -2   6   5    2.70    2.20
  -6   4   5    3.40    2.00
  -4   6  -5    4.50    3.00
   2  -6   5    3.30    3.00
  -4   6  -5    2.00    1.90
   2   4  -5    1.40    1.90
  -2   6   5    0.30    2.00
   4   2   5    3.40    2.80
   2   4  -5    9.20    2.50
   4   2   5    0.70    3.10
   4   2   5   -1.10    2.40
  -6   5  -5  123.29    7.00
   6  -5  -5  123.29    8.30
  -5   6   5  114.59    6.80
  -1   6  -5  124.49    6.70
  -5   6   5  120.69    6.90
   1   5   5  117.39    6.60
   6  -5  -5  124.39    8.00
  -6   5  -5  127.59    7.30
   5  -6   5  108.79    8.20
  -5   6   5  121.19    6.70
  -1   6  -5  126.49    6.80
  -5   6   5  119.19    6.70
  -5  -1  -5  117.09    6.40
   5   1  -5  118.09    7.10
   1   5   5  115.09    7.50
   1  -6  -5  113.29    7.80
   5   1  -5  131.09    7.40
   6  -1   5  119.99    7.00
  -1   6  -5  117.09    7.10
   6  -1   5  119.99    7.60
  -6   5  -5  124.99    6.20
   5  -6   5  115.39    7.60
  -6   5   5  125.59    6.60
   6  -1  -5  124.89    7.60
   5   1   5  128.19    7.20
  -5   6  -5  124.39    8.20
  -1   6   5  119.69    6.70
  -6   1  -5  126.19    6.20
   1   5  -5  121.59    6.60
   6  -1  -5  129.29    8.20
  -1   6   5  130.29    8.20
   1   5  -5  118.19    6.80
  -6   5   5  117.69    6.60
   6  -5   5  119.49    8.50
  -1   6   5  130.19    6.90
   5  -6  -5  124.99    8.20
  -5   6  -5  134.29    7.30
   5   1   5  118.79    9.80
  -5   6  -5  124.79    6.40
   1   5  -5  118.79    6.90
   5   1   5  119.99    7.90
   6  -5   5  115.49    7.20
  -6   5   5  118.59    6.60
  -6   0  -5 1046.30   47.00
  -6   0   5 1150.08   47.10
   6  -6  -5 1049.09   48.00
   6   0  -5 1068.79   47.30
   0   6   5 1094.99   47.30
   0   6  -5 1123.29   47.20
  -6   6  -5 1098.79   47.60
   6  -6  -5 1124.39   47.80
   0   6  -5 1080.09   47.40
  -6   6  -5 1061.69   47.30
   6  -6   5 1103.79   47.50
   6  -6   5 1137.79   48.10
   6   0  -5 1109.69   47.70
   6   0   5 1162.68   47.50
   0   6  -5 1106.99   47.50
  -6   6   5 1113.69   47.20
  -6   6   5 1098.79   47.20
  -6   6   5 1092.99   47.20
  -6   6  -5 1088.89   47.00
   0   6   5 1088.09   47.20
   6   0   5 1089.39   47.40
   7  -3   5    5.70    2.40
  -4   7   5    7.50    1.80
  -3  -4   5    6.80    2.10
   7  -3   5    8.60    2.20
  -4   7   5    6.50    1.80
   3   4   5    7.30    1.90
  -3   7  -5    6.50    1.80
  -3   7  -5    7.50    2.00
   7  -4  -5    5.80    2.60
   4   3  -5    6.60    2.00
  -7   3   5    7.80    1.70
  -7   3   5    4.00    1.70
  -4   7   5    2.80    1.80
   4   3  -5   12.00    2.20
   7  -4  -5    5.40    3.30
  -7   4  -5    7.90    2.20
   3   4   5    7.40    2.30
   3  -7  -5    4.10    2.60
  -7   4  -5    7.10    1.30
  -7   4   5    6.00    1.60
  -3   7   5    6.40    2.00
   7  -4   5    5.20    2.20
  -3   7   5    5.20    1.90
  -7   4   5    4.60    1.60
  -4   7  -5    8.90    2.50
   3   4  -5    7.40    2.00
  -7   4   5    6.70    1.60
   3   4  -5    6.70    2.20
   7  -4   5    5.80    2.50
  -7   3  -5    2.00    2.40
   7  -3  -5    7.00    3.50
   4   3   5    8.40    2.20
   7  -3  -5    7.50    2.60
   4  -7  -5    2.40    2.80
  -4   7  -5    6.80    2.10
  -4   7  -5    4.00    1.80
  -3   7   5    5.20    2.20
  -3   7   5    6.30    2.00
   4   3   5    6.70    2.00
  -7   3  -5    6.90    1.30
  -7   5  -5 1841.72   76.79
  -5   7   5 1775.22   76.99
  -2   7  -5 1836.22   76.99
   7  -5  -5 1862.31   77.69
  -5   7   5 1891.21   76.89
  -7   2   5 1846.52   76.89
   2  -7  -5 1601.24   77.09
  -7   5  -5 1750.02   77.19
   7  -2   5 1763.92   76.99
   7  -5  -5 1600.04   78.19
   5   2  -5 1793.12   77.09
   5  -7   5 1913.81   77.39
   5   2  -5 1853.11   77.29
   7  -2   5 1904.91   77.29
  -7   5  -5 1803.02   76.99
  -2   7  -5 1835.42   77.19
  -5   7   5 1774.22   76.99
  -5  -2  -5 1668.03   76.79
  -2   7  -5 1817.22   77.09
   2   5   5 1794.22   77.09
   2   5   5 1875.61   77.09
   5   2   5 1854.51   77.19
  -5   7  -5 1798.92   77.09
  -2   7   5 1780.22   76.99
  -7   5   5 1820.82   76.89
  -7   5   5 1814.52   76.99
   7  -2  -5 1933.11   77.59
   5   2   5 1823.72   76.99
   5  -7  -5 1883.61   77.59
  -5   7  -5 1848.02   77.29
  -7   5   5 1831.82   76.99
  -2   7   5 1844.22   77.09
  -5   7  -5 1763.32   76.99
   2   5  -5 1749.62   76.89
  -2   7   5 1786.12   77.09
   7  -5   5 1740.73   76.99
   7  -5   5 2029.30   77.79
   5  -7  -5 1524.15   77.49
  -7   2  -5 1800.92   76.79
   2   5  -5 1883.31   77.19
   2   5  -5 1832.72   77.19
  -1   7  -5   58.29    4.00
  -1   7  -5   54.59    3.30
  -7   6  -5   51.09    3.40
  -7   6  -5   50.69    3.60
   7  -6  -5   50.79    4.80
  -6   7   5   52.59    3.20
   6   1  -5   52.99    3.70
  -6  -1  -5   44.60    3.30
  -1   7  -5   54.29    3.50
   1   6   5   54.39    3.30
   7  -6  -5   53.89    4.30
   7  -1   5   58.19    3.60
  -7   6  -5   49.70    3.20
   6   1  -5   51.79    4.10
  -6   7   5   51.19    3.30
   7  -1   5   49.70    3.40
   1  -7  -5   51.19    4.40
   6   1   5   53.09    3.40
  -7   6   5   54.59    3.10
  -1   7   5   51.39    3.40
  -1   7   5   54.79    3.40
  -6   7  -5   52.39    3.60
   6  -7  -5   52.59    4.90
   1   6  -5   52.99    3.60
   7  -1  -5   52.49    3.90
  -6   7  -5   51.79    3.60
   7  -6   5   58.69    4.30
  -7   6   5   53.89    3.20
  -7   6   5   53.39    3.20
  -7   1  -5   49.40    3.10
   6  -7  -5   54.69    4.70
  -6   7  -5   51.69    3.50
   1   6  -5   49.90    3.30
   1   6  -5   53.89    3.60
   0   7  -5  288.07   12.10
   7   0  -5  268.77   12.30
  -7   7  -5  273.47   12.00
  -7   7  -5  286.47   12.00
   7   0   5  272.57   12.00
  -7   7  -5  281.07   12.20
   0   7   5  290.07   12.10
   7  -7  -5  249.88   12.50
   7  -7   5  275.77   12.30
  -7   7   5  269.07   12.00
  -7   7   5  265.87   12.00
  -4   8  -5    1.00    1.30
  -4   8   5   -0.70    1.10
  -4   8   5   -0.10    1.10
   4   4  -5    1.80    1.10
   4   4   5    0.90    1.10
  -8   4  -5    4.20    2.20
  -8   4   5    1.80    1.00
   4   4   5   -0.60    1.10
  -8   4   5    1.20    0.90
   8  -4  -5   -0.30    1.50
  -4   8  -5    2.60    1.30
   8  -4   5    2.40    1.60
  -8   4  -5    2.10    1.00
  -8   3   5   94.99    4.50
   8  -5  -5   98.49    5.10
  -8   3   5   91.19    4.40
  -8   5  -5   93.79    4.50
   5   3  -5   97.09    4.70
   3   5   5   92.39    4.70
  -3   8  -5   95.49    4.60
  -5   8   5   94.29    4.60
  -5   8   5   95.39    4.60
  -8   5  -5   95.09    4.70
  -3   8  -5   92.39    4.70
   3   5   5   94.89    4.60
   8  -3  -5   94.09    4.90
  -8   5   5   91.79    4.40
  -5   8  -5   91.49    4.60
  -8   3  -5   96.29    4.50
  -3   8   5   95.29    4.60
   3   5  -5   97.39    4.70
   8  -5   5   94.49    4.90
   5   3   5   88.29    4.60
  -3   8   5   95.69    4.70
  -5   8  -5   96.19    4.70
   5   3   5   96.59    4.60
  -8   5   5   91.39    4.40
   0   0   6 6994.60  310.07
   0   0  -6 7147.48  309.57
   0   0   6 7793.82  310.17
   1  -1   6   16.70    3.80
   1   0   6    8.50    3.40
   1  -1  -6   11.30    3.20
   0   1   6   12.10    3.40
   0  -1   6   14.80    3.80
   0   1  -6   18.10    3.90
   0   1  -6   14.30    2.90
   1   0   6   18.30    4.90
   0   1   6   10.20    4.20
  -1   0   6   14.30    4.20
   1   0   6    7.50    4.50
  -1   1  -6   13.00    3.10
  -1   1   6   12.80    3.30
  -1   0   6    8.10    3.30
   1  -1   6   17.20    5.20
   1  -1   6   14.00    4.30
  -1   1   6    5.40    4.00
   0  -1   6   22.30    4.90
   1   0  -6   12.70    4.00
   1  -2   6  123.49   10.60
  -1   2   6  150.98    8.90
  -1   2  -6  166.28    8.00
  -1  -1   6  161.98    9.90
   1   1   6  126.49    9.60
   2  -1  -6  151.78    8.80
   1  -2   6  151.98    9.30
  -1   2   6  137.79    9.30
   1   1   6  141.89   11.70
   1   1   6  150.08    9.00
   2  -1   6  156.88    9.60
  -2   1   6  158.68    9.10
   1   1  -6  167.78    8.20
  -1  -1   6  163.28    9.40
  -2   1   6  159.78    9.10
   1  -2   6  160.78    9.40
  -1   2   6  131.69    9.30
  -2   2   6  418.46   19.80
  -2   2  -6  414.36   18.90
  -2   2   6  416.66   19.60
   2   0  -6  423.26   19.20
   2   0   6  393.36   20.20
   0   2   6  394.06   19.80
   0   2   6  421.26   19.80
   2  -2   6  449.06   20.00
   0   2  -6  368.36   21.70
   0   2  -6  423.86   19.00
  -2   2   6  411.96   19.70
  -2   0   6  447.06   20.00
   2   0   6  417.26   20.00
   0  -2   6  403.16   20.50
   0  -2   6  448.96   20.00
   0  -2   6  444.86   20.00
   2  -2   6  427.46   20.20
  -2   0   6  432.26   19.90
  -2   3   6  246.68   13.10
   3  -1   6  263.17   13.40
  -1   3  -6  239.28   15.80
   3  -1   6  254.57   13.30
   2  -3   6  224.48   13.90
  -3   1   6  258.37   12.50
   2  -3   6  278.27   13.50
   3  -2  -6  228.18   12.90
   1   2   6  239.08   13.20
  -2   3   6  235.28   12.70
  -2   3   6  254.77   12.60
  -1  -2   6  252.77   13.30
   2   1  -6  255.97   12.10
  -3   1   6  257.87   13.20
  -1   3  -6  255.17   12.00
  -1  -2   6  260.67   13.50
   2  -3   6  273.77   13.10
   1   2   6  222.38   13.00
   1   2   6  260.27   12.90
  -1   3  -6  255.47   13.50
  -3   2  -6  255.97   13.20
   3  -1  -6  256.77   12.80
  -2  -1   6  267.37   12.90
  -1   3   6  271.07   12.60
   1   2  -6  255.57   13.40
   1   2  -6  259.87   12.10
   2   1   6  246.38   13.60
  -2  -1   6  246.98   13.30
  -1   3   6  245.48   13.30
   1  -3   6  272.57   13.00
   3  -2   6  240.48   13.60
  -2   3  -6  252.97   11.90
  -3   2   6  254.07   13.20
  -3   2   6  247.38   12.90
   2   1   6  250.47   13.30
   1  -3   6  282.87   13.40
   3  -2   6  241.68   13.30
  -2   3  -6  249.38   14.10
   3  -1  -6  233.68   14.80
  -3   2   6  255.97   12.50
  -1   3   6  239.38   12.90
  -3   3  -6  957.60   41.30
   0   3  -6  985.00   41.30
   3   0  -6  980.30   41.80
   3  -3  -6  889.01   42.20
  -2   4   6 1443.26   60.69
  -2   4   6 1290.47   61.09
  -2   4  -6 1408.46   60.29
   2  -4   6 1432.76   60.99
  -2   4  -6 1408.26   61.09
   4  -2  -6 1327.57   61.79
  -2   4   6 1330.57   60.79
  -4   2   6 1350.46   61.09
   2  -4   6 1440.06   61.19
   2   2   6 1358.46   61.19
   4  -2  -6 1447.86   61.09
   2   2  -6 1445.16   60.49
  -4   2   6 1436.36   60.49
   4  -2   6 1411.86   61.19
  -4   2   6 1357.66   60.79
   4  -2   6 1402.16   61.59
   2   2   6 1420.06   60.69
   2   2  -6 1429.26   60.99
  -2  -2   6 1547.65   61.09
  -4   2  -6 1415.66   60.39
   3   1  -6  112.29    6.70
  -3   4   6   93.49    7.50
  -1   4  -6  111.69    7.20
   3   1  -6  104.79    7.90
   4  -3  -6  113.39    8.00
  -3   4   6  114.79    7.10
   3  -4   6  109.39    7.60
   3  -4   6  112.29    8.30
   1   3   6   99.79    7.20
   3   1  -6  120.99    7.80
   4  -1   6  117.09    8.00
  -4   3  -6  113.49    6.40
   1   3   6  121.69    6.80
  -1   4  -6  103.89    6.20
  -3   4   6  114.59    6.80
  -4   1   6  103.39    7.80
  -4   1   6  107.49    6.50
  -3   4   6  107.59    7.60
   4  -1   6  103.99    8.00
  -1   4  -6  121.49    7.30
   4  -1  -6  114.49    7.20
  -4   3   6  111.39    7.10
  -4   3   6  111.89    6.50
   3   1   6  113.09    8.20
  -3   4  -6  117.09    8.20
  -3   4  -6  110.49    6.20
   1  -4   6  118.79    7.60
  -1   4   6  116.49    6.70
   1   3  -6  115.59    7.30
   1   3  -6  115.09    6.20
  -3  -1   6  111.89    6.90
   4  -3   6  106.09    7.60
   4  -1  -6  114.69    8.60
   3  -4  -6   87.39    9.70
  -4   3   6   96.59    7.50
  -1   4   6  112.69    7.20
   0  -4   6  314.57   15.00
   0   4  -6  298.77   14.50
   4   0  -6  317.67   15.70
   4   0  -6  316.57   15.30
  -4   4   6  318.97   14.90
  -4   0   6  311.77   14.40
   0   4  -6  305.97   14.60
   4   0   6  329.97   15.60
   0   4   6  295.47   14.70
  -4   4   6  305.77   15.10
  -4   0   6  330.77   17.30
  -4   4  -6  307.47   15.80
   4  -4   6  298.27   16.00
  -4   4   6  300.77   14.80
   0   4   6  312.27   14.60
   4  -4   6  314.07   15.20
  -4   4   6  319.87   14.50
   4   0   6  300.37   18.70
   0   4  -6  307.97   14.90
  -5   2   6   18.00    2.90
   3  -5   6   16.30    3.50
  -5   2   6   22.20    3.70
   5  -2   6   16.10    3.60
  -5   3  -6   17.60    2.40
  -2  -3   6   20.50    3.20
   3   2  -6   22.00    3.90
  -2   5  -6   22.30    3.90
  -3   5   6   24.10    4.00
  -3   5   6   15.30    3.10
   3  -5   6   16.10    3.60
  -3   5   6   18.30    2.90
   5  -2   6   15.80    3.50
   2   3   6    9.20    3.50
  -5   2   6   16.30    2.90
  -2   5  -6   15.70    2.30
  -3   5   6   18.50    2.80
   3   2  -6   18.80    2.80
   5  -3  -6   22.10    4.20
   5  -3  -6   16.30    3.60
  -2   5  -6   12.80    2.70
   3   2  -6   14.00    2.90
  -3  -2   6   14.60    2.70
   3   2   6   11.30    3.10
   5  -3   6   13.90    3.10
  -5   2  -6   13.40    2.60
  -5   3   6   17.70    3.00
  -3   5  -6   14.10    2.70
  -3   5  -6   15.30    2.90
   3  -5  -6   18.90    5.00
   2  -5   6   15.10    3.40
   3   2   6   11.60    3.50
  -3   5  -6   22.50    3.00
   5  -2  -6   22.90    3.80
  -2   5   6   15.90    3.00
   5  -2  -6   17.40    3.50
  -5   3   6   15.70    2.80
  -5   3   6   15.70    2.80
  -5   3   6   17.10    2.50
   2   3  -6    8.60    2.70
   2   3  -6   17.90    2.70
  -2   5   6   17.00    2.80
   5  -3   6   13.10    3.60
  -2   5   6   21.50    3.50
   4   1  -6   -0.90    2.30
  -5   1   6   -4.70    3.60
  -4   5   6    0.20    2.00
  -5   1   6    4.30    2.50
   4   1  -6    4.80    2.90
  -4   5   6    0.40    2.30
  -1   5  -6    0.70    1.80
  -4   5   6    3.20    2.10
   4  -5   6    5.90    3.30
  -5   4  -6    7.00    3.50
  -1   5  -6    2.50    1.90
   4   1  -6    1.00    2.40
  -1   5  -6    1.90    2.20
   5  -1   6    9.30    3.30
   1   4   6    4.70    2.10
   5  -4  -6    4.80    3.50
   5  -4  -6    0.70    3.90
  -4   5   6   -0.90    2.10
   5  -1   6    4.90    2.80
  -5   4  -6    1.90    1.80
   4  -5   6    3.10    2.80
  -5   4   6   -0.10    2.00
  -4   5  -6    1.80    1.70
   4  -5  -6   -4.70    3.70
  -1   5   6    3.80    2.00
   5  -1  -6    1.30    2.80
  -4  -1   6    1.40    2.10
   5  -4   6    2.60    2.60
   1  -5   6    3.80    2.60
   1   4  -6    0.10    2.20
   5  -4   6   -1.00    3.10
  -5   4   6   -0.60    2.10
   4   1   6    1.40    2.80
  -5   4   6   -1.20    2.30
  -5   4   6    4.50    2.00
  -4   5  -6    0.20    2.50
  -1   5   6    0.20    2.30
   5  -1  -6    4.30    2.90
   1   4  -6    2.70    2.00
  -5   5  -6  122.59    6.30
  -5   5  -6  128.89    7.80
   5   0  -6  139.39    7.40
   0   5  -6  125.19    6.60
   0   5   6  115.29    6.70
  -5   5   6  134.99    6.50
  -5   5   6  116.59    6.90
   0   5   6  120.69    7.60
   5  -5   6  113.79    8.60
   0   5  -6  114.59    7.20
   5   0  -6  115.09    7.50
   0   5  -6  116.89    6.70
   5  -5  -6  122.79    8.00
  -5   5   6  114.99    6.70
   5   0   6  134.59    7.60
   5  -5  -6  102.39    9.10
   3   3  -6 1397.46   60.69
  -6   3   6 1473.35   60.59
   3   3  -6 1422.26   60.89
   6  -3  -6 1402.46   61.19
  -3   6  -6 1345.17   60.29
   3   3   6 1412.86   60.59
  -3   6   6 1452.55   60.69
  -6   3   6 1395.56   60.59
  -3   6   6 1410.46   60.49
  -3  -3   6 1418.86   60.49
   6  -3  -6 1508.45   61.19
  -6   3  -6 1328.07   60.39
  -3   6   6 1422.16   60.69
  -6   3   6 1446.46   60.39
   6  -3   6 1528.75   61.19
   3  -6  -6 1254.27   60.89
  -3   6  -6 1444.86   60.89
   3   3   6 1409.36   60.79
   3  -6   6 1346.17   60.99
   6  -3   6 1428.16   60.69
  -3   6  -6 1454.55   60.69
   4   2  -6   25.50    3.40
   4  -6   6   21.30    3.70
  -2   6  -6   21.80    3.30
  -4   6   6   19.60    2.90
   6  -2   6   22.30    3.40
  -6   2   6   25.40    3.10
  -6   4  -6   18.00    3.50
  -4   6   6   21.40    3.30
   2   4   6   26.70    3.20
   2   4   6   26.70    4.00
   6  -2   6   33.00    4.30
  -4   6   6   26.10    3.00
  -4   6   6   19.10    3.50
   6  -4  -6   23.30    3.50
  -2  -4   6   17.80    3.10
   4   2  -6   26.30    3.60
  -6   4  -6   15.60    3.10
   4  -6   6   20.70    3.50
  -6   2   6   24.00    3.30
  -2   6  -6   24.00    3.00
  -6   4  -6   22.50    2.60
   6  -4  -6   22.70    3.40
  -4   6  -6   24.90    3.50
  -6   2  -6   21.80    2.80
   6  -4   6   19.90    3.40
  -6   4   6   22.00    3.20
   4  -6  -6   18.80    3.50
  -4   6  -6   26.40    2.90
  -6   4   6   22.90    2.90
   6  -2  -6   23.30    3.30
   2   4  -6   27.00    3.10
   2   4  -6   26.90    3.20
   6  -2  -6   23.80    4.20
  -4  -2   6   19.70    3.00
  -2   6   6   22.50    3.20
  -6   4   6   27.00    2.80
   4   2   6   31.10    3.90
  -4   6  -6   21.30    2.70
  -2   6   6   23.50    3.10
   6  -4   6   20.60    3.40
   5   1  -6  105.89    5.90
  -1   6  -6   95.89    5.50
   6  -1   6  104.09    5.60
   6  -5  -6   89.09    6.60
   5  -6   6   96.59    5.90
  -6   5  -6   82.69    6.10
   5  -6   6   95.69    6.40
  -1  -5   6   98.89    5.60
  -5   6   6  105.19    5.20
  -5   6   6   96.29    5.20
  -5   6   6   95.29    5.30
  -5   6   6  102.29    5.40
   5   1  -6   96.49    5.80
   1   5   6   94.69    5.30
  -1   6  -6  103.69    5.80
  -6   5  -6   90.39    5.00
  -6   5  -6   90.49    5.90
  -1   6  -6   98.69    5.40
   6  -5  -6  101.09    6.40
  -6   5   6  100.59    5.20
  -6   5   6   99.49    5.20
   1   5  -6   99.79    5.60
   6  -5   6  110.19    6.50
  -6   1  -6   84.49    5.30
   5  -6  -6  103.49    8.20
   6  -1  -6  102.99    6.90
  -1   6   6   98.19    5.30
   1   5  -6   95.19    5.40
   5   1   6  103.29    5.70
  -5   6  -6   93.69    5.60
  -5   6  -6  103.09    5.80
   1   5  -6  101.39    5.40
  -1   6   6   99.49    5.50
  -6   5   6   98.59    5.30
   6  -1  -6  107.09    6.10
   6  -5   6   99.29    5.70
   0   6  -6   23.20    2.60
   0   6  -6   23.70    2.40
  -6   6  -6   27.00    2.60
   6  -6  -6   23.50    3.80
   6   0  -6   25.70    2.90
  -6   6   6   23.80    2.20
  -6   6   6   22.10    2.70
  -6   6   6   24.00    2.10
  -6   6  -6   22.60    2.80
  -6   6  -6   22.00    2.40
   6  -6   6   27.40    3.40
   0   6  -6   24.20    3.80
   0   6   6   21.20    2.20
   6   0   6   21.80    2.40
   0   6   6   21.80    2.70
   0  -6   6   28.60    2.80
   3   4   6    4.30    1.70
  -3   7  -6    6.70    1.40
   4   3  -6    9.80    1.60
  -4   7   6    7.40    1.30
  -4   7   6    7.80    1.40
   7  -3   6    6.20    2.20
  -3  -4   6    5.80    1.50
  -7   4  -6    7.40    1.30
  -7   3   6    4.50    1.50
  -7   4  -6    3.80    1.70
  -3   7  -6    8.30    1.50
   3   4   6    7.10    1.80
   4   3  -6    5.40    1.50
  -3   7  -6    6.10    1.80
  -7   3   6    8.20    1.80
   7  -4  -6    4.50    1.90
  -7   3  -6    7.90    1.40
   3   4  -6    7.00    1.50
   4  -7  -6    7.00    2.70
  -3   7   6    8.50    1.50
  -7   4   6    9.30    1.40
  -4   7  -6    9.30    1.50
  -3   7   6    6.10    1.40
  -7   4   6    4.80    1.30
  -4   7  -6    8.20    1.60
  -7   3  -6    4.30    1.70
  -7   4   6    7.40    1.30
   4   3   6    7.60    1.90
   7  -4   6    9.10    2.10
   4   3   6    7.50    1.70
   7  -4   6    6.10    1.60
   7  -3  -6    4.20    1.70
   3   4  -6   11.40    2.10
   5   2  -6  349.17   14.40
   5   2  -6  330.87   14.30
  -2   7  -6  346.77   14.30
   2   5   6  336.17   14.30
  -2   7  -6  342.77   14.30
  -5   7   6  326.07   14.20
  -7   5  -6  302.77   14.40
   7  -5  -6  311.67   14.60
  -7   2   6  325.27   14.20
  -5   7   6  338.87   14.10
   7  -2   6  325.37   14.20
  -7   5  -6  321.07   14.20
  -2  -5   6  340.97   14.30
   7  -5   6  267.07   15.50
   2   5  -6  360.16   14.40
   5   2   6  285.87   14.80
   7  -5   6  318.57   14.20
   7  -2  -6  345.67   15.30
   2   5  -6  308.27   15.10
  -2   7   6  330.17   14.40
   5  -7  -6  337.07   15.40
  -7   5   6  331.97   14.10
  -5   7  -6  283.07   14.80
   0   0   7    1.90    2.50
   0   0   7    4.00    3.40
   0  -1   7   93.39    6.40
  -1   0   7   84.59    6.40
   0  -1   7   80.59    7.00
  -1   1   7   75.19    6.40
   0   1  -7   97.59    5.90
   1   0   7   68.19    6.70
   1   0   7   90.89    6.20
  -1   0   7   91.09    6.30
   0   1   7   81.39    6.00
   1  -1   7   95.29    6.50
   0   1   7   77.29    6.60
   1  -1   7   72.79    6.80
   1   0  -7   81.59    6.00
  -1   1   7   88.59    6.20
   1  -1   7   77.69    6.80
   1  -2   7   -1.10    2.70
   1   1  -7    1.60    2.10
  -1  -1   7    3.20    3.10
  -1  -1   7   -0.10    2.80
  -2   1   7   -0.90    2.50
  -1   2  -7    4.60    2.20
   1  -2   7    2.20    3.50
   1  -2   7   -0.10    3.10
  -1   2   7    1.80    2.60
   2  -1   7    5.30    3.30
   1   1   7    0.50    2.50
  -1   2   7    0.30    3.00
  -2   1   7    4.10    2.60
   2  -1   7   -3.50    2.60
   1   1   7   -2.40    3.20
   0  -2   7 1631.54   67.39
   2  -2   7 1575.44   67.69
   2  -2   7 1524.55   67.29
   0   2   7 1472.65   67.09
  -2   0   7 1638.54   67.59
   2   0   7 1573.04   67.49
  -2   2  -7 1434.26   66.79
  -2   2   7 1578.84   67.59
   0  -2   7 1511.65   67.59
  -2   2   7 1583.34   67.29
   2   0   7 1554.84   67.39
   0   2  -7 1600.34   66.89
   2   0  -7 1574.84   67.09
   0   2   7 1517.95   67.39
  -2   0   7 1621.64   67.19
   1   2   7    8.60    2.90
  -2   3   7    4.60    2.70
   3  -1   7    5.50    2.90
  -1   3  -7    8.10    2.20
  -2   3   7    3.20    2.60
  -3   1   7    1.80    2.70
   2   1  -7    5.10    3.80
   2  -3   7    2.30    3.40
   1   2   7    3.80    3.00
  -1   3  -7    9.60    3.30
  -3   2  -7    4.90    2.90
  -3   1   7    3.00    2.10
  -1  -2   7    7.20    3.00
   2   1  -7    4.20    3.30
   3  -2  -7    5.80    3.40
   2  -3   7    5.20    2.90
  -1  -2   7    4.60    3.00
   2   1  -7    5.60    2.40
   3  -1   7    6.50    3.10
   2  -3   7    6.80    3.00
  -2   3   7    7.80    2.80
   3  -2   7    4.20    2.90
  -2   3  -7    5.40    2.30
  -3   2   7    2.90    2.20
  -1   3   7    7.40    2.90
  -1   3   7    8.70    2.90
   3  -1  -7    5.20    2.90
   2   1   7    8.40    3.30
  -2  -1   7    8.70    3.00
   1  -3   7    5.40    2.90
   1   2  -7    4.10    2.30
  -2  -1   7    6.70    2.50
  -1   3   7    9.90    2.80
   1   2  -7    7.10    3.00
   2   1   7    6.90    2.90
   3  -2   7    7.30    3.00
   1  -3   7    1.20    3.40
   1  -3   7    8.30    3.00
  -3   2   7    1.30    2.50
  -3   3   7  520.65   25.00
   3  -3   7  538.85   25.40
   0   3   7  533.75   24.60
   3   0  -7  523.15   25.40
   0   3  -7  575.04   24.40
   0  -3   7  560.94   24.90
  -3   3   7  563.84   24.80
   3  -3   7  547.65   24.90
  -3   3   7  587.94   24.60
   3   0   7  519.35   25.00
  -3   0   7  530.35   25.00
   3   0  -7  566.84   24.80
  -3   3  -7  566.74   24.50
  -3   0   7  589.84   24.50
   0   3   7  536.35   25.10
   0  -3   7  582.24   24.80
   0   3  -7  536.85   25.10
   3  -3  -7  526.85   25.40
   3   0   7  557.64   25.10
   0   3   7  595.54   24.60
   0  -3   7  531.55   25.20
   2  -4   7   -1.20    2.40
  -4   2   7    2.30    1.70
   2   2  -7    0.40    2.30
  -2   4  -7   -1.00    2.60
  -2   4  -7    2.40    1.80
   2  -4   7    0.00    4.50
   4  -2  -7    0.00    2.80
  -4   2  -7    2.70    2.80
   4  -2   7    1.90    2.80
   2   2  -7    2.90    2.70
  -2   4   7    1.20    2.70
  -2  -2   7    2.50    2.20
  -2   4   7   -3.40    2.10
   2  -4   7    1.00    2.80
  -2   4  -7    2.70    3.80
   4  -2   7    4.50    2.70
  -4   2   7    2.70    2.30
  -2   4   7   -2.40    2.00
   2   2  -7   -1.00    2.00
  -1   4  -7  134.39    6.90
   4  -1   7  118.69    7.80
  -3   4   7  138.69    7.10
  -3   4   7  130.99    7.50
  -4   3  -7  136.99    7.20
   3   1  -7  140.29    7.30
  -4   1   7  125.09    7.50
   1   3   7  149.29    7.60
  -4   1   7  133.79    6.80
   4  -1   7  129.59    7.90
   4  -3  -7  129.69    8.30
   3   1  -7  133.39    7.90
  -3   4   7  131.39    7.20
  -1  -3   7  143.29    7.70
   3  -4   7  132.09    8.00
   3   1  -7  142.19    8.50
  -1   4  -7  130.29    7.60
   3  -4   7  123.49    7.60
  -1   4   7  131.69    7.20
   4  -3   7  130.39    7.60
   1   3  -7  133.09    6.90
   4  -3   7  126.49    8.20
   3   1   7  134.19    7.90
  -3   4  -7  117.09    9.50
  -4   3   7  127.49    7.50
   1   3  -7  127.29    7.40
   1  -4   7  127.39    7.60
   4  -1  -7  144.79    7.70
   3  -4  -7  115.99    9.80
   1  -4   7  109.19    8.00
  -3  -1   7  129.89    7.00
  -3   4  -7  134.09    6.90
  -1   4   7  131.79    7.30
  -4   3   7  137.69    6.90
   4  -1  -7  125.19    9.90
  -4   0   7  284.27   13.00
   4   0  -7  284.17   14.10
   0   4   7  295.17   13.30
   4  -4   7  307.57   16.40
   0   4  -7  286.87   13.10
  -4   4   7  278.17   13.40
   4  -4  -7  275.57   14.40
   0   4   7  278.07   13.40
  -4   4   7  310.27   15.10
  -4   4   7  289.47   13.20
   0  -4   7  300.27   16.20
   0   4  -7  290.67   13.70
  -4   0   7  262.37   13.70
   4   0  -7  302.57   13.60
   4   0   7  291.87   14.40
  -4   4  -7  280.47   13.20
   5  -2   7  182.58    9.20
  -3   5   7  175.98    8.90
   5  -2   7  180.58    9.40
  -3   5   7  191.78    8.80
  -3   5   7  173.18    8.80
   3   2  -7  185.08    8.80
   2   3   7  178.98    9.20
   3   2  -7  180.38    9.00
  -2  -3   7  190.28    8.90
  -5   2   7  182.88    8.70
   3   2  -7  179.28    9.10
  -2   5  -7  167.88    8.50
  -2   5  -7  172.58    8.90
   3  -5   7  155.88    9.20
  -5   3  -7  150.18    8.70
   5  -3  -7  146.69    9.90
   3  -5   7  181.48    9.10
  -2   5  -7  183.48    9.10
  -5   2   7  176.98    8.40
   5  -3  -7  196.38    9.60
   5  -3   7  170.48    9.60
  -5   3   7  177.18    8.80
   2  -5   7  170.48    9.10
   3   2   7  176.38    9.10
   5  -3   7  186.38    9.00
   5  -2  -7  176.78    9.70
   5  -2  -7  194.48    9.50
  -2   5   7  177.28    8.90
  -2   5   7  188.08    8.80
   2   3  -7  186.78    9.00
   2   3  -7  182.18    8.90
  -3   5  -7  177.78    9.10
  -3   5  -7  191.28    9.40
  -5   3   7  181.58    8.70
   2   3  -7  185.78    8.80
  -3   5  -7  172.88    8.50
  -3  -2   7  183.98    8.60
  -5   3   7  179.48    8.40
   5  -4  -7   70.09    5.70
  -4   5   7   70.89    4.40
   5  -1   7   83.29    4.90
  -1   5  -7   79.29    4.80
   5  -1   7   79.09    5.20
  -1   5  -7   76.69    4.70
  -4   5   7   73.69    4.50
  -1   5  -7   67.29    5.50
  -1  -4   7   74.79    4.80
   1   4   7   79.49    4.60
  -5   1   7   70.59    4.40
  -5   4  -7   63.09    5.10
   4  -5   7   69.69    5.40
   4   1  -7   69.89    5.10
  -1   5  -7   71.89    4.90
  -4   5   7   76.19    4.30
   4  -5   7   69.19    5.00
   4   1  -7   71.39    5.00
   1   4  -7   77.19    4.70
   1  -5   7   69.49    5.40
   5  -1  -7   74.99    5.40
  -4   5  -7   74.79    5.20
   5  -4   7   68.29    5.30
  -4  -1   7   72.19    4.10
  -1   5   7   64.09    4.50
  -4   5  -7   70.19    4.30
   5  -4   7   77.99    4.90
  -5   4   7   78.19    4.20
  -4   5  -7   74.49    5.60
   5  -1  -7   71.49    6.30
   1   4  -7   74.59    4.70
   1   4  -7   73.99    4.70
  -5   4   7   71.29    4.30
   4   1   7   74.59    4.90
  -1   5   7   76.09    4.50
   4  -5  -7   67.29    6.20
  -5   4   7   72.79    4.60
  -5   5  -7   19.90    3.10
   0   5  -7   23.90    2.80
  -5   5   7   28.70    2.90
   5  -5  -7   22.80    3.10
   5   0  -7   26.30    3.20
   0   5   7   26.90    2.50
   0   5   7   18.00    2.80
   5   0  -7   20.60    3.20
  -5   5   7   25.40    2.30
  -5   5   7   25.00    2.40
   0  -5   7   30.60    3.20
   5  -5   7   22.00    3.50
  -5   5  -7   23.00    2.60
   5   0   7   24.90    2.90
  -5   5  -7   17.40    3.00
   5  -5   7   24.70    2.90
   3   3  -7    3.60    2.50
   6  -3   7    0.50    1.40
  -3   6   7    0.00    1.40
   3   3   7    0.50    1.80
   3   3  -7    0.80    1.30
  -3   6  -7    6.70    2.90
  -3   6   7    1.20    1.30
  -3   6  -7    2.00    1.40
   6  -3   7    1.30    2.20
   6  -3  -7    2.40    2.20
   6  -3  -7   -3.30    2.50
  -6   3  -7    0.90    1.60
  -6   3   7    3.20    1.70
   6  -2   7   16.20    2.10
  -4   6   7   18.60    2.70
  -6   4  -7   19.00    2.50
   6  -4  -7   15.40    2.80
   4  -6   7   15.70    2.70
   4   2  -7   17.10    2.20
   6  -4  -7   22.60    3.70
   4   2  -7   22.50    2.50
  -2   6  -7   17.90    2.80
   2   4   7   15.60    2.70
  -2   6  -7   16.20    2.40
  -4   6   7   18.70    2.60
  -2   6  -7   19.30    3.20
  -2  -4   7   20.30    3.20
  -2   6   7   14.70    2.20
  -6   4   7   19.50    1.80
   2   4  -7   15.90    2.30
   6  -2  -7   20.20    3.20
  -2   6   7   19.00    2.50
  -4   6  -7   20.90    3.40
  -6   4   7   17.90    2.00
   4   2   7   18.10    2.30
   6  -4   7   19.30    2.90
   6  -4   7   16.70    2.80
  -4   6  -7   16.20    3.20
   2  -6   7   19.80    3.30
   2   4  -7   21.40    2.80
   1   5   7  425.76   18.50
  -6   5  -7  426.36   18.70
  -1   6  -7  455.25   18.70
   6  -1   7  432.96   18.60
   5   1  -7  444.26   18.80
  -5   6   7  440.66   18.50
  -1  -5   7  438.86   18.70
   5  -6   7  427.76   18.70
  -6   5   7  423.16   18.50
   1   5  -7  445.96   18.60
   6  -5   7  442.86   18.90
   1   5  -7  456.75   18.70
  -1   6   7  379.06   18.50
  -6   5   7  423.56   18.50
  -1   6   7  423.56   18.60
  -5   6  -7  416.76   18.60
   1  -6   7  370.66   18.70
   5   1   7  440.06   18.60
   6  -5   7  436.36   18.60
   6  -1  -7  429.96   18.80
  -5   6  -7  426.96   18.80
   0   0   8  546.05   25.70
   0   0   8  612.24   26.00
   0   1  -8  105.29    6.20
  -1   0   8  108.59    6.40
   1  -1   8  106.59    6.50
  -1   1   8   96.99    6.30
   1   0  -8   85.99    6.40
   0   1   8   96.79    6.20
   1   0   8   96.29    6.20
   0   1   8   91.69    6.00
   0  -1   8  109.19    6.40
  -1   0   8  109.49    6.10
   0  -1   8   88.09    6.10
   2  -1   8  133.89    7.70
  -1   2   8  133.09    8.00
  -1   2   8  128.19    7.80
   2  -1   8  141.79    7.70
  -1  -1   8  137.79    7.30
   1  -2   8  139.69    7.80
   1   1  -8  139.59    7.30
  -2   1   8  145.49    7.80
   2  -1  -8  118.69    7.90
  -1   2  -8  132.69    7.30
   1  -2   8  128.09    7.70
  -2   1   8  152.18    7.30
   1  -2   8  131.79    9.90
   1   1   8  136.69    7.40
   0  -2   8  279.37   12.70
   0   2  -8  250.27   12.10
   2   0  -8  247.88   12.50
   2  -2   8  258.57   12.50
   0   2   8  247.18   12.20
   0  -2   8  244.88   13.90
   2   0   8  252.57   12.40
  -2   0   8  294.27   12.90
   2   0   8  274.47   14.30
   0   2   8  253.27   12.60
  -3   1   8  582.54   23.80
   3  -1   8  561.44   24.10
   2  -3   8  547.25   24.30
   2   1  -8  478.45   24.50
  -1  -2   8  542.45   24.10
   1   2   8  549.05   24.30
  -1   3  -8  529.95   23.80
   2   1  -8  566.64   24.10
  -3   1   8  551.84   24.20
   3  -1   8  548.15   24.30
   2  -3   8  552.64   24.00
  -2   3   8  569.14   24.00
   3  -2  -8  506.65   24.30
  -1  -2   8  594.74   24.20
  -2   3   8  528.15   24.20
   1  -3   8  461.45   24.00
  -1   3   8  511.95   24.20
  -3   2   8  578.64   23.80
   3  -2   8  534.85   24.40
  -2   3  -8  509.45   23.90
  -3   2   8  551.84   24.20
   1   2  -8  564.74   24.30
  -2  -1   8  518.75   24.10
  -1   3   8  543.65   24.00
   1   2  -8  475.65   24.50
   2   1   8  538.75   24.20
  -2  -1   8  613.04   24.00
   3  -1  -8  560.84   24.20
   3  -2   8  559.74   24.10
   1  -3   8  552.34   24.20
   1  -3   8  557.84   24.00
  -3   3   8   28.40    3.30
   3   0  -8   30.80    3.60
  -3   0   8   30.50    2.70
  -3   3  -8   24.80    3.90
   3  -3   8   33.00    4.10
   3   0  -8   25.20    4.10
   0   3  -8   34.20    3.00
   3  -3  -8   28.60    4.30
   0   3   8   29.10    3.40
   3  -3   8   23.60    3.70
  -3   0   8   31.20    3.60
  -3   3   8   32.10    2.80
   3   0   8   36.30    3.80
   3   0   8   30.80    4.00
   0   3  -8   30.30    4.60
   0  -3   8   27.50    3.40
   0   3  -8   25.70    3.90
   4  -2   8   84.89    5.10
  -4   2   8   90.69    4.50
  -4   2   8   88.29    4.90
   2   2  -8   92.29    5.10
   2   2  -8   86.99    6.80
   2  -4   8   75.49    5.30
   4  -2  -8   81.39    5.70
  -2   4   8   91.89    4.90
  -2   4   8   82.69    5.40
   2   2  -8   86.59    5.60
   2  -4   8   85.39    5.10
   4  -2   8   86.49    5.50
  -2   4  -8   85.39    4.90
  -2   4   8   78.39    5.90
  -2  -2   8   90.69    4.70
  -2   4  -8   73.79    7.30
   4  -1   8   48.50    4.10
   4  -3  -8   48.00    5.40
   3   1  -8   51.89    4.60
   3   1  -8   60.49    4.20
   4  -1   8   56.79    4.10
   3  -4   8   60.49    4.10
  -3   4   8   54.79    3.60
   3  -4   8   54.69    4.20
  -4   1   8   62.39    3.70
  -1   4  -8   54.29    3.70
  -4   3  -8   41.70    4.50
  -3   4   8   48.10    4.10
  -3   4   8   63.99    3.60
  -1   4  -8   48.70    3.90
  -4   1   8   57.49    3.20
  -1  -3   8   61.49    3.80
  -3   4  -8   49.30    3.90
   4  -1  -8   57.59    4.50
   1   3  -8   55.79    4.40
  -1   4   8   52.49    3.70
  -4   3   8   59.19    3.60
  -3  -1   8   56.59    3.30
   4  -1  -8   39.50    5.60
   1   3  -8   56.69    4.10
   4  -3   8   50.39    4.40
  -4   3   8   56.69    3.20
   4  -3   8   64.29    4.10
   3   1   8   44.50    4.40
   0  -4   8    9.00    2.00
   0   4  -8   10.80    2.10
   0   4  -8    6.40    2.20
   4  -4   8   10.90    2.10
   4   0   8    7.00    2.00
  -4   0   8    8.60    1.40
   4   0  -8    8.00    2.40
   4  -4   8    7.30    1.90
  -4   4  -8    5.30    2.00
  -4   4   8    9.00    1.50
  -4   4   8    6.10    1.30
   0   4  -8    9.60    2.30
   4   0  -8    5.40    2.40
   5  -2   8  602.64   25.70
  -2   5  -8  615.54   25.80
   5  -2   8  555.34   25.60
  -3   5   8  619.64   25.50
  -2  -3   8  584.34   25.50
   3   2  -8  603.04   25.80
  -5   2   8  581.84   25.50
   5  -3   8  609.14   25.70
   5  -3   8  606.04   25.80
  -2   5   8  572.44   25.50
  -3  -2   8  605.94   25.50
  -5   3   8  589.84   25.50
   2   3  -8  630.44   25.90
   2   3  -8  546.95   25.80
   0   0   9    0.30    1.60
  -1   1   9   12.70    2.00
  -1   0   9   19.10    2.40
  -1   1   9   14.10    1.90
   1   0   9   13.80    2.20
   0   1  -9    9.30    3.10
   1   0  -9   10.10    3.40
   0  -1   9   19.40    2.60
   0   1   9   11.20    2.00
   0  -1   9   11.90    2.10
   0   1   9    9.90    2.70
   1  -1   9   12.70    2.10
  -1   2   9    1.00    2.30
  -2   1   9    3.50    1.50
   1   1   9    0.30    1.90
  -2   1   9    1.00    1.60
   2  -1   9    1.10    1.80
   1   1  -9    4.40    2.50
  -1  -1   9    0.90    1.70
   1  -2   9    2.20    2.00
  -1  -1   9   -1.80    2.10
  -2   2   9  526.45   23.00
   0  -2   9  436.46   22.30
   0  -2   9  478.85   22.40
  -2   2   9  564.44   22.60
   0   2   9  511.95   22.50
   2  -2   9  495.95   22.70
   0   2  -9  522.85   22.90
   2   0   9  506.15   22.50
  -2   0   9  522.75   22.40
  -2   0   9  577.14   22.40
  -1  -2   9    6.40    1.50
  -2   3   9    3.50    1.40
  -3   1   9    5.80    1.40
   2  -3   9    4.20    1.80
  -3   1   9    5.80    1.20
  -2   3   9    4.00    1.30
   3  -1   9    2.10    1.40
   3  -2   9    4.50    1.70
  -3   2   9    5.40    1.20
  -3   2   9    6.00    1.10
  -2  -1   9    5.80    1.10
  -1   3   9    6.20    1.80
   0   0   0    0.00    0.00
_computing_structure_solution     'SHELXT 2014/5 (Sheldrick, 2014)'
;
_shelx_hkl_checksum              35805
_shelx_res_file
;
TITL P32mmc_10_a.res in P6(3)/mmc
    P32mmc_10_a.res
    created by SHELXL-2016/6 at 17:41:21 on 16-Jan-2018
REM Old TITL P32mmc_10 in P6(3)/mmc
REM SHELXT solution in P6(3)/mmc
REM R1 0.105,  Rweak 0.003,  Alpha 0.022,  Orientation as input
REM Formula found by SHELXT:  Al5 Fe2
CELL  1.54178   7.6981   7.6981   7.6231   90.000   90.000  120.000
ZERR    2.000   0.0002   0.0002   0.0002    0.000    0.000    0.000
LATT  1
SYMM -Y, X-Y, Z
SYMM -X+Y, -X, Z
SYMM -X, -Y, 1/2+Z
SYMM Y, -X+Y, 1/2+Z
SYMM X-Y, X, 1/2+Z
SYMM Y, X, -Z
SYMM X-Y, -Y, -Z
SYMM -X, -X+Y, -Z
SYMM -Y, -X, 1/2-Z
SYMM -X+Y, Y, 1/2-Z
SYMM X, X-Y, 1/2-Z
SFAC AL FE NI
UNIT 19.9999 1.66853 6
TEMP 20
L.S. 10
BOND
LIST 4
SIZE 0.058 0.086 0.095
ACTA
FMAP 2
PLAN 20
WGHT    0.046000    2.886100
EXTI    0.002505
FVAR       0.64462   0.83430
NI1   3    0.252692    0.126346    0.250000    10.25000    0.00744    0.01020 =
         0.01293    0.00000    0.00000    0.00372
FE02  2    0.666667    0.333333    0.750000    20.08333    0.01470    0.01470 =
         0.01807    0.00000    0.00000    0.00735
AL03  1    0.000000    0.000000    0.000000    10.08333    0.01144    0.01144 =
         0.01476    0.00000    0.00000    0.00572
AL04  1    0.391948    0.195974    0.559782    10.50000    0.01545    0.01395 =
         0.01772   -0.00082   -0.00165    0.00773
AL05  1    0.534775    0.465225    0.250000    10.25000    0.01289    0.01289 =
         0.02050    0.00000    0.00000    0.00523
HKLF 4
REM  P32mmc_10_a.res in P6(3)/mmc
REM R1 =  0.0288 for     177 Fo > 4sig(Fo)  and  0.0292 for all     178 data
REM     21 parameters refined using      0 restraints
END
WGHT      0.0261      1.9617
REM Highest difference peak  0.530,  deepest hole -0.415,  1-sigma level  0.112
Q1    1   0.1548  0.0774  0.1792  10.50000  0.05    0.53
Q2    1   0.2942  0.0892  0.1615  11.00000  0.05    0.46
Q3    1   0.6667  0.3333  0.9420  10.16667  0.05    0.32
Q4    1   0.3549  0.1774  0.6512  10.50000  0.05    0.30
Q5    1   0.0678  0.1357  0.2014  10.50000  0.05    0.24
Q6    1   0.2674  0.1337  0.5094  10.50000  0.05    0.24
Q7    1   0.6979  0.3958  0.8391  10.50000  0.05    0.23
Q8    1   0.0000  0.0000  0.1180  10.16667  0.05    0.22
Q9    1   0.0000  0.0000  0.2500  10.08333  0.05    0.20
Q10   1   0.6042  0.2085  0.5165  10.50000  0.05    0.19
Q11   1   0.6104  0.2209  0.8562  10.50000  0.05    0.19
Q12   1   0.5242  0.2621  0.6215  10.50000  0.05    0.17
Q13   1   0.7479  0.2521  0.7500  10.25000  0.05    0.17
Q14   1   0.7405  0.4811  0.1556  10.50000  0.05    0.17
Q15   1   0.4575  0.3062  0.6336  11.00000  0.05    0.16
Q16   1   0.8458  0.4229  0.7500  10.25000  0.05    0.15
Q17   1   0.5028  0.4972  0.1558  10.50000  0.05    0.15
Q18   1   0.3759  0.2360  0.4820  11.00000  0.05    0.14
Q19   1   0.5053  0.2526  0.5019  10.50000  0.05    0.14
Q20   1   0.4337  0.2169  0.4523  10.50000  0.05    0.13
;
_shelx_res_checksum              65677
loop_
_space_group_symop_operation_xyz
'x, y, z'
'-y, x-y, z'
'-x+y, -x, z'
'-x, -y, z+1/2'
'y, -x+y, z+1/2'
'x-y, x, z+1/2'
'y, x, -z'
'x-y, -y, -z'
'-x, -x+y, -z'
'-y, -x, -z+1/2'
'-x+y, y, -z+1/2'
'x, x-y, -z+1/2'
'-x, -y, -z'
'y, -x+y, -z'
'x-y, x, -z'
'x, y, -z-1/2'
'-y, x-y, -z-1/2'
'-x+y, -x, -z-1/2'
'-y, -x, z'
'-x+y, y, z'
'x, x-y, z'
'y, x, z-1/2'
'x-y, -y, z-1/2'
'-x, -x+y, z-1/2'
loop_
_atom_site_type_symbol
_atom_site_label
_atom_site_fract_x
_atom_site_fract_y
_atom_site_fract_z
_atom_site_U_iso_or_equiv
_atom_site_adp_type
_atom_site_calc_flag
_atom_site_occupancy
Ni Ni1 0.25269(18) 0.12635(9) 0.250000 0.0105(5) Uani d 1
Fe Fe2 0.666667 0.333333 0.750000 0.0158(10) Uani d 0.834(11)
Al Al3 0.000000 0.000000 0.000000 0.0125(9) Uani d 1
Al Al4 0.3919(3) 0.19597(13) 0.5598(2) 0.0155(6) Uani d 1
Al Al5 0.53478(17) 0.46522(17) 0.250000 0.0160(7) Uani d 1
loop_
_atom_site_aniso_label
_atom_site_aniso_U_11
_atom_site_aniso_U_22
_atom_site_aniso_U_33
_atom_site_aniso_U_12
_atom_site_aniso_U_13
_atom_site_aniso_U_23
Ni1 0.0074(7) 0.0102(7) 0.0129(8) 0.0037(4) 0.000 0.000
Fe2 0.0147(12) 0.0147(12) 0.0181(15) 0.0073(6) 0.000 0.000
Al3 0.0114(11) 0.0114(11) 0.0148(18) 0.0057(6) 0.000 0.000
Al4 0.0155(9) 0.0140(7) 0.0177(9) 0.0077(4) -0.0016(6) -0.0008(3)
Al5 0.0129(9) 0.0129(9) 0.0205(13) 0.0052(9) 0.000 0.000
loop_
_atom_type_symbol
_atom_type_description
_atom_type_scat_dispersion_real
_atom_type_scat_dispersion_imag
_atom_type_scat_source
Al Al 0.2130 0.2455 'International Tables Vol C Tables 4.2.6.8 and 6.1.1.4'
Fe Fe -1.1336 3.1974 'International Tables Vol C Tables 4.2.6.8 and 6.1.1.4'
Ni Ni -3.0029 0.5091 'International Tables Vol C Tables 4.2.6.8 and 6.1.1.4'
loop_
_geom_angle_atom_site_label_1
_geom_angle_atom_site_label_2
_geom_angle_atom_site_label_3
_geom_angle_site_symmetry_1
_geom_angle_site_symmetry_3
_geom_angle
Al5 Ni1 Al5 . 2_655 78.00(12)
Al5 Ni1 Al4 . . 73.48(4)
Al5 Ni1 Al4 2_655 . 73.48(4)
Al5 Ni1 Al4 . 16_556 73.48(4)
Al5 Ni1 Al4 2_655 16_556 73.48(4)
Al4 Ni1 Al4 . 16_556 137.08(9)
Al5 Ni1 Al3 . . 120.98(3)
Al5 Ni1 Al3 2_655 . 120.98(3)
Al4 Ni1 Al3 . . 159.99(6)
Al4 Ni1 Al3 16_556 . 62.94(4)
Al5 Ni1 Al3 . 4 120.98(3)
Al5 Ni1 Al3 2_655 4 120.98(3)
Al4 Ni1 Al3 . 4 62.94(4)
Al4 Ni1 Al3 16_556 4 159.99(6)
Al3 Ni1 Al3 . 4 97.05(4)
Al5 Ni1 Al4 . 5_554 129.27(6)
Al5 Ni1 Al4 2_655 5_554 65.39(5)
Al4 Ni1 Al4 . 5_554 123.24(4)
Al4 Ni1 Al4 16_556 5_554 63.50(3)
Al3 Ni1 Al4 . 5_554 60.49(4)
Al3 Ni1 Al4 4 5_554 107.94(4)
Al5 Ni1 Al4 . 15_556 65.39(5)
Al5 Ni1 Al4 2_655 15_556 129.27(6)
Al4 Ni1 Al4 . 15_556 63.50(3)
Al4 Ni1 Al4 16_556 15_556 123.24(4)
Al3 Ni1 Al4 . 15_556 107.94(4)
Al3 Ni1 Al4 4 15_556 60.49(4)
Al4 Ni1 Al4 5_554 15_556 163.98(7)
Al5 Ni1 Al4 . 14_556 129.27(6)
Al5 Ni1 Al4 2_655 14_556 65.39(5)
Al4 Ni1 Al4 . 14_556 63.50(3)
Al4 Ni1 Al4 16_556 14_556 123.24(4)
Al3 Ni1 Al4 . 14_556 107.94(4)
Al3 Ni1 Al4 4 14_556 60.49(4)
Al4 Ni1 Al4 5_554 14_556 64.59(7)
Al4 Ni1 Al4 15_556 14_556 112.97(7)
Al5 Ni1 Al4 . 6_554 65.39(5)
Al5 Ni1 Al4 2_655 6_554 129.27(6)
Al4 Ni1 Al4 . 6_554 123.24(4)
Al4 Ni1 Al4 16_556 6_554 63.50(3)
Al3 Ni1 Al4 . 6_554 60.49(4)
Al3 Ni1 Al4 4 6_554 107.94(4)
Al4 Ni1 Al4 5_554 6_554 112.97(7)
Al4 Ni1 Al4 15_556 6_554 64.59(7)
Al4 Ni1 Al4 14_556 6_554 163.98(7)
Al5 Ni1 Ni1 . 3 171.00(6)
Al5 Ni1 Ni1 2_655 3 111.00(6)
Al4 Ni1 Ni1 . 3 108.47(4)
Al4 Ni1 Ni1 16_556 3 108.47(4)
Al3 Ni1 Ni1 . 3 55.001(16)
Al3 Ni1 Ni1 4 3 55.001(16)
Al4 Ni1 Ni1 5_554 3 57.48(3)
Al4 Ni1 Ni1 15_556 3 107.23(4)
Al4 Ni1 Ni1 14_556 3 57.48(3)
Al4 Ni1 Ni1 6_554 3 107.23(4)
Al5 Ni1 Ni1 . 2 111.00(6)
Al5 Ni1 Ni1 2_655 2 171.00(6)
Al4 Ni1 Ni1 . 2 108.47(4)
Al4 Ni1 Ni1 16_556 2 108.47(4)
Al3 Ni1 Ni1 . 2 55.001(16)
Al3 Ni1 Ni1 4 2 55.001(16)
Al4 Ni1 Ni1 5_554 2 107.23(4)
Al4 Ni1 Ni1 15_556 2 57.48(3)
Al4 Ni1 Ni1 14_556 2 107.23(4)
Al4 Ni1 Ni1 6_554 2 57.48(3)
Ni1 Ni1 Ni1 3 2 60.0
Al4 Fe2 Al4 17_657 2_655 76.74(9)
Al4 Fe2 Al4 17_657 . 133.84(3)
Al4 Fe2 Al4 2_655 . 85.53(6)
Al4 Fe2 Al4 17_657 18_667 85.53(6)
Al4 Fe2 Al4 2_655 18_667 133.84(3)
Al4 Fe2 Al4 . 18_667 133.84(3)
Al4 Fe2 Al4 17_657 16_557 85.53(6)
Al4 Fe2 Al4 2_655 16_557 133.84(3)
Al4 Fe2 Al4 . 16_557 76.74(9)
Al4 Fe2 Al4 18_667 16_557 85.53(6)
Al4 Fe2 Al4 17_657 3_665 133.84(3)
Al4 Fe2 Al4 2_655 3_665 85.53(6)
Al4 Fe2 Al4 . 3_665 85.53(6)
Al4 Fe2 Al4 18_667 3_665 76.74(9)
Al4 Fe2 Al4 16_557 3_665 133.84(3)
Al4 Fe2 Al5 17_657 14_556 66.920(15)
Al4 Fe2 Al5 2_655 14_556 66.920(15)
Al4 Fe2 Al5 . 14_556 66.920(15)
Al4 Fe2 Al5 18_667 14_556 141.63(4)
Al4 Fe2 Al5 16_557 14_556 66.920(15)
Al4 Fe2 Al5 3_665 14_556 141.63(4)
Al4 Fe2 Al5 17_657 15_656 66.920(15)
Al4 Fe2 Al5 2_655 15_656 66.920(15)
Al4 Fe2 Al5 . 15_656 141.63(4)
Al4 Fe2 Al5 18_667 15_656 66.920(15)
Al4 Fe2 Al5 16_557 15_656 141.63(4)
Al4 Fe2 Al5 3_665 15_656 66.920(15)
Al5 Fe2 Al5 14_556 15_656 120.0
Al4 Fe2 Al5 17_657 13_666 141.63(4)
Al4 Fe2 Al5 2_655 13_666 141.63(4)
Al4 Fe2 Al5 . 13_666 66.920(15)
Al4 Fe2 Al5 18_667 13_666 66.920(15)
Al4 Fe2 Al5 16_557 13_666 66.920(15)
Al4 Fe2 Al5 3_665 13_666 66.920(15)
Al5 Fe2 Al5 14_556 13_666 120.0
Al5 Fe2 Al5 15_656 13_666 120.0
Ni1 Al3 Ni1 13 . 180.0
Ni1 Al3 Ni1 13 14 70.00(3)
Ni1 Al3 Ni1 . 14 110.00(3)
Ni1 Al3 Ni1 13 2 110.00(3)
Ni1 Al3 Ni1 . 2 70.00(3)
Ni1 Al3 Ni1 14 2 180.00(3)
Ni1 Al3 Ni1 13 15 70.00(3)
Ni1 Al3 Ni1 . 15 110.00(3)
Ni1 Al3 Ni1 14 15 70.00(3)
Ni1 Al3 Ni1 2 15 110.00(3)
Ni1 Al3 Ni1 13 3 110.00(3)
Ni1 Al3 Ni1 . 3 70.00(3)
Ni1 Al3 Ni1 14 3 110.00(3)
Ni1 Al3 Ni1 2 3 70.00(3)
Ni1 Al3 Ni1 15 3 180.00(5)
Ni1 Al3 Al4 13 18_556 62.94(3)
Ni1 Al3 Al4 . 18_556 117.06(3)
Ni1 Al3 Al4 14 18_556 62.94(3)
Ni1 Al3 Al4 2 18_556 117.06(3)
Ni1 Al3 Al4 15 18_556 121.58(4)
Ni1 Al3 Al4 3 18_556 58.42(4)
Ni1 Al3 Al4 13 6_554 117.06(3)
Ni1 Al3 Al4 . 6_554 62.94(3)
Ni1 Al3 Al4 14 6_554 117.06(3)
Ni1 Al3 Al4 2 6_554 62.94(3)
Ni1 Al3 Al4 15 6_554 58.42(4)
Ni1 Al3 Al4 3 6_554 121.58(4)
Al4 Al3 Al4 18_556 6_554 180.00(7)
Ni1 Al3 Al4 13 4_554 58.42(4)
Ni1 Al3 Al4 . 4_554 121.58(4)
Ni1 Al3 Al4 14 4_554 117.06(3)
Ni1 Al3 Al4 2 4_554 62.94(3)
Ni1 Al3 Al4 15 4_554 117.06(3)
Ni1 Al3 Al4 3 4_554 62.94(3)
Al4 Al3 Al4 18_556 4_554 62.89(2)
Al4 Al3 Al4 6_554 4_554 117.11(2)
Ni1 Al3 Al4 13 16_556 121.58(4)
Ni1 Al3 Al4 . 16_556 58.42(4)
Ni1 Al3 Al4 14 16_556 62.94(3)
Ni1 Al3 Al4 2 16_556 117.06(3)
Ni1 Al3 Al4 15 16_556 62.94(3)
Ni1 Al3 Al4 3 16_556 117.06(3)
Al4 Al3 Al4 18_556 16_556 117.11(2)
Al4 Al3 Al4 6_554 16_556 62.89(2)
Al4 Al3 Al4 4_554 16_556 180.00(9)
Ni1 Al3 Al4 13 5_554 117.06(3)
Ni1 Al3 Al4 . 5_554 62.94(3)
Ni1 Al3 Al4 14 5_554 58.42(4)
Ni1 Al3 Al4 2 5_554 121.58(4)
Ni1 Al3 Al4 15 5_554 117.06(3)
Ni1 Al3 Al4 3 5_554 62.94(3)
Al4 Al3 Al4 18_556 5_554 62.89(2)
Al4 Al3 Al4 6_554 5_554 117.11(2)
Al4 Al3 Al4 4_554 5_554 117.11(2)
Al4 Al3 Al4 16_556 5_554 62.89(2)
Ni1 Al3 Al4 13 17_556 62.94(3)
Ni1 Al3 Al4 . 17_556 117.06(3)
Ni1 Al3 Al4 14 17_556 121.58(4)
Ni1 Al3 Al4 2 17_556 58.42(4)
Ni1 Al3 Al4 15 17_556 62.94(3)
Ni1 Al3 Al4 3 17_556 117.06(3)
Al4 Al3 Al4 18_556 17_556 117.11(2)
Al4 Al3 Al4 6_554 17_556 62.89(2)
Al4 Al3 Al4 4_554 17_556 62.89(2)
Al4 Al3 Al4 16_556 17_556 117.11(2)
Al4 Al3 Al4 5_554 17_556 180.00(4)
Fe2 Al4 Ni1 . . 149.83(8)
Fe2 Al4 Al3 . 4 151.52(8)
Ni1 Al4 Al3 . 4 58.65(5)
Fe2 Al4 Ni1 . 14_556 100.36(6)
Ni1 Al4 Ni1 . 14_556 104.98(6)
Al3 Al4 Ni1 4 14_556 56.57(4)
Fe2 Al4 Ni1 . 15_556 100.36(6)
Ni1 Al4 Ni1 . 15_556 104.98(6)
Al3 Al4 Ni1 4 15_556 56.57(4)
Ni1 Al4 Ni1 14_556 15_556 65.03(6)
Fe2 Al4 Al4 . 14_556 125.07(4)
Ni1 Al4 Al4 . 14_556 61.36(6)
Al3 Al4 Al4 4 14_556 58.556(11)
Ni1 Al4 Al4 14_556 14_556 55.14(4)
Ni1 Al4 Al4 15_556 14_556 107.91(5)
Fe2 Al4 Al4 . 15_556 125.07(4)
Ni1 Al4 Al4 . 15_556 61.36(6)
Al3 Al4 Al4 4 15_556 58.556(11)
Ni1 Al4 Al4 14_556 15_556 107.91(5)
Ni1 Al4 Al4 15_556 15_556 55.14(4)
Al4 Al4 Al4 14_556 15_556 109.71(7)
Fe2 Al4 Al5 . 13_666 62.56(5)
Ni1 Al4 Al5 . 13_666 123.29(4)
Al3 Al4 Al5 4 13_666 105.21(5)
Ni1 Al4 Al5 14_556 13_666 106.58(6)
Ni1 Al4 Al5 15_556 13_666 52.20(4)
Al4 Al4 Al5 14_556 13_666 159.64(7)
Al4 Al4 Al5 15_556 13_666 64.61(6)
Fe2 Al4 Al5 . 14_556 62.56(5)
Ni1 Al4 Al5 . 14_556 123.29(4)
Al3 Al4 Al5 4 14_556 105.21(5)
Ni1 Al4 Al5 14_556 14_556 52.20(4)
Ni1 Al4 Al5 15_556 14_556 106.58(6)
Al4 Al4 Al5 14_556 14_556 64.61(6)
Al4 Al4 Al5 15_556 14_556 159.64(7)
Al5 Al4 Al5 13_666 14_556 113.32(8)
Fe2 Al4 Al4 . 16_557 51.63(4)
Ni1 Al4 Al4 . 16_557 158.54(5)
Al3 Al4 Al4 4 16_557 99.89(4)
Ni1 Al4 Al4 14_556 16_557 57.71(3)
Ni1 Al4 Al4 15_556 16_557 57.71(3)
Al4 Al4 Al4 14_556 16_557 109.23(7)
Al4 Al4 Al4 15_556 16_557 109.23(7)
Al5 Al4 Al4 13_666 16_557 58.61(4)
Al5 Al4 Al4 14_556 16_557 58.61(4)
Fe2 Al4 Al5 . 2_655 104.03(5)
Ni1 Al4 Al5 . 2_655 51.44(4)
Al3 Al4 Al5 4 2_655 100.34(5)
Ni1 Al4 Al5 14_556 2_655 111.02(5)
Ni1 Al4 Al5 15_556 2_655 155.58(7)
Al4 Al4 Al5 14_556 2_655 57.97(7)
Al4 Al4 Al5 15_556 2_655 108.01(9)
Al5 Al4 Al5 13_666 2_655 141.91(7)
Al5 Al4 Al5 14_556 2_655 85.95(3)
Al4 Al4 Al5 16_557 2_655 142.74(3)
Fe2 Al4 Al5 . . 104.03(5)
Ni1 Al4 Al5 . . 51.44(4)
Al3 Al4 Al5 4 . 100.34(5)
Ni1 Al4 Al5 14_556 . 155.58(7)
Ni1 Al4 Al5 15_556 . 111.02(5)
Al4 Al4 Al5 14_556 . 108.01(9)
Al4 Al4 Al5 15_556 . 57.97(7)
Al5 Al4 Al5 13_666 . 85.95(3)
Al5 Al4 Al5 14_556 . 141.91(7)
Al4 Al4 Al5 16_557 . 142.74(3)
Al5 Al4 Al5 2_655 . 61.77(8)
Ni1 Al5 Ni1 3_665 . 162.00(12)
Ni1 Al5 Fe2 3_665 13_666 99.00(6)
Ni1 Al5 Fe2 . 13_666 99.00(6)
Ni1 Al5 Al4 3_665 13_666 62.41(4)
Ni1 Al5 Al4 . 13_666 131.46(7)
Fe2 Al5 Al4 13_666 13_666 50.52(5)
Ni1 Al5 Al4 3_665 6_554 131.46(7)
Ni1 Al5 Al4 . 6_554 62.41(4)
Fe2 Al5 Al4 13_666 6_554 50.52(5)
Al4 Al5 Al4 13_666 6_554 101.04(10)
Ni1 Al5 Al4 3_665 4_664 62.41(4)
Ni1 Al5 Al4 . 4_664 131.46(7)
Fe2 Al5 Al4 13_666 4_664 50.52(5)
Al4 Al5 Al4 13_666 4_664 62.77(7)
Al4 Al5 Al4 6_554 4_664 69.46(8)
Ni1 Al5 Al4 3_665 15_556 131.46(7)
Ni1 Al5 Al4 . 15_556 62.41(4)
Fe2 Al5 Al4 13_666 15_556 50.52(5)
Al4 Al5 Al4 13_666 15_556 69.46(8)
Al4 Al5 Al4 6_554 15_556 62.77(7)
Al4 Al5 Al4 4_664 15_556 101.04(10)
Ni1 Al5 Al4 3_665 3_665 55.08(3)
Ni1 Al5 Al4 . 3_665 118.92(5)
Fe2 Al5 Al4 13_666 3_665 106.50(5)
Al4 Al5 Al4 13_666 3_665 57.42(5)
Al4 Al5 Al4 6_554 3_665 154.12(8)
Al4 Al5 Al4 4_664 3_665 106.89(6)
Al4 Al5 Al4 15_556 3_665 94.05(3)
Ni1 Al5 Al4 3_665 16_556 118.92(5)
Ni1 Al5 Al4 . 16_556 55.08(3)
Fe2 Al5 Al4 13_666 16_556 106.50(5)
Al4 Al5 Al4 13_666 16_556 154.12(8)
Al4 Al5 Al4 6_554 16_556 57.42(5)
Al4 Al5 Al4 4_664 16_556 94.05(3)
Al4 Al5 Al4 15_556 16_556 106.89(6)
Al4 Al5 Al4 3_665 16_556 146.99(10)
Ni1 Al5 Al4 3_665 18_666 55.08(3)
Ni1 Al5 Al4 . 18_666 118.92(5)
Fe2 Al5 Al4 13_666 18_666 106.50(5)
Al4 Al5 Al4 13_666 18_666 106.89(6)
Al4 Al5 Al4 6_554 18_666 94.05(3)
Al4 Al5 Al4 4_664 18_666 57.42(5)
Al4 Al5 Al4 15_556 18_666 154.12(8)
Al4 Al5 Al4 3_665 18_666 105.49(6)
Al4 Al5 Al4 16_556 18_666 64.63(6)
Ni1 Al5 Al4 3_665 . 118.92(5)
Ni1 Al5 Al4 . . 55.08(3)
Fe2 Al5 Al4 13_666 . 106.50(5)
Al4 Al5 Al4 13_666 . 94.05(3)
Al4 Al5 Al4 6_554 . 106.89(6)
Al4 Al5 Al4 4_664 . 154.12(8)
Al4 Al5 Al4 15_556 . 57.42(5)
Al4 Al5 Al4 3_665 . 64.63(6)
Al4 Al5 Al4 16_556 . 105.49(6)
Al4 Al5 Al4 18_666 . 146.99(10)
loop_
_geom_bond_atom_site_label_1
_geom_bond_atom_site_label_2
_geom_bond_site_symmetry_2
_geom_bond_distance
Ni1 Al5 . 2.4199(10)
Ni1 Al5 2_655 2.4199(10)
Ni1 Al4 . 2.5374(18)
Ni1 Al4 16_556 2.5374(18)
Ni1 Al3 . 2.5436(8)
Ni1 Al3 4 2.5436(8)
Ni1 Al4 5_554 2.7141(15)
Ni1 Al4 15_556 2.7141(15)
Ni1 Al4 14_556 2.7141(15)
Ni1 Al4 6_554 2.7141(15)
Ni1 Ni1 3 2.918(2)
Ni1 Ni1 2 2.918(2)
Fe2 Al4 17_657 2.3360(17)
Fe2 Al4 2_655 2.3360(17)
Fe2 Al4 . 2.3360(17)
Fe2 Al4 18_667 2.3360(17)
Fe2 Al4 16_557 2.3360(17)
Fe2 Al4 3_665 2.3360(17)
Fe2 Al5 14_556 2.686(2)
Fe2 Al5 15_656 2.686(2)
Fe2 Al5 13_666 2.686(2)
Al3 Ni1 13 2.5436(8)
Al3 Ni1 14 2.5436(8)
Al3 Ni1 2 2.5436(8)
Al3 Ni1 15 2.5436(8)
Al3 Ni1 3 2.5436(8)
Al3 Al4 18_556 2.6525(17)
Al3 Al4 6_554 2.6525(17)
Al3 Al4 4_554 2.6525(17)
Al3 Al4 16_556 2.6525(17)
Al3 Al4 5_554 2.6525(17)
Al3 Al4 17_556 2.6525(17)
Al4 Al3 4 2.6525(17)
Al4 Ni1 14_556 2.7141(15)
Al4 Ni1 15_556 2.7141(15)
Al4 Al4 14_556 2.767(2)
Al4 Al4 15_556 2.7674(19)
Al4 Al5 13_666 2.7842(17)
Al4 Al5 14_556 2.7842(17)
Al4 Al4 16_557 2.900(4)
Al4 Al5 2_655 2.9669(16)
Al4 Al5 . 2.9669(16)
Al5 Ni1 3_665 2.4199(10)
Al5 Fe2 13_666 2.686(2)
Al5 Al4 13_666 2.7842(17)
Al5 Al4 6_554 2.7842(17)
Al5 Al4 4_664 2.7842(17)
Al5 Al4 15_556 2.7842(17)
Al5 Al4 3_665 2.9669(16)
Al5 Al4 16_556 2.9669(16)
Al5 Al4 18_666 2.9669(16)

_cod_database_fobs_code 1548931
