#------------------------------------------------------------------------------
#$Date: 2018-01-13 08:33:34 +0200 (Sat, 13 Jan 2018) $
#$Revision: 205184 $
#$URL: file:///home/coder/svn-repositories/cod/cif/1/54/86/1548676.cif $
#------------------------------------------------------------------------------
#
# This file is available in the Crystallography Open Database (COD),
# http://www.crystallography.net/. The original data for this entry
# were provided by IUCr Journals, http://journals.iucr.org/.
#
# The file may be used within the scientific community so long as
# proper attribution is given to the journal article from which the
# data were obtained.
#
data_1548676
loop_
_publ_author_name
'Noland, Wayland E.'
'Tritch, Kenneth J.'
_publ_section_title
;
 2,6-Dibromo-4-chlorophenyl isocyanide
;
_journal_coeditor_code           SJ4150
_journal_issue                   1
_journal_name_full               IUCrData
_journal_page_first              x171819
_journal_paper_doi               10.1107/S2414314617018193
_journal_volume                  3
_journal_year                    2018
_chemical_formula_iupac          'C7 H2 Br2 Cl N'
_chemical_formula_moiety         'C7 H2 Br2 Cl N'
_chemical_formula_sum            'C7 H2 Br2 Cl N'
_chemical_formula_weight         295.37
_chemical_melting_point          377
_chemical_name_common            RNC
_chemical_name_systematic
;
2,6-Dibromo-4-chlorophenyl isocyanide
;
_space_group_crystal_system      monoclinic
_space_group_IT_number           11
_space_group_name_Hall           '-P 2yb'
_space_group_name_H-M_alt        'P 1 21/m 1'
_symmetry_space_group_name_Hall  '-P 2yb'
_symmetry_space_group_name_H-M   'P 1 21/m 1'
_atom_sites_solution_hydrogens   geom
_audit_creation_method           SHELXL-2014/6
_cell_angle_alpha                90
_cell_angle_beta                 93.023(4)
_cell_angle_gamma                90
_cell_formula_units_Z            2
_cell_length_a                   4.7215(4)
_cell_length_b                   10.0181(9)
_cell_length_c                   8.7689(8)
_cell_measurement_reflns_used    2922
_cell_measurement_temperature    100(2)
_cell_measurement_theta_max      30.54
_cell_measurement_theta_min      2.33
_cell_volume                     414.20(6)
_computing_cell_refinement
;
SAINT (Bruker, 2012)
;
_computing_data_collection
;
APEX3 (Bruker, 2012)
;
_computing_data_reduction
;
SAINT (Bruker, 2012)
;
_computing_molecular_graphics
;
Mercury (Macrae <i>et al.</i>, 2008)
;
_computing_publication_material
;
publCIF (Westrip, 2010)
;
_computing_structure_refinement
;
SHELXL2014 (Sheldrick, 2015b)
;
_computing_structure_solution
;
SHELXT2014 (Sheldrick, 2015a)
;
_diffrn_ambient_temperature      100(2)
_diffrn_measured_fraction_theta_full 1.000
_diffrn_measured_fraction_theta_max 0.999
_diffrn_measurement_device_type  'Bruker VENTURE PHOTON-II'
_diffrn_measurement_method       '\f and \w scans'
_diffrn_radiation_type           MoK\a
_diffrn_radiation_wavelength     0.71073
_diffrn_reflns_av_R_equivalents  0.0372
_diffrn_reflns_limit_h_max       5
_diffrn_reflns_limit_h_min       -6
_diffrn_reflns_limit_k_max       14
_diffrn_reflns_limit_k_min       -14
_diffrn_reflns_limit_l_max       12
_diffrn_reflns_limit_l_min       -12
_diffrn_reflns_number            7071
_diffrn_reflns_theta_full        25.242
_diffrn_reflns_theta_max         30.543
_diffrn_reflns_theta_min         2.326
_exptl_absorpt_coefficient_mu    10.034
_exptl_absorpt_correction_T_max  0.1561
_exptl_absorpt_correction_T_min  0.0566
_exptl_absorpt_correction_type   multi-scan
_exptl_absorpt_process_details
;
(SADABS; Sheldrick, 1996)
;
_exptl_crystal_colour            colourless
_exptl_crystal_density_diffrn    2.368
_exptl_crystal_description       Needle
_exptl_crystal_F_000             276
_exptl_crystal_size_max          0.200
_exptl_crystal_size_mid          0.200
_exptl_crystal_size_min          0.120
_refine_diff_density_max         0.511
_refine_diff_density_min         -0.903
_refine_ls_extinction_method     none
_refine_ls_goodness_of_fit_ref   1.083
_refine_ls_hydrogen_treatment    constr
_refine_ls_matrix_type           full
_refine_ls_number_parameters     58
_refine_ls_number_reflns         1334
_refine_ls_number_restraints     0
_refine_ls_restrained_S_all      1.083
_refine_ls_R_factor_all          0.0233
_refine_ls_R_factor_gt           0.0206
_refine_ls_shift/su_max          0.001
_refine_ls_shift/su_mean         0.000
_refine_ls_structure_factor_coef Fsqd
_refine_ls_weighting_details
'w=1/[\s^2^(Fo^2^)+(0.0194P)^2^+0.2636P] where P=(Fo^2^+2Fc^2^)/3'
_refine_ls_weighting_scheme      calc
_refine_ls_wR_factor_gt          0.0484
_refine_ls_wR_factor_ref         0.0500
_reflns_number_gt                1239
_reflns_number_total             1334
_reflns_threshold_expression     'I > 2\s(I)'
_cod_data_source_file            sj4150sup1.cif
_cod_data_source_block           I
_cod_database_code               1548676
_shelx_space_group_comment
;
The symmetry employed for this shelxl refinement is uniquely defined
by the following loop, which should always be used as a source of
symmetry information in preference to the above space-group names.
They are only intended as comments.
;
_shelx_estimated_absorpt_t_min   0.239
_shelx_estimated_absorpt_t_max   0.379
_shelx_hkl_file
;
   1   0   0   83.07    4.81
   1   0   0   88.84    4.94
  -1   0   0   84.25    4.84
   1   0   0   79.24    4.76
   2   0   0   26.08    1.26
  -3   0   0  102.04    4.77
   3   0   0  105.96    4.83
  -3   0   0  100.58    4.83
  -3   0   0  105.62    4.83
  -4   0   0   55.47    2.59
  -4   0   0   54.99    2.59
  -4   0   0   51.15    2.51
  -5   0   0    8.32    0.57
  -6   0   0   20.74    1.13
  -6   0   0   19.56    1.25
   0  -1   0   -0.01    0.00
   0  -1   0    0.00    0.00
  -1  -1   0    3.15    0.19
  -1  -1   0    3.34    0.19
   1   1   0    3.03    0.19
   1   1   0    3.47    0.16
   1   1   0    3.43    0.20
  -1   1   0    3.23    0.18
  -2  -1   0   37.43    1.84
  -2  -1   0   37.82    1.84
  -2   1   0   39.63    1.84
   2   1   0   41.29    1.85
  -2   1   0   37.87    1.81
  -3  -1   0   10.69    0.63
  -3  -1   0   11.12    0.63
  -3   1   0   12.06    0.63
  -3   1   0   11.94    0.59
   3   1   0   12.09    0.63
  -4  -1   0    0.58    0.15
  -4  -1   0    0.70    0.17
  -4   1   0    0.90    0.18
  -4   1   0    0.73    0.16
  -4   1   0    0.75    0.12
  -5  -1   0    1.66    0.26
  -5   1   0    1.55    0.32
  -5   1   0    1.55    0.24
  -5   1   0    1.30    0.15
  -6  -1   0    0.28    0.21
  -6  -1   0    0.35    0.29
  -6   1   0    0.34    0.28
  -6   1   0    0.20    0.22
   0  -2   0   54.08    4.11
   0  -2   0   52.08    3.96
   0   2   0   52.20    4.03
   1  -2   0  201.83   10.33
   1  -2   0  203.14   10.31
  -1  -2   0  209.70   12.23
  -1  -2   0  205.22   12.35
  -1   2   0  196.07   10.34
  -1   2   0  208.21   10.36
   1   2   0  215.55   12.53
  -2  -2   0   41.96    1.94
  -2  -2   0   40.46    1.93
  -2   2   0   39.65    1.94
  -2   2   0   40.98    1.92
   2   2   0   43.06    1.87
  -2   2   0   37.24    1.93
   2   2   0   41.64    1.94
  -2   2   0   40.40    1.92
  -3  -2   0  146.99    6.96
  -3  -2   0  148.78    6.96
  -3   2   0  154.11    6.95
   3   2   0  150.13    6.97
  -4  -2   0   20.59    1.08
  -4   2   0   20.45    1.03
  -4   2   0   21.82    1.08
  -4   2   0   20.00    1.14
  -5  -2   0    0.10    0.17
  -5   2   0    0.44    0.25
  -5   2   0    0.13    0.16
  -5   2   0    0.25    0.21
  -5   2   0    0.63    0.14
  -6  -2   0   21.49    1.20
  -6   2   0   22.26    1.31
  -6   2   0   19.23    1.19
  -6   2   0   23.34    1.19
   0  -3   0    0.01    0.04
   0  -3   0    0.06    0.04
   0  -3   0    0.05    0.03
   0   3   0    0.00    0.03
   0   3   0    0.02    0.03
   0   3   0    0.04    0.04
  -1  -3   0  179.74   11.59
   1  -3   0  164.12    9.72
  -1  -3   0  180.57   11.78
   1   3   0  168.63   11.47
   1   3   0  175.52   11.80
  -1   3   0  173.07    9.94
  -1   3   0  185.04   10.03
  -2  -3   0   40.84    1.95
  -2  -3   0   40.34    1.95
  -2   3   0   40.90    1.94
   2   3   0   39.01    1.95
   2   3   0   42.61    1.89
   2   3   0   41.31    1.97
  -2   3   0   40.13    1.93
  -2   3   0   40.59    1.94
  -3  -3   0   15.47    0.83
  -3  -3   0   15.93    0.83
  -3   3   0   15.68    0.85
  -3   3   0   15.96    0.81
  -3   3   0   16.54    0.82
  -3   3   0   14.81    0.82
   3   3   0   15.33    0.83
  -4  -3   0   24.88    1.26
  -4   3   0   23.29    1.29
  -4   3   0   24.56    1.21
  -4   3   0   25.14    1.24
  -4   3   0   23.18    1.25
  -5  -3   0   13.97    0.82
  -5   3   0   13.34    0.80
  -5   3   0   13.55    0.81
  -5   3   0   14.46    0.90
  -6  -3   0    0.31    0.24
  -6   3   0    0.53    0.23
  -6   3   0    0.31    0.31
  -6   3   0    0.30    0.21
   0  -4   0  240.58   14.98
   0   4   0  245.28   14.99
   0   4   0  248.46   15.19
   1  -4   0    0.67    0.08
  -1  -4   0    0.73    0.12
   1  -4   0    0.65    0.11
  -1  -4   0    0.61    0.12
  -1  -4   0    0.73    0.11
  -1   4   0    0.67    0.09
   1   4   0    0.66    0.12
   1   4   0    0.68    0.11
  -1   4   0    0.68    0.08
  -2  -4   0    9.21    0.54
  -2  -4   0   10.11    0.54
  -2   4   0    9.59    0.53
   2   4   0   10.30    0.57
  -2   4   0    9.62    0.51
   2   4   0    8.42    0.53
  -2   4   0   10.13    0.53
  -3  -4   0   45.70    2.34
  -3  -4   0   45.39    2.29
  -3   4   0   48.40    2.27
  -3   4   0   48.55    2.31
  -3   4   0   49.01    2.28
  -3   4   0   48.24    2.28
  -4  -4   0   57.85    2.79
  -4   4   0   56.82    2.76
  -4   4   0   58.09    2.82
  -4   4   0   57.73    2.76
  -4   4   0   57.90    2.76
  -5  -4   0   -0.02    0.18
  -5   4   0    0.08    0.16
  -5   4   0    0.21    0.14
  -5   4   0    0.13    0.18
  -5   4   0    0.53    0.26
  -6  -4   0    4.94    0.47
  -6   4   0    4.65    0.38
  -6   4   0    4.77    0.52
  -6   4   0    4.78    0.42
  -6   4   0    4.81    0.44
   0  -5   0    0.05    0.07
   0  -5   0    0.09    0.07
   0  -5   0    0.11    0.06
   0   5   0    0.01    0.07
   0   5   0    0.02    0.06
  -1  -5   0   48.47    2.33
   1  -5   0   47.44    2.29
  -1  -5   0   51.24    2.32
   1  -5   0   51.91    2.34
  -1  -5   0   47.31    2.34
   1   5   0   48.21    2.33
   1   5   0   48.13    2.34
  -1   5   0   49.17    2.31
  -1   5   0   49.69    2.28
  -1   5   0   48.97    2.31
  -2  -5   0  139.63    5.94
  -2  -5   0  125.80    6.01
  -2  -5   0  136.92    5.92
   2  -5   0  107.92    5.94
  -2   5   0  112.20    5.89
   2   5   0  135.53    5.93
  -2   5   0  132.93    5.91
  -3  -5   0    0.25    0.14
   3   5   0    0.28    0.07
  -3   5   0    0.08    0.12
   3   5   0    0.18    0.06
  -3   5   0    0.34    0.14
  -3   5   0    0.20    0.11
   3   5   0    0.31    0.17
  -4  -5   0   12.65    0.75
  -4   5   0   12.95    0.74
  -4   5   0   13.39    0.80
  -4   5   0   13.23    0.73
  -4   5   0   14.10    0.76
  -5  -5   0   35.35    1.82
  -5   5   0   36.41    1.77
  -5   5   0   35.45    1.86
  -5   5   0   35.07    1.78
  -6  -5   0    6.84    0.64
  -6   5   0    6.87    0.64
  -6   5   0    7.05    0.51
  -6   5   0    6.97    0.50
  -6   5   0    6.70    0.52
   0  -6   0    1.38    0.16
   0  -6   0    1.23    0.15
   0  -6   0    1.52    0.16
   0   6   0    1.42    0.15
   0   6   0    1.44    0.18
  -1  -6   0   30.32    1.56
   1  -6   0   33.44    1.58
  -1  -6   0   32.53    1.55
   1  -6   0   31.99    1.51
  -1  -6   0   31.47    1.57
  -1   6   0   31.56    1.57
   1   6   0   30.41    1.58
   1   6   0   32.05    1.56
  -1   6   0   33.27    1.54
  -1   6   0   32.46    1.55
  -1   6   0   31.71    1.50
  -2  -6   0    5.25    0.40
  -2  -6   0    5.08    0.36
   2  -6   0    4.79    0.41
  -2   6   0    5.07    0.31
  -2   6   0    5.48    0.34
   2   6   0    5.35    0.39
   2   6   0    5.65    0.33
  -2   6   0    5.36    0.34
  -2   6   0    5.60    0.38
  -3  -6   0   16.69    0.89
   3   6   0   17.28    0.81
  -3   6   0   16.95    0.90
  -3   6   0   14.53    0.87
   3   6   0   16.97    0.82
  -3   6   0   16.37    0.88
   3   6   0   15.80    0.94
  -4   6   0    0.07    0.15
  -4   6   0    0.00    0.14
  -4   6   0    0.22    0.15
  -5  -6   0    0.21    0.20
  -5   6   0    0.28    0.16
  -5   6   0    0.21    0.19
  -5   6   0    0.02    0.17
  -5   6   0    0.36    0.23
  -6  -6   0    3.54    0.43
  -6   6   0    2.47    0.32
  -6   6   0    2.62    0.34
  -6   6   0    3.19    0.34
   0  -7   0    0.06    0.10
   0  -7   0    0.16    0.10
   0  -7   0   -0.02    0.09
   0   7   0    0.02    0.10
   0   7   0   -0.01    0.10
  -1  -7   0  139.16    6.14
  -1  -7   0  127.17    6.08
   1  -7   0  125.78    6.02
  -1  -7   0  129.70    6.06
   1   7   0  127.87    6.07
  -1   7   0  130.22    6.05
  -1   7   0  131.98    6.09
   1   7   0  131.33    6.09
  -2  -7   0   66.08    3.32
   2  -7   0   61.08    3.34
  -2  -7   0   69.69    3.29
  -2   7   0   70.82    3.21
  -2   7   0   71.63    3.27
  -2   7   0   70.62    3.31
   2   7   0   71.05    3.26
  -2   7   0   69.57    3.26
   2   7   0   71.50    3.33
  -3  -7   0   22.08    1.12
  -3   7   0   20.40    1.09
  -3   7   0   22.14    1.14
  -3   7   0   21.27    1.07
   3   7   0   20.23    1.04
   3   7   0   20.17    1.16
   3   7   0   21.79    1.04
  -4  -7   0   29.76    1.55
  -4   7   0   31.45    1.57
  -4   7   0   29.73    1.52
  -4   7   0   27.73    1.52
  -4   7   0   31.75    1.50
  -5  -7   0   33.55    1.69
  -5   7   0   33.90    1.68
  -5   7   0   31.00    1.64
  -5   7   0   31.67    1.70
   0  -8   0   28.85    1.43
   0  -8   0   29.58    1.45
   0   8   0   29.16    1.45
   0   8   0   28.15    1.43
   0   8   0   28.72    1.46
  -1  -8   0    3.55    0.30
   1  -8   0    3.62    0.24
   1  -8   0    3.58    0.34
  -1  -8   0    3.49    0.29
   1   8   0    3.20    0.28
  -1   8   0    3.71    0.30
  -1   8   0    3.80    0.29
  -1   8   0    3.30    0.27
   1   8   0    3.25    0.32
  -2  -8   0    0.56    0.17
   2  -8   0    0.56    0.22
  -2   8   0    0.51    0.19
  -2   8   0    0.69    0.15
   2   8   0    0.70    0.16
  -2   8   0    0.38    0.14
   2   8   0    0.80    0.19
  -3  -8   0    3.29    0.33
  -3   8   0    3.50    0.30
  -3   8   0    3.85    0.37
   3   8   0    3.25    0.27
   3   8   0    3.44    0.27
   3   8   0    3.77    0.40
  -3   8   0    3.57    0.23
  -4  -8   0    0.28    0.20
   4   8   0    0.28    0.08
  -4   8   0    0.46    0.17
  -4   8   0    0.38    0.14
  -4   8   0    0.01    0.21
  -4   8   0    0.16    0.18
  -5  -8   0    2.57    0.57
  -5   8   0    2.21    0.33
  -5   8   0    2.16    0.28
  -5   8   0    2.64    0.28
  -5   8   0    1.97    0.29
   0  -9   0    0.32    0.15
   0  -9   0   -0.02    0.15
   0   9   0   -0.15    0.13
   0   9   0    0.03    0.14
  -1  -9   0   52.72    2.63
  -1  -9   0   52.51    2.61
   1  -9   0   55.16    2.55
   1   9   0   54.27    2.66
  -1   9   0   54.88    2.66
   1   9   0   57.64    2.63
  -1   9   0   53.26    2.62
  -2  -9   0   95.12    4.51
  -2   9   0   95.72    4.49
   2   9   0   96.35    4.49
  -2   9   0   96.72    4.55
   2   9   0   93.15    4.56
  -3  -9   0    0.50    0.20
   3   9   0    0.43    0.15
  -3   9   0    0.50    0.15
   3   9   0    0.82    0.26
  -3   9   0    0.47    0.22
   3   9   0    0.68    0.16
  -4  -9   0   14.22    0.88
  -4   9   0   15.96    0.92
  -4   9   0   14.39    0.86
  -4   9   0   14.47    0.73
  -4   9   0   15.66    0.83
  -5  -9   0   18.21    1.08
  -5   9   0   17.54    1.03
  -5   9   0   20.07    1.10
  -5   9   0   18.89    1.00
   0 -10   0   72.55    3.50
   0  10   0   74.01    3.52
   0  10   0   72.94    3.52
  -1 -10   0    1.41    0.25
   1 -10   0    1.10    0.13
  -1 -10   0    1.15    0.23
   1  10   0    1.15    0.26
  -1  10   0    1.09    0.24
   1  10   0    1.15    0.22
  -1  10   0    1.17    0.22
  -2 -10   0    0.47    0.19
   2  10   0    0.44    0.22
   2  10   0    0.65    0.19
  -2  10   0    0.45    0.21
  -2  10   0    0.72    0.19
  -3 -10   0    5.71    0.49
   3  10   0    6.48    0.44
   3  10   0    6.31    0.56
  -3  10   0    6.70    0.54
  -3  10   0    7.16    0.47
  -4 -10   0   10.21    0.66
  -4  10   0   10.48    0.70
   4  10   0    8.76    0.52
  -4  10   0    9.27    0.60
   0 -11   0    0.17    0.19
   0 -11   0    0.05    0.21
   0  11   0    0.05    0.18
  -1 -11   0   42.59    2.25
   1 -11   0   43.71    2.08
   1  11   0   43.16    2.25
  -1  11   0   46.56    2.26
  -1  11   0   46.54    2.23
   1  11   0   45.61    2.23
  -2 -11   0   18.59    1.07
   2  11   0   20.07    1.14
   2  11   0   19.53    1.07
  -2  11   0   20.70    1.14
  -2  11   0   19.15    1.07
  -3 -11   0    4.13    0.40
  -3  11   0    3.45    0.45
   3  11   0    4.38    0.47
  -3  11   0    4.67    0.43
   3  11   0    3.63    0.34
  -4 -11   0   12.60    0.80
  -4  11   0   12.74    0.73
  -4  11   0   11.55    0.83
   0 -12   0   23.75    1.25
   0  12   0   21.29    1.23
   0  12   0   22.46    1.25
  -1 -12   0   30.56    1.59
  -1  12   0   31.32    1.60
   1  12   0   30.46    1.64
  -1  12   0   30.76    1.63
   1  12   0   30.18    1.61
  -2 -12   0    4.32    0.42
  -2  12   0    4.35    0.40
   2  12   0    4.12    0.41
  -2  12   0    3.99    0.46
   2  12   0    5.33    0.50
  -3  12   0   22.63    1.13
   3  12   0   20.45    1.10
  -3  12   0   18.43    1.20
   3  12   0   19.76    1.22
   0 -13   0    0.16    0.22
   0  13   0   -0.05    0.20
   0  13   0    0.02    0.23
  -1 -13   0    0.94    0.26
   1  13   0    0.76    0.29
  -1  13   0    0.64    0.26
   1  13   0    0.60    0.25
  -1  13   0    0.88    0.25
  -2 -13   0    6.26    0.53
   2  13   0    6.11    0.58
  -2  13   0    6.94    0.54
  -2  13   0    7.47    0.60
   2  13   0    7.38    0.55
   0  14   0   52.33    2.65
  -1  14   0    2.88    0.42
  -1  14   0    3.89    0.44
   1  14   0    2.95    0.45
  -6   0   1   36.62    1.85
  -6   0   1   36.06    2.00
  -5   0   1   26.62    1.52
  -5   0   1   27.81    1.40
  -4   0   1   12.80    0.60
   4   0  -1   12.37    0.71
  -4   0   1   12.21    0.60
  -4   0   1   13.44    0.70
  -4   0   1   13.06    0.80
  -3   0   1   70.52    3.28
  -3   0   1   71.43    3.33
   3   0  -1   71.37    3.34
  -3   0   1   70.70    3.27
   2   0  -1  260.78   14.42
  -2   0   1  262.68   14.39
   2   0  -1  264.84   14.27
  -1   0   1   56.39    2.54
   1   0  -1   55.31    2.54
  -1   0   1   52.98    2.54
  -1   0   1   55.43    2.58
   0   0   1    4.54    0.22
   0   0  -1    3.22    0.23
   0   0   1    4.25    0.21
  -1   0  -1  342.27   17.22
   1   0   1  329.36   17.12
   2   0   1  211.86   12.32
  -2   0  -1  215.21   12.53
   2   0   1  230.39   13.80
  -3   0  -1    5.74    0.34
  -3   0  -1    5.60    0.33
  -4   0  -1   37.51    1.81
  -4   0  -1   37.31    1.78
  -4   0  -1   34.56    1.73
  -5   0  -1   84.94    4.06
  -6   0  -1    0.22    0.23
  -6  -1   1    0.24    0.20
  -6  -1   1    0.28    0.30
  -6   1   1    0.16    0.20
  -6   1   1    0.17    0.26
  -5  -1   1   -0.14    0.24
  -5  -1   1    0.11    0.16
  -5   1   1    0.23    0.18
  -5   1   1    0.21    0.07
  -5   1   1    0.19    0.25
  -5   1   1    0.22    0.06
  -4  -1   1   25.29    1.25
  -4   1   1   24.03    1.18
  -4   1   1   24.44    1.23
  -4   1   1   24.43    1.33
  -3  -1   1   -0.03    0.09
  -3  -1   1    0.09    0.09
   3   1  -1    0.11    0.09
  -3   1   1    0.10    0.06
  -3   1   1    0.24    0.10
  -3   1   1    0.00    0.11
  -2   1   1    2.07    0.20
   2   1  -1    2.68    0.18
  -2   1   1    2.19    0.16
  -1  -1   1   11.54    0.56
  -1  -1   1   11.87    0.55
   1  -1  -1   11.14    0.58
  -1   1   1   11.41    0.54
  -1   1   1   11.63    0.59
   1   1  -1   11.93    0.56
   1   1  -1   11.09    0.55
   0  -1   1    3.15    0.17
   0  -1   1    3.02    0.16
   0  -1  -1    2.96    0.17
   0  -1  -1    2.92    0.15
   0  -1   1    2.89    0.17
   0  -1  -1    3.03    0.18
   0  -1   1    3.42    0.16
   0  -1  -1    2.99    0.17
   0   1  -1    2.88    0.17
   0   1  -1    3.27    0.18
   0   1   1    3.18    0.18
   0   1  -1    2.90    0.16
   0   1   1    3.26    0.17
   0   1   1    3.25    0.21
   0   1   1    3.02    0.15
  -1  -1  -1    2.44    0.14
  -1  -1  -1    2.39    0.16
  -1  -1  -1    2.30    0.15
   1  -1   1    2.25    0.15
  -1  -1  -1    2.36    0.14
  -1   1  -1    2.01    0.14
   1   1   1    2.26    0.14
  -1   1  -1    2.20    0.14
   1   1   1    2.15    0.14
   1   1   1    2.33    0.15
  -2  -1  -1    0.25    0.06
  -2  -1  -1    0.25    0.09
  -2  -1  -1    0.40    0.08
   2   1   1    0.31    0.08
  -2   1  -1    0.18    0.06
   2   1   1    0.26    0.06
  -2   1  -1    0.36    0.10
  -3  -1  -1   40.94    1.95
  -3  -1  -1   39.89    1.97
  -3  -1  -1   41.64    1.91
  -3   1  -1   37.62    1.93
  -3   1  -1   40.26    1.94
   3   1   1   40.79    1.97
  -3   1  -1   42.30    1.98
   3   1   1   42.63    1.90
  -4  -1  -1    0.24    0.11
  -4  -1  -1    0.18    0.14
  -4   1  -1    0.44    0.12
  -4   1  -1    0.40    0.16
  -4   1  -1    0.38    0.12
  -5  -1  -1    0.93    0.25
  -5   1  -1    1.07    0.24
  -6  -1  -1    0.29    0.21
  -6   1  -1    0.19    0.26
  -6   1  -1    0.50    0.23
  -6  -2   1    2.96    0.47
  -6  -2   1    3.17    0.36
  -6   2   1    2.79    0.45
  -6   2   1    3.28    0.33
  -6   2   1    2.15    0.36
  -5  -2   1   69.42    3.16
  -5   2   1   66.86    3.14
  -5   2   1   58.83    3.19
  -5   2   1   67.00    3.26
  -5   2   1   64.24    3.08
  -5   2   1   66.54    3.07
  -4  -2   1    5.38    0.39
  -4   2   1    5.83    0.46
  -4   2   1    5.56    0.38
  -4   2   1    6.07    0.35
  -3  -2   1   29.82    1.56
  -3   2   1   32.35    1.52
  -3   2   1   31.53    1.51
  -3   2   1   31.89    1.59
  -2  -2   1  135.43    6.15
  -2   2   1  118.34    6.17
   2   2  -1  140.70    6.16
  -2   2   1  137.46    6.13
   1  -2  -1  124.52    7.44
  -1  -2   1  134.48    8.82
   1  -2  -1  126.74    7.33
  -1  -2   1  135.65    9.16
   1   2  -1  134.11    8.95
  -1   2   1  130.34    7.49
  -1   2   1  131.08    7.46
   0  -2  -1   73.17    5.34
   0  -2   1   71.51    5.27
   0  -2   1   74.22    5.47
   0  -2  -1   69.83    5.23
   0   2  -1   69.49    5.26
   0   2  -1   69.70    5.27
   0   2   1   71.63    5.24
   1  -2   1  202.54   11.00
   1  -2   1  192.91   11.37
  -1  -2  -1  203.53   12.24
  -1   2  -1  195.87   11.41
  -1   2  -1  180.05   10.79
   1   2   1  213.42   12.47
   1   2   1  203.67   12.14
  -2  -2  -1   75.78    3.48
  -2  -2  -1   77.94    3.48
  -2   2  -1   71.16    3.45
   2   2   1   70.00    3.45
   2   2   1   77.25    3.50
   2   2   1   74.53    3.48
  -3  -2  -1    0.15    0.09
  -3  -2  -1    0.30    0.10
  -3   2  -1    0.05    0.08
  -3   2  -1    0.02    0.10
   3   2   1    0.17    0.10
   3   2   1    0.14    0.04
  -4  -2  -1  108.33    5.06
  -4   2  -1  110.44    5.05
  -4   2  -1  102.50    5.00
  -4   2  -1  108.06    5.01
  -5  -2  -1   12.37    0.76
  -5   2  -1   11.75    0.73
  -5   2  -1   13.44    0.76
  -5   2  -1   12.37    0.70
  -6  -2  -1    0.66    0.24
  -6   2  -1    0.89    0.24
  -6   2  -1    1.02    0.26
  -6   2  -1    0.95    0.33
  -6  -3   1    0.73    0.34
  -6  -3   1    0.99    0.25
  -6   3   1    0.87    0.29
  -6   3   1    1.14    0.34
  -6   3   1    0.88    0.23
  -5   3   1   13.97    0.78
  -5   3   1   13.81    0.89
  -5   3   1   13.71    0.74
  -5   3   1   13.52    0.83
  -4  -3   1   13.05    0.75
  -4   3   1   13.51    0.73
  -4   3   1   13.12    0.79
  -4   3   1   14.67    0.83
  -4   3   1   13.21    0.72
  -3  -3   1   56.51    2.84
  -3  -3   1   59.80    2.81
  -3   3   1   58.33    2.85
  -3   3   1   60.61    2.80
   3   3  -1   60.07    2.83
  -3   3   1   57.71    2.84
  -3   3   1   61.61    2.79
  -2  -3   1    0.01    0.06
  -2  -3   1    0.19    0.08
   2   3  -1    0.08    0.05
  -2   3   1    0.06    0.06
   2   3  -1    0.07    0.07
  -2   3   1    0.13    0.09
   1  -3  -1   53.71    2.56
  -1  -3   1   55.24    2.56
   1  -3  -1   52.36    2.55
   1   3  -1   55.15    2.52
  -1   3   1   55.00    2.51
   1   3  -1   55.29    2.54
  -1   3   1   53.05    2.54
   0  -3   1   65.43    3.00
   0  -3   1   62.58    3.00
   0   3  -1   65.53    3.00
   1  -3   1   13.47    0.64
  -1  -3  -1   12.52    0.67
  -1  -3  -1   13.17    0.66
   1   3   1   12.65    0.65
  -1   3  -1   13.29    0.63
   1   3   1   12.47    0.64
  -1   3  -1   13.29    0.61
  -1   3  -1   12.89    0.61
  -2  -3  -1   67.53    3.06
  -2  -3  -1   61.49    3.09
  -2  -3  -1   64.65    3.06
  -2   3  -1   64.88    3.02
   2   3   1   66.42    3.03
   2   3   1   64.22    3.06
  -2   3  -1   66.12    3.06
   2   3   1   65.29    3.08
  -3  -3  -1   31.59    1.56
  -3  -3  -1   30.67    1.55
   3   3   1   32.20    1.48
  -3   3  -1   30.84    1.54
  -3   3  -1   32.03    1.61
  -3   3  -1   32.53    1.54
   3   3   1   30.94    1.57
  -4  -3  -1   30.33    1.58
  -4   3  -1   31.29    1.59
  -4   3  -1   31.51    1.54
  -4   3  -1   30.92    1.61
  -4   3  -1   32.19    1.58
  -5  -3  -1    0.30    0.19
  -5   3  -1    0.29    0.15
  -5   3  -1    0.42    0.16
  -5   3  -1    0.42    0.22
  -5   3  -1    0.43    0.22
  -5   3  -1    0.29    0.14
  -6  -3  -1   18.73    1.04
  -6   3  -1   17.85    1.10
  -6   3  -1   16.85    1.00
  -6   3  -1   15.31    0.92
  -6   3  -1   18.20    0.96
  -6  -4   1   11.01    0.71
  -6   4   1    9.99    0.81
  -6   4   1   10.89    0.67
  -6   4   1   10.62    0.71
  -6   4   1   10.05    0.62
  -5  -4   1    7.91    0.56
  -5   4   1    7.81    0.50
  -5   4   1    8.56    0.65
  -5   4   1    8.25    0.52
  -5   4   1    7.95    0.58
  -4  -4   1   17.90    0.98
  -4   4   1   18.12    1.02
  -4   4   1   18.93    0.96
  -4   4   1   17.63    0.94
  -4   4   1   18.38    0.99
  -3  -4   1   21.43    1.10
  -3   4   1   21.52    1.07
  -3   4   1   22.21    1.14
  -3   4   1   20.96    1.11
  -3   4   1   21.59    1.09
  -2  -4   1  158.79    7.15
  -2  -4   1  150.57    7.17
   2   4  -1  153.59    7.15
  -1  -4   1   30.79    1.46
  -1  -4   1   31.93    1.48
   1  -4  -1   31.86    1.48
   1  -4  -1   28.00    1.47
   1   4  -1   30.83    1.48
   1   4  -1   32.01    1.45
  -1   4   1   26.36    1.46
   1   4  -1   30.80    1.46
  -1   4   1   30.41    1.46
  -1   4   1   30.98    1.43
   0  -4   1   16.75    0.82
   0  -4   1   16.80    0.84
   0  -4  -1   17.60    0.85
   0  -4   1   16.50    0.84
   0  -4  -1   17.07    0.83
   0   4  -1   17.33    0.84
   0   4   1   16.17    0.84
   0   4   1   17.43    0.83
   0   4   1   17.06    0.85
   0   4  -1   17.33    0.85
   0   4  -1   17.48    0.85
  -1  -4  -1  197.87   13.11
   1  -4   1  162.11   11.32
   1   4   1  192.23   13.43
  -1   4  -1  192.13   11.72
  -2  -4  -1   61.11    3.07
  -2  -4  -1   63.77    3.04
  -2  -4  -1   66.11    3.04
   2   4   1   65.43    3.00
  -2   4  -1   64.71    3.01
  -2   4  -1   64.37    3.04
  -2   4  -1   65.22    2.99
   2   4   1   64.23    3.06
   2   4   1   64.20    3.04
  -3  -4  -1   14.83    0.81
  -3  -4  -1   14.40    0.80
   3   4   1   15.42    0.85
  -3   4  -1   15.41    0.80
  -3   4  -1   15.04    0.75
  -3   4  -1   14.95    0.80
   3   4   1   13.88    0.74
  -4  -4  -1    8.33    0.53
  -4   4  -1    8.80    0.55
  -4   4  -1    7.45    0.54
  -4   4  -1    8.15    0.51
  -4   4  -1    8.56    0.48
  -5  -4  -1   25.23    1.29
  -5   4  -1   24.60    1.20
  -5   4  -1   22.19    1.19
  -5   4  -1   23.88    1.27
  -5   4  -1   23.08    1.31
  -5   4  -1   22.68    1.22
  -6  -4  -1    0.10    0.24
  -6   4  -1    0.36    0.17
  -6   4  -1    0.31    0.18
  -6   4  -1    0.70    0.32
  -6   4  -1    0.38    0.24
  -6   5   1   13.09    0.77
  -6   5   1   12.23    0.78
  -6   5   1   10.94    0.70
  -5  -5   1    2.25    0.31
  -5   5   1    2.23    0.30
  -5   5   1    2.10    0.27
  -5   5   1    2.36    0.27
  -5   5   1    1.91    0.34
  -4  -5   1   67.89    3.18
  -4   5   1   65.97    3.14
  -4   5   1   67.14    3.17
  -4   5   1   64.73    3.17
  -4   5   1   65.63    3.22
  -3  -5   1   33.12    1.67
   3   5  -1   33.88    1.57
   3   5  -1   34.16    1.58
  -3   5   1   33.87    1.66
  -3   5   1   33.73    1.67
  -3   5   1   33.46    1.69
  -3   5   1   33.79    1.63
   2  -5  -1    0.20    0.09
  -2  -5   1    0.04    0.10
   2  -5  -1    0.19    0.14
  -2  -5   1    0.04    0.08
  -2   5   1    0.20    0.08
   2   5  -1    0.03    0.06
   2   5  -1   -0.09    0.08
  -2   5   1    0.14    0.11
   2   5  -1    0.11    0.13
  -1  -5   1  131.02    6.09
   1  -5  -1  132.06    6.11
  -1  -5   1  133.74    6.11
  -1   5   1  130.23    6.06
   1   5  -1  130.10    6.10
   0  -5   1  196.49   13.43
   0  -5   1  206.67   14.00
   0  -5  -1  191.24   13.43
   0   5  -1  190.21   13.52
   0   5   1  211.82   14.21
   0   5   1  210.32   14.00
   1  -5   1    7.73    0.43
  -1  -5  -1    7.41    0.42
  -1  -5  -1    7.03    0.44
  -1  -5  -1    7.48    0.43
   1   5   1    7.14    0.44
   1   5   1    7.09    0.42
  -1   5  -1    7.78    0.43
  -1   5  -1    7.32    0.43
  -2  -5  -1   27.23    1.43
  -2  -5  -1   27.87    1.39
  -2  -5  -1   28.26    1.39
  -2   5  -1   29.90    1.37
   2   5   1   27.18    1.39
   2   5   1   28.27    1.42
  -2   5  -1   28.82    1.40
   2   5   1   29.67    1.36
  -2   5  -1   25.79    1.33
  -3  -5  -1  103.80    5.11
   3   5   1  104.47    5.15
  -3   5  -1  109.11    5.04
  -3   5  -1  110.20    5.11
   3   5   1  116.80    5.14
  -4  -5  -1    0.46    0.16
  -4   5  -1    0.26    0.17
  -4   5  -1    0.13    0.13
  -4   5  -1    0.43    0.17
  -4   5  -1    0.51    0.13
  -5  -5  -1   15.15    0.91
  -5   5  -1   15.69    0.81
  -5   5  -1   15.01    0.88
  -5   5  -1   14.58    0.86
  -5   5  -1   15.59    0.93
  -6  -5  -1    7.11    0.58
  -6   5  -1    6.89    0.64
  -6   5  -1    7.25    0.46
  -6   5  -1    7.29    0.52
  -6   5  -1    6.08    0.54
  -6  -6   1    0.44    0.24
  -6   6   1    0.41    0.23
  -6   6   1    0.17    0.18
  -6   6   1    0.36    0.28
  -6   6   1    0.13    0.21
  -5  -6   1   11.88    0.74
  -5   6   1   12.30    0.80
  -5   6   1   10.90    0.67
  -5   6   1   11.77    0.72
  -5   6   1   11.89    0.71
  -4   6   1    0.11    0.16
  -4   6   1    0.08    0.18
  -4   6   1   -0.02    0.14
  -4   6   1    0.11    0.13
  -3  -6   1    1.16    0.19
  -3   6   1    1.24    0.21
   3   6  -1    1.28    0.13
  -3   6   1    1.85    0.22
  -3   6   1    1.03    0.16
  -3   6   1    1.15    0.21
  -2  -6   1    4.49    0.31
   2  -6  -1    4.22    0.42
   2  -6  -1    4.10    0.29
  -2   6   1    4.48    0.27
   2   6  -1    4.63    0.36
   2   6  -1    4.53    0.29
   1  -6  -1   15.41    0.81
  -1  -6   1   14.94    0.84
   1  -6  -1   14.32    0.80
  -1  -6   1   14.71    0.79
  -1  -6   1   15.23    0.78
  -1   6   1   15.39    0.79
   1   6  -1   15.46    0.77
   1   6  -1   14.46    0.79
  -1   6   1   15.39    0.76
  -1   6   1   14.41    0.74
   0  -6  -1    8.18    0.44
   0  -6  -1    7.81    0.46
   0  -6   1    7.98    0.46
   0  -6  -1    8.74    0.49
   0  -6   1    7.26    0.45
   0  -6   1    8.47    0.43
   0   6  -1    8.04    0.46
   0   6  -1    7.84    0.46
   0   6   1    7.64    0.46
   0   6  -1    8.22    0.47
   0   6   1    7.80    0.47
   0   6   1    7.90    0.44
  -1  -6  -1    7.31    0.43
   1  -6   1    7.46    0.45
  -1  -6  -1    7.37    0.45
  -1  -6  -1    6.40    0.43
  -1   6  -1    7.50    0.43
  -1   6  -1    7.75    0.42
   1   6   1    7.10    0.46
  -1   6  -1    7.68    0.45
   1   6   1    6.98    0.43
  -2  -6  -1    2.09    0.24
   2  -6   1    1.92    0.26
  -2  -6  -1    2.45    0.24
   2   6   1    2.24    0.27
   2   6   1    2.12    0.20
  -2   6  -1    2.42    0.24
  -2   6  -1    2.57    0.19
  -3  -6  -1    0.61    0.18
  -3   6  -1    0.97    0.19
  -3   6  -1    0.59    0.13
   3   6   1    0.49    0.20
  -3   6  -1    0.80    0.13
   3   6   1    1.12    0.14
  -4  -6  -1   20.03    1.15
  -4   6  -1   22.49    1.14
  -4   6  -1   22.21    1.16
  -4   6  -1   20.75    1.15
  -5  -6  -1    0.28    0.22
  -5   6  -1    0.19    0.19
  -5   6  -1   -0.20    0.18
  -5   6  -1    0.07    0.23
  -5   6  -1    0.08    0.13
  -6  -6  -1    0.40    0.24
  -6   6  -1    0.21    0.18
  -6   6  -1   -0.05    0.39
  -6   6  -1   -0.18    0.20
  -5  -7   1    3.71    0.40
  -5   7   1    4.60    0.40
  -5   7   1    3.84    0.41
  -5   7   1    3.87    0.34
  -5   7   1    3.63    0.44
  -4  -7   1   23.04    1.23
  -4   7   1   25.51    1.22
  -4   7   1   23.37    1.18
  -4   7   1   24.82    1.25
  -4   7   1   20.41    1.23
  -4   7   1   22.72    1.18
  -3  -7   1   82.52    4.01
   3   7  -1   80.74    4.07
  -3   7   1   86.00    3.96
   3   7  -1   84.61    3.94
  -3   7   1   87.53    4.00
  -3   7   1   87.03    4.05
  -2  -7   1    1.07    0.18
   2  -7  -1    0.92    0.14
   2  -7  -1    0.90    0.23
  -2  -7   1    1.11    0.20
   2   7  -1    0.99    0.21
  -2   7   1    1.13    0.18
  -2   7   1    0.95    0.13
   2   7  -1    0.84    0.15
   1  -7  -1  139.72    6.58
  -1  -7   1  139.81    6.54
  -1  -7   1  136.77    6.55
  -1  -7   1  141.01    6.57
   1  -7  -1  137.86    6.57
   1   7  -1  144.56    6.59
  -1   7   1  145.06    6.51
  -1   7   1  139.74    6.55
   1   7  -1  143.04    6.61
   0  -7   1  165.42    7.68
   0  -7  -1  161.73    7.69
   0  -7  -1  172.08    7.71
   0  -7   1  166.47    7.74
   0   7   1  164.30    7.66
   0   7  -1  164.15    7.68
  -1  -7  -1   18.30    0.98
   1  -7   1   18.54    0.98
  -1  -7  -1   17.79    0.95
   1   7   1   19.04    0.96
  -1   7  -1   19.17    0.95
  -1   7  -1   17.79    0.95
  -1   7  -1   18.75    0.98
   1   7   1   19.04    0.99
  -2  -7  -1   84.38    3.95
  -2   7  -1   84.30    3.90
  -2   7  -1   82.84    3.96
   2   7   1   85.58    3.93
  -2   7  -1   82.21    3.94
   2   7   1   81.91    3.99
  -3  -7  -1   49.80    2.33
   3   7   1   47.20    2.38
  -3   7  -1   46.61    2.21
  -3   7  -1   49.72    2.26
  -3   7  -1   41.75    2.21
   3   7   1   48.86    2.26
  -3   7  -1   49.45    2.34
  -4  -7  -1   15.11    0.89
  -4   7  -1   14.85    0.90
   4   7   1   15.32    0.74
  -4   7  -1   16.68    0.80
  -4   7  -1   14.31    0.78
  -4   7  -1   14.57    0.82
  -4   7  -1   16.20    0.89
  -5  -7  -1    6.33    0.52
  -5   7  -1    6.56    0.50
  -5   7  -1    6.25    0.40
  -5   7  -1    6.17    0.51
  -5   7  -1    5.84    0.48
  -5  -8   1    3.05    0.39
  -5   8   1    3.56    0.40
  -5   8   1    2.81    0.30
  -5   8   1    3.35    0.35
  -5   8   1    2.51    0.34
  -4  -8   1    0.07    0.17
   4   8  -1    0.03    0.09
  -4   8   1    0.15    0.14
  -4   8   1    0.14    0.17
   4   8  -1   -0.06    0.08
  -4   8   1    0.19    0.21
  -3  -8   1    0.14    0.18
  -3   8   1   -0.10    0.10
  -3   8   1    0.07    0.17
   3   8  -1   -0.17    0.20
  -3   8   1    0.26    0.17
   3   8  -1    0.12    0.11
  -3   8   1    0.10    0.12
  -2  -8   1    0.31    0.15
   2  -8  -1    0.23    0.10
  -2   8   1    0.41    0.15
  -2   8   1    0.25    0.11
   2   8  -1    0.15    0.12
  -2   8   1    0.31    0.17
   2   8  -1    0.51    0.19
   1  -8  -1    4.83    0.37
  -1  -8   1    4.43    0.34
  -1  -8   1    5.17    0.36
   1   8  -1    4.81    0.35
   1   8  -1    4.46    0.37
  -1   8   1    4.61    0.34
  -1   8   1    5.25    0.36
  -1   8   1    4.89    0.32
   0  -8   1    5.90    0.39
   0  -8   1    5.35    0.39
   0  -8  -1    6.26    0.44
   0  -8  -1    4.86    0.35
   0  -8   1    5.32    0.36
   0   8   1    5.70    0.40
   0   8  -1    5.77    0.39
   0   8   1    5.18    0.35
   0   8  -1    5.61    0.39
  -1  -8  -1    1.39    0.19
  -1  -8  -1    0.71    0.17
   1  -8   1    1.45    0.23
  -1   8  -1    0.85    0.18
  -1   8  -1    0.78    0.15
   1   8   1    0.99    0.19
   2  -8   1   -0.27    0.15
  -2  -8  -1   -0.01    0.13
  -2   8  -1    0.16    0.12
   2   8   1    0.15    0.14
  -2   8  -1    0.01    0.14
  -3  -8  -1    0.68    0.21
  -3   8  -1    1.13    0.16
   3   8   1    0.68    0.25
   3   8   1    0.93    0.16
  -3   8  -1    0.99    0.23
   3   8   1    0.93    0.16
  -4  -8  -1    4.63    0.42
  -4   8  -1    4.91    0.33
  -4   8  -1    3.71    0.26
  -4   8  -1    4.80    0.43
   4   8   1    5.10    0.34
   4   8   1    4.37    0.48
  -5   8  -1    2.19    0.33
  -5   8  -1    2.74    0.25
  -5   8  -1    2.49    0.35
  -5  -9   1    0.28    0.21
  -5   9   1    0.26    0.21
  -5   9   1    0.30    0.25
  -5   9   1    0.21    0.17
  -4  -9   1   55.54    2.69
  -4   9   1   54.88    2.60
  -4   9   1   53.38    2.62
  -3  -9   1   25.51    1.33
  -3   9   1   28.07    1.34
  -3   9   1   25.87    1.37
  -3   9   1   25.64    1.31
   3   9  -1   24.84    1.26
   3   9  -1   22.65    1.37
  -3   9   1   23.71    1.25
  -2  -9   1    1.54    0.24
   2  -9  -1    1.38    0.16
  -2   9   1    1.38    0.23
  -2   9   1    1.43    0.18
   2   9  -1    1.24    0.25
  -2   9   1    1.27    0.26
   2   9  -1    1.06    0.20
   1  -9  -1   35.18    1.71
  -1  -9   1   34.31    1.70
  -1  -9   1   33.57    1.71
  -1   9   1   33.94    1.72
   1   9  -1   34.85    1.72
  -1   9   1   34.12    1.68
   1   9  -1   34.63    1.74
   0  -9  -1   61.40    2.99
   0  -9   1   60.44    3.01
   0  -9  -1   66.55    3.07
   0  -9   1   67.65    3.00
   0   9  -1   61.36    3.02
   0   9   1   60.71    3.03
   0   9  -1   61.38    3.01
  -1  -9  -1    1.08    0.19
  -1  -9  -1    0.97    0.19
  -1   9  -1    0.91    0.18
   1   9   1    0.62    0.21
  -1   9  -1    0.78    0.21
  -2  -9  -1   20.26    1.12
   2   9   1   20.82    1.18
  -2   9  -1   22.61    1.18
  -2   9  -1   21.84    1.10
  -3  -9  -1   87.72    4.32
   3   9   1   90.20    4.40
  -3   9  -1   92.76    4.26
  -3   9  -1   93.73    4.36
   3   9   1   91.89    4.26
   3   9   1   88.31    4.27
  -4  -9  -1    5.89    0.49
  -4   9  -1    5.86    0.39
   4   9   1    4.87    0.54
   4   9   1    5.67    0.36
  -4   9  -1    5.83    0.50
  -5  -9  -1    6.00    0.52
  -5   9  -1    5.20    0.51
  -4 -10   1    1.35    0.28
  -4  10   1    1.28    0.25
  -4  10   1    1.34    0.22
  -4  10   1    1.54    0.32
  -3 -10   1    7.31    0.52
  -3  10   1    7.09    0.38
   3  10  -1    6.75    0.45
  -3  10   1    7.35    0.49
  -3  10   1    6.73    0.56
   3  10  -1    6.44    0.57
  -2 -10   1   23.51    1.27
  -2  10   1   24.45    1.28
  -2  10   1   25.96    1.34
   2  10  -1   25.10    1.26
   2  10  -1   22.47    1.31
  -1 -10   1    1.97    0.27
  -1 -10   1    2.32    0.29
   1 -10  -1    1.87    0.25
   1  10  -1    1.96    0.27
  -1  10   1    1.81    0.28
   1  10  -1    1.56    0.28
  -1  10   1    1.74    0.27
   0 -10  -1    0.14    0.19
   0 -10   1    0.56    0.19
   0 -10  -1    0.38    0.18
   0 -10   1    0.19    0.16
   0  10  -1    0.32    0.17
   0  10   1    0.11    0.17
   0  10  -1    0.30    0.17
  -1 -10  -1   23.66    1.27
  -1  10  -1   25.21    1.33
  -1  10  -1   25.00    1.28
   1  10   1   25.08    1.34
  -2 -10  -1   15.73    0.96
   2  10   1   16.08    0.97
  -2  10  -1   15.86    0.88
  -2  10  -1   16.19    0.95
   2  10   1   16.87    0.90
  -3 -10  -1    0.88    0.24
   3  10   1    0.78    0.19
  -3  10  -1    1.44    0.27
  -3  10  -1    1.24    0.21
   3  10   1    0.78    0.28
  -4 -10  -1    0.23    0.22
  -4  10  -1    0.74    0.18
   4  10   1    0.45    0.27
  -4  10  -1    0.45    0.25
  -4 -11   1    7.70    0.56
  -4  11   1    6.83    0.60
  -4  11   1    6.40    0.48
  -4  11   1    7.59    0.52
  -3 -11   1   26.43    1.40
   3  11  -1   25.44    1.47
  -3  11   1   26.23    1.39
  -3  11   1   27.36    1.47
  -2 -11   1    0.00    0.17
  -2  11   1    0.11    0.17
  -2  11   1    0.04    0.21
   2  11  -1   -0.19    0.18
   2  11  -1   -0.25    0.17
  -1 -11   1   23.19    1.26
  -1 -11   1   23.26    1.25
   1 -11  -1   24.64    1.20
   1  11  -1   22.63    1.25
  -1  11   1   24.97    1.30
  -1  11   1   22.62    1.32
   1  11  -1   23.10    1.28
   0 -11   1   28.51    1.51
   0 -11  -1   29.26    1.49
   0  11   1   27.42    1.51
   0  11  -1   29.22    1.51
   0  11   1   28.71    1.52
   0  11  -1   29.78    1.51
  -1 -11  -1    3.31    0.37
   1  11   1    3.51    0.43
   1  11   1    3.43    0.42
  -1  11  -1    4.05    0.38
  -1  11  -1    3.99    0.37
  -2 -11  -1   23.87    1.33
   2  11   1   25.50    1.33
  -2  11  -1   25.87    1.31
   2  11   1   24.92    1.41
  -2  11  -1   26.32    1.40
  -3 -11  -1   15.50    0.93
   3  11   1   13.96    0.98
   3  11   1   15.54    0.86
  -3  11  -1   16.70    0.98
  -3  11  -1   15.39    0.85
  -4 -11  -1    9.36    0.67
   4  11   1    8.92    0.76
  -4  11  -1    8.81    0.69
  -4  11  -1    9.60    0.58
  -3 -12   1    5.49    0.48
  -3  12   1    5.16    0.54
  -3  12   1    6.16    0.50
   3  12  -1    6.45    0.45
   3  12  -1    5.01    0.53
  -2 -12   1   15.75    0.90
   2  12  -1   14.23    0.93
  -2  12   1   14.93    0.88
   2  12  -1   14.75    0.86
  -2  12   1   14.75    0.94
  -1 -12   1   13.06    0.82
   1  12  -1   13.71    0.85
  -1  12   1   13.22    0.83
  -1  12   1   13.79    0.87
   1  12  -1   13.67    0.82
   0 -12   1    7.48    0.44
   0 -12   1    6.13    0.53
   0 -12  -1    8.38    0.61
   0  12  -1    5.82    0.53
   0  12   1    6.16    0.52
   0  12   1    5.58    0.51
   0  12  -1    5.48    0.49
  -1 -12  -1   17.17    0.99
  -1  12  -1   19.13    1.05
   1  12   1   16.91    1.04
  -1  12  -1   17.61    0.99
   1  12   1   17.36    1.02
  -2 -12  -1   12.51    0.77
  -2  12  -1   13.04    0.81
   2  12   1   12.05    0.75
   2  12   1   11.54    0.83
  -2  12  -1   12.60    0.75
  -3  12  -1    1.23    0.31
   3  12   1    0.56    0.29
  -3  12  -1    1.09    0.23
   2  13  -1   -0.09    0.19
  -2  13   1   -0.01    0.19
  -2  13   1   -0.05    0.22
   2  13  -1    0.25    0.25
  -1 -13   1    8.43    0.60
   1  13  -1    6.80    0.58
  -1  13   1    7.94    0.59
   1  13  -1    7.51    0.60
  -1  13   1    7.24    0.61
   0 -13  -1   13.74    0.83
   0  13  -1   11.20    0.78
   0  13  -1   11.80    0.79
   0  13   1   12.21    0.80
   0  13   1   11.60    0.80
  -1 -13  -1    0.14    0.20
  -1  13  -1   -0.24    0.19
   1  13   1    0.19    0.23
  -1  13  -1    0.15    0.22
   1  13   1    0.03    0.21
  -2 -13  -1    0.97    0.29
   2  13   1    0.94    0.24
  -2  13  -1    0.96    0.29
  -2  13  -1    0.78    0.23
   2  13   1    0.72    0.31
  -1 -14   1    7.64    0.58
  -1  14   1    6.51    0.64
  -1  14   1    6.24    0.58
   1  14  -1    6.10    0.56
   0  14   1    1.91    0.33
   0  14  -1    2.57    0.38
   0  14   1    2.28    0.37
   0  14  -1    1.86    0.35
  -1 -14  -1   37.30    1.89
  -1  14  -1   36.48    1.92
  -1  14  -1   34.33    1.86
  -6   0   2   10.29    0.84
  -6   0   2   11.46    0.68
  -5   0   2   14.88    0.83
  -4   0   2   77.22    3.55
  -4   0   2   69.50    3.47
  -4   0   2   75.49    3.66
   4   0  -2   79.56    3.57
  -3   0   2   34.77    1.77
  -3   0   2   35.24    1.65
   3   0  -2   36.23    1.70
  -3   0   2   34.74    1.68
  -2   0   2   17.13    0.80
  -2   0   2   16.04    0.86
   2   0  -2   15.67    0.80
  -2   0   2   16.63    0.79
  -1   0   2  943.40   47.40
  -1   0   2  897.47   48.94
   1   0  -2 1000.00   47.57
   0   0  -2  166.71   11.29
   0   0   2  154.93   11.00
  -1   0  -2    4.63    0.30
  -1   0  -2    5.09    0.25
   1   0   2    5.26    0.26
  -1   0  -2    4.91    0.29
   1   0   2    5.36    0.30
   1   0   2    4.86    0.30
  -2   0  -2   89.11    4.21
  -2   0  -2   94.31    4.15
   2   0   2   90.29    4.18
  -2   0  -2   87.84    4.19
  -2   0  -2   88.20    4.21
  -3   0  -2  124.36    5.87
  -3   0  -2  124.97    5.80
   3   0   2  127.32    5.81
  -4   0  -2    0.88    0.14
  -4   0  -2    1.00    0.16
  -4   0  -2    1.47    0.24
  -5   0  -2   28.54    1.51
  -6   0  -2   21.87    1.25
  -6  -1   2    1.38    0.25
  -6  -1   2    1.48    0.38
  -6   1   2    1.49    0.26
  -6   1   2    1.66    0.41
  -5  -1   2    0.42    0.26
  -5  -1   2    0.28    0.17
  -5   1   2    0.28    0.08
  -5   1   2    0.27    0.07
  -5   1   2    0.18    0.24
  -5   1   2    0.40    0.16
  -4  -1   2    9.86    0.57
  -4  -1   2   10.38    0.69
  -4   1   2    9.94    0.56
  -4   1   2    9.75    0.51
  -4   1   2    9.63    0.66
  -4   1   2   10.04    0.51
   4   1  -2    9.20    0.62
  -3  -1   2   16.99    0.88
  -3  -1   2   16.40    0.96
  -3  -1   2   17.69    0.81
   3  -1  -2   18.35    0.88
  -3   1   2   17.14    0.85
  -3   1   2   17.58    0.96
   3   1  -2   17.64    0.89
  -3   1   2   17.38    0.86
   2  -1  -2    4.30    0.24
  -2  -1   2    4.20    0.24
  -2  -1   2    3.77    0.30
   2   1  -2    4.54    0.23
   2   1  -2    4.37    0.27
  -2   1   2    4.73    0.32
  -2   1   2    4.47    0.24
  -1  -1   2    1.38    0.12
  -1  -1   2    1.52    0.14
  -1  -1   2    1.48    0.10
   1  -1  -2    1.42    0.15
   1  -1  -2    1.50    0.08
  -1   1   2    1.82    0.16
  -1   1   2    1.25    0.13
  -1   1   2    1.66    0.12
   1   1  -2    1.27    0.12
   1   1  -2    1.46    0.11
  -1   1   2    1.46    0.08
   1   1  -2    1.43    0.14
   0  -1  -2    0.33    0.09
   0  -1  -2    0.55    0.07
   0  -1   2    0.53    0.09
   0  -1  -2    0.63    0.08
   0  -1   2    0.39    0.07
   0   1  -2    0.60    0.09
   0   1   2    0.53    0.07
   0   1   2    0.38    0.09
   0   1  -2    0.42    0.08
  -1  -1  -2   53.92    2.50
   1  -1   2   52.75    2.49
   1  -1   2   52.89    2.48
  -1  -1  -2   52.08    2.49
  -1  -1  -2   53.59    2.49
  -1  -1  -2   53.44    2.46
  -1   1  -2   51.25    2.49
   1   1   2   53.02    2.51
  -1   1  -2   53.71    2.47
   1   1   2   54.64    2.48
   1   1   2   51.21    2.49
   1   1   2   54.54    2.47
  -2  -1  -2    8.63    0.48
  -2  -1  -2    8.92    0.50
  -2  -1  -2    8.66    0.51
  -2  -1  -2    9.38    0.47
   2  -1   2    9.13    0.49
  -2   1  -2    9.34    0.52
   2   1   2    9.40    0.49
   2   1   2    9.05    0.50
  -2   1  -2    8.92    0.50
  -2   1  -2    8.65    0.44
  -3  -1  -2    1.27    0.19
  -3  -1  -2    1.04    0.13
   3  -1   2    1.44    0.15
  -3  -1  -2    1.12    0.14
  -3  -1  -2    0.93    0.17
  -3   1  -2    1.07    0.12
   3   1   2    1.21    0.13
  -3   1  -2    1.04    0.16
  -3   1  -2    1.07    0.16
  -3   1  -2    1.33    0.20
  -4  -1  -2    1.01    0.13
  -4  -1  -2    1.18    0.22
  -4  -1  -2    0.85    0.14
  -4   1  -2    1.00    0.14
  -4   1  -2    0.86    0.17
   4   1   2    1.06    0.12
  -4   1  -2    1.19    0.23
  -5  -1  -2    1.74    0.29
  -5   1  -2    1.86    0.36
  -5   1  -2    1.71    0.22
  -5   1  -2    1.79    0.21
  -6  -1  -2    2.82    0.39
  -6   1  -2    3.08    0.40
  -6  -2   2    1.79    0.41
  -6  -2   2    2.17    0.32
  -6   2   2    1.81    0.35
  -6   2   2    2.21    0.29
  -6   2   2    2.00    0.41
  -5  -2   2    5.73    0.42
  -5  -2   2    5.72    0.56
  -5   2   2    5.83    0.53
  -5   2   2    5.35    0.34
  -5   2   2    5.70    0.39
  -5   2   2    5.15    0.49
  -5   2   2    5.61    0.34
  -4  -2   2   78.01    3.85
  -4  -2   2   77.84    3.73
  -4   2   2   79.23    3.69
  -4   2   2   79.57    3.83
  -4   2   2   78.79    3.70
  -4   2   2   81.38    3.71
  -3  -2   2   55.33    2.74
  -3  -2   2   57.92    2.68
  -3   2   2   56.65    2.65
   3   2  -2   56.29    2.70
  -3   2   2   57.20    2.82
  -2  -2   2   68.29    3.34
  -2  -2   2   70.54    3.26
   2  -2  -2   67.61    3.35
  -2  -2   2   74.15    3.30
  -2  -2   2   69.77    3.35
   2   2  -2   72.03    3.31
  -2   2   2   66.62    3.34
   2   2  -2   73.40    3.27
  -2   2   2   70.96    3.26
  -2   2   2   72.92    3.35
  -1  -2   2   45.89    2.10
  -1  -2   2   45.43    2.13
  -1  -2   2   46.15    2.10
   1  -2  -2   39.89    2.13
   1  -2  -2   43.02    2.16
  -1  -2   2   46.32    2.13
  -1   2   2   46.85    2.16
  -1   2   2   39.87    2.14
   1   2  -2   46.76    2.11
  -1   2   2   46.38    2.11
   1   2  -2   46.39    2.10
   0  -2  -2  290.35   16.42
   0  -2   2  284.31   16.64
   0  -2   2  284.12   16.93
   0  -2  -2  282.64   16.26
   0   2  -2  282.90   16.87
   0   2   2  273.06   16.12
   0   2  -2  305.57   17.07
  -1  -2  -2    7.87    0.43
  -1  -2  -2    8.22    0.42
   1  -2   2    7.52    0.41
  -1  -2  -2    8.11    0.45
  -1  -2  -2    7.76    0.43
   1  -2   2    8.36    0.44
   1   2   2    8.67    0.43
   1   2   2    7.88    0.43
  -1   2  -2    8.40    0.41
  -1   2  -2    8.10    0.45
   2   2   2  200.27    8.67
   2   2   2  174.79    8.68
  -3  -2  -2   47.52    2.24
   3  -2   2   47.17    2.25
  -3  -2  -2   47.93    2.21
  -3  -2  -2   44.72    2.30
  -3  -2  -2   46.93    2.28
  -3   2  -2   47.12    2.26
  -3   2  -2   47.46    2.27
  -3   2  -2   47.62    2.29
   3   2   2   50.02    2.25
  -3   2  -2   45.51    2.26
   3   2   2   46.35    2.28
  -4  -2  -2    2.46    0.29
  -4  -2  -2    1.75    0.21
   4   2   2    2.08    0.15
  -4   2  -2    1.77    0.18
  -4   2  -2    2.06    0.28
  -4   2  -2    1.77    0.22
  -5  -2  -2   27.43    1.41
  -5   2  -2   25.68    1.32
  -5   2  -2   25.79    1.29
  -5   2  -2   25.55    1.39
  -6  -2  -2   20.37    1.17
  -6   2  -2   20.19    1.26
  -6   2  -2   19.17    1.07
  -6   2  -2   21.48    1.17
  -6  -3   2    4.86    0.60
  -6  -3   2    5.20    0.44
  -6   3   2    5.13    0.55
  -6   3   2    4.86    0.42
  -6   3   2    5.47    0.55
  -5  -3   2   22.31    1.20
  -5  -3   2   23.91    1.36
  -5   3   2   23.23    1.32
  -5   3   2   20.88    1.26
  -5   3   2   23.34    1.25
  -5   3   2   21.58    1.23
  -5   3   2   23.25    1.16
  -4  -3   2    3.63    0.31
  -4   3   2    3.69    0.38
  -4   3   2    3.84    0.27
  -4   3   2    4.06    0.29
  -4   3   2    3.60    0.38
  -3  -3   2   19.56    0.98
  -3   3   2   18.36    1.03
   3   3  -2   18.19    0.99
  -3   3   2   20.53    1.11
  -2  -3   2  108.60    5.03
  -2  -3   2  111.64    5.08
  -2  -3   2  106.79    5.11
   2  -3  -2  106.52    5.12
   2   3  -2  108.47    5.09
   2   3  -2  113.44    5.05
  -2   3   2  111.17    5.03
  -2   3   2  103.35    5.11
  -2   3   2  113.79    5.13
  -1  -3   2    8.31    0.45
  -1  -3   2    8.19    0.46
  -1  -3   2    8.43    0.47
   1  -3  -2    8.31    0.48
   1   3  -2    8.50    0.44
  -1   3   2    8.17    0.47
   1   3  -2    8.45    0.46
  -1   3   2    8.93    0.40
   0   3  -2  156.48    7.23
  -1  -3  -2   55.36    2.59
   1  -3   2   55.33    2.61
  -1  -3  -2   56.25    2.62
  -1  -3  -2   56.24    2.62
   1  -3   2   58.71    2.56
   1   3   2   55.96    2.60
  -1   3  -2   47.96    2.55
   1   3   2   55.22    2.64
   1   3   2   56.29    2.59
  -1   3  -2   54.26    2.60
   1   3   2   56.26    2.59
  -2  -3  -2   37.62    1.80
   2  -3   2   38.81    1.82
  -2  -3  -2   37.08    1.82
  -2  -3  -2   37.56    1.85
  -2   3  -2   37.73    1.78
   2   3   2   36.94    1.82
   2   3   2   38.07    1.83
  -2   3  -2   38.22    1.75
  -2   3  -2   36.83    1.81
   2   3   2   38.35    1.80
  -3  -3  -2   13.34    0.75
  -3  -3  -2   12.97    0.74
  -3   3  -2   13.68    0.66
   3   3   2   13.28    0.70
  -3   3  -2   14.97    0.78
  -3   3  -2   13.56    0.72
  -3   3  -2   12.34    0.71
  -4  -3  -2   24.70    1.34
  -4   3  -2   24.47    1.31
  -4   3  -2   24.85    1.25
  -4   3  -2   26.01    1.31
  -4   3  -2   27.08    1.36
   4   3   2   27.10    1.22
  -4   3  -2   25.94    1.26
  -5  -3  -2    1.73    0.30
  -5   3  -2    1.53    0.19
  -5   3  -2    1.91    0.37
  -5   3  -2    1.72    0.21
  -5   3  -2    1.63    0.24
  -6  -3  -2    1.14    0.28
  -6   3  -2    1.03    0.28
  -6   3  -2    1.11    0.21
  -6   3  -2    0.73    0.18
  -6   3  -2    0.41    0.31
  -6  -4   2    0.21    0.20
  -6  -4   2   -0.06    0.32
  -6   4   2    0.13    0.27
  -6   4   2    0.11    0.14
  -6   4   2    0.03    0.17
  -6   4   2    0.54    0.29
  -5  -4   2   19.31    1.22
  -5  -4   2   20.12    1.08
  -5   4   2   21.10    1.03
  -5   4   2   20.50    1.18
  -5   4   2   19.57    1.13
  -5   4   2   19.11    1.03
  -4  -4   2   33.88    1.65
  -4   4   2   32.13    1.63
  -4   4   2   32.83    1.72
  -4   4   2   33.21    1.69
  -4   4   2   32.88    1.59
  -3  -4   2   13.81    0.76
  -3   4   2   14.37    0.80
  -3   4   2   14.34    0.83
   3   4  -2   14.34    0.67
  -2  -4   2    5.52    0.41
   2  -4  -2    5.03    0.37
  -2  -4   2    5.89    0.34
   2   4  -2    5.27    0.35
  -2   4   2    5.80    0.38
  -2   4   2    5.78    0.29
  -2   4   2    5.61    0.29
  -2   4   2    5.24    0.39
   2   4  -2    5.73    0.32
   1  -4  -2  135.99    7.28
   1   4  -2  176.47    7.23
   0  -4   2    7.07    0.39
   0  -4  -2    6.66    0.36
   0  -4  -2    6.87    0.42
   0  -4   2    7.06    0.38
   0  -4  -2    6.54    0.38
   0  -4   2    6.69    0.35
   0  -4   2    6.64    0.39
   0   4  -2    7.05    0.39
   0   4  -2    6.47    0.37
   0   4   2    6.91    0.39
   0   4  -2    6.97    0.40
   1  -4   2    1.91    0.15
  -1  -4  -2    1.87    0.16
  -1  -4  -2    1.84    0.18
  -1  -4  -2    1.77    0.16
   1  -4   2    1.91    0.18
  -1   4  -2    1.70    0.13
   1   4   2    1.93    0.19
   1   4   2    1.70    0.18
   1   4   2    1.63    0.15
   1   4   2    1.72    0.15
  -1   4  -2    1.71    0.17
  -1   4  -2    1.78    0.18
  -2  -4  -2   44.81    2.19
   2  -4   2   44.96    2.20
  -2  -4  -2   44.73    2.23
  -2   4  -2   47.54    2.13
  -2   4  -2   47.63    2.14
   2   4   2   44.51    2.23
   2   4   2   46.38    2.18
  -2   4  -2   46.57    2.20
   2   4   2   45.38    2.22
  -3  -4  -2  114.06    5.28
  -3  -4  -2  113.56    5.26
   3   4   2  110.92    5.31
   3   4   2  104.22    5.24
  -3   4  -2  116.41    5.27
  -3   4  -2  109.75    5.23
  -3   4  -2  118.74    5.19
  -4  -4  -2    1.76    0.26
  -4   4  -2    2.09    0.26
   4   4   2    1.82    0.14
  -4   4  -2    1.80    0.17
  -4   4  -2    1.79    0.22
  -4   4  -2    1.85    0.17
  -4   4  -2    1.78    0.26
  -4   4  -2    1.74    0.28
  -5  -4  -2    8.91    0.62
  -5   4  -2    9.53    0.65
  -5   4  -2    8.85    0.57
  -5   4  -2    8.30    0.63
  -5   4  -2    8.04    0.48
  -5   4  -2    8.68    0.49
  -6  -4  -2    6.74    0.58
  -6   4  -2    7.52    0.64
  -6   4  -2    6.77    0.59
  -6  -5   2   16.89    1.13
  -6  -5   2   15.62    0.95
  -6   5   2   14.65    1.04
  -6   5   2   16.62    0.87
  -6   5   2   15.40    0.95
  -5  -5   2    7.99    0.59
  -5   5   2    8.57    0.51
  -5   5   2    7.79    0.54
  -5   5   2    8.99    0.66
  -5   5   2    8.83    0.62
  -4  -5   2    3.40    0.31
  -4   5   2    2.87    0.34
  -4   5   2    2.63    0.23
  -4   5   2    3.13    0.35
  -4   5   2    2.70    0.29
  -3  -5   2   72.07    3.30
  -3   5   2   66.42    3.35
  -3   5   2   70.89    3.32
   3   5  -2   68.79    3.23
  -2  -5   2   65.99    2.90
   2  -5  -2   59.11    2.91
  -2  -5   2   60.73    2.93
   2  -5  -2   54.43    2.96
   2   5  -2   58.21    2.90
  -2   5   2   64.26    2.97
  -2   5   2   64.21    2.83
  -1  -5   2    6.27    0.39
   1  -5  -2    5.86    0.39
  -1  -5   2    5.65    0.36
   1   5  -2    6.37    0.36
  -1   5   2    6.13    0.32
  -1   5   2    6.08    0.38
   1   5  -2    6.43    0.38
  -1   5   2    6.45    0.40
   1   5  -2    5.87    0.37
   0  -5   2   17.78    0.85
   0  -5  -2   17.82    0.89
   0  -5   2   17.90    0.89
   0  -5   2   17.20    0.90
   0  -5  -2   16.59    0.89
   0  -5  -2   18.75    0.94
   0   5   2   18.20    0.91
   0   5  -2   17.96    0.91
   0   5  -2   17.66    0.89
   0   5  -2   17.55    0.90
   0   5   2   17.19    0.86
   0   5   2   17.86    0.92
   1  -5   2  188.01    8.54
   1   5   2  185.19    8.55
  -1   5  -2  186.28    8.57
   1   5   2  180.60    8.54
   2  -5   2    9.12    0.58
  -2  -5  -2    9.99    0.62
  -2  -5  -2   11.02    0.60
  -2  -5  -2   10.13    0.58
  -2   5  -2   10.39    0.51
   2   5   2   10.39    0.56
   2   5   2   11.18    0.63
  -2   5  -2   10.53    0.52
  -2   5  -2   10.90    0.50
   2   5   2   10.56    0.58
  -2   5  -2   10.37    0.60
  -3  -5  -2   12.12    0.71
   3   5   2   12.32    0.75
  -3   5  -2   12.61    0.62
  -3   5  -2   11.86    0.66
  -3   5  -2   12.63    0.70
   3   5   2   12.66    0.67
  -3   5  -2   12.24    0.64
  -4  -5  -2   51.21    2.60
  -4   5  -2   51.80    2.57
  -4   5  -2   52.79    2.62
  -4   5  -2   54.13    2.47
   4   5   2   56.59    2.53
  -4   5  -2   49.74    2.52
  -4   5  -2   53.56    2.58
  -5  -5  -2   22.10    1.26
  -5   5  -2   23.72    1.24
  -5   5  -2   22.48    1.27
  -5   5  -2   22.04    1.26
  -5   5  -2   24.05    1.13
  -6  -5  -2    5.47    0.52
  -6   5  -2    5.70    0.57
  -6   5  -2    4.93    0.52
  -6  -6   2    0.75    0.25
  -6  -6   2    0.30    0.31
  -6   6   2    0.47    0.30
  -6   6   2    0.43    0.19
  -6   6   2    0.45    0.24
  -5  -6   2    0.28    0.20
  -5   6   2    0.32    0.26
  -5   6   2    0.27    0.14
  -5   6   2   -0.08    0.14
  -4   6   2    6.56    0.55
  -4   6   2    7.48    0.43
  -4   6   2    7.76    0.51
  -4   6   2    7.35    0.43
  -4   6   2    7.57    0.54
  -3  -6   2    8.79    0.53
   3   6  -2    8.40    0.46
  -3   6   2    7.91    0.44
  -3   6   2    8.76    0.54
  -3   6   2    8.36    0.46
  -2  -6   2   17.59    0.89
   2  -6  -2   16.20    0.89
   2  -6  -2   16.11    0.95
  -2   6   2   17.56    0.81
  -2   6   2   17.89    0.90
   2   6  -2   17.19    0.93
   2   6  -2   16.87    0.85
  -2   6   2   14.69    0.90
  -1  -6   2    1.01    0.17
   1  -6  -2    0.50    0.19
   1  -6  -2    0.67    0.14
   1  -6  -2    1.34    0.19
  -1  -6   2    0.91    0.15
   1   6  -2    1.07    0.20
  -1   6   2    1.20    0.18
   1   6  -2    0.89    0.16
  -1   6   2    1.00    0.17
  -1   6   2    1.07    0.11
   1   6  -2    1.04    0.15
   0  -6  -2   34.19    1.78
   0  -6   2   37.07    1.73
   0  -6   2   36.84    1.78
   0  -6  -2   36.89    1.75
   0  -6  -2   37.37    1.83
   0  -6   2   36.17    1.74
   0  -6   2   35.84    1.83
   0   6  -2   38.88    1.84
   0   6  -2   36.26    1.80
   0   6   2   36.22    1.75
   0   6  -2   38.32    1.78
   0   6   2   37.24    1.80
   0   6   2   37.40    1.80
  -1  -6  -2    0.92    0.16
   1  -6   2    1.46    0.18
  -1  -6  -2    1.24    0.18
  -1  -6  -2    1.11    0.16
  -1   6  -2    1.00    0.17
  -1   6  -2    1.13    0.14
   1   6   2    1.35    0.20
   1   6   2    1.30    0.17
   1   6   2    1.23    0.17
  -1   6  -2    2.09    0.21
  -2  -6  -2   24.19    1.22
   2  -6   2   20.23    1.20
   2   6   2   25.51    1.20
  -2   6  -2   23.94    1.23
  -2   6  -2   24.90    1.25
   2   6   2   25.58    1.27
  -3  -6  -2    0.32    0.13
  -3   6  -2   -0.15    0.12
  -3   6  -2    0.14    0.08
  -3   6  -2    0.12    0.08
   3   6   2    0.08    0.18
   3   6   2    0.17    0.11
  -3   6  -2    0.14    0.07
  -4  -6  -2    0.30    0.19
  -4   6  -2    0.08    0.10
  -4   6  -2    0.00    0.13
  -4   6  -2    0.05    0.19
   4   6   2    0.12    0.12
   4   6   2    0.38    0.25
  -4   6  -2    0.04    0.09
  -4   6  -2    0.02    0.15
  -5  -6  -2    3.95    0.42
  -5   6  -2    4.19    0.43
  -5   6  -2    3.58    0.26
  -5   6  -2    3.50    0.39
  -5  -7   2   25.79    1.35
  -5   7   2   25.16    1.35
  -5   7   2   26.83    1.26
  -5   7   2   22.88    1.40
  -4  -7   2    5.00    0.40
  -4   7   2    4.47    0.31
  -4   7   2    4.54    0.30
  -4   7   2    4.69    0.43
  -4   7   2    3.75    0.41
  -4   7   2    5.20    0.43
  -3  -7   2   34.72    1.75
   3   7  -2   34.80    1.69
  -3   7   2   36.40    1.76
  -3   7   2   35.10    1.68
  -3   7   2   34.90    1.67
  -2  -7   2  114.56    5.34
   2  -7  -2  111.77    5.35
  -2   7   2  117.26    5.35
  -2   7   2  117.30    5.35
  -2   7   2  112.14    5.27
   2   7  -2  115.13    5.32
   2   7  -2  111.20    5.38
   1  -7  -2   11.49    0.74
  -1  -7   2   14.00    0.75
   1  -7  -2   13.16    0.84
  -1  -7   2   13.69    0.77
  -1   7   2   14.84    0.76
  -1   7   2   14.39    0.70
  -1   7   2   15.09    0.77
   1   7  -2   13.71    0.75
   1   7  -2   14.67    0.78
   0  -7  -2   98.55    4.50
   0  -7  -2   99.45    4.58
   0  -7   2   93.39    4.52
   0  -7   2   95.83    4.47
   0  -7   2   95.74    4.46
   0  -7   2   96.13    4.53
   0   7  -2   98.60    4.52
   0   7   2   93.00    4.49
   0   7  -2   96.98    4.53
   0   7   2   98.22    4.54
   0   7  -2   95.29    4.53
   0   7   2   96.07    4.54
  -1  -7  -2   92.06    4.40
   1  -7   2   90.57    4.38
  -1  -7  -2   93.34    4.36
   1   7   2   90.16    4.36
  -1   7  -2   96.99    4.35
  -1   7  -2   91.07    4.39
  -1   7  -2   95.34    4.39
   1   7   2   95.74    4.41
  -2  -7  -2   52.07    2.52
  -2   7  -2   52.48    2.54
   2   7   2   52.02    2.57
   2   7   2   51.27    2.50
  -2   7  -2   53.27    2.46
  -3  -7  -2   21.38    1.10
  -3   7  -2   20.56    1.00
   3   7   2   20.14    1.04
   3   7   2   19.12    1.14
  -3   7  -2   20.10    1.10
  -4  -7  -2   60.51    2.95
  -4   7  -2   61.96    2.82
  -4   7  -2   59.41    3.00
   4   7   2   60.77    3.03
  -4   7  -2   62.24    2.82
  -4   7  -2   63.22    2.98
   4   7   2   52.99    2.86
  -5  -7  -2   10.49    0.74
  -5   7  -2   11.04    0.60
  -5   7  -2   11.58    0.73
  -5   7  -2   11.24    0.76
  -5  -8   2    0.35    0.21
  -5   8   2    0.24    0.14
  -5   8   2    0.37    0.24
  -5   8   2    0.40    0.23
  -5   8   2    0.37    0.21
  -4  -8   2    1.42    0.23
  -4   8   2    1.33    0.17
  -4   8   2    1.10    0.16
  -4   8   2    1.36    0.25
  -4   8   2    0.89    0.24
  -4   8   2    1.13    0.27
  -3  -8   2    1.39    0.28
  -3   8   2    1.57    0.25
   3   8  -2    1.26    0.17
  -3   8   2    0.95    0.21
  -3   8   2    1.24    0.15
  -2  -8   2    2.18    0.23
   2  -8  -2    1.97    0.24
  -2   8   2    2.17    0.19
   2   8  -2    2.24    0.24
  -2   8   2    2.28    0.27
   2   8  -2    2.42    0.32
  -2   8   2    2.82    0.26
  -1  -8   2   22.82    1.22
   1  -8  -2   23.68    1.31
  -1  -8   2   23.44    1.22
   1   8  -2   25.14    1.26
  -1   8   2   24.98    1.25
  -1   8   2   24.07    1.18
  -1   8   2   23.85    1.22
   1   8  -2   24.53    1.23
   0  -8   2    3.81    0.26
   0  -8   2    3.30    0.23
   0  -8   2    3.45    0.31
   0  -8  -2    3.55    0.36
   0  -8   2    3.53    0.31
   0   8  -2    3.56    0.30
   0   8  -2    4.04    0.32
   0   8   2    3.32    0.31
   0   8   2    3.82    0.33
   0   8   2    3.36    0.29
   1  -8   2    0.14    0.15
  -1  -8  -2    0.01    0.11
  -1  -8  -2   -0.03    0.12
  -1   8  -2   -0.04    0.12
  -1   8  -2    0.00    0.13
   1   8   2    0.03    0.12
  -2  -8  -2    5.86    0.43
  -2   8  -2    5.94    0.37
  -2   8  -2    6.16    0.46
   2   8   2    6.22    0.44
   2   8   2    6.11    0.49
  -3   8  -2    0.29    0.19
  -3   8  -2    0.34    0.11
   3   8   2    0.34    0.14
  -4  -8  -2    3.54    0.40
   4   8   2    3.49    0.26
   4   8   2    3.61    0.35
  -4   8  -2    3.99    0.27
   4   8   2    2.97    0.46
  -4   8  -2    4.29    0.41
  -5  -8  -2    0.45    0.25
  -5   8  -2   -0.26    0.24
  -5   8  -2    0.30    0.22
  -5  -9   2   11.66    0.77
  -5   9   2   13.32    0.78
  -5   9   2   10.85    0.78
  -4  -9   2    4.72    0.43
  -4   9   2    5.10    0.43
  -4   9   2    5.33    0.43
  -4   9   2    4.39    0.46
  -3  -9   2   48.73    2.45
  -3   9   2   52.38    2.51
  -3   9   2   47.61    2.36
  -3   9   2   51.58    2.42
   3   9  -2   49.28    2.40
  -3   9   2   51.34    2.46
  -2  -9   2   56.95    2.79
   2  -9  -2   55.64    2.77
   2   9  -2   56.99    2.83
  -2   9   2   59.50    2.80
  -2   9   2   60.27    2.76
  -2   9   2   56.30    2.72
   2   9  -2   58.39    2.77
   1  -9  -2    2.66    0.35
  -1  -9   2    2.55    0.26
  -1  -9   2    2.18    0.27
  -1   9   2    2.67    0.27
  -1   9   2    2.10    0.28
  -1   9   2    2.49    0.24
   1   9  -2    2.63    0.29
   1   9  -2    2.16    0.29
   0  -9  -2   30.21    1.58
   0  -9  -2   31.99    1.69
   0  -9   2   34.86    1.56
   0  -9   2   30.81    1.62
   0  -9   2   31.36    1.52
   0   9  -2   32.53    1.62
   0   9   2   31.31    1.57
   0   9   2   32.31    1.64
   0   9  -2   32.80    1.61
  -1  -9  -2  116.47    5.59
   1   9   2  124.11    5.66
  -1   9  -2  115.95    5.63
  -1   9  -2  121.34    5.58
   2  -9   2    1.85    0.32
  -2  -9  -2    2.62    0.30
  -2   9  -2    3.27    0.34
  -2   9  -2    3.00    0.26
   2   9   2    3.62    0.46
  -3  -9  -2   12.85    0.76
  -3   9  -2   12.50    0.78
  -3   9  -2   12.24    0.67
   3   9   2   11.88    0.83
  -4  -9  -2   25.42    1.43
  -4   9  -2   26.33    1.30
   4   9   2   27.16    1.55
  -4   9  -2   27.75    1.46
  -5  -9  -2    8.36    0.64
  -5   9  -2    7.34    0.62
  -5   9  -2    8.70    0.63
  -4 -10   2    6.15    0.49
  -4  10   2    5.92    0.47
  -4  10   2    5.46    0.42
  -4  10   2    5.22    0.51
  -4  10   2    5.55    0.37
  -3 -10   2    1.18    0.25
  -3  10   2    1.41    0.26
  -3  10   2    1.03    0.18
  -3  10   2    1.27    0.30
   3  10  -2    1.15    0.20
  -2 -10   2    0.14    0.14
   2 -10  -2    0.04    0.13
  -2  10   2   -0.13    0.09
   2  10  -2    0.09    0.19
  -2  10   2    0.28    0.19
  -2  10   2    0.11    0.12
   2  10  -2   -0.02    0.15
   1 -10  -2   67.40    3.05
  -1 -10   2   59.83    2.95
  -1 -10   2   61.54    2.96
  -1  10   2   58.13    2.93
  -1  10   2   60.50    2.94
   1  10  -2   59.74    2.98
   1  10  -2   62.93    2.97
  -1  10   2   60.49    2.98
   0 -10   2    4.23    0.26
   0 -10  -2    4.26    0.35
   0 -10   2    4.19    0.39
   0  10  -2    4.05    0.37
   0  10  -2    4.08    0.36
   0  10   2    4.17    0.37
  -1 -10  -2   -0.05    0.14
  -1  10  -2   -0.20    0.12
   1  10   2   -0.04    0.18
  -1  10  -2    0.20    0.18
  -2  10  -2    4.42    0.40
   2  10   2    4.87    0.47
  -2  10  -2    4.83    0.37
  -3 -10  -2   18.40    1.06
  -3  10  -2   18.62    0.97
   3  10   2   18.67    1.15
  -3  10  -2   19.82    1.10
  -4 -10  -2    0.20    0.23
   4  10   2    0.07    0.27
  -4  10  -2   -0.08    0.20
  -4  10  -2    0.29    0.13
   4  10   2    0.07    0.14
  -4 -11   2    0.72    0.25
  -4  11   2    0.60    0.24
  -4  11   2    0.58    0.26
  -3 -11   2    9.87    0.65
  -3  11   2    9.70    0.71
  -3  11   2    9.44    0.55
   3  11  -2   10.49    0.62
  -3  11   2    9.81    0.65
  -2 -11   2   37.87    1.87
   2 -11  -2   35.81    1.80
   2  11  -2   38.34    1.86
  -2  11   2   36.13    1.79
  -2  11   2   36.99    1.88
  -2  11   2   37.24    1.93
   2  11  -2   36.28    1.92
  -1 -11   2    3.20    0.36
   1 -11  -2    3.57    0.44
   1  11  -2    3.17    0.37
  -1  11   2    3.18    0.38
   1  11  -2    3.33    0.41
   0 -11  -2   37.51    1.86
   0  11  -2   37.42    1.88
   0  11  -2   37.59    1.89
   0  11   2   35.64    1.90
  -1 -11  -2   25.89    1.33
  -1  11  -2   25.41    1.37
  -1  11  -2   25.67    1.33
   1  11   2   24.36    1.39
  -2 -11  -2   10.43    0.69
  -2  11  -2   11.65    0.75
  -2  11  -2   10.89    0.65
   2  11   2   11.02    0.78
  -3 -11  -2    7.52    0.58
  -3  11  -2    7.63    0.49
   3  11   2    7.72    0.67
  -3  11  -2    7.93    0.62
   3  11   2    8.09    0.53
  -4 -11  -2   13.74    0.89
  -4  11  -2   16.13    0.95
   4  11   2   12.94    1.00
  -3 -12   2    8.03    0.59
   3  12  -2    7.89    0.53
  -3  12   2    7.75    0.64
  -3  12   2    7.31    0.56
  -2 -12   2   16.59    0.96
   2  12  -2   15.35    1.00
  -2  12   2   17.43    1.03
  -2  12   2   16.69    0.99
   2  12  -2   16.68    0.95
  -1 -12   2   17.54    0.95
  -1 -12   2   17.97    1.04
  -1  12   2   18.40    1.07
   1  12  -2   18.09    1.05
   1  12  -2   18.33    1.03
  -1  12   2   17.46    1.04
   0 -12  -2   41.16    2.01
   0  12   2   38.71    2.03
   0  12  -2   37.44    2.01
   0  12  -2   40.20    2.01
  -1 -12  -2    0.47    0.24
  -1  12  -2    0.86    0.26
   1  12   2    0.54    0.23
   1  12   2    0.79    0.27
  -2 -12  -2   25.51    1.33
   2  12   2   23.39    1.32
  -2  12  -2   24.83    1.38
   2  12   2   24.71    1.42
  -3  12  -2    4.04    0.47
   3  12   2    3.31    0.51
  -3  12  -2    3.17    0.31
  -2 -13   2    1.89    0.33
  -2 -13   2    1.25    0.26
   2  13  -2    1.75    0.29
  -2  13   2    1.36    0.33
   2  13  -2    2.65    0.40
  -2  13   2    2.07    0.34
  -1 -13   2    0.56    0.25
   1  13  -2   -0.12    0.20
   1  13  -2    0.13    0.23
  -1  13   2   -0.05    0.23
  -1  13   2    0.40    0.24
   0 -13  -2   -0.02    0.22
   0  13  -2    0.19    0.20
   0  13  -2    0.07    0.21
   0  13   2    0.05    0.23
   0  13   2    0.00    0.23
  -1 -13  -2   10.56    0.69
  -1  13  -2   10.04    0.68
   1  13   2   10.58    0.73
  -1  13  -2    9.96    0.78
  -2 -13  -2    0.08    0.25
   2  13   2   -0.03    0.24
   2  13   2   -0.07    0.21
  -2  13  -2    0.08    0.23
  -2  13  -2    0.26    0.20
  -1 -14   2   47.39    2.29
  -1  14   2   41.08    2.31
   0  14  -2    8.95    0.63
   0  14   2    8.51    0.66
   0  14   2    7.99    0.66
   0  14  -2    7.85    0.63
  -6   0   3   13.23    0.96
  -6   0   3   13.29    0.77
  -5   0   3   11.49    0.66
  -5   0   3   11.88    0.82
   4   0  -3   12.57    0.67
  -4   0   3   11.17    0.59
  -4   0   3   11.54    0.63
  -4   0   3   11.87    0.76
  -3   0   3  139.67    6.86
   3   0  -3  153.30    6.89
  -3   0   3  149.68    6.87
  -3   0   3  152.72    6.98
  -2   0   3   82.14    3.84
   2   0  -3   84.42    3.77
  -2   0   3   80.05    3.74
  -2   0   3   78.29    3.76
   2   0  -3   79.82    3.75
  -1   0   3    4.97    0.26
  -1   0   3    5.06    0.34
   1   0  -3    4.99    0.31
   1   0  -3    5.17    0.27
  -1   0   3    5.00    0.30
   1   0  -3    4.86    0.35
   0   0   3  203.15   14.50
   0   0  -3  208.03   14.63
   0   0   3  217.45   14.66
  -1   0  -3  362.71   20.90
   1   0   3  333.38   20.35
   1   0   3  329.88   20.52
  -1   0  -3  350.82   20.73
   2   0   3    0.04    0.06
   2   0   3    0.04    0.08
  -2   0  -3    0.15    0.10
  -2   0  -3    0.11    0.04
  -2   0  -3    0.07    0.08
  -2   0  -3    0.17    0.09
  -3   0  -3   36.85    1.82
  -3   0  -3   36.95    1.74
   3   0   3   37.70    1.79
  -3   0  -3   37.17    1.83
  -3   0  -3   35.40    1.80
  -4   0  -3  145.72    6.66
  -4   0  -3  136.08    6.60
   4   0   3  143.16    6.57
  -4   0  -3  141.44    6.54
  -5   0  -3    4.36    0.43
  -5   0  -3    4.21    0.32
  -5   0  -3    3.93    0.29
  -6   0  -3   11.04    0.77
  -6  -1   3    0.62    0.32
  -6  -1   3    0.64    0.21
  -6   1   3    1.09    0.37
  -6   1   3    0.91    0.21
  -6   1   3    0.20    0.26
  -5  -1   3   11.12    0.81
  -5  -1   3   11.79    0.65
  -5   1   3   10.58    0.56
  -5   1   3   11.41    0.80
  -5   1   3   11.56    0.64
  -4  -1   3    0.14    0.11
   4  -1  -3    0.11    0.12
  -4  -1   3    0.30    0.20
  -4   1   3    0.03    0.10
   4   1  -3    0.04    0.11
  -4   1   3    0.04    0.18
  -4   1   3    0.12    0.08
  -3  -1   3    1.98    0.27
  -3  -1   3    1.74    0.15
   3  -1  -3    2.06    0.18
  -3  -1   3    2.10    0.18
  -3   1   3    2.07    0.17
   3   1  -3    2.01    0.19
  -3   1   3    1.93    0.26
  -3   1   3    1.80    0.17
   2  -1  -3    8.10    0.41
  -2  -1   3    8.19    0.44
  -2  -1   3    8.08    0.50
   2  -1  -3    8.10    0.52
   2   1  -3    8.38    0.44
   2   1  -3    7.74    0.43
  -2   1   3    8.19    0.40
  -2   1   3    8.28    0.51
  -2   1   3    7.93    0.44
   1  -1  -3    1.38    0.19
   1  -1  -3    1.62    0.10
  -1  -1   3    1.54    0.15
   1  -1  -3    1.79    0.15
  -1  -1   3    2.00    0.13
  -1   1   3    1.61    0.14
   1   1  -3    1.27    0.13
   1   1  -3    1.60    0.17
   1   1  -3    1.54    0.18
  -1   1   3    1.58    0.19
  -1   1   3    1.44    0.17
   0  -1  -3    0.58    0.11
   0  -1   3    0.48    0.11
   0  -1  -3    0.73    0.10
   0  -1  -3    0.45    0.12
   0  -1   3    0.53    0.12
   0   1  -3    0.45    0.11
   0   1   3    0.40    0.13
   0   1   3    0.57    0.09
   0   1   3    0.76    0.11
   1  -1   3    0.34    0.09
  -1  -1  -3    0.47    0.10
   1  -1   3    0.41    0.05
   1  -1   3    0.42    0.10
  -1  -1  -3    0.27    0.10
  -1  -1  -3    0.42    0.06
   1   1   3    0.56    0.13
   1   1   3    0.42    0.08
   1   1   3    0.38    0.10
  -1   1  -3    0.33    0.10
  -1   1  -3    0.51    0.08
  -2  -1  -3   49.46    2.37
  -2  -1  -3   49.95    2.30
  -2  -1  -3   49.27    2.36
   2  -1   3   49.05    2.36
  -2  -1  -3   49.48    2.37
  -2   1  -3   49.49    2.27
  -2   1  -3   50.38    2.38
   2   1   3   49.55    2.33
  -2   1  -3   47.81    2.36
  -2   1  -3   49.72    2.35
   2   1   3   48.20    2.36
  -3  -1  -3    1.94    0.21
  -3  -1  -3    2.12    0.17
   3  -1   3    1.78    0.21
  -3  -1  -3    2.06    0.23
  -3  -1  -3    2.32    0.25
  -3   1  -3    1.90    0.26
  -3   1  -3    2.00    0.24
   3   1   3    2.15    0.21
  -3   1  -3    2.03    0.14
  -3   1  -3    1.78    0.20
  -4  -1  -3    1.40    0.19
  -4  -1  -3    1.79    0.18
  -4  -1  -3    1.81    0.27
   4  -1   3    1.33    0.19
  -4   1  -3    1.50    0.15
  -4   1  -3    1.29    0.24
   4   1   3    1.47    0.18
  -4   1  -3    1.71    0.24
  -5  -1  -3    0.25    0.10
  -5  -1  -3    0.40    0.22
  -5   1  -3    0.33    0.10
  -5   1  -3    0.17    0.18
  -5   1  -3    0.36    0.23
  -6  -1  -3    5.72    0.51
  -6   1  -3    4.61    0.38
  -6   1  -3    5.05    0.54
  -6  -2   3   29.86    1.52
  -6  -2   3   30.43    1.72
  -6   2   3   27.00    1.62
  -6   2   3   30.62    1.69
  -6   2   3   29.36    1.48
  -5  -2   3   11.24    0.66
  -5  -2   3   11.91    0.82
  -5   2   3   10.27    0.58
  -5   2   3   11.68    0.80
  -5   2   3   11.76    0.62
  -5   2   3   10.14    0.59
  -5   2   3   10.82    0.84
  -4  -2   3    7.43    0.58
  -4  -2   3    7.32    0.45
  -4   2   3    6.59    0.55
  -4   2   3    7.59    0.57
  -4   2   3    7.57    0.43
  -4   2   3    7.51    0.42
  -3  -2   3   68.98    3.15
  -3  -2   3   69.82    3.25
  -3  -2   3   66.14    3.09
   3   2  -3   65.71    3.17
  -3   2   3   66.69    3.11
  -3   2   3   66.36    3.14
  -3   2   3   68.67    3.24
  -3   2   3   63.09    3.22
   2  -2  -3  113.00    5.60
  -2  -2   3  123.22    5.52
  -2  -2   3  120.53    5.51
  -2  -2   3  118.63    5.59
  -2   2   3  110.31    5.58
   2   2  -3  116.87    5.53
  -2   2   3  122.55    5.60
  -2   2   3  126.80    5.47
   2   2  -3  119.27    5.53
  -2   2   3  120.70    5.53
  -1  -2   3    9.52    0.55
   1  -2  -3    7.28    0.55
  -1  -2   3    9.83    0.50
   1   2  -3    9.48    0.53
   1   2  -3    9.01    0.48
  -1   2   3    8.22    0.51
  -1   2   3    7.79    0.53
   1   2  -3   10.02    0.51
  -1   2   3    9.51    0.49
   0  -2  -3  152.37    7.17
   0   2  -3  153.73    7.13
   0   2   3  154.71    7.18
   0   2  -3  154.66    7.13
  -1  -2  -3  106.63    5.06
   1  -2   3  108.40    5.07
  -1  -2  -3  111.37    5.04
  -1  -2  -3  102.67    5.05
   1  -2   3  111.38    5.05
  -1  -2  -3  108.96    5.02
   1   2   3  110.36    5.03
   1   2   3  113.49    5.05
   1   2   3  106.54    5.05
  -1   2  -3  104.34    5.03
   1   2   3  111.38    5.11
   2  -2   3   14.57    0.75
  -2  -2  -3   14.15    0.75
  -2  -2  -3   14.18    0.70
  -2  -2  -3   13.79    0.76
  -2  -2  -3   14.17    0.74
   2   2   3   13.17    0.73
  -2   2  -3   14.58    0.72
  -2   2  -3   14.19    0.75
   2   2   3   12.79    0.74
   2   2   3   14.27    0.74
  -3  -2  -3  129.47    5.92
  -3  -2  -3  127.29    5.90
   3  -2   3  126.87    5.94
  -3  -2  -3  126.31    5.97
  -3   2  -3  129.46    5.85
  -3   2  -3  124.18    5.85
   3   2   3  126.92    5.94
  -3   2  -3  131.38    6.00
  -3   2  -3  127.30    5.94
  -3   2  -3  126.31    5.95
   3   2   3  125.99    5.96
  -4  -2  -3   30.76    1.48
   4  -2   3   30.98    1.52
  -4  -2  -3   29.92    1.58
  -4  -2  -3   29.05    1.49
  -4   2  -3   32.48    1.60
  -4   2  -3   30.19    1.44
   4   2   3   31.00    1.48
  -4   2  -3   29.46    1.51
  -4   2  -3   30.69    1.55
  -5  -2  -3    4.65    0.45
  -5   2  -3    5.22    0.34
  -5   2  -3    4.99    0.30
  -5   2  -3    4.83    0.42
  -5   2  -3    5.18    0.48
  -6   2  -3    5.30    0.50
  -6   2  -3    6.64    0.56
  -6  -3   3    5.32    0.45
  -6   3   3    5.40    0.39
  -6   3   3    4.17    0.53
  -6   3   3    5.06    0.60
  -5  -3   3    3.67    0.35
  -5  -3   3    3.46    0.48
  -5   3   3    3.73    0.29
  -5   3   3    3.35    0.28
  -5   3   3    3.84    0.52
  -5   3   3    3.53    0.28
  -4  -3   3   40.09    2.04
  -4  -3   3   39.18    1.91
  -4   3   3   39.05    2.02
  -4   3   3   38.52    2.01
  -4   3   3   39.46    1.86
  -3  -3   3    3.88    0.28
  -3  -3   3    3.63    0.36
  -3   3   3    3.81    0.27
  -3   3   3    3.47    0.35
   3   3  -3    3.47    0.29
   3   3  -3    3.67    0.22
  -3   3   3    4.12    0.36
  -3   3   3    3.74    0.22
   2  -3  -3   25.92    1.42
  -2  -3   3   28.60    1.40
  -2  -3   3   27.37    1.32
  -2  -3   3   28.34    1.34
  -2  -3   3   27.23    1.44
   2   3  -3   28.01    1.35
  -2   3   3   27.78    1.35
  -2   3   3   27.00    1.42
   2   3  -3   27.06    1.35
  -2   3   3   28.14    1.40
  -1  -3   3   43.92    2.04
  -1  -3   3   45.65    2.06
  -1  -3   3   44.19    2.06
   1  -3  -3   41.18    2.07
  -1  -3   3   43.24    2.03
   1   3  -3   43.40    2.05
  -1   3   3   44.46    2.05
  -1   3   3   43.59    2.07
  -1   3   3   36.19    2.09
   0  -3  -3   36.97    1.87
   0  -3   3   37.38    1.80
   0  -3   3   35.92    1.81
   0  -3  -3   37.41    1.78
   0  -3  -3   37.43    1.81
   0  -3   3   37.64    1.83
   0   3   3   39.63    1.78
   0   3   3   40.45    1.84
   0   3  -3   38.97    1.83
   0   3   3   38.71    1.82
   0   3  -3   37.84    1.82
   0   3  -3   37.07    1.84
   0   3   3   39.34    1.89
   1  -3   3   41.49    1.96
   1  -3   3   41.73    2.00
   1  -3   3   43.27    1.92
  -1  -3  -3   41.34    2.00
  -1  -3  -3   42.34    1.99
  -1  -3  -3   41.98    1.98
  -1  -3  -3   41.30    1.96
   1   3   3   42.97    1.99
  -1   3  -3   36.14    1.95
   1   3   3   41.72    2.05
   1   3   3   42.59    1.97
  -1   3  -3   39.51    1.99
   1   3   3   43.68    2.00
   2  -3   3   49.50    2.32
  -2  -3  -3   47.20    2.33
  -2  -3  -3   49.56    2.29
  -2  -3  -3   47.71    2.27
   2   3   3   48.30    2.30
  -2   3  -3   46.64    2.31
   2   3   3   48.08    2.32
  -2   3  -3   47.88    2.26
  -3  -3  -3   51.98    2.51
   3  -3   3   51.06    2.48
  -3  -3  -3   52.06    2.44
  -3  -3  -3   53.39    2.49
  -3   3  -3   49.91    2.54
  -3   3  -3   52.70    2.37
  -3   3  -3   53.11    2.46
   3   3   3   48.50    2.47
  -3   3  -3   51.64    2.37
  -3   3  -3   50.39    2.48
  -4  -3  -3    0.79    0.22
  -4   3  -3    0.28    0.07
  -4   3  -3    0.44    0.14
  -4   3  -3    0.47    0.22
  -4   3  -3    0.23    0.17
   4   3   3    0.21    0.11
  -5  -3  -3   27.90    1.50
  -5   3  -3   29.16    1.39
  -5   3  -3   27.23    1.51
  -5   3  -3   26.81    1.32
  -5   3  -3   28.13    1.46
  -6  -3  -3    0.40    0.24
  -6   3  -3    0.28    0.27
  -6   3  -3    0.42    0.21
  -6   3  -3    0.44    0.27
  -6  -4   3    5.10    0.61
  -6  -4   3    5.05    0.45
  -6   4   3    4.90    0.37
  -6   4   3    5.09    0.55
  -6   4   3    5.35    0.59
  -5  -4   3   13.00    0.77
  -5  -4   3   13.26    0.93
  -5   4   3   12.52    0.73
  -5   4   3   13.61    0.86
  -5   4   3   14.03    0.73
  -4  -4   3    2.88    0.28
  -4  -4   3    2.49    0.38
  -4   4   3    2.99    0.27
  -4   4   3    3.06    0.40
  -4   4   3    3.01    0.21
  -4   4   3    2.61    0.35
  -3  -4   3   90.24    4.11
  -3  -4   3   86.74    4.19
  -3   4   3   88.15    4.03
  -3   4   3   87.37    4.19
   3   4  -3   83.24    4.06
  -3   4   3   90.04    4.12
  -3   4   3   86.55    4.17
  -2  -4   3   29.92    1.39
  -2  -4   3   28.10    1.43
  -2  -4   3   28.16    1.36
  -2  -4   3   29.06    1.44
   2  -4  -3   27.13    1.46
   2   4  -3   29.32    1.42
  -2   4   3   25.50    1.45
   2   4  -3   28.30    1.40
  -2   4   3   29.55    1.40
  -2   4   3   27.43    1.43
   1  -4  -3    2.46    0.24
  -1  -4   3    2.59    0.23
  -1  -4   3    2.53    0.20
   1  -4  -3    2.03    0.31
  -1  -4   3    2.66    0.22
  -1  -4   3    2.93    0.20
   1   4  -3    2.48    0.22
  -1   4   3    2.71    0.14
  -1   4   3    2.61    0.22
  -1   4   3    2.70    0.23
  -1   4   3    2.78    0.30
   1   4  -3    3.14    0.22
   0  -4   3  137.02    6.32
   0  -4   3  134.38    6.36
   0  -4  -3  135.10    6.41
   0  -4   3  139.42    6.33
   0   4  -3  134.56    6.37
   0   4   3  141.14    6.36
  -1  -4  -3  104.59    4.91
  -1  -4  -3  108.40    4.96
   1  -4   3  102.21    4.94
   1  -4   3  109.63    4.88
   1  -4   3   95.26    4.90
   1   4   3  105.49    4.91
   1   4   3  111.25    4.95
   1   4   3  108.53    4.93
   1   4   3  107.43    4.99
  -1   4  -3  101.69    4.87
  -1   4  -3  108.51    4.94
  -1   4  -3  105.51    4.88
  -1   4  -3  106.69    4.97
   2  -4   3    5.86    0.40
  -2  -4  -3    5.80    0.40
  -2  -4  -3    6.29    0.38
  -2  -4  -3    6.04    0.42
   2   4   3    6.42    0.42
   2   4   3    5.93    0.38
   2   4   3    6.00    0.38
  -2   4  -3    6.59    0.41
  -2   4  -3    6.26    0.33
  -3  -4  -3    4.24    0.32
  -3  -4  -3    4.53    0.37
  -3   4  -3    4.59    0.35
   3   4   3    4.16    0.38
  -3   4  -3    4.53    0.30
   3   4   3    4.87    0.35
  -4  -4  -3   40.90    2.04
  -4   4  -3   41.29    2.01
  -4   4  -3   38.78    1.87
  -4   4  -3   41.04    1.87
  -4   4  -3   40.52    1.97
   4   4   3   40.18    1.95
  -4   4  -3   40.51    2.08
  -5  -4  -3    0.23    0.22
  -5   4  -3    0.51    0.22
  -5   4  -3    0.18    0.21
  -5   4  -3    0.51    0.27
  -5   4  -3    0.42    0.08
  -6  -4  -3    3.11    0.42
  -6   4  -3    1.88    0.38
  -6   4  -3    1.81    0.35
  -6   4  -3    2.63    0.34
  -6  -5   3    4.54    0.42
  -6  -5   3    4.88    0.60
  -6   5   3    4.66    0.38
  -6   5   3    3.38    0.45
  -6   5   3    4.51    0.56
  -5  -5   3   28.79    1.64
  -5  -5   3   27.97    1.48
  -5   5   3   29.88    1.40
  -5   5   3   29.88    1.56
  -5   5   3   27.25    1.46
  -4  -5   3   25.69    1.28
  -4  -5   3   24.21    1.39
  -4   5   3   24.49    1.37
  -4   5   3   25.21    1.34
  -3  -5   3    2.77    0.32
  -3  -5   3    2.46    0.24
  -3   5   3    2.60    0.31
   3   5  -3    2.19    0.22
  -3   5   3    2.55    0.32
  -3   5   3    2.53    0.15
  -3   5   3    2.28    0.15
   2  -5  -3   43.02    2.35
  -2  -5   3   47.00    2.33
   2  -5  -3   45.23    2.35
  -2  -5   3   48.86    2.34
  -2  -5   3   48.92    2.28
  -2   5   3   48.83    2.19
   2   5  -3   48.79    2.27
  -2   5   3   49.34    2.19
   2   5  -3   45.55    2.30
  -2   5   3   50.29    2.33
  -1  -5   3  181.49    8.15
  -1  -5   3  183.55    8.19
   1  -5  -3  172.70    8.19
  -1  -5   3  170.51    8.15
  -1   5   3  172.09    8.22
   1   5  -3  177.78    8.18
   0  -5   3   20.86    1.09
   0  -5   3   20.58    1.09
   0  -5  -3   22.19    1.12
   0  -5  -3   22.62    1.05
   0  -5   3   20.64    1.04
   0  -5   3   20.35    1.07
   0  -5  -3   21.16    1.14
   0   5   3   22.98    1.12
   0   5   3   21.81    1.09
   0   5   3   22.95    1.15
   0   5  -3   21.29    1.06
   0   5  -3   21.09    1.08
   0   5  -3   22.10    1.15
   0   5   3   20.88    1.04
  -1  -5  -3   11.65    0.65
   1  -5   3   12.02    0.69
  -1  -5  -3   11.68    0.65
   1   5   3   12.82    0.65
  -1   5  -3   12.51    0.62
   1   5   3   12.71    0.67
   1   5   3   13.17    0.71
  -1   5  -3   13.04    0.71
  -1   5  -3   11.80    0.68
  -2  -5  -3  114.16    5.33
  -2  -5  -3  116.42    5.31
   2   5   3  114.98    5.31
   2   5   3  123.40    5.38
  -2   5  -3   96.50    5.23
  -2   5  -3  115.92    5.34
   2   5   3  112.17    5.32
  -2   5  -3  118.49    5.23
  -3  -5  -3    8.16    0.55
  -3   5  -3    8.30    0.54
  -3   5  -3    9.03    0.46
   3   5   3    7.65    0.51
   3   5   3    9.32    0.60
  -4  -5  -3   10.41    0.70
  -4   5  -3   11.34    0.77
   4   5   3   10.96    0.64
  -4   5  -3   10.93    0.66
  -4   5  -3   10.67    0.53
  -4   5  -3   12.49    0.71
   4   5   3   11.28    0.78
  -4   5  -3   11.40    0.62
  -5  -5  -3   10.29    0.70
  -5   5  -3   10.09    0.73
  -5   5  -3    9.67    0.67
  -6  -5  -3   22.71    1.30
  -6   5  -3   20.76    1.36
  -6   5  -3   22.50    1.23
  -5  -6   3    1.09    0.25
  -5  -6   3    0.66    0.30
  -5   6   3    0.51    0.11
  -5   6   3    1.02    0.30
  -5   6   3    0.48    0.21
  -4  -6   3    0.65    0.19
  -4  -6   3    0.13    0.22
  -4   6   3    0.22    0.24
  -4   6   3    0.37    0.09
  -4   6   3    0.44    0.22
  -3  -6   3    1.70    0.28
   3  -6  -3    1.25    0.21
  -3  -6   3    1.81    0.23
  -3   6   3    1.11    0.27
  -3   6   3    1.60    0.11
  -3   6   3    1.75    0.26
  -3   6   3    1.78    0.12
  -2  -6   3   15.27    0.87
   2  -6  -3   14.30    0.88
  -2  -6   3   15.48    0.83
   2   6  -3   16.28    0.82
  -2   6   3   16.12    0.74
  -2   6   3   15.07    0.89
  -2   6   3   15.93    0.86
   1  -6  -3    1.64    0.18
   1  -6  -3    0.94    0.26
   1  -6  -3    1.87    0.23
  -1  -6   3    1.37    0.19
  -1  -6   3    1.85    0.22
  -1  -6   3    1.60    0.19
  -1   6   3    2.06    0.25
   1   6  -3    1.80    0.21
   1   6  -3    1.70    0.24
   1   6  -3    1.82    0.21
  -1   6   3    1.60    0.17
  -1   6   3    1.95    0.24
   0  -6  -3    7.44    0.51
   0  -6   3    7.15    0.46
   0  -6   3    7.30    0.40
   0  -6   3    7.78    0.45
   0  -6   3    6.62    0.45
   0  -6  -3    7.35    0.45
   0  -6  -3    6.82    0.41
   0   6   3    7.71    0.48
   0   6  -3    7.97    0.44
   0   6  -3    7.90    0.47
   0   6   3    7.60    0.41
   0   6   3    8.23    0.47
   0   6   3    7.71    0.50
   0   6  -3    7.11    0.47
  -1  -6  -3    2.81    0.27
  -1  -6  -3    3.14    0.24
  -1  -6  -3    2.54    0.26
   1  -6   3    2.96    0.25
  -1   6  -3    3.04    0.25
  -1   6  -3    3.34    0.29
   1   6   3    3.11    0.28
  -1   6  -3    3.15    0.23
   1   6   3    2.72    0.30
   1   6   3    2.93    0.24
   1   6   3    2.57    0.24
  -2  -6  -3    4.19    0.34
   2   6   3    4.40    0.39
  -2   6  -3    5.00    0.37
  -2   6  -3    4.51    0.26
   2   6   3    4.39    0.36
  -3  -6  -3   27.55    1.42
  -3   6  -3   26.80    1.29
  -3   6  -3   27.65    1.29
   3   6   3   28.31    1.49
   3   6   3   26.51    1.38
  -3   6  -3   28.30    1.43
  -4  -6  -3    0.18    0.19
  -4   6  -3    0.28    0.05
  -4   6  -3    0.56    0.20
  -4   6  -3    0.25    0.26
   4   6   3    0.34    0.27
  -4   6  -3    0.30    0.14
  -4   6  -3    0.17    0.06
  -4   6  -3    0.33    0.11
   4   6   3    0.60    0.17
  -5  -6  -3    0.35    0.24
  -5   6  -3    0.30    0.20
  -5   6  -3    0.06    0.25
  -5   6  -3    0.37    0.19
  -5  -7   3    6.95    0.53
  -5  -7   3    6.61    0.65
  -5   7   3    8.52    0.62
  -5   7   3    6.64    0.51
  -4  -7   3   59.89    2.91
  -4  -7   3   60.39    3.02
  -4   7   3   54.89    2.99
  -4   7   3   65.01    2.87
  -4   7   3   59.52    2.81
  -3  -7   3    2.37    0.28
  -3  -7   3    2.23    0.32
   3  -7  -3    2.25    0.27
   3   7  -3    2.33    0.23
  -3   7   3    2.21    0.15
  -3   7   3    2.07    0.32
  -3   7   3    2.16    0.15
  -3   7   3    2.75    0.32
  -2  -7   3   80.56    3.77
  -2  -7   3   75.25    3.79
   2  -7  -3   80.09    3.85
  -2   7   3   80.14    3.90
  -2   7   3   78.14    3.69
   2   7  -3   82.38    3.76
  -2   7   3   81.76    3.80
  -1  -7   3  134.84    6.37
  -1  -7   3  135.22    6.28
  -1  -7   3  132.20    6.29
   1   7  -3  134.74    6.31
   1   7  -3  136.12    6.29
  -1   7   3  137.26    6.33
  -1   7   3  131.43    6.22
  -1   7   3  138.49    6.32
   0  -7   3   45.79    2.27
   0  -7   3   46.46    2.34
   0  -7   3   46.94    2.33
   0  -7   3   49.28    2.26
   0  -7  -3   46.60    2.29
   0  -7  -3   49.23    2.42
   0   7  -3   50.24    2.32
   0   7  -3   49.81    2.34
   0   7   3   50.81    2.37
   0   7   3   49.07    2.38
   0   7   3   47.62    2.28
   1  -7   3   46.12    2.30
  -1  -7  -3   49.72    2.30
  -1   7  -3   47.95    2.33
   1   7   3   46.58    2.29
   1   7   3   45.86    2.37
  -1   7  -3   48.66    2.27
   1   7   3   49.80    2.36
  -2  -7  -3   66.16    3.16
   2  -7   3   60.99    3.12
  -2   7  -3   71.96    3.11
   2   7   3   66.71    3.22
   2   7   3   64.20    3.14
  -2   7  -3   65.64    3.17
  -3  -7  -3   36.61    1.81
   3   7   3   37.44    1.89
  -3   7  -3   36.09    1.82
   3   7   3   33.86    1.76
  -3   7  -3   35.09    1.68
  -4  -7  -3    1.61    0.29
   4   7   3    1.02    0.34
  -4   7  -3    1.25    0.12
  -4   7  -3    1.61    0.27
   4   7   3    1.38    0.24
  -5  -7  -3   40.75    2.17
  -5   7  -3   40.74    2.05
  -5   7  -3   37.99    2.10
  -5  -8   3    0.19    0.36
  -5   8   3    0.19    0.25
  -5   8   3    0.45    0.22
  -4  -8   3   -0.19    0.24
  -4  -8   3    0.20    0.19
  -4   8   3   -0.05    0.18
  -4   8   3   -0.01    0.07
  -4   8   3    0.32    0.22
  -4   8   3   -0.04    0.20
   4   8  -3    0.18    0.13
   4   8  -3   -0.11    0.11
  -3  -8   3   -0.16    0.20
  -3  -8   3    0.18    0.16
   3   8  -3   -0.02    0.12
  -3   8   3    0.27    0.20
  -3   8   3   -0.02    0.07
  -3   8   3    0.20    0.18
  -2  -8   3    3.04    0.33
  -2  -8   3    3.12    0.30
   2  -8  -3    2.62    0.33
  -2   8   3    3.46    0.34
  -2   8   3    2.77    0.20
   2   8  -3    3.23    0.29
  -2   8   3    3.54    0.34
   1  -8  -3    4.11    0.47
   1  -8  -3    3.52    0.33
  -1  -8   3    4.02    0.34
  -1  -8   3    4.23    0.31
  -1   8   3    4.56    0.37
   1   8  -3    4.13    0.33
  -1   8   3    4.35    0.38
   1   8  -3    4.26    0.35
  -1   8   3    4.24    0.27
   0  -8   3    1.51    0.14
   0  -8   3    1.35    0.21
   0  -8  -3    1.70    0.29
   0  -8   3    1.57    0.15
   0  -8  -3    1.36    0.19
   0  -8   3    1.41    0.21
   0   8   3    1.50    0.17
   0   8  -3    1.96    0.24
   0   8   3    1.55    0.24
   0   8   3    1.56    0.26
   0   8  -3    1.44    0.21
  -1  -8  -3    0.26    0.15
   1  -8   3    0.90    0.18
  -1   8  -3    0.44    0.15
   1   8   3    0.45    0.20
  -1   8  -3    0.33    0.12
   2  -8   3    2.18    0.27
  -2  -8  -3    2.37    0.29
  -2   8  -3    2.38    0.21
  -2   8  -3    2.74    0.32
   2   8   3    2.99    0.38
  -3  -8  -3    5.76    0.45
  -3   8  -3    5.04    0.45
  -3   8  -3    5.04    0.31
   3   8   3    6.18    0.54
  -4  -8  -3    3.10    0.38
  -4   8  -3    3.11    0.19
  -4   8  -3    3.19    0.39
   4   8   3    3.61    0.53
  -5  -8  -3    0.25    0.25
  -5   8  -3    0.22    0.24
  -5   8  -3    0.23    0.30
  -5  -9   3   23.49    1.32
  -5  -9   3   24.29    1.47
  -5   9   3   25.47    1.35
  -4  -9   3   18.04    1.02
  -4  -9   3   18.25    1.12
  -4   9   3   17.92    1.06
  -4   9   3   17.61    1.04
  -4   9   3   18.21    1.04
  -3  -9   3    5.86    0.46
  -3  -9   3    5.78    0.50
  -3   9   3    5.58    0.32
   3   9  -3    5.90    0.41
  -3   9   3    6.52    0.49
  -3   9   3    6.39    0.48
   2  -9  -3    9.05    0.63
  -2  -9   3    9.06    0.58
  -2  -9   3    8.47    0.59
  -2   9   3    8.49    0.48
  -2   9   3    9.00    0.61
   2   9  -3    9.49    0.57
  -2   9   3   10.19    0.60
  -1  -9   3   63.32    3.15
  -1  -9   3   65.57    3.13
  -1  -9   3   67.52    3.17
  -1   9   3   66.42    3.18
  -1   9   3   65.98    3.19
   1   9  -3   67.74    3.17
   1   9  -3   68.03    3.19
  -1   9   3   63.47    3.09
   0  -9   3    8.85    0.46
   0  -9   3    9.04    0.48
   0  -9  -3    8.46    0.52
   0   9   3    7.93    0.49
   0   9   3    8.79    0.59
   0   9  -3    8.30    0.55
   0   9   3    7.69    0.57
   0   9  -3    8.63    0.53
   1  -9   3    9.69    0.64
  -1  -9  -3   10.49    0.60
   1   9   3   10.41    0.68
  -1   9  -3    9.76    0.64
  -1   9  -3    9.65    0.57
   2  -9   3   91.61    4.88
  -2  -9  -3  101.84    4.70
  -2   9  -3   99.34    4.73
  -2   9  -3   95.22    4.72
   2   9   3  107.97    4.80
  -3  -9  -3   20.07    1.16
   3   9   3   23.09    1.29
  -3   9  -3   22.20    1.20
  -3   9  -3   20.62    1.05
  -4  -9  -3    3.83    0.43
   4   9   3    3.37    0.51
  -4   9  -3    3.91    0.42
  -4 -10   3    1.78    0.36
  -4  10   3    1.24    0.26
  -4  10   3    1.58    0.32
  -4  10   3    1.55    0.32
  -3 -10   3   17.55    0.98
   3  10  -3   17.19    0.93
  -3  10   3   16.77    1.00
  -3  10   3   17.67    0.96
  -2 -10   3    3.52    0.35
   2 -10  -3    2.98    0.35
  -2 -10   3    2.86    0.33
  -2  10   3    3.08    0.36
   2  10  -3    3.86    0.33
  -2  10   3    2.97    0.24
  -2  10   3    3.38    0.33
  -1 -10   3    0.32    0.19
  -1 -10   3    0.43    0.16
  -1 -10   3    0.19    0.14
  -1  10   3    0.09    0.11
   1  10  -3    0.28    0.20
   1  10  -3    0.26    0.19
  -1  10   3    0.22    0.20
  -1  10   3    0.29    0.16
   0 -10  -3   17.33    0.91
   0  10   3   15.24    0.94
   0  10   3   16.90    0.98
   0  10  -3   17.62    0.93
   0  10  -3   16.03    0.94
  -1 -10  -3   24.58    1.30
  -1  10  -3   24.50    1.33
  -1  10  -3   24.88    1.27
   1  10   3   25.63    1.38
   2 -10   3   -0.13    0.23
  -2 -10  -3    0.55    0.20
  -2  10  -3    0.31    0.14
   2  10   3    0.13    0.25
  -2  10  -3    0.12    0.19
  -3 -10  -3    0.21    0.21
  -3  10  -3    0.55    0.24
   3  10   3    0.60    0.30
  -4 -10  -3   14.00    1.01
   4  10   3   17.00    0.86
  -4  10  -3   15.18    1.03
  -4 -11   3   17.15    1.11
  -4 -11   3   17.92    1.04
  -4  11   3   18.06    1.10
  -4  11   3   19.12    1.06
  -3 -11   3    1.82    0.30
  -3 -11   3    1.42    0.32
  -3  11   3    2.11    0.34
  -3  11   3    1.60    0.34
   3  11  -3    1.66    0.26
  -3  11   3    2.20    0.28
  -2 -11   3   12.32    0.77
  -2 -11   3   11.92    0.75
  -2  11   3   12.69    0.80
  -2  11   3   12.31    0.73
   2  11  -3   13.16    0.75
  -1 -11   3   24.40    1.24
  -1 -11   3   23.88    1.20
  -1 -11   3   23.63    1.27
   1  11  -3   24.03    1.27
  -1  11   3   22.56    1.29
  -1  11   3   21.75    1.24
   1  11  -3   24.19    1.28
   0 -11  -3   12.17    0.75
   0  11  -3   12.19    0.77
   0  11   3   12.46    0.81
   0  11  -3   12.73    0.75
  -1 -11  -3   15.97    0.89
   1  11   3   16.34    0.98
  -1  11  -3   14.72    0.91
  -1  11  -3   14.85    0.86
  -2 -11  -3   21.77    1.22
  -2  11  -3   22.37    1.26
  -2  11  -3   23.09    1.16
   2  11   3   22.76    1.32
  -3 -11  -3   17.35    1.03
  -3  11  -3   17.14    0.91
   3  11   3   18.95    1.17
  -3  11  -3   17.82    1.07
  -3 -12   3    7.91    0.59
  -3  12   3    8.77    0.64
  -3  12   3    7.26    0.64
  -2 -12   3   16.99    0.99
  -2 -12   3   20.12    1.05
  -2  12   3   15.94    0.95
   2  12  -3   18.68    1.02
  -2  12   3   18.25    1.05
  -1 -12   3    0.60    0.24
  -1 -12   3    0.45    0.15
   1  12  -3    0.35    0.23
   1  12  -3    0.27    0.23
  -1  12   3    0.16    0.22
   0 -12  -3   16.13    0.92
   0  12   3   14.47    0.94
   0  12  -3   15.27    0.89
   0  12  -3   14.87    0.91
  -1 -12  -3   16.53    0.95
   1  12   3   16.75    1.04
  -1  12  -3   16.31    0.92
  -1  12  -3   16.37    0.99
  -2 -12  -3    4.82    0.44
  -2  12  -3    4.90    0.39
   2  12   3    4.35    0.60
  -2  12  -3    4.07    0.52
  -3 -12  -3   22.74    1.31
  -3  12  -3   22.41    1.34
   3  12   3   25.39    1.46
   3  12   3   23.98    1.28
  -2 -13   3    3.01    0.39
  -2 -13   3    2.05    0.31
  -2  13   3    2.28    0.41
  -2  13   3    2.33    0.39
  -1  13   3   11.91    0.93
  -1  13   3   14.01    0.88
   1  13  -3   11.97    0.81
   1  13  -3   13.30    0.83
   0 -13  -3    0.43    0.27
   0  13  -3    0.15    0.21
   0  13  -3    0.54    0.23
  -1 -13  -3    0.50    0.25
  -1  13  -3    0.52    0.21
   1  13   3    0.20    0.26
  -1  13  -3    0.03    0.20
  -2 -13  -3    5.38    0.51
  -2  13  -3    5.66    0.44
   2  13   3    5.29    0.50
   2  13   3    5.53    0.59
  -2  13  -3    5.69    0.54
  -6   0   4    1.75    0.40
  -6   0   4    1.56    0.25
  -5   0   4   38.44    1.87
  -5   0   4   38.84    2.06
  -4   0   4   27.21    1.46
  -4   0   4   26.17    1.30
  -3   0   4    0.33    0.10
  -3   0   4    0.21    0.08
   3   0  -4    0.27    0.11
  -3   0   4    0.08    0.15
  -2   0   4  394.43   25.55
   2   0  -4  432.35   26.40
  -2   0   4  412.30   25.88
   2   0  -4  397.48   25.64
   1   0  -4  144.93    6.33
   1   0  -4  129.92    6.39
  -1   0   4  139.25    6.31
   1   0  -4  127.01    6.27
  -1   0   4  138.60    6.35
   0   0  -4    1.78    0.21
   0   0   4    2.42    0.25
   0   0   4    1.87    0.17
   0   0  -4    2.13    0.24
   0   0   4    2.29    0.21
  -1   0  -4   39.81    1.96
   1   0   4   42.62    2.09
   1   0   4   41.53    2.04
   1   0   4   45.05    1.98
  -1   0  -4   40.77    2.01
  -1   0  -4   41.77    2.05
   2   0   4  178.50    8.32
  -2   0  -4  182.12    8.30
  -2   0  -4  184.35    8.38
   2   0   4  180.53    8.41
   2   0   4  174.64    8.43
  -2   0  -4  184.98    8.41
   3   0   4    3.56    0.32
  -3   0  -4    3.39    0.34
  -3   0  -4    4.00    0.23
  -3   0  -4    4.07    0.36
  -3   0  -4    3.73    0.31
  -4   0  -4   25.72    1.42
   4   0   4   26.34    1.34
  -4   0  -4   26.59    1.37
  -4   0  -4   26.49    1.26
  -5   0  -4   34.96    1.74
  -5   0  -4   31.49    1.54
   5   0   4   31.67    1.59
  -5   0  -4   31.01    1.62
  -6   0  -4   14.64    0.96
  -6  -1   4    0.40    0.31
  -6  -1   4    0.18    0.18
  -6   1   4    0.19    0.30
  -6   1   4    0.04    0.16
  -6   1   4    0.02    0.27
  -5  -1   4    7.29    0.45
  -5  -1   4    7.12    0.62
  -5   1   4    6.41    0.39
  -5   1   4    6.73    0.60
  -5   1   4    6.60    0.41
  -4  -1   4    5.96    0.37
  -4  -1   4    5.99    0.33
  -4  -1   4    6.08    0.51
   4  -1  -4    5.80    0.38
  -4   1   4    5.74    0.36
  -4   1   4    5.81    0.35
   4   1  -4    5.48    0.41
  -4   1   4    5.36    0.50
   3  -1  -4    3.57    0.25
  -3  -1   4    3.71    0.36
  -3  -1   4    3.68    0.26
  -3  -1   4    3.82    0.25
   3   1  -4    3.39    0.27
  -3   1   4    4.11    0.25
  -3   1   4    4.47    0.38
  -3   1   4    3.89    0.27
  -2  -1   4    1.53    0.14
   2  -1  -4    1.55    0.12
  -2  -1   4    1.45    0.16
  -2  -1   4    1.28    0.23
   2   1  -4    1.62    0.19
  -2   1   4    1.39    0.26
   2   1  -4    1.42    0.14
  -2   1   4    1.42    0.11
  -2   1   4    1.41    0.17
   1  -1  -4    0.29    0.07
  -1  -1   4    0.19    0.10
   1  -1  -4    0.24    0.10
   1  -1  -4    0.21    0.15
  -1  -1   4    0.33    0.12
  -1   1   4    0.30    0.12
   1   1  -4    0.18    0.08
  -1   1   4    0.30    0.09
   1   1  -4    0.10    0.11
   1   1  -4    0.22    0.11
  -1   1   4    0.30    0.12
   0  -1  -4   34.93    1.78
   0  -1   4   35.00    1.69
   0  -1   4   35.28    1.73
   0  -1   4   38.76    1.76
   0  -1  -4   35.78    1.73
   0  -1  -4   31.65    1.68
   0   1   4   35.91    1.79
   0   1   4   34.71    1.71
   0   1  -4   37.06    1.75
   0   1  -4   34.34    1.76
   1  -1   4    1.84    0.23
  -1  -1  -4    1.91    0.19
  -1  -1  -4    1.90    0.15
  -1  -1  -4    1.99    0.22
   1  -1   4    1.96    0.14
  -1  -1  -4    1.89    0.19
   1  -1   4    2.12    0.22
  -1   1  -4    2.01    0.18
   1   1   4    2.18    0.18
  -1   1  -4    1.99    0.22
   1   1   4    2.06    0.20
   1   1   4    2.03    0.27
  -2  -1  -4    1.42    0.21
   2  -1   4    1.41    0.21
  -2  -1  -4    1.33    0.18
   2  -1   4    1.29    0.20
  -2  -1  -4    1.32    0.20
  -2  -1  -4    1.63    0.12
  -2   1  -4    1.33    0.17
  -2   1  -4    1.25    0.21
   2   1   4    1.45    0.17
   2   1   4    1.59    0.22
   2   1   4    1.19    0.23
   3  -1   4   -0.08    0.12
  -3  -1  -4    0.34    0.17
  -3  -1  -4    0.45    0.09
  -3  -1  -4    0.11    0.14
  -3   1  -4   -0.02    0.14
  -3   1  -4    0.15    0.17
  -3   1  -4    0.20    0.05
  -3   1  -4    0.10    0.11
   3   1   4    0.23    0.14
  -4  -1  -4    4.83    0.42
  -4  -1  -4    4.95    0.44
   4  -1   4    4.71    0.37
  -4  -1  -4    4.77    0.31
  -4   1  -4    4.92    0.41
  -4   1  -4    5.01    0.28
  -4   1  -4    5.29    0.46
   4   1   4    4.96    0.40
  -5  -1  -4    2.39    0.24
  -5  -1  -4    3.41    0.42
  -5   1  -4    2.99    0.41
  -5   1  -4    2.49    0.20
  -5   1  -4    3.06    0.32
  -6  -1  -4   -0.02    0.24
  -6   1  -4    0.43    0.25
  -6  -2   4    0.79    0.23
  -6   2   4    0.36    0.17
  -6   2   4    0.49    0.29
  -6   2   4    0.65    0.32
  -5  -2   4   30.47    1.47
  -5  -2   4   31.20    1.66
  -5   2   4   26.74    1.42
  -5   2   4   30.11    1.42
  -5   2   4   30.86    1.65
  -5   2   4   29.51    1.63
  -5   2   4   26.92    1.42
  -4  -2   4   48.52    2.40
  -4  -2   4   44.31    2.16
  -4  -2   4   48.17    2.25
  -4   2   4   45.26    2.37
  -4   2   4   48.56    2.39
  -4   2   4   45.64    2.24
  -4   2   4   48.28    2.20
  -3  -2   4   13.29    0.68
  -3  -2   4   13.28    0.80
  -3   2   4   12.68    0.70
  -3   2   4   12.74    0.80
  -3   2   4   13.06    0.64
  -3   2   4   13.66    0.81
   3   2  -4   13.69    0.68
  -2  -2   4   28.04    1.31
  -2  -2   4   27.47    1.34
   2  -2  -4   24.30    1.50
   2   2  -4   27.63    1.36
  -2   2   4   28.38    1.34
   2   2  -4   26.54    1.33
  -2   2   4   27.51    1.40
  -1  -2   4  200.73    8.57
   1  -2  -4  158.83    8.64
   1  -2  -4  177.17    8.46
  -1  -2   4  201.73    8.56
   1   2  -4  195.60    8.60
  -1   2   4  170.89    8.60
   1   2  -4  187.42    8.53
   0  -2  -4    2.66    0.27
   0  -2  -4    3.06    0.20
   0  -2  -4    2.87    0.22
   0  -2  -4    2.80    0.25
   0  -2   4    3.02    0.25
   0   2   4    2.64    0.30
   0   2  -4    3.21    0.25
   0   2  -4    2.68    0.26
   0   2  -4    3.18    0.25
   0   2   4    2.91    0.24
   0   2   4    2.90    0.23
   1  -2   4  154.93    7.78
   1  -2   4  168.69    7.88
   1  -2   4  171.02    7.90
  -1  -2  -4  174.91    7.87
   1  -2   4  175.01    7.78
  -1   2  -4  147.26    7.84
   1   2   4  185.23    7.86
   1   2   4  167.01    7.86
   1   2   4  183.46    7.96
  -2  -2  -4   67.77    3.28
  -2  -2  -4   70.42    3.28
  -2  -2  -4   70.15    3.28
  -2  -2  -4   69.63    3.21
   2   2   4   66.85    3.28
  -2   2  -4   70.22    3.24
   2   2   4   70.22    3.26
   2   2   4   64.92    3.34
  -2   2  -4   69.41    3.34
  -3  -2  -4   13.27    0.79
  -3  -2  -4   14.54    0.71
   3  -2   4   13.34    0.77
  -3  -2  -4   13.62    0.76
  -3   2  -4   12.72    0.82
   3   2   4   14.04    0.79
   3   2   4   13.52    0.77
  -3   2  -4   13.97    0.75
  -3   2  -4   14.28    0.79
  -4  -2  -4   20.60    1.03
  -4  -2  -4   19.61    1.14
  -4  -2  -4   20.72    1.07
   4   2   4   21.23    1.09
  -4   2  -4   20.12    1.18
  -4   2  -4   21.70    0.96
  -4   2  -4   19.54    1.12
  -5  -2  -4   42.00    2.12
  -5  -2  -4   39.68    1.96
  -5   2  -4   36.21    1.93
   5   2   4   43.62    1.97
  -5   2  -4   40.45    1.90
  -5   2  -4   43.45    2.08
  -5   2  -4   41.80    2.14
  -6  -2  -4    2.02    0.38
  -6   2  -4    1.61    0.35
  -6  -3   4   14.01    0.81
  -6  -3   4   14.26    1.02
  -6   3   4   13.70    0.98
  -6   3   4   13.33    0.94
  -6   3   4   14.14    0.77
  -5  -3   4    0.59    0.18
  -5  -3   4   -0.10    0.25
  -5   3   4    0.27    0.11
  -5   3   4    0.20    0.13
  -5   3   4    0.53    0.27
  -5   3   4    0.38    0.14
  -5   3   4    0.24    0.27
  -4  -3   4    6.43    0.42
  -4  -3   4    5.87    0.53
  -4   3   4    5.89    0.41
  -4   3   4    6.55    0.55
  -4   3   4    7.36    0.56
  -3  -3   4   49.92    2.56
  -3  -3   4   50.17    2.44
  -3  -3   4   54.05    2.47
   3   3  -4   53.80    2.46
   3   3  -4   49.51    2.50
  -3   3   4   53.29    2.57
  -3   3   4   53.44    2.59
  -3   3   4   51.31    2.48
  -2  -3   4   17.22    0.89
  -2  -3   4   17.52    0.95
  -2  -3   4   18.45    0.89
  -2  -3   4   18.31    0.96
   2  -3  -4   15.91    1.01
  -2   3   4   17.85    0.91
   2   3  -4   18.80    0.93
  -2   3   4   18.05    0.97
   2   3  -4   16.91    0.91
  -2   3   4   16.20    0.98
  -1  -3   4   74.21    3.38
  -1  -3   4   77.61    3.40
  -1  -3   4   73.17    3.39
   1  -3  -4   66.08    3.39
  -1  -3   4   73.69    3.35
   1  -3  -4   59.99    3.49
  -1   3   4   73.20    3.46
   1   3  -4   69.20    3.41
   1   3  -4   69.50    3.38
  -1   3   4   72.82    3.37
   1   3  -4   75.60    3.39
  -1   3   4   73.20    3.40
   0  -3  -4   45.87    2.08
   0  -3   4   45.25    2.15
   0  -3   4   45.34    2.10
   0  -3  -4   43.01    2.11
   0  -3  -4   41.86    2.19
   0  -3  -4   45.10    2.14
   0  -3   4   42.88    2.13
   0   3  -4   43.36    2.14
   0   3  -4   43.98    2.14
   0   3  -4   44.36    2.15
   0   3   4   47.09    2.15
   0   3   4   42.94    2.21
   0   3   4   44.65    2.12
  -1  -3  -4   48.77    2.43
  -1  -3  -4   51.08    2.43
   1  -3   4   49.21    2.42
  -1  -3  -4   49.45    2.38
   1  -3   4   49.43    2.33
  -1  -3  -4   50.56    2.40
   1  -3   4   49.51    2.44
  -1   3  -4   49.27    2.43
   1   3   4   49.16    2.41
  -1   3  -4   50.37    2.40
   1   3   4   55.32    2.52
   1   3   4   54.04    2.43
  -2  -3  -4    1.52    0.15
  -2  -3  -4    1.63    0.22
  -2  -3  -4    1.62    0.21
  -2  -3  -4    1.70    0.20
   2  -3   4    1.54    0.22
   2   3   4    1.79    0.28
  -2   3  -4    1.23    0.20
   2   3   4    1.82    0.22
   2   3   4    1.82    0.24
  -2   3  -4    1.63    0.16
  -3  -3  -4   32.94    1.66
  -3  -3  -4   33.57    1.64
  -3  -3  -4   33.80    1.71
  -3   3  -4   34.89    1.65
   3   3   4   32.88    1.70
  -3   3  -4   33.79    1.70
   3   3   4   34.87    1.79
  -4  -3  -4    4.77    0.35
  -4   3  -4    4.99    0.43
   4   3   4    5.13    0.39
  -4   3  -4    4.86    0.48
  -5  -3  -4    3.20    0.41
   5   3   4    3.00    0.32
  -5   3  -4    4.39    0.51
  -5   3  -4    3.45    0.39
  -6  -3  -4    7.64    0.64
  -6   3  -4    7.41    0.66
  -6  -4   4    4.17    0.59
  -6  -4   4    4.51    0.43
  -6   4   4    5.01    0.57
  -6   4   4    4.47    0.57
  -5  -4   4   15.03    1.02
  -5  -4   4   15.96    0.87
  -5   4   4   15.72    0.76
  -5   4   4   15.42    1.00
  -5   4   4   15.85    0.98
  -5   4   4   14.12    0.83
  -4  -4   4   10.99    0.65
  -4  -4   4   11.39    0.78
  -4   4   4   11.89    0.78
  -4   4   4   11.08    0.55
  -4   4   4   11.35    0.76
  -3  -4   4   10.14    0.67
  -3  -4   4    9.90    0.55
  -3  -4   4   11.62    0.60
  -3   4   4   10.05    0.69
  -3   4   4   11.18    0.61
  -3   4   4   11.97    0.70
   3   4  -4    8.98    0.61
  -2  -4   4   89.99    3.90
  -2  -4   4   82.00    3.97
   2  -4  -4   76.42    4.03
  -2  -4   4   85.43    3.96
  -2  -4   4   82.32    3.90
   2   4  -4   89.81    3.94
  -2   4   4   83.91    3.92
  -2   4   4   74.11    3.99
  -2   4   4   86.73    3.97
   2   4  -4   81.45    3.93
  -1  -4   4   22.87    1.12
  -1  -4   4   22.26    1.13
  -1  -4   4   20.90    1.11
   1  -4  -4   19.91    1.25
   1  -4  -4   21.87    1.14
  -1  -4   4   21.58    1.10
  -1   4   4   23.52    1.21
   1   4  -4   21.96    1.12
   1   4  -4   21.95    1.17
  -1   4   4   22.07    1.12
  -1   4   4   22.79    1.14
   0  -4  -4    0.78    0.11
   0  -4   4    0.60    0.12
   0  -4   4    0.83    0.16
   0  -4  -4    0.74    0.13
   0  -4   4    0.91    0.14
   0  -4  -4    0.75    0.17
   0   4   4    0.61    0.09
   0   4  -4    0.68    0.16
   0   4  -4    0.78    0.13
   0   4   4    0.63    0.20
   0   4  -4    0.41    0.13
   0   4   4    0.67    0.16
   0   4   4    0.62    0.13
   1  -4   4   26.73    1.34
  -1  -4  -4   26.75    1.33
   1  -4   4   26.79    1.29
  -1  -4  -4   26.99    1.38
   1  -4   4   27.51    1.39
  -1  -4  -4   27.78    1.34
  -1   4  -4   27.10    1.33
   1   4   4   27.12    1.33
  -1   4  -4   26.04    1.37
  -1   4  -4   28.94    1.40
   1   4   4   28.64    1.39
   1   4   4   26.25    1.35
   1   4   4   28.70    1.46
  -2  -4  -4  149.72    7.01
  -2  -4  -4  154.98    6.98
   2   4   4  162.93    7.05
   2   4   4  143.56    7.00
   2   4   4  151.01    6.99
   2   4   4  152.31    7.12
  -2   4  -4  139.85    6.95
  -2   4  -4  151.00    7.02
  -3  -4  -4    8.80    0.58
  -3   4  -4    9.34    0.51
   3   4   4    9.10    0.57
  -3   4  -4    9.18    0.58
   3   4   4    8.74    0.61
  -4  -4  -4    9.74    0.64
  -4   4  -4    9.77    0.57
   4   4   4    9.01    0.66
  -4   4  -4   10.36    0.65
   4   4   4    8.78    0.60
  -5  -4  -4    9.69    0.70
  -5   4  -4    9.55    0.74
  -5   4  -4   10.08    0.68
  -6  -5   4    3.84    0.56
  -6  -5   4    5.04    0.69
  -6   5   4    3.01    0.50
  -5  -5   4    5.78    0.43
  -5  -5   4    5.35    0.58
  -5   5   4    5.86    0.57
  -5   5   4    5.20    0.53
  -5   5   4    5.00    0.41
  -4  -5   4   24.59    1.37
  -4  -5   4   23.17    1.22
  -4   5   4   24.48    1.32
  -4   5   4   22.95    1.35
  -3  -5   4   50.93    2.36
  -3  -5   4   49.99    2.45
  -3   5   4   48.89    2.44
   3   5  -4   49.95    2.36
  -3   5   4   45.39    2.46
  -2  -5   4   14.09    0.73
  -2  -5   4   14.05    0.72
  -2  -5   4   13.97    0.78
   2  -5  -4   12.48    0.85
  -2   5   4   13.76    0.79
   2   5  -4   14.19    0.75
  -2   5   4   11.84    0.81
  -1  -5   4    1.44    0.19
   1  -5  -4    1.56    0.22
   1  -5  -4    1.31    0.30
  -1  -5   4    1.78    0.21
  -1  -5   4    1.36    0.21
  -1  -5   4    1.56    0.20
  -1   5   4    1.21    0.29
   1   5  -4    1.32    0.19
   1   5  -4    1.21    0.20
  -1   5   4    1.59    0.23
  -1   5   4    1.51    0.20
   0  -5  -4  147.07    7.04
   0  -5   4  144.58    7.06
   0  -5   4  151.77    7.03
   0  -5  -4  146.64    7.13
   0  -5   4  144.65    7.01
   0   5   4  151.32    7.05
   0   5   4  159.82    7.15
   0   5  -4  159.50    7.07
   0   5   4  152.30    6.99
   0   5  -4  150.62    7.08
   0   5   4  161.03    7.09
   1  -5   4   35.37    1.76
   1  -5   4   31.06    1.62
  -1  -5  -4   35.37    1.66
  -1  -5  -4   33.23    1.70
  -1  -5  -4   32.79    1.65
   1  -5   4   33.11    1.61
   1   5   4   33.72    1.64
   1   5   4   33.94    1.67
   1   5   4   35.34    1.78
  -1   5  -4   32.49    1.60
  -1   5  -4   37.07    1.73
   1   5   4   36.00    1.72
  -1   5  -4   34.18    1.69
  -2  -5  -4    7.03    0.45
  -2   5  -4    6.67    0.46
  -2   5  -4    6.74    0.37
   2   5   4    6.97    0.50
   2   5   4    6.14    0.42
  -3  -5  -4   54.71    2.72
  -3   5  -4   55.67    2.73
  -3   5  -4   56.14    2.62
   3   5   4   56.11    2.78
   3   5   4   56.83    2.71
  -4  -5  -4   47.24    2.28
   4   5   4   44.32    2.33
  -4   5  -4   40.89    2.32
   4   5   4   39.74    2.37
  -4   5  -4   48.02    2.26
  -4   5  -4   47.88    2.16
  -5  -5  -4    2.63    0.38
  -5   5  -4    2.84    0.38
  -5   5  -4    3.21    0.37
  -5   5  -4    2.87    0.44
  -5  -6   4    2.25    0.30
  -5  -6   4    2.19    0.42
  -5   6   4    2.31    0.42
  -5   6   4    2.96    0.41
  -4  -6   4    6.39    0.47
  -4  -6   4    7.08    0.59
  -4   6   4    7.29    0.56
  -4   6   4    6.37    0.60
  -3  -6   4    5.48    0.49
  -3  -6   4    5.96    0.41
  -3   6   4    6.39    0.49
  -3   6   4    5.00    0.49
   3   6  -4    6.27    0.42
  -2  -6   4    0.40    0.17
   2  -6  -4    0.86    0.24
  -2  -6   4    0.74    0.17
   2   6  -4    0.50    0.15
  -2   6   4    0.80    0.24
  -2   6   4    0.30    0.16
  -1  -6   4   26.09    1.36
  -1  -6   4   24.09    1.33
  -1  -6   4   27.39    1.33
   1  -6  -4   26.10    1.52
  -1  -6   4   26.62    1.33
   1   6  -4   26.80    1.34
  -1   6   4   26.93    1.41
  -1   6   4   27.22    1.24
  -1   6   4   26.89    1.38
   0  -6  -4    0.37    0.10
   0  -6   4    0.30    0.12
   0  -6  -4    0.64    0.18
   0  -6   4    0.25    0.09
   0   6   4    0.27    0.17
   0   6   4    0.34    0.09
   0   6   4    0.20    0.18
   0   6  -4    0.36    0.14
   1  -6   4   21.86    1.15
  -1   6  -4   23.07    1.21
   1   6   4   23.75    1.29
   1   6   4   23.64    1.24
   1   6   4   24.70    1.25
  -2  -6  -4    0.19    0.13
   2   6   4    0.31    0.13
  -2   6  -4    0.20    0.15
   2   6   4    0.34    0.20
  -3  -6  -4    0.65    0.18
  -3   6  -4    0.72    0.21
  -3   6  -4    0.54    0.08
   3   6   4    0.74    0.18
   3   6   4    0.78    0.25
  -4  -6  -4    2.54    0.35
  -4   6  -4    1.60    0.39
  -4   6  -4    2.55    0.25
  -4   6  -4    2.08    0.21
   4   6   4    2.56    0.32
  -4   6  -4    2.48    0.33
   4   6   4    2.51    0.44
  -5  -6  -4    4.78    0.48
  -5   6  -4    4.98    0.49
  -5   6  -4    3.98    0.55
  -5  -7   4    0.14    0.27
  -5  -7   4    0.14    0.18
  -5   7   4   -0.18    0.24
  -5   7   4    0.27    0.21
  -5   7   4    0.61    0.30
  -4  -7   4   11.31    0.77
  -4  -7   4   12.17    0.67
  -4   7   4    8.84    0.72
   4   7  -4    9.27    0.57
  -4   7   4   12.10    0.75
  -3  -7   4   67.86    3.35
  -3  -7   4   67.76    3.28
  -3   7   4   68.66    3.34
   3   7  -4   73.26    3.27
  -3   7   4   65.56    3.36
  -2  -7   4   35.22    1.76
  -2  -7   4   34.54    1.79
  -2   7   4   35.32    1.81
  -2   7   4   36.87    1.85
   2   7  -4   36.89    1.77
  -1  -7   4   42.56    2.11
  -1  -7   4   42.86    2.09
   1  -7  -4   43.88    2.32
   1   7  -4   45.38    2.12
  -1   7   4   44.68    2.18
  -1   7   4   41.12    2.07
  -1   7   4   42.47    2.14
   0  -7   4   79.30    3.90
   0  -7  -4   82.16    3.86
   0  -7   4   81.26    3.84
   0   7   4   84.95    3.99
   0   7  -4   84.48    3.92
   0   7   4   85.92    3.96
   0   7   4   79.83    3.84
   1  -7   4   70.06    3.51
  -1  -7  -4   76.72    3.52
   1   7   4   74.32    3.63
   1   7   4   81.70    3.61
  -1   7  -4   72.78    3.56
   1   7   4   72.79    3.50
  -1   7  -4   73.22    3.48
  -2  -7  -4    4.80    0.41
   2   7   4    5.56    0.48
  -2   7  -4    5.08    0.42
  -3  -7  -4   79.59    3.91
  -3   7  -4   81.13    4.00
   3   7   4   83.73    4.01
  -4  -7  -4   23.41    1.32
   4   7   4   23.44    1.42
   4   7   4   24.12    1.29
  -4   7  -4   24.14    1.32
  -5  -7  -4    1.51    0.32
  -5   7  -4    0.80    0.34
  -5   7  -4    1.94    0.34
  -5  -8   4    0.20    0.20
  -5  -8   4    0.26    0.31
  -5   8   4    0.21    0.27
  -5   8   4    0.07    0.28
  -5   8   4   -0.32    0.17
  -4  -8   4    1.45    0.26
  -4  -8   4    1.19    0.32
  -4   8   4    1.36    0.31
  -4   8   4    1.22    0.31
  -3  -8   4    0.79    0.23
  -3  -8   4    0.99    0.22
   3   8  -4    0.59    0.18
  -3   8   4    1.38    0.28
  -3   8   4    1.22    0.27
  -2  -8   4   14.63    0.85
  -2  -8   4   14.82    0.84
  -2   8   4   15.81    0.90
  -2   8   4   14.86    0.70
  -2   8   4   14.93    0.90
   2   8  -4   15.25    0.83
  -1  -8   4    2.04    0.27
  -1  -8   4    2.16    0.25
  -1   8   4    2.29    0.18
   1   8  -4    2.28    0.27
  -1   8   4    2.24    0.29
  -1   8   4    2.77    0.36
   0  -8  -4    0.09    0.11
   0  -8   4    0.26    0.08
   0  -8   4    0.29    0.14
   0  -8   4    0.25    0.08
   0   8   4    0.20    0.15
   0   8  -4    0.07    0.13
   0   8   4    0.10    0.20
   0   8  -4    0.19    0.15
   0   8   4    0.16    0.10
  -1  -8  -4    7.64    0.48
   1  -8   4    7.16    0.49
  -1   8  -4    7.45    0.53
   1   8   4    7.88    0.59
   1   8   4    8.16    0.58
  -1   8  -4    7.54    0.45
  -2  -8  -4    0.24    0.17
   2  -8   4    0.30    0.14
  -2   8  -4    0.05    0.17
   2   8   4    0.33    0.24
  -2   8  -4    0.14    0.13
  -3  -8  -4    3.50    0.39
   3   8   4    4.03    0.51
  -3   8  -4    3.78    0.40
  -4  -8  -4   -0.14    0.20
   4   8   4    0.17    0.30
  -4   8  -4    0.10    0.20
  -5  -8  -4    0.86    0.30
  -5   8  -4    0.82    0.26
  -4  -9   4   16.93    1.09
  -4  -9   4   18.04    1.00
  -4   9   4   17.96    1.05
  -4   9   4   17.13    1.05
  -3  -9   4   39.93    2.10
  -3  -9   4   40.49    2.05
   3   9  -4   40.75    2.02
  -3   9   4   42.65    2.10
  -3   9   4   41.58    2.10
  -2  -9   4    5.88    0.44
  -2  -9   4    5.19    0.43
  -2   9   4    5.21    0.47
  -2   9   4    5.83    0.48
   2   9  -4    5.48    0.42
  -2   9   4    5.02    0.31
  -1  -9   4    8.65    0.66
  -1  -9   4    9.75    0.56
  -1   9   4    9.25    0.51
  -1   9   4   10.08    0.66
  -1   9   4    9.49    0.65
   1   9  -4    9.49    0.61
   0  -9   4  102.36    4.63
   0   9  -4  100.01    4.71
   0   9   4  103.79    4.80
   0   9   4   96.44    4.67
   0   9   4   98.07    4.80
   0   9  -4  100.67    4.76
   1  -9   4   13.69    0.84
  -1  -9  -4   15.41    0.82
  -1   9  -4   15.07    0.78
   1   9   4   13.94    0.90
   2  -9   4    5.24    0.40
  -2  -9  -4    4.39    0.41
  -2   9  -4    5.14    0.32
   2   9   4    5.22    0.48
  -2   9  -4    4.99    0.45
  -3  -9  -4   25.13    1.41
   3   9   4   27.29    1.55
  -3   9  -4   26.48    1.43
  -4  -9  -4   19.79    1.17
  -4   9  -4   20.01    1.18
   4   9   4   21.10    1.33
  -4 -10   4    1.19    0.27
  -4 -10   4    1.02    0.29
  -4  10   4    1.12    0.30
  -4  10   4    0.98    0.29
  -4  10   4    0.73    0.29
  -3 -10   4    0.46    0.23
  -3 -10   4    0.46    0.21
  -3  10   4    0.63    0.25
   3  10  -4    0.29    0.18
  -3  10   4    0.64    0.25
  -2 -10   4   36.26    1.86
  -2 -10   4   36.20    1.85
   2  10  -4   38.29    1.86
  -2  10   4   38.72    1.91
  -2  10   4   35.17    1.72
  -2  10   4   36.56    1.88
  -1 -10   4    6.90    0.43
  -1 -10   4    5.83    0.48
  -1 -10   4    6.24    0.45
  -1  10   4    5.73    0.38
   1  10  -4    6.21    0.48
  -1  10   4    7.09    0.53
  -1  10   4    6.52    0.53
   0 -10  -4    0.41    0.18
   0  10  -4    0.38    0.20
   0  10  -4    0.31    0.18
   0  10   4    0.26    0.22
   0  10   4    0.18    0.22
  -1 -10  -4    1.47    0.26
   1  10   4    2.40    0.38
  -1  10  -4    1.59    0.29
  -1  10  -4    1.75    0.23
  -2 -10  -4   24.14    1.35
   2 -10   4   28.72    1.57
   2  10   4   25.80    1.47
  -2  10  -4   24.60    1.39
  -3 -10  -4    0.63    0.25
   3  10   4    0.69    0.34
  -3  10  -4    1.06    0.28
  -4 -10  -4    1.13    0.30
   4  10   4    1.65    0.47
  -4  10  -4    1.41    0.33
  -3 -11   4   20.88    1.25
   3  11  -4   22.47    1.20
  -3  11   4   23.96    1.29
  -2 -11   4    8.47    0.60
  -2 -11   4    8.87    0.58
  -2  11   4    8.39    0.60
   2  11  -4    7.98    0.63
  -2  11   4    8.21    0.63
  -1 -11   4   18.96    1.09
  -1 -11   4   21.06    1.00
  -1 -11   4   19.70    1.04
  -1  11   4   16.69    1.10
  -1  11   4   18.36    1.09
   1  11  -4   19.80    1.10
   0 -11  -4   24.77    1.21
   0  11  -4   22.95    1.24
   0  11   4   22.56    1.29
   0  11   4   21.04    1.25
   0  11  -4   21.03    1.19
  -1 -11  -4   17.75    1.01
   1  11   4   18.48    1.12
  -1  11  -4   18.59    1.06
  -1  11  -4   17.62    0.97
  -2 -11  -4    2.06    0.32
   2  11   4    1.87    0.40
  -2  11  -4    1.52    0.32
  -2  11  -4    2.16    0.23
  -3 -11  -4   17.85    1.07
  -3  11  -4   18.78    1.12
   3  11   4   19.64    1.37
  -3 -12   4    5.58    0.53
  -3 -12   4    6.71    0.54
  -3  12   4    6.50    0.59
   3  12  -4    6.18    0.49
  -3  12   4    6.40    0.59
  -2 -12   4   11.19    0.81
  -2 -12   4   10.27    0.67
  -2  12   4   10.09    0.68
  -2  12   4   11.25    0.75
   2  12  -4    9.41    0.67
  -1 -12   4   33.08    1.72
  -1 -12   4   31.10    1.59
  -1  12   4   32.06    1.71
   1  12  -4   34.27    1.72
  -1  12   4   33.93    1.76
   0 -12  -4    0.29    0.23
   0  12   4    0.42    0.27
   0  12  -4    0.36    0.20
   0  12  -4    0.55    0.25
  -1 -12  -4   20.06    1.08
  -1  12  -4   18.63    1.04
  -1  12  -4   19.14    1.13
   1  12   4   19.59    1.20
  -2 -12  -4    4.59    0.45
  -2  12  -4    5.08    0.50
  -2  12  -4    4.90    0.37
   2  12   4    5.82    0.61
   1  13  -4    0.53    0.25
  -1  13   4    0.56    0.31
   0  13   4    9.66    0.74
   0  13  -4    8.10    0.59
  -1 -13  -4    0.45    0.24
  -1  13  -4    0.65    0.20
  -1  13  -4    0.96    0.30
   1  13   4    0.48    0.31
  -6   0   5    6.36    0.44
  -6   0   5    6.87    0.67
  -5   0   5    0.10    0.12
  -5   0   5    0.32    0.27
  -4   0   5   57.73    2.93
  -4   0   5   62.01    2.91
  -4   0   5   63.96    3.10
   4   0  -5   64.93    2.96
   3   0  -5   65.86    3.04
  -3   0   5   62.16    3.06
  -3   0   5   64.00    3.00
  -3   0   5   66.08    3.16
   2   0  -5   16.44    0.84
   2   0  -5   17.51    0.91
  -2   0   5   16.61    0.89
  -2   0   5   17.09    0.85
   2   0  -5   16.96    1.01
  -2   0   5   16.76    0.95
  -1   0   5   85.07    3.85
   1   0  -5   87.71    3.88
   1   0  -5   71.90    3.93
  -1   0   5   78.01    3.88
  -1   0   5   84.30    3.85
   0   0  -5  327.34   15.16
  -1   0  -5    6.05    0.41
  -1   0  -5    5.56    0.38
   1   0   5    5.78    0.35
   1   0   5    5.01    0.47
  -2   0  -5   18.88    1.00
  -2   0  -5   20.35    1.06
   2   0   5   19.75    1.05
  -2   0  -5   18.83    0.92
   2   0   5   19.10    0.95
  -2   0  -5   18.89    1.05
   2   0   5   19.51    1.11
  -3   0  -5  166.32    8.00
   3   0   5  166.92    7.97
  -3   0  -5  178.42    7.99
  -4   0  -5   21.60    1.04
  -4   0  -5   22.39    1.19
  -4   0  -5   21.01    1.23
  -5   0  -5    9.62    0.72
  -5   0  -5    9.28    0.64
  -6   0  -5    8.58    0.71
  -6  -1   5    4.78    0.59
  -6  -1   5    4.47    0.36
  -6   1   5    3.70    0.60
  -6   1   5    4.40    0.33
  -5  -1   5    0.10    0.24
  -5  -1   5    0.01    0.14
  -5   1   5    0.10    0.24
  -5   1   5    0.05    0.11
  -5   1   5    0.52    0.14
  -5   1   5    0.06    0.25
   4  -1  -5    1.13    0.17
  -4  -1   5    1.54    0.31
  -4  -1   5    1.12    0.16
  -4  -1   5    1.21    0.16
  -4   1   5    1.13    0.28
  -4   1   5    1.47    0.18
   4   1  -5    1.45    0.22
  -4   1   5    1.12    0.26
  -4   1   5    1.29    0.14
  -3  -1   5    6.40    0.49
   3  -1  -5    6.19    0.35
  -3  -1   5    5.93    0.35
  -3  -1   5    5.57    0.38
  -3   1   5    5.86    0.39
   3   1  -5    6.08    0.39
   3   1  -5    6.25    0.40
  -3   1   5    5.69    0.49
  -3   1   5    5.07    0.47
  -3   1   5    6.26    0.32
   2  -1  -5    5.07    0.28
   2  -1  -5    5.02    0.36
  -2  -1   5    4.94    0.40
  -2  -1   5    5.16    0.34
  -2  -1   5    5.25    0.30
   2  -1  -5    3.94    0.43
   2   1  -5    4.70    0.32
  -2   1   5    4.69    0.32
  -2   1   5    4.30    0.39
   2   1  -5    4.63    0.41
  -2   1   5    4.75    0.41
   2   1  -5    4.87    0.36
   1  -1  -5    0.15    0.13
   1  -1  -5    0.05    0.08
   1  -1  -5   -0.18    0.16
  -1  -1   5    0.06    0.09
  -1  -1   5   -0.02    0.11
  -1   1   5    0.00    0.13
   1   1  -5    0.11    0.13
  -1   1   5   -0.08    0.07
   1   1  -5   -0.16    0.10
   1   1  -5    0.35    0.13
  -1   1   5   -0.01    0.12
   0  -1  -5    0.28    0.14
   0  -1   5    0.42    0.17
   0  -1   5    0.25    0.11
   0  -1  -5    0.37    0.16
   0   1   5    0.32    0.18
   0   1   5    0.29    0.12
   0   1  -5    0.57    0.16
   0   1   5    0.49    0.14
   0   1  -5    0.19    0.15
  -1  -1  -5   30.77    1.51
   1  -1   5   29.98    1.51
  -1  -1  -5   32.39    1.57
  -1  -1  -5   31.99    1.58
   1  -1   5   33.32    1.67
   1  -1   5   27.96    1.64
  -1  -1  -5   34.91    1.63
   1   1   5   33.08    1.70
  -1   1  -5   28.06    1.56
   1   1   5   32.31    1.60
   1   1   5   35.04    1.66
   2  -1   5    5.04    0.41
  -2  -1  -5    5.08    0.40
  -2  -1  -5    5.69    0.31
  -2  -1  -5    5.90    0.43
  -2  -1  -5    5.07    0.38
   2  -1   5    5.45    0.44
   2   1   5    5.78    0.49
  -2   1  -5    5.52    0.37
   2   1   5    5.38    0.40
  -2   1  -5    5.26    0.42
  -3  -1  -5    1.86    0.29
  -3  -1  -5    1.66    0.15
  -3  -1  -5    1.78    0.27
   3   1   5    1.83    0.22
   3   1   5    1.80    0.27
  -3   1  -5    1.80    0.25
  -3   1  -5    1.37    0.27
  -3   1  -5    1.65    0.30
  -4  -1  -5    0.24    0.17
  -4  -1  -5    0.37    0.10
  -4  -1  -5    0.52    0.24
  -4   1  -5    0.58    0.25
  -4   1  -5    0.68    0.19
  -5  -1  -5    6.91    0.59
  -5  -1  -5    5.93    0.47
  -5   1  -5    6.82    0.54
  -5   1  -5    6.33    0.60
  -6  -1  -5    1.83    0.38
  -6   1  -5    1.17    0.35
  -6  -2   5    9.15    0.81
  -6  -2   5   10.33    0.62
  -6   2   5   10.47    0.94
  -5  -2   5    0.84    0.19
  -5  -2   5    0.46    0.28
  -5   2   5    0.63    0.12
  -5   2   5    0.88    0.33
  -5   2   5    0.73    0.30
  -4  -2   5   21.66    1.11
  -4  -2   5   23.14    1.14
  -4  -2   5   24.25    1.30
  -4   2   5   22.90    1.30
  -4   2   5   21.38    1.15
  -4   2   5   23.51    1.31
  -3  -2   5   83.08    3.85
  -3  -2   5   80.68    3.72
  -3  -2   5   75.77    3.74
   3   2  -5   77.41    3.76
  -3   2   5   81.85    3.85
  -3   2   5   75.71    3.74
  -3   2   5   81.67    3.86
  -3   2   5   78.00    3.66
   3   2  -5   81.86    3.76
  -2  -2   5    0.51    0.18
   2  -2  -5    0.40    0.05
   2  -2  -5    0.31    0.19
  -2  -2   5    0.32    0.10
  -2  -2   5    0.34    0.12
  -2   2   5    0.22    0.18
  -2   2   5    0.32    0.12
   2   2  -5    0.45    0.13
  -2   2   5    0.35    0.18
   2   2  -5    0.53    0.17
  -1  -2   5   77.00    3.63
  -1  -2   5   76.17    3.64
   1  -2  -5   74.02    3.77
   1  -2  -5   84.53    3.66
   1   2  -5   71.08    3.68
  -1   2   5   73.71    3.64
   1   2  -5   82.70    3.66
  -1   2   5   82.27    3.65
   1   2  -5   67.02    3.60
  -1   2   5   76.53    3.69
   0  -2  -5   86.25    4.45
   0  -2  -5   98.06    4.52
   0  -2   5   92.83    4.50
   0  -2  -5   95.90    4.64
   0  -2  -5   96.91    4.46
   0   2   5   90.71    4.47
   0   2   5  101.44    4.59
   0   2  -5  102.87    4.50
   0   2  -5   92.23    4.52
   0   2   5   92.44    4.51
   0   2  -5   98.77    4.51
   1  -2   5   41.54    1.98
   1  -2   5   36.77    2.11
  -1  -2  -5   42.95    2.05
  -1  -2  -5   42.32    2.08
  -1  -2  -5   42.50    2.01
   1  -2   5   44.15    2.10
   1   2   5   41.92    2.12
  -1   2  -5   39.98    2.06
   1   2   5   43.63    2.06
   1   2   5   45.01    2.21
  -1   2  -5   45.11    2.10
  -2  -2  -5  100.29    4.47
   2  -2   5   91.51    4.47
   2  -2   5   90.69    4.46
  -2  -2  -5   94.85    4.45
  -2  -2  -5   93.88    4.36
   2   2   5   93.43    4.56
   2   2   5   94.80    4.46
   2   2   5   93.71    4.42
  -2   2  -5   92.12    4.40
  -2   2  -5   94.35    4.46
  -3  -2  -5   47.30    2.19
  -3  -2  -5   47.01    2.31
  -3  -2  -5   45.51    2.28
  -3   2  -5   48.23    2.25
   3   2   5   45.78    2.27
  -3   2  -5   44.11    2.34
   3   2   5   45.52    2.30
  -3   2  -5   46.59    2.31
  -4  -2  -5   13.52    0.77
  -4  -2  -5   13.04    0.84
  -4  -2  -5   13.61    0.69
  -4   2  -5   13.25    0.82
  -4   2  -5   11.99    0.86
   4   2   5   12.78    0.85
  -5  -2  -5    2.00    0.26
  -5  -2  -5    2.73    0.40
  -5   2  -5    2.72    0.42
  -5   2  -5    2.30    0.34
  -6  -3   5    0.44    0.18
  -6  -3   5    0.50    0.33
  -6   3   5    0.73    0.38
  -6   3   5    0.29    0.31
  -5  -3   5   18.06    1.01
  -5  -3   5   19.25    1.19
  -5   3   5   18.67    1.17
  -5   3   5   20.20    1.18
  -4  -3   5    7.16    0.46
  -4   3   5    7.69    0.61
  -4   3   5    7.01    0.61
  -3  -3   5    9.31    0.55
  -3  -3   5   10.32    0.56
  -3  -3   5   10.16    0.67
  -3   3   5    9.50    0.68
  -3   3   5    9.94    0.69
  -3   3   5   10.21    0.58
   3   3  -5    9.87    0.59
  -2  -3   5   20.24    1.08
  -2  -3   5   21.35    1.06
  -2  -3   5   21.72    1.14
  -2   3   5   21.47    1.08
  -2   3   5   18.59    1.16
   2   3  -5   22.77    1.13
   2   3  -5   20.42    1.10
  -2   3   5   22.66    1.16
  -1  -3   5   44.24    2.18
   1  -3  -5   44.58    2.06
   1  -3  -5   47.05    2.36
  -1  -3   5   44.81    2.18
  -1   3   5   44.18    2.16
   1   3  -5   38.86    2.16
   1   3  -5   46.21    2.20
   1   3  -5   41.33    2.21
  -1   3   5   45.95    2.19
  -1   3   5   49.67    2.27
   0  -3   5   12.63    0.71
   0  -3   5   11.97    0.65
   0  -3  -5   12.80    0.63
   0  -3  -5   11.07    0.66
   0  -3   5   13.84    0.71
   0  -3  -5   12.73    0.71
   0  -3  -5   11.92    0.75
   0   3  -5   12.14    0.70
   0   3  -5   11.17    0.70
   0   3   5   12.05    0.70
   0   3   5   12.61    0.80
   0   3   5   11.31    0.67
   1  -3   5   51.67    2.20
  -1  -3  -5   45.60    2.24
  -1  -3  -5   45.70    2.31
  -1  -3  -5   45.26    2.26
   1  -3   5   47.58    2.32
   1  -3   5   46.48    2.20
   1  -3   5   40.50    2.31
  -1  -3  -5   50.52    2.33
   1   3   5   45.41    2.29
   1   3   5   50.48    2.44
   1   3   5   48.39    2.31
  -1   3  -5   46.72    2.31
  -1   3  -5   50.15    2.30
  -2  -3  -5   58.60    2.87
  -2  -3  -5   59.42    2.81
  -2  -3  -5   62.20    2.89
  -2   3  -5   55.89    2.82
   2   3   5   59.89    2.89
   2   3   5   59.97    2.88
   2   3   5   60.92    3.00
  -2   3  -5   60.16    2.89
  -3  -3  -5    4.36    0.29
  -3  -3  -5    4.20    0.40
  -3  -3  -5    4.22    0.36
   3   3   5    3.91    0.39
  -3   3  -5    4.16    0.35
   3   3   5    4.25    0.38
  -3   3  -5    4.28    0.38
  -4  -3  -5   30.38    1.58
  -4  -3  -5   29.76    1.50
  -4   3  -5   27.56    1.62
  -4   3  -5   30.65    1.57
   4   3   5   28.81    1.55
  -5  -3  -5    1.48    0.33
  -5   3  -5    1.50    0.39
  -5   3  -5    1.57    0.30
  -6  -4   5    7.36    0.79
  -6  -4   5    6.27    0.49
  -6   4   5    6.56    0.67
  -5  -4   5   -0.14    0.23
  -5  -4   5    0.10    0.18
  -5   4   5    0.17    0.30
  -5   4   5    0.48    0.30
  -4  -4   5   39.58    2.00
  -4  -4   5   38.39    1.86
  -4   4   5   36.58    1.99
  -4   4   5   36.73    2.00
  -3  -4   5   19.29    0.98
  -3  -4   5   19.86    1.09
  -3  -4   5   18.44    0.97
  -3   4   5   19.95    1.10
   3   4  -5   18.91    1.02
  -3   4   5   18.25    1.11
  -2  -4   5    0.08    0.11
  -2  -4   5    0.32    0.13
  -2  -4   5    0.14    0.14
  -2   4   5    0.09    0.18
  -2   4   5    0.13    0.17
   2   4  -5   -0.06    0.13
   2   4  -5    0.03    0.12
   1  -4  -5   64.41    3.00
  -1  -4   5   59.58    2.78
  -1  -4   5   54.19    2.78
  -1  -4   5   57.13    2.79
  -1  -4   5   57.88    2.75
   1  -4  -5   50.99    2.79
  -1   4   5   65.65    2.89
  -1   4   5   58.19    2.81
   1   4  -5   60.65    2.86
   1   4  -5   52.90    2.79
  -1   4   5   55.86    2.77
   0  -4   5   98.71    4.77
   0  -4  -5   94.32    4.72
   0  -4   5  102.00    4.72
   0  -4  -5   97.40    4.83
   0  -4   5  111.37    4.75
   0   4  -5  103.21    4.78
   0   4  -5  103.28    4.77
   0   4   5  103.16    4.77
   0   4   5  101.50    4.87
   0   4  -5   95.86    4.75
   0   4   5   99.70    4.74
  -1  -4  -5    0.33    0.15
  -1  -4  -5    0.09    0.09
   1  -4   5    0.33    0.07
  -1  -4  -5    0.27    0.13
  -1   4  -5    0.22    0.12
   1   4   5    0.16    0.21
   1   4   5    0.14    0.18
  -1   4  -5    0.27    0.11
   1   4   5    0.28    0.12
  -2  -4  -5    0.46    0.16
  -2  -4  -5    0.50    0.18
  -2  -4  -5    0.60    0.14
   2   4   5    0.51    0.20
   2   4   5    0.59    0.15
   2   4   5    0.43    0.19
  -2   4  -5    0.51    0.12
  -2   4  -5    0.57    0.19
  -3  -4  -5   45.53    2.26
  -3  -4  -5   46.78    2.30
  -3   4  -5   47.17    2.30
  -3   4  -5   46.38    2.21
   3   4   5   46.39    2.30
   3   4   5   44.98    2.33
  -4  -4  -5    4.70    0.46
   4   4   5    5.13    0.47
  -4   4  -5    5.20    0.45
  -4   4  -5    4.78    0.55
  -4   4  -5    5.16    0.38
  -5  -4  -5    3.45    0.44
  -5   4  -5    2.41    0.38
  -5   4  -5    2.03    0.41
  -5  -5   5   12.44    0.91
  -5  -5   5   12.32    0.75
  -5   5   5   13.74    0.92
  -5   5   5   13.31    0.94
  -4  -5   5    4.35    0.35
  -4  -5   5    4.24    0.46
  -4   5   5    3.48    0.46
  -4   5   5    4.20    0.47
  -3  -5   5    9.54    0.56
  -3  -5   5   10.45    0.68
  -3  -5   5   10.60    0.59
  -3   5   5    8.18    0.69
   3   5  -5   11.02    0.63
  -3   5   5   10.31    0.67
  -2  -5   5  110.94    5.47
  -2  -5   5  116.51    5.42
  -2  -5   5  116.15    5.47
  -2   5   5  118.93    5.55
  -2   5   5  117.36    5.49
  -1  -5   5   25.79    1.36
  -1  -5   5   26.57    1.39
  -1  -5   5   25.89    1.38
  -1  -5   5   27.24    1.37
  -1   5   5   27.09    1.41
   1   5  -5   27.22    1.39
  -1   5   5   30.19    1.50
   0  -5   5    1.47    0.19
   0  -5  -5    1.33    0.15
   0  -5   5    1.42    0.19
   0   5  -5    1.50    0.22
   0   5   5    1.56    0.23
   0   5   5    0.99    0.28
  -1  -5  -5   85.32    3.98
   1  -5   5   79.61    3.97
   1  -5   5   79.00    3.93
  -1   5  -5   80.00    4.02
   1   5   5   83.41    3.96
  -1   5  -5   93.75    4.09
   1   5   5   87.02    4.15
   1   5   5   89.45    4.06
  -2  -5  -5   24.88    1.32
   2   5   5   25.31    1.46
  -2   5  -5   28.75    1.36
  -2   5  -5   23.18    1.33
   2   5   5   25.91    1.40
  -3  -5  -5    3.92    0.37
  -3   5  -5    3.17    0.25
  -3   5  -5    3.63    0.36
   3   5   5    3.09    0.42
  -4  -5  -5    9.54    0.68
   4   5   5    9.04    0.74
  -4   5  -5   10.26    0.68
  -5   5  -5   37.79    1.83
  -5   5  -5   30.13    1.88
  -5  -6   5   -0.02    0.25
  -5  -6   5    0.08    0.17
  -5   6   5   -0.27    0.26
  -5   6   5    0.32    0.29
  -4  -6   5    0.30    0.18
  -4  -6   5    0.17    0.23
   4   6  -5    0.09    0.11
  -4   6   5    0.41    0.27
  -3  -6   5   10.75    0.63
  -3  -6   5   10.84    0.71
  -3   6   5   11.92    0.74
   3   6  -5   10.07    0.65
  -3   6   5   10.03    0.77
  -2  -6   5   -0.04    0.15
  -2  -6   5    0.12    0.14
  -2  -6   5    0.01    0.12
   2   6  -5    0.01    0.14
  -2   6   5    0.27    0.22
  -2   6   5    0.45    0.21
  -1  -6   5    5.30    0.37
  -1  -6   5    4.93    0.39
  -1  -6   5    4.65    0.37
  -1   6   5    5.28    0.44
  -1   6   5    4.85    0.48
   1   6  -5    4.97    0.40
   0  -6   5    2.33    0.24
   0  -6  -5    2.30    0.20
   0   6  -5    2.09    0.24
   0   6   5    2.64    0.33
   0   6   5    2.07    0.18
   0   6   5    2.44    0.38
   1  -6   5    9.17    0.52
   1  -6   5    9.12    0.50
  -1  -6  -5    9.44    0.55
   1   6   5    9.26    0.53
   1   6   5    8.98    0.70
   1   6   5   10.09    0.65
  -1   6  -5   10.09    0.61
  -2  -6  -5   23.19    1.23
   2   6   5   25.81    1.33
  -2   6  -5   22.98    1.25
   2   6   5   23.81    1.38
  -2   6  -5   22.54    1.10
  -3  -6  -5    1.16    0.26
   3   6   5    1.39    0.33
  -3   6  -5    1.04    0.26
  -3   6  -5    1.16    0.15
  -4  -6  -5    0.77    0.26
  -4   6  -5    0.39    0.22
  -4   6  -5    0.49    0.14
  -5  -6  -5    0.36    0.26
  -5   6  -5    0.40    0.33
  -5   6  -5    0.19    0.21
  -5  -7   5   27.66    1.49
  -5   7   5   30.36    1.63
  -4  -7   5    6.36    0.61
  -4  -7   5    6.79    0.49
  -4   7   5    8.43    0.62
  -4   7   5    6.36    0.64
  -3  -7   5   33.19    1.74
  -3  -7   5   31.33    1.66
  -3   7   5   34.22    1.80
  -3   7   5   33.47    1.75
   3   7  -5   33.52    1.68
  -2  -7   5   77.46    3.69
  -2  -7   5   77.03    3.66
  -2   7   5   73.70    3.71
   2   7  -5   76.30    3.67
  -2   7   5   79.83    3.77
   1  -7  -5   61.61    2.96
  -1  -7   5   63.70    3.02
  -1  -7   5   60.42    3.04
   1   7  -5   64.88    3.06
  -1   7   5   65.65    3.10
  -1   7   5   64.19    3.15
   0  -7   5   14.57    0.71
   0  -7  -5   12.97    0.69
   0   7   5   12.71    0.68
   0   7  -5   11.90    0.76
   0   7   5   13.31    0.87
   0   7   5   12.95    0.81
   1  -7   5   52.94    2.75
  -1  -7  -5   60.84    2.78
   1   7   5   54.24    2.75
   1   7   5   62.28    2.89
  -1   7  -5   59.65    2.83
   1   7   5   58.73    2.94
  -2  -7  -5   53.22    2.59
  -2   7  -5   50.20    2.60
   2   7   5   55.52    2.70
  -3  -7  -5    0.64    0.23
  -3   7  -5    0.55    0.22
   3   7   5    1.02    0.39
  -4  -7  -5   42.22    2.15
   4   7   5   40.24    2.26
  -4   7  -5   42.11    2.15
  -5  -7  -5    9.03    0.72
  -5   7  -5    9.80    0.70
  -5  -8   5   -0.03    0.21
  -5  -8   5    0.34    0.30
  -5   8   5    0.06    0.20
  -5   8   5   -0.21    0.24
  -5   8   5    0.41    0.30
  -4  -8   5   -0.10    0.24
  -4  -8   5    0.02    0.18
  -4   8   5   -0.11    0.25
  -4   8   5    0.10    0.28
   4   8  -5   -0.05    0.18
  -3  -8   5    1.43    0.28
  -3  -8   5    1.30    0.25
  -3   8   5    1.54    0.32
  -3   8   5    1.71    0.33
   3   8  -5    1.34    0.25
  -2  -8   5    2.58    0.30
  -2  -8   5    2.13    0.30
  -2   8   5    2.43    0.36
  -2   8   5    2.73    0.37
   2   8  -5    2.30    0.30
  -1  -8   5    1.40    0.21
  -1  -8   5    1.69    0.27
   1   8  -5    1.95    0.28
  -1   8   5    1.94    0.34
  -1   8   5    1.65    0.30
   0  -8  -5    0.94    0.17
   0  -8   5    0.69    0.19
   0  -8   5    1.23    0.16
   0   8   5    0.97    0.27
   0   8  -5    0.84    0.21
   0   8   5    0.89    0.28
   0   8   5    0.83    0.14
   1  -8   5    3.45    0.33
  -1  -8  -5    4.36    0.35
  -1   8  -5    3.99    0.36
   1   8   5    4.51    0.48
   1   8   5    4.01    0.45
   2  -8   5    3.83    0.28
  -2  -8  -5    3.40    0.38
  -2   8  -5    3.00    0.37
  -3  -8  -5    3.34    0.40
   3   8   5    2.70    0.47
  -3   8  -5    3.09    0.38
  -4  -8  -5    0.04    0.21
   4   8   5    0.29    0.32
  -4   8  -5   -0.05    0.23
  -4  -9   5    6.95    0.62
  -4  -9   5    7.29    0.54
  -4   9   5    7.58    0.66
  -4   9   5    7.51    0.66
  -3  -9   5    0.77    0.22
  -3   9   5    0.62    0.30
   3   9  -5    0.52    0.20
  -3   9   5    0.48    0.27
  -2  -9   5   48.48    2.40
  -2  -9   5   49.31    2.40
  -2   9   5   46.76    2.45
   2   9  -5   48.78    2.40
  -2   9   5   49.72    2.48
  -1  -9   5   15.72    0.93
  -1  -9   5   17.27    0.88
  -1   9   5   15.89    0.81
   1   9  -5   15.95    0.94
  -1   9   5   16.38    1.02
  -1   9   5   17.07    0.99
   0  -9   5    1.94    0.17
   0  -9   5    2.68    0.23
   0  -9  -5    2.05    0.25
   0   9  -5    2.03    0.31
   0   9   5    2.02    0.35
   0   9   5    1.99    0.35
   0   9   5    1.98    0.21
  -1  -9  -5   83.58    3.91
  -1   9  -5   81.83    3.97
   1   9   5   85.83    4.04
   1   9   5   78.27    4.05
  -2  -9  -5   39.55    2.06
   2  -9   5   43.58    1.97
   2   9   5   42.72    2.21
  -2   9  -5   38.28    2.09
  -3  -9  -5    0.70    0.28
  -3   9  -5    1.00    0.27
   3   9   5    0.72    0.35
  -4  -9  -5    8.68    0.74
   4   9   5    9.08    0.84
  -4 -10   5    7.94    0.70
  -4 -10   5    8.87    0.63
  -4  10   5    9.58    0.70
  -4  10   5    8.98    0.72
  -3 -10   5    3.59    0.40
  -3 -10   5    3.22    0.42
  -3  10   5    3.59    0.47
   3  10  -5    3.47    0.38
  -3  10   5    4.07    0.47
  -2 -10   5    1.07    0.24
  -2 -10   5    1.10    0.26
   2  10  -5    1.33    0.27
  -2  10   5    1.08    0.30
  -2  10   5    1.22    0.31
  -1 -10   5    7.73    0.48
  -1 -10   5    7.22    0.50
  -1  10   5    7.43    0.42
  -1  10   5    7.65    0.61
  -1  10   5    7.93    0.61
   1  10  -5    7.52    0.57
   0 -10  -5   24.26    1.29
   0  10   5   26.25    1.43
   0  10  -5   25.65    1.37
   0  10   5   25.23    1.43
  -1 -10  -5   -0.03    0.18
   1  10   5   -0.02    0.25
  -1  10  -5    0.22    0.20
  -2 -10  -5    0.25    0.22
  -2  10  -5    0.15    0.21
   2  10   5    0.03    0.28
  -3 -10  -5   18.33    1.08
   3  10   5   19.06    1.28
  -3  10  -5   18.11    1.12
  -3 -11   5    4.22    0.46
  -3 -11   5    3.98    0.43
  -3  11   5    4.77    0.51
   3  11  -5    4.27    0.41
  -2 -11   5   13.08    0.84
  -2 -11   5   14.68    0.82
  -2  11   5   13.23    0.88
   2  11  -5   12.26    0.82
  -2  11   5   13.99    0.90
  -1 -11   5   18.17    0.93
   1  11  -5   18.21    1.04
  -1  11   5   16.95    1.08
  -1  11   5   17.45    1.08
   0 -11  -5    5.02    0.42
   0  11  -5    4.43    0.45
   0  11   5    5.09    0.52
   0  11   5    4.46    0.50
  -1 -11  -5   23.74    1.22
   1  11   5   22.89    1.35
  -1  11  -5   21.14    1.26
  -2  11  -5   22.00    1.31
   2  11   5   25.83    1.47
  -3 -11  -5    0.19    0.26
  -3  11  -5    0.54    0.27
   3  11   5    0.62    0.42
  -2 -12   5    0.62    0.24
  -2 -12   5    1.08    0.29
  -2  12   5    0.68    0.28
   2  12  -5    1.19    0.28
  -2  12   5    0.65    0.26
  -1  12   5    8.37    0.65
   1  12  -5    8.22    0.62
   0  12  -5   13.62    0.90
   0  12   5   15.63    1.08
  -1 -12  -5    9.93    0.69
   1  12   5   10.69    0.78
  -2 -12  -5   18.23    1.08
   2  12   5   19.60    1.25
  -2  12  -5   17.91    1.12
  -1  13   5    0.76    0.32
  -1  13   5    0.95    0.27
   0 -13  -5   -0.08    0.29
   0  13   5   -0.04    0.29
   0  13  -5    0.31    0.25
  -6   0   6   12.81    0.97
  -6   0   6   13.50    0.95
  -5   0   6   13.90    0.75
  -5   0   6   15.32    0.99
  -4   0   6    1.82    0.35
   4   0  -6    2.50    0.27
  -4   0   6    2.33    0.20
  -4   0   6    1.83    0.25
  -3   0   6  128.49    6.20
  -3   0   6  136.93    6.31
   3   0  -6  131.05    6.16
  -3   0   6  134.80    6.13
   2   0  -6   97.83    4.47
  -2   0   6   90.98    4.45
   2   0  -6   91.96    4.37
  -2   0   6   93.90    4.49
  -2   0   6   93.73    4.42
   1   0  -6   11.10    0.80
  -1   0   6   11.87    0.69
  -1   0   6   11.78    0.73
  -1   0   6   13.60    0.77
   1   0  -6   11.82    0.73
   0   0   6    9.58    0.59
   0   0  -6   11.09    0.69
   0   0  -6    9.00    0.64
   0   0   6    9.12    0.61
   0   0   6   12.40    0.71
   1   0   6  161.86    7.07
   1   0   6  130.38    7.07
  -1   0  -6  166.62    7.03
  -1   0  -6  138.49    6.97
  -2   0  -6   21.98    1.18
  -2   0  -6   23.56    1.19
   2   0   6   20.65    1.27
   2   0   6   19.97    1.06
  -3   0  -6   14.32    0.72
  -3   0  -6   15.24    0.89
  -3   0  -6   15.37    0.92
  -4   0  -6   34.85    1.76
  -4   0  -6   33.13    1.80
  -4   0  -6   32.70    1.56
  -5   0  -6   33.13    1.90
  -5   0  -6   36.12    1.82
  -6  -1   6    3.82    0.37
  -6  -1   6    3.48    0.54
  -6   1   6    2.96    0.50
  -6   1   6    2.85    0.48
  -5  -1   6    1.68    0.36
  -5  -1   6    1.18    0.19
  -5   1   6    0.92    0.33
  -5   1   6    1.23    0.34
  -4  -1   6    2.33    0.24
  -4  -1   6    2.32    0.21
   4  -1  -6    2.28    0.24
  -4  -1   6    2.21    0.37
  -4   1   6    2.41    0.25
  -4   1   6    2.60    0.39
  -4   1   6    2.57    0.19
   4   1  -6    2.28    0.29
  -4   1   6    1.98    0.34
   3  -1  -6    1.11    0.14
  -3  -1   6    1.09    0.15
  -3  -1   6    1.32    0.27
  -3   1   6    1.18    0.28
  -3   1   6    1.03    0.18
  -3   1   6    1.68    0.31
   3   1  -6    1.53    0.21
  -2  -1   6    0.96    0.23
  -2  -1   6    1.07    0.18
   2  -1  -6    0.98    0.22
   2   1  -6    0.97    0.24
  -2   1   6    1.00    0.24
  -2   1   6    1.02    0.17
  -2   1   6    1.58    0.26
   2   1  -6    0.67    0.16
   1  -1  -6   16.03    0.89
  -1  -1   6   15.28    0.84
   1  -1  -6   12.35    0.78
  -1  -1   6   14.75    0.87
   1  -1  -6   16.18    1.00
  -1   1   6   16.91    0.91
  -1   1   6   17.32    0.87
  -1   1   6   15.36    0.83
   1   1  -6   14.34    0.93
   1   1  -6   13.32    0.81
   1   1  -6   16.67    0.90
   0  -1  -6    0.10    0.16
   0  -1  -6    0.17    0.16
   0  -1   6    0.12    0.12
   0  -1   6    0.14    0.12
   0   1   6    0.30    0.11
   0   1   6    0.27    0.21
   0   1   6    0.23    0.14
   0   1  -6    0.78    0.16
   0   1  -6    0.16    0.17
  -1  -1  -6    0.73    0.17
  -1  -1  -6    0.45    0.20
  -1  -1  -6    0.70    0.12
  -1  -1  -6    0.53    0.19
   1  -1   6    0.73    0.14
  -1   1  -6    0.58    0.20
   1   1   6    0.49    0.27
   1   1   6    0.90    0.18
   1   1   6    0.92    0.21
   2  -1   6    0.54    0.27
  -2  -1  -6    0.48    0.20
  -2  -1  -6    0.41    0.10
  -2  -1  -6    0.61    0.21
   2   1   6    0.59    0.28
  -2   1  -6    0.34    0.20
  -2   1  -6    0.36    0.13
   2   1   6    0.58    0.16
  -3  -1  -6    7.10    0.40
  -3  -1  -6    7.66    0.57
  -3  -1  -6    7.89    0.56
  -3   1  -6    7.38    0.55
   3   1   6    6.94    0.45
  -3   1  -6    7.42    0.59
  -4  -1  -6    1.58    0.16
  -4  -1  -6    1.58    0.32
  -4  -1  -6    1.97    0.36
  -4   1  -6    1.94    0.32
  -4   1  -6    1.52    0.35
  -5  -1  -6    0.14    0.21
  -5  -1  -6    0.02    0.20
  -5   1  -6    0.50    0.29
  -5   1  -6   -0.12    0.22
  -6  -2   6    7.45    0.50
  -6  -2   6    7.21    0.82
  -6   2   6    7.51    0.71
  -6   2   6    7.40    0.76
  -5  -2   6   26.03    1.33
  -5  -2   6   28.06    1.55
  -5   2   6   27.78    1.54
  -5   2   6   27.51    1.55
  -5   2   6   24.86    1.32
  -4  -2   6    0.40    0.13
  -4  -2   6    0.65    0.25
  -4  -2   6    0.36    0.13
  -4   2   6    0.83    0.28
  -4   2   6    0.76    0.29
  -3  -2   6    9.91    0.64
  -3  -2   6    9.61    0.52
  -3  -2   6    8.63    0.55
   3   2  -6    8.75    0.59
  -3   2   6    8.67    0.66
   3   2  -6    8.23    0.55
  -3   2   6    9.40    0.66
  -2  -2   6  105.03    5.04
  -2  -2   6  111.25    5.10
   2  -2  -6  109.75    4.92
  -2  -2   6  107.82    4.99
   2   2  -6  114.81    5.10
  -2   2   6   97.73    5.11
  -2   2   6  110.92    5.10
   2   2  -6  100.14    5.04
  -1  -2   6   19.34    1.01
   1  -2  -6   15.40    0.94
  -1  -2   6   17.97    1.02
   1  -2  -6   20.16    1.05
   1   2  -6   20.35    1.05
  -1   2   6   17.71    0.98
   1   2  -6   17.16    1.08
  -1   2   6   21.11    1.10
  -1   2   6   20.56    1.03
   0  -2  -6   75.93    3.96
   0  -2   6   83.79    3.95
   0  -2  -6   92.12    4.11
   0  -2   6   81.89    4.02
   0  -2  -6   84.24    4.04
   0  -2  -6   86.12    3.95
   0   2   6   74.71    3.98
   0   2   6   85.87    4.00
   0   2  -6   91.29    4.07
   0   2  -6   86.59    4.04
  -1  -2  -6   64.55    3.06
  -1  -2  -6   58.56    2.95
   1  -2   6   65.73    2.93
   1   2   6   56.00    3.15
   1   2   6   61.26    3.01
  -1   2  -6   65.72    3.06
  -1   2  -6   65.62    3.03
  -2  -2  -6   31.19    1.53
  -2  -2  -6   29.41    1.55
  -2  -2  -6   29.17    1.43
   2  -2   6   29.00    1.60
  -2   2  -6   31.79    1.56
   2   2   6   28.28    1.50
  -2   2  -6   27.90    1.48
   2   2   6   29.61    1.69
  -3  -2  -6    7.36    0.41
  -3  -2  -6    7.64    0.54
  -3  -2  -6    6.99    0.55
   3   2   6    6.49    0.49
  -3   2  -6    5.82    0.57
  -3   2  -6    7.68    0.55
  -4  -2  -6   50.86    2.70
  -4  -2  -6   58.23    2.82
  -4  -2  -6   56.01    2.75
  -4   2  -6   61.27    2.80
  -4   2  -6   53.03    2.84
  -5  -2  -6    4.68    0.56
  -5  -2  -6    4.98    0.45
  -5   2  -6    5.30    0.59
  -5   2  -6    5.32    0.51
  -5  -3   6    1.82    0.38
  -5   3   6    0.95    0.33
  -5   3   6    1.60    0.38
  -4  -3   6   16.60    0.91
  -4  -3   6   17.67    0.93
  -4  -3   6   19.50    1.11
  -4   3   6   19.06    1.11
  -4   3   6   17.47    1.11
  -3  -3   6   19.07    0.94
  -3  -3   6   18.75    1.06
  -3  -3   6   17.55    0.96
  -3   3   6   16.64    1.07
   3   3  -6   17.27    1.01
  -3   3   6   19.40    1.06
  -2  -3   6   24.91    1.27
  -2  -3   6   22.59    1.22
  -2  -3   6   24.33    1.18
  -2   3   6   21.75    1.30
  -2   3   6   25.88    1.28
   2   3  -6   20.05    1.22
   2   3  -6   24.71    1.26
  -1  -3   6   23.48    1.26
   1  -3  -6   26.03    1.30
  -1  -3   6   24.01    1.26
   1  -3  -6   24.86    1.14
   1  -3  -6   22.64    1.16
   1   3  -6   23.04    1.32
  -1   3   6   26.58    1.28
   1   3  -6   25.70    1.29
   1   3  -6   21.29    1.26
   0  -3  -6   43.70    2.16
   0  -3  -6   37.15    2.07
   0  -3  -6   43.09    2.05
   0   3  -6   49.62    2.15
   0   3  -6   40.69    2.15
   0   3   6   42.72    2.12
   0   3  -6   42.01    2.14
   0   3   6   45.22    2.25
  -1  -3  -6    2.00    0.29
   1  -3   6    2.19    0.17
   1  -3   6    1.35    0.31
   1  -3   6    1.91    0.16
  -1  -3  -6    1.78    0.19
   1   3   6    1.77    0.28
  -1   3  -6    2.35    0.30
  -1   3  -6    2.60    0.26
   1   3   6    1.73    0.38
  -2  -3  -6   28.78    1.48
  -2  -3  -6   27.46    1.38
  -2  -3  -6   29.77    1.46
   2  -3   6   26.18    1.48
   2   3   6   29.87    1.50
  -2   3  -6   24.87    1.40
   2   3   6   30.62    1.66
  -2   3  -6   28.54    1.48
  -3  -3  -6    8.27    0.59
  -3  -3  -6    7.99    0.47
  -3  -3  -6    7.83    0.57
   3   3   6    7.84    0.58
  -3   3  -6    9.06    0.61
  -3   3  -6    8.09    0.51
  -4  -3  -6    8.79    0.65
  -4  -3  -6    8.20    0.59
  -4   3  -6    6.71    0.67
  -4   3  -6    9.03    0.65
  -5  -3  -6    6.54    0.68
  -5   3  -6    6.82    0.67
  -5   3  -6    6.20    0.57
  -5  -4   6    7.28    0.50
  -5  -4   6    6.45    0.64
  -5   4   6    6.90    0.66
  -5   4   6    7.26    0.65
  -4  -4   6   11.16    0.64
  -4  -4   6   11.26    0.79
  -4  -4   6   10.64    0.60
  -4   4   6   13.33    0.83
   4   4  -6   11.43    0.64
  -4   4   6   10.00    0.79
  -3  -4   6   30.46    1.51
  -3  -4   6   31.57    1.63
  -3   4   6   33.02    1.65
  -3   4   6   26.99    1.64
  -2  -4   6   22.85    1.27
  -2  -4   6   24.38    1.25
  -2  -4   6   26.09    1.34
   2   4  -6   25.20    1.32
  -2   4   6   25.99    1.35
  -2   4   6   24.60    1.39
  -1  -4   6    4.24    0.37
   1  -4  -6    4.48    0.24
  -1  -4   6    4.10    0.34
  -1   4   6    5.39    0.49
   1   4  -6    3.46    0.36
   1   4  -6    4.15    0.37
  -1   4   6    4.38    0.40
   0  -4  -6    8.91    0.58
   0  -4  -6    8.77    0.49
   0  -4   6    8.46    0.51
   0   4   6    9.32    0.71
   0   4  -6    8.92    0.58
   0   4  -6    8.01    0.56
   0   4   6    8.84    0.59
   1  -4   6  120.87    6.43
  -1  -4  -6  142.15    6.40
   1  -4   6  131.42    6.31
   1  -4   6  147.96    6.31
  -1  -4  -6  141.99    6.46
  -1  -4  -6  132.01    6.37
   1   4   6  135.46    6.60
  -1   4  -6  135.49    6.44
   1   4   6  139.22    6.46
  -1   4  -6  142.78    6.41
   2  -4   6   18.01    1.05
  -2  -4  -6   20.38    1.07
  -2  -4  -6   20.45    1.09
  -2   4  -6   19.58    1.02
  -2   4  -6   18.61    1.08
   2   4   6   19.72    1.25
   2   4   6   20.08    1.12
  -3  -4  -6    7.43    0.56
  -3  -4  -6    8.11    0.56
  -3   4  -6    7.99    0.59
   3   4   6    6.39    0.58
  -4  -4  -6    8.68    0.65
   4   4   6    8.33    0.65
  -4   4  -6    7.40    0.71
  -4   4  -6    8.79    0.66
  -5  -4  -6    6.78    0.63
  -5   4  -6    8.17    0.64
  -5  -5   6    4.81    0.55
  -5  -5   6    4.90    0.41
  -5   5   6    3.76    0.50
  -5   5   6    4.27    0.58
  -4  -5   6   29.05    1.50
  -4  -5   6   26.72    1.34
  -4   5   6   26.76    1.48
  -4   5   6   23.93    1.49
   4   5  -6   24.82    1.32
  -3  -5   6   14.35    0.77
  -3  -5   6   12.81    0.76
  -3  -5   6   14.29    0.86
   3   5  -6   14.56    0.82
  -3   5   6   12.44    0.90
  -2  -5   6    1.70    0.24
  -2  -5   6    1.64    0.26
  -2   5   6    2.02    0.36
  -2   5   6    1.78    0.29
   2   5  -6    1.62    0.28
  -1  -5   6   83.65    4.25
  -1  -5   6   83.90    4.24
  -1   5   6  102.05    4.40
  -1   5   6   91.37    4.30
   1   5  -6   88.21    4.27
   0  -5   6   47.24    2.28
   0  -5  -6   48.08    2.24
   0   5   6   46.03    2.35
   0   5  -6   44.54    2.31
   0   5   6   48.09    2.47
   0   5  -6   49.04    2.34
   1  -5   6    1.29    0.15
  -1  -5  -6    1.33    0.21
   1  -5   6    1.68    0.26
   1   5   6    1.12    0.26
  -1   5  -6    1.44    0.21
  -1   5  -6    1.23    0.24
   1   5   6    1.31    0.36
  -2  -5  -6   39.84    2.06
  -2   5  -6   40.84    2.09
  -2   5  -6   42.77    2.01
   2   5   6   42.07    2.15
   2   5   6   41.07    2.26
  -3  -5  -6   61.13    2.99
   3   5   6   59.63    2.98
  -3   5  -6   56.48    2.80
  -4  -5  -6    0.46    0.25
  -4   5  -6    0.57    0.26
  -4   5  -6   -0.21    0.26
   4   5   6    0.79    0.31
  -5  -5  -6    5.91    0.57
  -5   5  -6    5.70    0.53
  -5  -6   6    4.47    0.62
  -5  -6   6    3.73    0.40
  -5   6   6    4.24    0.57
  -4  -6   6    1.37    0.32
  -4  -6   6    1.47    0.25
  -4   6   6    1.36    0.34
   4   6  -6    0.77    0.21
  -4   6   6    1.23    0.34
  -3  -6   6    0.58    0.19
  -3  -6   6    0.31    0.15
  -3  -6   6    0.48    0.25
  -3   6   6    0.33    0.27
   3   6  -6    0.26    0.20
  -3   6   6    0.57    0.28
  -2  -6   6   13.78    0.84
  -2  -6   6   14.75    0.81
  -2   6   6   13.14    0.87
   2   6  -6   14.22    0.84
  -2   6   6   14.72    0.94
  -1  -6   6    2.34    0.28
   1   6  -6    2.58    0.32
  -1   6   6    2.42    0.35
  -1   6   6    2.87    0.44
   0  -6   6   15.57    0.85
   0  -6  -6   15.83    0.81
   0   6   6   16.08    0.95
   0   6   6   15.55    1.03
   0   6  -6   15.38    0.89
   1  -6   6    0.50    0.12
  -1  -6  -6    0.19    0.13
   1  -6   6    0.31    0.15
   1   6   6    0.26    0.28
   1   6   6   -0.01    0.22
  -1   6  -6    0.23    0.11
  -1   6  -6    0.57    0.21
  -2  -6  -6    1.69    0.27
   2   6   6    2.12    0.40
   2   6   6    1.25    0.36
  -2   6  -6    1.67    0.29
  -3  -6  -6    0.93    0.26
  -3   6  -6    0.81    0.25
   3   6   6    0.84    0.35
  -3   6  -6    0.78    0.14
  -4  -6  -6    9.02    0.66
  -4   6  -6    9.72    0.67
  -4   6  -6    6.01    0.69
   4   6   6    8.43    0.76
  -5  -6  -6    0.26    0.27
  -5   6  -6   -0.13    0.29
  -5   6  -6    0.11    0.20
  -5  -7   6    2.01    0.40
  -5  -7   6    1.94    0.34
  -5   7   6    2.09    0.41
  -5   7   6    2.01    0.41
  -4  -7   6   29.97    1.52
  -4  -7   6   30.54    1.64
  -4   7   6   29.88    1.68
   4   7  -6   27.06    1.51
  -4   7   6   30.66    1.64
  -3  -7   6   39.13    2.03
  -3  -7   6   38.96    1.95
   3   7  -6   39.96    1.99
  -3   7   6   39.22    2.05
  -2  -7   6    9.73    0.68
  -2  -7   6   11.57    0.71
  -2   7   6   12.22    0.81
  -2   7   6   10.11    0.71
   2   7  -6   10.81    0.68
  -1  -7   6   51.65    2.50
  -1   7   6   53.26    2.67
   1   7  -6   51.33    2.55
  -1   7   6   50.36    2.58
   0  -7  -6   77.88    3.57
   0  -7   6   72.06    3.61
   0   7   6   76.38    3.79
   0   7  -6   76.97    3.67
   0   7   6   76.52    3.71
   1  -7   6    0.42    0.10
   1  -7   6    0.38    0.14
  -1  -7  -6    0.23    0.16
  -1   7  -6    0.60    0.21
   1   7   6    0.27    0.29
   1   7   6    0.21    0.24
  -2  -7  -6   70.72    3.41
  -2   7  -6   70.76    3.45
   2   7   6   73.46    3.55
   2   7   6   67.66    3.59
  -3  -7  -6   34.92    1.77
   3   7   6   31.20    1.89
  -3   7  -6   34.90    1.79
  -4  -7  -6    6.92    0.58
  -4   7  -6    6.75    0.57
   4   7   6    5.45    0.70
  -4  -8   6    0.12    0.24
  -4  -8   6    0.34    0.21
  -4   8   6    0.15    0.30
  -4   8   6    0.13    0.32
  -3  -8   6    7.49    0.58
  -3  -8   6    7.46    0.54
   3   8  -6    7.50    0.56
  -3   8   6    7.57    0.66
  -3   8   6    7.40    0.59
  -2  -8   6    1.30    0.26
  -2  -8   6    1.14    0.26
   2   8  -6    0.95    0.24
  -2   8   6    0.92    0.31
  -2   8   6    1.21    0.36
  -1  -8   6    0.81    0.18
   1   8  -6    0.77    0.24
  -1   8   6    0.56    0.32
  -1   8   6    1.04    0.29
   0  -8  -6    7.67    0.47
   0  -8   6    7.57    0.52
   0   8  -6    7.37    0.55
   0   8   6    7.36    0.62
   0   8   6    8.03    0.69
   1  -8   6   -0.24    0.15
  -1  -8  -6    0.01    0.16
   1   8   6   -0.12    0.24
   1   8   6   -0.08    0.26
  -1   8  -6    0.08    0.19
  -2  -8  -6    3.22    0.38
  -2   8  -6    2.52    0.37
   2   8   6    3.39    0.51
  -3  -8  -6    0.56    0.27
   3   8   6    0.17    0.33
  -3   8  -6    0.08    0.22
   4   8   6    1.34    0.42
  -4   8  -6    1.94    0.39
  -4  -9   6   21.21    1.18
  -3  -9   6    5.52    0.52
  -3  -9   6    5.24    0.47
   3   9  -6    5.69    0.49
  -3   9   6    5.78    0.56
  -3   9   6    5.31    0.57
  -2  -9   6    0.49    0.22
  -2  -9   6    0.65    0.23
   2   9  -6    0.32    0.22
  -2   9   6    0.73    0.29
  -1  -9   6   61.60    3.04
  -1   9   6   62.45    3.20
  -1   9   6   61.92    3.14
   1   9  -6   66.78    3.19
   0   9   6   25.05    1.40
   0   9  -6   26.14    1.35
   0   9   6   22.98    1.56
   0   9   6   23.66    1.21
  -1  -9  -6    0.67    0.21
   1  -9   6    0.01    0.20
  -1   9  -6    0.62    0.23
   1   9   6    0.65    0.32
   1   9   6    0.21    0.32
  -2  -9  -6   16.82    0.99
  -2   9  -6   15.69    0.96
   2   9   6   14.78    1.07
  -3   9  -6   29.55    1.63
   3   9   6   30.35    1.81
  -3 -10   6   16.90    1.02
  -3  10   6   16.68    1.07
  -2 -10   6    5.88    0.48
  -2 -10   6    6.28    0.51
   2  10  -6    5.90    0.49
  -2  10   6    5.92    0.57
  -2  10   6    5.54    0.58
   1  10  -6    1.06    0.26
  -1  10   6    0.82    0.33
  -1  10   6    0.95    0.32
   0 -10  -6    0.20    0.17
   0  10   6   -0.06    0.24
   0  10   6    0.01    0.26
   0  10  -6    0.40    0.22
  -1 -10  -6   22.09    1.15
  -1  10  -6   21.96    1.23
   1  10   6   19.53    1.32
   1  10   6   21.68    1.31
  -2 -10  -6    3.04    0.37
   2  10   6    2.76    0.50
  -2  10  -6    2.94    0.38
  -3 -10  -6    1.37    0.31
  -3  10  -6    1.01    0.30
  -3 -11   6    9.25    0.68
  -3 -11   6    8.39    0.66
  -3  11   6    9.07    0.74
  -3  11   6    9.37    0.75
   3  11  -6   10.43    0.68
  -2 -11   6    7.37    0.58
  -2 -11   6    7.70    0.55
  -2  11   6    7.52    0.76
  -2  11   6    7.06    0.66
   2  11  -6    6.90    0.55
  -1 -11   6   11.30    0.70
  -1  11   6   13.33    0.91
   1  11  -6   14.93    0.86
  -1  11   6   14.88    0.93
   0 -11  -6   19.18    1.01
   0  11   6   19.01    1.16
   0  11   6   16.74    1.16
   0  11  -6   17.50    1.07
  -1 -11  -6    0.14    0.22
   1  11   6   -0.31    0.26
  -1  11  -6    0.19    0.22
  -2 -11  -6   15.10    0.92
   2  11   6   15.52    1.13
  -2  11  -6   15.30    0.97
   1  12  -6    3.03    0.41
  -1  12   6    3.05    0.46
  -1  12   6    2.98    0.47
   0  12   6   10.02    0.79
  -1 -12  -6    4.98    0.48
   1  12   6    4.27    0.57
  -1  12  -6    4.22    0.47
  -5   0   7   19.75    1.19
  -5   0   7   17.80    0.94
  -5   0   7   19.87    1.21
  -4   0   7   37.31    1.79
   4   0  -7   38.53    1.85
  -4   0   7   35.27    1.96
  -4   0   7   39.23    2.02
   3   0  -7   20.20    1.12
   3   0  -7   19.41    1.02
  -3   0   7   20.23    1.18
  -3   0   7   20.09    1.14
  -2   0   7   19.56    1.11
   2   0  -7   20.70    1.12
  -2   0   7   19.12    1.07
   2   0  -7   17.90    0.99
  -1   0   7  183.61    8.59
  -1   0   7  189.85    8.54
   1   0  -7  177.68    8.51
   1   0  -7  181.64    8.60
   0   0   7   20.42    1.10
   0   0   7   17.67    0.98
   0   0  -7   17.42    1.06
  -1   0  -7    4.26    0.42
   1   0   7    3.89    0.33
   1   0   7    3.58    0.54
   2   0   7  125.27    6.25
  -2   0  -7  142.56    6.37
   2   0   7  120.55    6.49
  -2   0  -7  149.62    6.39
  -3   0  -7   45.58    2.33
  -4   0  -7    3.46    0.49
  -4   0  -7    4.78    0.47
  -5   0  -7    8.11    0.66
  -5   0  -7    7.83    0.72
  -5  -1   7    0.32    0.30
  -5  -1   7    0.59    0.15
  -5   1   7    0.52    0.31
  -5   1   7    0.62    0.32
  -4  -1   7    5.32    0.36
   4  -1  -7    5.64    0.36
  -4  -1   7    5.10    0.39
  -4  -1   7    5.71    0.55
   4   1  -7    5.31    0.43
  -4   1   7    5.10    0.55
  -4   1   7    5.19    0.54
  -3  -1   7    4.67    0.46
   3  -1  -7    4.05    0.27
  -3   1   7    3.89    0.45
  -3   1   7    4.36    0.41
   3   1  -7    3.38    0.41
   2  -1  -7    0.12    0.10
   2  -1  -7    0.34    0.20
  -2  -1   7    0.15    0.19
   2   1  -7    0.06    0.19
   2   1  -7    0.10    0.15
  -2   1   7    0.02    0.18
  -2   1   7    0.33    0.21
   1  -1  -7    0.28    0.15
  -1  -1   7    0.37    0.17
   1  -1  -7    0.05    0.18
  -1  -1   7    0.17    0.18
  -1   1   7    0.31    0.21
  -1   1   7    0.20    0.17
   1   1  -7    0.25    0.17
   1   1  -7    0.19    0.20
   0  -1   7   17.62    0.96
   0  -1   7   14.41    0.84
   0  -1  -7   14.15    0.93
   0   1   7   17.26    1.00
   0   1  -7   17.92    0.88
   0   1  -7   13.95    0.92
   0   1   7   15.09    0.87
  -1  -1  -7    8.13    0.52
   1  -1   7    6.96    0.64
  -1  -1  -7    7.59    0.57
   1  -1   7    7.95    0.50
   1   1   7    6.65    0.50
  -1   1  -7    8.00    0.57
   1   1   7    6.48    0.67
  -2  -1  -7    0.99    0.14
  -2  -1  -7    0.78    0.26
   2  -1   7    1.08    0.13
  -2  -1  -7    1.01    0.26
   2  -1   7    0.99    0.34
   2   1   7    0.91    0.21
  -2   1  -7    1.17    0.28
   2   1   7    0.55    0.36
  -3  -1  -7    0.51    0.11
  -3  -1  -7    0.25    0.23
  -3   1  -7    0.43    0.22
  -3   1  -7    0.18    0.25
   3   1   7    0.71    0.16
  -4  -1  -7    5.78    0.56
  -4  -1  -7    5.26    0.56
  -4   1  -7    6.22    0.59
  -5  -1  -7   -0.07    0.22
  -5  -1  -7    0.71    0.34
  -5   1  -7    0.00    0.32
  -5   1  -7    0.23    0.27
  -5  -2   7    4.91    0.37
  -5  -2   7    5.13    0.58
  -5   2   7    5.03    0.61
  -5   2   7    4.44    0.55
  -4  -2   7   39.41    1.85
  -4  -2   7   40.40    2.05
  -4  -2   7   34.33    1.88
  -4   2   7   38.01    2.05
  -4   2   7   39.40    2.02
  -3  -2   7    5.35    0.50
  -3  -2   7    5.69    0.37
   3   2  -7    5.38    0.47
   3   2  -7    4.84    0.41
  -3   2   7    4.52    0.46
  -3   2   7    5.29    0.51
  -2  -2   7   25.67    1.41
   2  -2  -7   25.99    1.23
   2  -2  -7   26.58    1.42
  -2   2   7   27.42    1.40
   2   2  -7   27.61    1.42
  -2   2   7   24.08    1.43
   1  -2  -7   55.37    2.83
   1  -2  -7   61.99    2.72
  -1  -2   7   48.59    2.78
   1   2  -7   52.69    2.79
   1   2  -7   58.03    2.83
  -1   2   7   64.36    2.88
  -1   2   7   59.38    2.80
   0  -2  -7   61.38    3.13
   0  -2   7   75.98    3.24
   0  -2  -7   57.55    3.22
   0  -2   7   63.12    3.12
   0   2   7   65.05    3.17
   0   2  -7   64.92    3.25
   0   2  -7   77.03    3.27
   0   2  -7   60.43    3.21
   0   2   7   68.70    3.30
  -1  -2  -7   41.22    2.13
  -1  -2  -7   42.60    2.07
  -1  -2  -7   38.17    2.01
   1  -2   7   42.90    2.20
   1  -2   7   44.66    1.99
  -1   2  -7   42.30    2.12
  -1   2  -7   44.86    2.11
   1   2   7   35.34    2.23
   2  -2   7   36.62    2.23
  -2  -2  -7   44.37    2.15
  -2  -2  -7   42.71    2.03
  -2  -2  -7   48.85    2.21
   2   2   7   37.35    2.10
  -2   2  -7   47.07    2.18
   2   2   7   40.82    2.35
  -3  -2  -7   21.80    1.09
  -3  -2  -7   22.89    1.25
   3   2   7   20.89    1.17
  -3   2  -7   20.81    1.28
  -3   2  -7   23.40    1.26
  -4  -2  -7   -0.08    0.22
  -4  -2  -7    0.17    0.26
  -4   2  -7   -0.03    0.25
  -4   2  -7   -0.34    0.23
  -5   2  -7   24.53    1.61
  -5   2  -7   30.01    1.55
  -5  -3   7    6.38    0.45
  -5  -3   7    6.08    0.71
  -5   3   7    6.92    0.66
  -5   3   7    6.73    0.65
  -4  -3   7    2.68    0.41
  -4  -3   7    2.35    0.28
  -4  -3   7    3.01    0.29
  -4   3   7    2.84    0.46
  -4   3   7    2.89    0.43
  -3  -3   7    7.51    0.59
  -3  -3   7    7.36    0.47
   3   3  -7    6.90    0.56
  -3   3   7    7.64    0.69
  -2  -3   7   33.92    1.81
  -2   3   7   37.32    1.82
  -2   3   7   32.69    1.85
   2   3  -7   36.16    1.82
  -1  -3   7    0.86    0.24
   1  -3  -7    0.88    0.12
   1  -3  -7    1.06    0.24
   1   3  -7    1.12    0.25
  -1   3   7    1.02    0.25
  -1   3   7    0.84    0.27
   0  -3   7   31.48    1.59
   0  -3  -7   33.13    1.72
   0  -3  -7   30.72    1.59
   0   3  -7   31.06    1.70
   0   3  -7   32.82    1.69
   0   3   7   35.61    1.81
   0   3   7   32.76    1.67
  -1  -3  -7   47.65    2.40
   1  -3   7   53.07    2.24
  -1  -3  -7   43.14    2.28
  -1  -3  -7   50.22    2.33
   1  -3   7   47.16    2.43
  -1   3  -7   51.49    2.37
   1   3   7   41.68    2.52
  -1   3  -7   47.80    2.39
   1   3   7   43.54    2.36
  -2  -3  -7    9.56    0.68
  -2  -3  -7    9.99    0.55
  -2  -3  -7   11.01    0.67
   2  -3   7   10.08    0.73
  -2   3  -7    8.96    0.66
  -2   3  -7    9.98    0.60
   2   3   7    7.83    0.64
   2   3   7    8.79    0.85
  -3  -3  -7   22.12    1.10
  -3  -3  -7   24.65    1.36
  -3  -3  -7   21.81    1.23
  -3   3  -7   21.85    1.29
   3   3   7   19.15    1.20
  -4  -3  -7    3.18    0.45
  -4  -3  -7    2.77    0.39
  -4   3  -7    3.00    0.40
  -4   3  -7    2.27    0.46
  -5  -3  -7    1.07    0.32
  -5   3  -7    1.13    0.40
  -5   3  -7    0.94    0.30
  -5  -4   7   14.85    1.07
  -5  -4   7   11.37    0.70
  -5   4   7   11.36    0.89
  -4  -4   7   10.57    0.75
  -4  -4   7    9.81    0.59
  -4   4   7    9.10    0.75
  -4   4   7   10.35    0.76
   4   4  -7    8.28    0.61
  -3  -4   7    0.98    0.27
  -3  -4   7    1.51    0.23
  -3   4   7    0.80    0.29
   3   4  -7    1.00    0.27
  -3   4   7    1.05    0.31
  -2  -4   7   16.87    1.00
  -2   4   7   16.94    1.07
  -2   4   7   17.59    1.03
   2   4  -7   18.03    1.01
  -1  -4   7   64.89    3.43
   1  -4  -7   81.07    3.33
   1  -4  -7   66.91    3.31
  -1  -4   7   65.25    3.49
  -1   4   7   72.27    3.47
  -1   4   7   81.12    3.59
   1   4  -7   69.75    3.48
   0  -4   7    3.10    0.33
   0  -4  -7    2.11    0.23
   0  -4  -7    2.34    0.35
   0  -4   7    2.30    0.24
   0   4   7    2.16    0.33
   0   4   7    2.00    0.42
   0   4  -7    1.90    0.30
   0   4  -7    2.85    0.35
   1  -4   7    1.91    0.16
  -1  -4  -7    1.84    0.26
   1  -4   7    1.70    0.33
   1  -4   7    1.73    0.17
  -1  -4  -7    1.64    0.31
  -1   4  -7    1.47    0.28
   1   4   7    1.16    0.35
   1   4   7    1.69    0.31
  -1   4  -7    1.85    0.26
  -2  -4  -7   34.61    1.81
  -2  -4  -7   36.25    1.78
  -2   4  -7   35.25    1.81
   2   4   7   31.37    1.82
   2   4   7   34.81    2.02
  -3  -4  -7   14.12    0.87
  -3  -4  -7   14.81    0.87
   3   4   7   11.82    0.86
  -3   4  -7   12.49    0.75
  -3   4  -7   14.29    0.87
  -4  -4  -7    1.59    0.31
  -4  -4  -7    1.68    0.35
  -4   4  -7    1.97    0.35
   4   4   7    1.02    0.32
  -4   4  -7    1.82    0.41
  -5  -4  -7    2.90    0.47
  -5   4  -7    4.36    0.44
  -5   4  -7    1.82    0.46
  -5  -5   7    2.39    0.43
  -5  -5   7    2.44    0.30
  -5   5   7    2.10    0.42
  -4  -5   7    0.66    0.19
  -4  -5   7    0.45    0.28
  -4   5   7    0.61    0.31
  -4   5   7    0.21    0.30
   4   5  -7    0.15    0.21
  -3  -5   7   53.64    2.70
  -3   5   7   54.29    2.86
   3   5  -7   58.00    2.79
  -3   5   7   58.51    2.83
  -2  -5   7   22.41    1.30
   2   5  -7   24.36    1.31
  -2   5   7   25.04    1.40
  -2   5   7   24.29    1.34
  -1  -5   7    0.58    0.20
  -1   5   7    0.76    0.31
  -1   5   7    0.45    0.24
   1   5  -7    0.73    0.23
   0  -5   7   37.37    1.84
   0  -5  -7   37.61    1.80
   0   5  -7   38.12    1.92
   0   5   7   37.42    1.93
   0   5   7   38.24    2.05
   0   5  -7   34.82    1.95
   1  -5   7   35.76    1.79
  -1  -5  -7   35.00    1.72
   1  -5   7   37.12    1.63
   1   5   7   32.22    1.81
  -1   5  -7   31.07    1.77
  -1   5  -7   34.13    1.74
   1   5   7   34.71    1.98
  -2  -5  -7    0.02    0.20
  -2   5  -7    0.11    0.13
  -2   5  -7   -0.07    0.14
   2   5   7   -0.26    0.25
   2   5   7    0.41    0.35
  -3  -5  -7    5.92    0.51
  -3   5  -7    6.01    0.52
   3   5   7    5.20    0.56
  -4  -5  -7   40.84    2.14
  -4   5  -7   42.57    2.14
  -4   5  -7   38.33    2.22
  -5  -6   7    0.25    0.33
  -5  -6   7    0.30    0.19
  -5   6   7    0.10    0.31
  -5   6   7    0.23    0.28
  -4  -6   7    4.87    0.40
  -4  -6   7    4.78    0.55
  -4   6   7    4.81    0.56
  -4   6   7    5.52    0.57
   4   6  -7    3.93    0.45
  -3  -6   7    0.39    0.19
  -3  -6   7    0.42    0.24
  -3   6   7    0.65    0.25
   3   6  -7    0.60    0.25
  -3   6   7    0.26    0.28
  -2  -6   7    2.36    0.33
   2   6  -7    1.92    0.31
  -2   6   7    2.52    0.38
  -2   6   7    2.23    0.41
  -1  -6   7    0.97    0.21
  -1   6   7    0.86    0.28
   1   6  -7    1.06    0.28
  -1   6   7    1.22    0.35
   0  -6  -7   11.30    0.61
   0  -6   7    9.86    0.67
   0   6  -7   11.00    0.71
   0   6   7   11.08    0.76
   0   6   7   10.92    0.87
   1  -6   7   13.08    0.80
  -1  -6  -7   14.84    0.78
   1   6   7   12.68    1.11
  -1   6  -7   13.23    0.76
   1   6   7   13.10    0.89
  -2   6  -7    1.27    0.19
   2   6   7    1.48    0.46
   2   6   7    1.66    0.40
  -2   6  -7    2.30    0.34
  -3  -6  -7    1.23    0.31
  -3   6  -7    0.89    0.28
   3   6   7    0.28    0.34
  -4  -6  -7   -0.19    0.24
  -4   6  -7    0.04    0.23
   4   6   7    0.16    0.31
  -4  -7   7    9.85    0.63
  -4  -7   7    9.83    0.74
  -4   7   7   10.18    0.78
  -4   7   7   10.09    0.80
   4   7  -7    7.63    0.67
  -3  -7   7   30.54    1.61
  -3  -7   7   30.61    1.68
   3   7  -7   30.47    1.65
  -3   7   7   32.51    1.73
  -3   7   7   33.96    1.78
  -2  -7   7   49.43    2.61
  -2   7   7   53.08    2.68
  -2   7   7   59.56    2.76
   2   7  -7   49.93    2.62
  -1  -7   7    0.20    0.16
  -1   7   7    0.25    0.21
   1   7  -7    0.29    0.21
  -1   7   7    0.07    0.32
   0  -7   7   32.70    1.68
   0  -7  -7   34.31    1.64
   1  -7   7   46.33    2.28
  -1  -7  -7   50.25    2.35
   1   7   7   47.94    2.61
  -1   7  -7   47.52    2.42
  -2  -7  -7    7.93    0.58
  -2   7  -7    7.64    0.60
   2   7   7    6.73    0.68
   2   7   7    8.32    0.80
  -3  -7  -7   31.00    1.56
   3   7   7   25.13    1.67
  -3   7  -7   28.09    1.55
   4   7   7   11.51    0.96
  -4  -8   7    0.10    0.27
  -4   8   7    0.21    0.31
  -4   8   7    0.30    0.31
   4   8  -7   -0.26    0.41
  -3  -8   7    1.29    0.27
  -3  -8   7    0.94    0.29
   3   8  -7    1.03    0.26
  -3   8   7    1.31    0.35
  -3   8   7    1.48    0.43
  -2  -8   7    1.12    0.26
  -2   8   7    1.08    0.33
   2   8  -7    1.17    0.28
  -2   8   7    1.20    0.39
  -1  -8   7    1.20    0.22
   1   8  -7    1.01    0.27
  -1   8   7    1.11    0.34
  -1   8   7    0.90    0.39
   0  -8  -7    3.45    0.31
   0  -8   7    5.24    0.37
   0   8   7    3.71    0.49
   0   8   7    4.50    0.58
   0   8  -7    4.01    0.43
   1  -8   7    1.26    0.21
  -1  -8  -7    1.29    0.24
   1   8   7    1.52    0.43
   1   8   7    1.69    0.38
  -1   8  -7    1.29    0.28
  -2  -8  -7    2.60    0.40
  -2   8  -7    2.01    0.34
   2   8   7    2.58    0.51
   2   8   7    2.45    0.49
  -3  -8  -7   -0.08    0.25
   3   8   7   -0.22    0.32
  -3   8  -7    0.02    0.20
  -3  -9   7   24.30    1.36
  -3  -9   7   24.90    1.40
   3   9  -7   25.04    1.38
  -3   9   7   26.47    1.49
  -2  -9   7   15.95    0.95
   2   9  -7   15.88    0.97
  -2   9   7   16.35    1.11
  -2   9   7   15.82    1.03
  -1  -9   7    0.14    0.14
   1   9  -7    0.04    0.22
  -1   9   7    0.06    0.27
  -1   9   7   -0.08    0.29
   0   9   7   43.50    2.39
   0   9  -7   43.86    2.24
   0   9   7   44.16    2.31
  -1  -9  -7   43.42    2.15
   1   9   7   46.87    2.35
   1   9   7   41.35    2.38
  -1   9  -7   42.44    2.23
  -2  -9  -7    0.20    0.24
  -2   9  -7   -0.03    0.22
   2   9   7    0.11    0.36
  -3  -9  -7    6.37    0.55
  -3   9  -7    5.87    0.55
   3   9   7    5.37    0.72
  -3 -10   7    1.64    0.32
  -3 -10   7    1.26    0.30
  -3  10   7    1.12    0.36
   3  10  -7    1.41    0.30
  -3  10   7    0.74    0.37
  -2 -10   7    1.94    0.30
   2  10  -7    1.86    0.32
  -2  10   7    1.74    0.42
  -1 -10   7   18.38    0.99
   1  10  -7   18.43    1.10
  -1  10   7   19.85    1.19
  -1  10   7   18.66    1.22
   0 -10  -7    0.11    0.19
   0  10  -7    0.18    0.23
   0  10   7   -0.32    0.26
   0  10   7    0.16    0.31
  -1 -10  -7    0.30    0.21
   1  10   7   -0.07    0.32
   1  10   7    0.77    0.36
  -1  10  -7    0.94    0.27
  -2 -10  -7   13.53    0.85
  -2  10  -7   13.89    0.91
   2  10   7   13.63    1.06
  -2 -11   7   15.97    0.93
  -2  11   7   14.95    1.03
   2  11  -7   15.80    0.96
  -1  11   7    0.09    0.31
   1  11  -7    0.65    0.25
  -1  11   7    0.32    0.29
   0 -11  -7   15.17    0.84
   0  11   7   14.00    1.02
   0  11  -7   15.49    0.95
   0  11   7   13.75    1.05
   1  11   7   21.25    1.30
   1  11   7   17.59    1.26
  -1  11  -7   19.54    1.16
  -5   0   8    1.99    0.42
  -5   0   8    2.61    0.44
  -4   0   8   34.60    1.87
   4   0  -8   36.36    1.85
  -4   0   8   34.10    1.91
  -3   0   8   48.42    2.47
  -3   0   8   48.91    2.44
   3   0  -8   47.47    2.31
   3   0  -8   47.24    2.45
   2   0  -8   15.37    0.94
  -2   0   8   15.96    0.89
  -2   0   8   15.12    0.92
   2   0  -8   11.80    0.79
   1   0  -8    0.32    0.19
   1   0  -8    0.30    0.23
  -1   0   8    1.24    0.29
  -1   0   8    0.18    0.18
   0   0  -8  126.11    5.53
   0   0   8  115.30    5.51
   0   0  -8  107.79    5.61
   0   0   8  120.66    5.63
   1   0   8   39.73    2.21
   1   0   8   40.46    2.00
  -1   0  -8   41.72    2.12
   2   0   8    2.41    0.37
  -2   0  -8    3.32    0.42
   2   0   8    1.95    0.50
  -2   0  -8    3.38    0.42
  -3   0  -8   24.65    1.39
  -3   0  -8   23.99    1.41
  -4   0  -8   55.02    2.69
  -4   0  -8   49.21    2.71
  -5  -1   8    0.28    0.30
  -5  -1   8    0.90    0.34
  -5   1   8    1.11    0.36
  -5   1   8    1.16    0.35
  -4  -1   8    1.23    0.33
  -4  -1   8    0.71    0.29
  -4   1   8    1.31    0.35
  -4   1   8    1.23    0.35
  -3  -1   8    0.96    0.28
  -3  -1   8    1.09    0.27
   3  -1  -8    1.05    0.15
  -3   1   8    0.97    0.29
  -3   1   8    0.72    0.28
   3   1  -8    0.85    0.22
   3   1  -8    0.62    0.29
   2  -1  -8    4.51    0.34
  -2  -1   8    4.83    0.44
   2  -1  -8    4.95    0.49
  -2  -1   8    4.73    0.47
  -2   1   8    4.62    0.48
   2   1  -8    5.13    0.49
  -2   1   8    6.08    0.48
   2   1  -8    3.47    0.38
  -1  -1   8    1.57    0.27
  -1  -1   8    1.56    0.30
   1  -1  -8    1.73    0.24
   1  -1  -8    1.14    0.30
   1   1  -8    1.24    0.27
   1   1  -8    1.94    0.28
  -1   1   8    1.62    0.33
  -1   1   8    1.39    0.26
   0  -1   8    0.87    0.27
   0  -1  -8    0.51    0.25
   0  -1   8    0.31    0.17
   0   1   8    0.62    0.19
   0   1  -8    0.31    0.23
   0   1   8    0.65    0.29
  -1  -1  -8    1.75    0.35
   1  -1   8    2.24    0.46
   1  -1   8    1.68    0.23
  -1  -1  -8    2.11    0.32
   1   1   8    1.35    0.42
  -1   1  -8    1.79    0.32
   2  -1   8    3.71    0.61
  -2  -1  -8    6.43    0.56
   2  -1   8    5.94    0.33
  -2  -1  -8    6.48    0.53
   2   1   8    4.88    0.44
  -2   1  -8    7.66    0.57
  -2   1  -8    6.43    0.53
   2   1   8    3.91    0.68
  -3  -1  -8    0.43    0.28
  -3  -1  -8    0.42    0.27
  -3   1  -8    1.18    0.35
  -3   1  -8    0.04    0.22
   3   1   8    0.65    0.16
  -4  -1  -8   -0.35    0.25
  -4  -1  -8   -0.31    0.24
  -4   1  -8    0.15    0.29
  -4   1  -8    0.11    0.25
  -5  -2   8    0.12    0.15
  -5  -2   8    0.18    0.29
  -5   2   8    0.08    0.31
  -5   2   8    0.38    0.31
  -4  -2   8    1.33    0.35
  -4   2   8    1.27    0.35
  -4   2   8    0.95    0.33
  -3  -2   8   43.75    2.28
  -3   2   8   49.63    2.29
  -3   2   8   40.86    2.28
   3   2  -8   41.83    2.26
  -2  -2   8   24.40    1.40
   2  -2  -8   23.84    1.22
   2  -2  -8   26.28    1.44
   2  -2  -8   26.56    1.22
   2   2  -8   25.05    1.42
  -2   2   8   27.36    1.40
  -2   2   8   25.50    1.44
  -1  -2   8   27.92    1.53
  -1  -2   8   29.84    1.60
   1  -2  -8   26.65    1.62
   1  -2  -8   28.85    1.47
  -1   2   8   34.80    1.67
   1   2  -8   30.57    1.62
  -1   2   8   32.19    1.58
   0  -2   8   43.41    2.20
   0  -2   8   51.48    2.28
   0  -2  -8   37.87    2.26
   0   2   8   47.91    2.35
   0   2  -8   41.15    2.25
   0   2   8   43.54    2.20
   1  -2   8   42.18    2.10
  -1  -2  -8   38.56    2.02
   1  -2   8   39.86    1.86
  -1  -2  -8   37.18    1.93
   1   2   8   35.70    2.14
   1   2   8   36.82    1.94
  -1   2  -8   38.14    2.00
   2  -2   8   -0.53    0.30
  -2  -2  -8    0.13    0.22
  -2  -2  -8    0.01    0.20
  -2  -2  -8    0.18    0.11
  -2   2  -8   -0.18    0.24
   2   2   8    0.02    0.20
   2   2   8    0.10    0.37
  -3  -2  -8   58.77    2.90
  -3  -2  -8   53.68    2.87
  -3   2  -8   57.96    2.93
  -3   2  -8   57.66    2.88
  -4  -2  -8    9.07    0.75
  -4  -2  -8    9.29    0.72
  -4   2  -8    9.28    0.73
  -4   2  -8    8.73    0.77
  -5  -3   8    4.73    0.58
  -5  -3   8    5.21    0.38
  -5   3   8    3.31    0.50
  -5   3   8    4.60    0.57
  -4  -3   8   11.71    0.68
  -4  -3   8   12.83    0.87
   4   3  -8   11.07    0.78
  -4   3   8   12.76    0.86
  -4   3   8   11.42    0.87
  -3  -3   8    6.23    0.56
  -3   3   8    5.34    0.57
   3   3  -8    5.75    0.56
  -3   3   8    6.82    0.58
  -2  -3   8   10.24    0.72
   2   3  -8   10.67    0.74
  -2   3   8   10.77    0.73
   1  -3  -8   24.54    1.50
  -1  -3   8   25.92    1.44
   1   3  -8   26.28    1.48
  -1   3   8   27.49    1.46
  -1   3   8   31.96    1.57
   0  -3  -8    8.49    0.72
   0  -3   8   10.31    0.60
   0  -3  -8    9.26    0.60
   0  -3   8   12.59    0.73
   0   3   8   11.23    0.84
   0   3   8    9.85    0.68
   0   3  -8   11.13    0.73
   1  -3   8   17.59    0.83
   1  -3   8   17.93    1.07
  -1  -3  -8   15.57    1.01
  -1  -3  -8   16.14    0.92
   1  -3   8   16.08    0.83
   1   3   8   14.87    1.15
   1   3   8   14.77    0.95
  -1   3  -8   16.47    0.99
   2  -3   8    6.56    0.68
  -2  -3  -8    8.52    0.60
  -2  -3  -8    8.84    0.64
   2   3   8    5.43    0.77
  -2   3  -8    8.78    0.62
   2   3   8    5.57    0.56
  -3  -3  -8   11.17    0.79
  -3  -3  -8   10.98    0.79
   3   3   8   10.03    0.74
  -3   3  -8   13.37    0.85
  -3   3  -8   11.05    0.78
  -4  -3  -8    2.45    0.39
  -4  -3  -8    2.87    0.44
  -4   3  -8    3.54    0.44
  -4   3  -8    3.45    0.52
  -5  -4   8    7.53    0.53
  -5  -4   8    8.47    0.73
  -5   4   8    7.35    0.71
  -5   4   8    9.19    0.75
  -4  -4   8    7.68    0.50
  -4  -4   8    7.64    0.65
  -4   4   8    6.37    0.65
   4   4  -8    5.94    0.59
  -4   4   8    7.66    0.67
  -3  -4   8   15.80    1.00
  -3   4   8   14.90    1.03
  -3   4   8   17.39    1.00
   3   4  -8   15.56    0.99
  -2  -4   8    5.42    0.50
  -2   4   8    5.95    0.50
  -2   4   8    6.23    0.60
   2   4  -8    5.43    0.50
  -1  -4   8    0.83    0.22
   1  -4  -8    1.48    0.21
   1  -4  -8    0.97    0.12
   1   4  -8    1.16    0.28
  -1   4   8    0.87    0.32
  -1   4   8    1.18    0.28
   0  -4  -8   91.70    4.24
   0  -4   8   84.44    4.26
   0  -4  -8   86.70    4.39
   0  -4   8   88.73    4.23
   0   4   8   92.46    4.35
   0   4  -8   89.79    4.36
   0   4   8   98.30    4.51
   1  -4   8   29.22    1.50
  -1  -4  -8   25.58    1.38
   1  -4   8   28.29    1.27
  -1  -4  -8   25.13    1.47
   1   4   8   23.85    1.44
   1   4   8   24.33    2.08
  -1   4  -8   26.67    1.49
   2  -4   8    2.47    0.43
  -2  -4  -8    3.65    0.69
  -2  -4  -8    3.63    0.39
   2   4   8    2.79    0.42
   2   4   8    2.08    0.56
  -2   4  -8    2.95    0.41
  -3  -4  -8    5.50    0.54
  -3  -4  -8    5.35    0.50
  -3   4  -8    4.72    0.49
   3   4   8    3.28    0.47
  -4  -4  -8   11.72    0.81
   4   4   8   10.49    0.79
  -4   4  -8   12.18    0.84
  -4  -5   8    7.34    0.67
  -4  -5   8    7.91    0.54
  -4   5   8    9.97    0.74
  -4   5   8    7.79    0.71
   4   5  -8    7.21    0.65
  -3  -5   8    5.42    0.53
  -3   5   8    5.59    0.60
   3   5  -8    5.28    0.53
  -3   5   8    5.55    0.56
  -2  -5   8   31.95    1.85
   2   5  -8   35.69    1.89
  -2   5   8   37.23    1.91
  -2   5   8   39.84    1.99
  -1  -5   8   38.69    2.15
  -1   5   8   49.30    2.34
   1   5  -8   43.57    2.21
  -1   5   8   42.17    2.22
   0  -5  -8    0.04    0.13
   0  -5   8   -0.03    0.18
   0   5  -8    0.13    0.21
   0   5   8   -0.14    0.35
   0   5   8    0.09    0.25
   1  -5   8   15.26    0.95
   1  -5   8   20.79    0.89
   1  -5   8   20.13    1.10
  -1  -5  -8   18.24    1.00
   1   5   8   16.66    1.11
   1   5   8   17.17    1.27
  -1   5  -8   17.19    1.07
  -1   5  -8   18.19    1.02
  -2  -5  -8   62.64    2.80
   2  -5   8   53.79    2.80
  -2   5  -8   61.07    2.85
   2   5   8   55.21    3.10
   2   5   8   48.74    2.84
  -3  -5  -8    0.99    0.30
  -3   5  -8    1.42    0.32
   3   5   8    0.50    0.32
  -4   5  -8    1.93    0.40
  -4   5  -8    2.56    0.49
  -4  -6   8    0.37    0.19
  -4  -6   8    0.32    0.30
  -4   6   8    0.66    0.36
   4   6  -8   -0.29    0.28
  -4   6   8    0.09    0.31
  -3  -6   8    5.10    0.52
   3   6  -8    4.66    0.51
  -3   6   8    6.00    0.53
  -3   6   8    5.51    0.61
  -2  -6   8    3.36    0.40
  -2   6   8    3.49    0.44
   2   6  -8    3.68    0.41
  -2   6   8    4.56    0.56
  -1  -6   8    6.33    0.50
  -1   6   8    7.02    0.69
  -1   6   8    7.51    0.60
   1   6  -8    6.19    0.61
   0  -6  -8    0.29    0.15
   0  -6   8    0.45    0.20
   0  -6   8    0.47    0.17
   0   6   8    0.07    0.33
   0   6  -8    0.61    0.24
   1  -6   8    1.44    0.34
  -1  -6  -8    1.86    0.28
   1  -6   8    2.00    0.16
  -1   6  -8    2.11    0.34
   1   6   8    1.79    0.49
   1   6   8    1.73    0.39
  -1   6  -8    1.53    0.35
  -2  -6  -8    0.10    0.19
  -2   6  -8    0.01    0.20
   2   6   8    0.15    0.38
  -3  -6  -8   10.07    0.72
  -3   6  -8   11.56    0.76
   3   6   8    7.65    0.76
  -4  -6  -8   -0.05    0.29
  -4   6  -8    0.16    0.25
  -4   6  -8   -0.19    0.31
   4   6   8    0.02    0.35
  -4  -7   8   27.32    1.63
  -4  -7   8   25.55    1.41
  -4   7   8   27.88    1.57
   4   7  -8   27.70    1.52
  -3  -7   8    0.99    0.30
  -3   7   8    0.82    0.35
  -3   7   8    1.26    0.37
   3   7  -8    1.24    0.32
  -2  -7   8   20.69    1.23
  -2   7   8   24.64    1.40
  -2   7   8   22.30    1.31
  -1  -7   8   49.20    2.51
   1   7  -8   50.36    2.59
  -1   7   8   50.31    2.62
  -1   7   8   55.73    2.75
   0  -7   8    8.19    0.51
   0  -7  -8    5.92    0.43
   0  -7   8    6.41    0.47
   0   7  -8    6.55    0.56
   0   7   8    5.73    0.60
   0   7   8    6.42    0.73
   1  -7   8   42.81    1.97
   1  -7   8   42.66    2.09
   1   7   8   42.74    2.25
  -1   7  -8   41.35    2.17
   1   7   8   40.08    2.38
   2   7   8   31.38    1.95
   2   7   8   29.02    1.77
  -2   7  -8   32.43    1.69
  -3  -7  -8   12.78    0.83
  -3   7  -8   11.64    0.85
  -3  -8   8    0.38    0.25
   3   8  -8    0.29    0.23
  -3   8   8    0.14    0.32
  -3   8   8    0.23    0.33
  -2  -8   8    0.50    0.24
  -2   8   8    0.42    0.32
   2   8  -8    0.97    0.25
  -2   8   8    0.64    0.40
  -1  -8   8    6.91    0.48
   1   8  -8    5.07    0.54
  -1   8   8    5.55    0.68
  -1   8   8    5.31    0.59
   0  -8  -8   -0.18    0.14
   0  -8   8   -0.06    0.20
   0   8   8   -0.11    0.33
   0   8  -8   -0.08    0.20
   0   8   8    0.03    0.29
  -1  -8  -8    1.13    0.25
   1   8   8    1.03    0.45
   1   8   8    1.00    0.37
  -1   8  -8    1.51    0.32
  -2  -8  -8    1.14    0.30
   2   8   8   -0.07    0.38
   2   8   8    0.62    0.41
  -2   8  -8    0.57    0.27
  -3  -8  -8    1.22    0.34
  -3   8  -8    1.52    0.33
   3   8   8    2.07    0.54
  -3  -9   8    0.72    0.28
  -3   9   8    0.30    0.33
  -3   9   8    0.48    0.34
   3   9  -8    0.58    0.28
  -2  -9   8   24.43    1.36
   2   9  -8   25.46    1.40
  -2   9   8   25.87    1.54
  -1  -9   8   26.10    1.30
  -1   9   8   24.58    1.46
   1   9  -8   23.11    1.39
  -1   9   8   25.72    1.57
   0  -9   8    0.44    0.18
   0   9   8    0.14    0.36
   0   9   8    0.51    0.34
   0   9  -8    0.70    0.27
  -1  -9  -8    4.65    0.44
   1   9   8    4.65    0.70
   1   9   8    4.42    0.63
  -1   9  -8    4.44    0.49
  -2  -9  -8   30.41    1.58
   2   9   8   27.41    1.74
  -2   9  -8   29.41    1.63
  -2  10   8    0.99    0.37
   2  10  -8    0.81    0.30
  -2  10   8    1.00    0.39
  -1 -10   8    0.12    0.17
   1  10  -8    0.70    0.26
  -1  10   8    0.02    0.31
  -1  10   8    0.61    0.37
   0  10  -8   12.77    0.87
   0  10   8   12.53    1.07
   0  10   8   12.96    1.02
  -1 -10  -8    4.00    0.43
  -1  10  -8    4.56    0.48
   1  10   8    3.34    0.57
   0  11   8    3.13    0.51
   0  11  -8    3.36    0.44
   0  11   8    2.23    0.53
  -4   0   9   13.66    0.97
  -4   0   9   14.48    0.94
   3   0  -9    1.19    0.24
   3   0  -9    2.27    0.40
  -3   0   9    1.28    0.33
  -3   0   9    1.63    0.33
  -2   0   9   79.90    4.07
  -2   0   9   86.33    4.02
   2   0  -9   83.67    4.11
   1   0  -9   19.11    1.22
   1   0  -9   23.24    1.15
  -1   0   9   20.82    1.21
  -1   0   9   19.47    1.13
   0   0   9   -0.02    0.25
   0   0   9    0.14    0.19
   0   0  -9    0.27    0.30
  -1   0  -9   89.96    4.46
   1   0   9   91.43    4.39
   1   0   9   92.03    4.55
  -1   0  -9   92.27    4.41
  -2   0  -9   57.85    2.80
   2   0   9   50.33    2.62
  -2   0  -9   57.89    2.82
  -3   0  -9   -0.17    0.24
  -3   0  -9    0.20    0.32
  -4   0  -9    5.35    0.59
  -4   0  -9    4.40    0.60
  -4  -1   9    1.57    0.36
  -4  -1   9    1.49    0.35
  -4   1   9    1.74    0.38
  -4   1   9    1.73    0.40
  -3  -1   9   -0.06    0.23
   3  -1  -9   -0.08    0.13
  -3  -1   9    0.27    0.26
  -3   1   9    0.09    0.26
  -3   1   9    0.04    0.25
   3   1  -9   -0.61    0.22
   3   1  -9   -0.11    0.24
   2  -1  -9   -0.12    0.23
   2  -1  -9   -0.45    0.15
  -2  -1   9    0.10    0.21
  -2  -1   9    0.21    0.22
  -2   1   9    0.42    0.26
   2   1  -9   -0.20    0.24
   1  -1  -9    4.49    0.51
  -1  -1   9    4.86    0.47
  -1  -1   9    3.91    0.41
  -1   1   9    4.20    0.42
   1   1  -9    3.88    0.51
   0  -1   9    8.58    0.65
   0  -1  -9    7.90    0.54
   0  -1   9    7.74    0.51
   0   1  -9    6.57    0.65
   0   1   9    7.27    0.66
   0   1   9    7.43    0.55
  -1  -1  -9    0.65    0.25
  -1  -1  -9    0.37    0.27
   1  -1   9    0.60    0.19
   1  -1   9    0.31    0.35
   1   1   9    0.15    0.21
   1   1   9    0.41    0.37
  -1   1  -9    0.77    0.29
   2  -1   9    0.24    0.10
  -2  -1  -9    0.49    0.31
  -2  -1  -9    0.66    0.30
   2  -1   9   -0.39    0.32
  -2   1  -9    0.49    0.27
   2   1   9   -0.04    0.20
   2   1   9   -0.34    0.37
  -2   1  -9   -0.06    0.24
  -3  -1  -9    3.81    0.52
  -3  -1  -9    4.85    0.54
   3   1   9    4.03    0.40
  -3   1  -9    4.51    0.56
  -3   1  -9    3.95    0.50
  -4  -1  -9   -0.13    0.23
  -4  -1  -9    0.29    0.29
  -4   1  -9   -0.39    0.26
  -4   1  -9   -0.23    0.29
  -4  -2   9    6.33    0.63
  -4  -2   9    6.62    0.60
  -4   2   9    7.10    0.63
  -4   2   9    5.65    0.62
  -3  -2   9    5.52    0.51
  -3  -2   9    5.63    0.55
  -3   2   9    5.31    0.57
  -3   2   9    5.76    0.55
   3   2  -9    4.74    0.53
   2  -2  -9   23.65    1.12
  -2  -2   9   21.10    1.29
   2  -2  -9   20.25    1.35
  -2  -2   9   22.57    1.25
  -2   2   9   24.91    1.30
   2   2  -9   22.94    1.36
  -2   2   9   25.10    1.37
   1  -2  -9   49.54    2.85
  -1  -2   9   54.59    2.68
   1  -2  -9   53.39    2.56
  -1  -2   9   49.02    2.60
  -1   2   9   60.73    2.77
  -1   2   9   54.69    2.65
   1   2  -9   52.25    2.72
   0  -2   9   11.46    0.75
   0  -2  -9   10.14    0.79
   0  -2   9   11.04    0.64
   0  -2  -9   10.40    0.66
   0   2   9   10.59    0.69
   0   2  -9   10.28    0.82
  -1  -2  -9   32.31    1.78
   1  -2   9   34.78    1.84
   1  -2   9   33.32    1.59
  -1  -2  -9   31.29    1.68
   1   2   9   30.57    1.68
   1   2   9   32.19    1.91
  -1   2  -9   31.88    1.74
  -2  -2  -9   23.57    1.31
   2  -2   9   17.71    1.37
  -2   2  -9   25.19    1.28
   2   2   9   20.21    1.19
  -3  -2  -9    2.67    0.45
  -3  -2  -9    1.61    0.37
   3   2   9    0.78    0.49
  -3   2  -9    2.94    0.46
   3   2   9    2.15    0.44
  -3   2  -9    2.85    0.40
  -4  -2  -9   22.47    1.38
  -4  -2  -9   21.91    1.41
  -4   2  -9   24.70    1.39
  -4   2  -9   24.41    1.47
  -4  -3   9    1.72    0.39
   4   3  -9    0.49    0.35
  -3  -3   9   16.98    1.11
   3   3  -9   17.68    1.14
  -3   3   9   20.62    1.14
  -3   3   9   18.01    1.15
  -2  -3   9    0.34    0.24
  -2   3   9    0.11    0.29
   2   3  -9    0.15    0.26
  -2   3   9    0.44    0.26
  -1  -3   9   16.56    0.99
   1  -3  -9   15.80    0.84
  -1  -3   9   15.78    0.92
   1  -3  -9   14.24    1.04
  -1   3   9   18.51    1.09
  -1   3   9   17.00    1.00
   0  -3  -9   28.65    1.52
   0  -3   9   34.51    1.64
   0  -3   9   29.08    1.50
   0  -3  -9   27.73    1.67
   0   3  -9   27.69    1.62
   0   3   9   29.46    1.60
   0   3   9   33.46    1.77
   1  -3   9   14.94    0.97
  -1  -3  -9   13.28    0.94
  -1  -3  -9   13.43    0.84
   1  -3   9   14.08    0.73
   1   3   9   13.45    0.88
  -1   3  -9   13.43    0.90
   1   3   9   13.69    1.08
  -2  -3  -9   11.35    0.77
   2  -3   9    7.42    0.78
   2   3   9    8.56    0.67
  -2   3  -9   10.79    0.73
   2   3   9    7.06    0.89
  -3  -3  -9    4.14    0.50
  -3  -3  -9    3.26    0.46
  -3   3  -9    3.52    0.52
   3   3   9    2.67    0.39
  -3   3  -9    4.05    0.49
  -4  -3  -9    2.10    0.41
  -4  -3  -9    1.45    0.37
  -4   3  -9    2.03    0.38
  -4   3  -9    1.42    0.41
   4   4  -9    0.79    0.34
  -4   4   9    0.25    0.35
  -4   4   9    0.84    0.33
  -3  -4   9    2.17    0.39
  -3   4   9    2.86    0.42
   3   4  -9    1.59    0.38
  -3   4   9    2.24    0.43
  -2  -4   9   31.66    1.93
  -2   4   9   40.22    2.05
   2   4  -9   41.18    2.12
  -2   4   9   38.58    1.97
   1  -4  -9    6.07    0.38
  -1  -4   9    5.32    0.49
   1  -4  -9    4.89    0.32
  -1  -4   9    4.40    0.42
  -1   4   9    5.78    0.52
  -1   4   9    5.41    0.60
   1   4  -9    5.16    0.51
   0  -4   9    6.58    0.52
   0  -4  -9    5.19    0.41
   0  -4   9    5.57    0.41
   0  -4  -9    4.85    0.56
   0  -4   9    4.94    0.39
   0   4   9    5.92    0.67
   0   4  -9    5.32    0.52
   0   4   9    5.15    0.51
   1  -4   9   18.98    0.98
  -1  -4  -9   19.06    1.09
  -1  -4  -9   20.11    1.21
   1  -4   9   20.68    1.02
   1  -4   9   21.79    1.21
  -1   4  -9   18.05    1.15
   1   4   9   19.18    1.17
   1   4   9   17.86    1.35
   2  -4   9   16.50    1.13
  -2  -4  -9   19.95    1.14
  -2   4  -9   19.49    1.09
   2   4   9   13.76    1.29
   2   4   9   16.41    1.08
  -3  -4  -9    0.16    0.29
  -3  -4  -9    0.48    0.28
   3   4   9    0.12    0.30
  -3   4  -9    0.36    0.25
  -4  -4  -9    2.30    0.42
  -4  -4  -9    2.25    0.42
  -4   4  -9    1.90    0.46
   4   4   9    1.67    0.42
  -4   4  -9    2.32    0.40
  -4  -5   9   19.57    1.30
  -4   5   9   19.10    1.23
   4   5  -9   16.35    1.16
  -4   5   9   20.56    1.21
  -3  -5   9   12.32    0.89
   3   5  -9   13.27    0.98
  -3   5   9   14.17    0.92
  -3   5   9   12.96    0.96
  -2  -5   9    2.50    0.38
   2   5  -9    2.44    0.39
  -2   5   9    4.57    0.56
  -2   5   9    3.14    0.45
  -1  -5   9   10.95    0.71
  -1   5   9   10.87    0.85
  -1   5   9   10.81    0.76
   1   5  -9    8.60    0.72
   0  -5   9   34.66    1.64
   0  -5   9   28.50    1.55
   0  -5   9   29.35    1.53
   0   5  -9   30.03    1.67
   0   5   9   30.91    1.68
   0   5   9   32.44    1.85
  -1  -5  -9    1.79    0.29
   1  -5   9    2.14    0.38
   1  -5   9    1.98    0.17
   1   5   9    1.26    0.36
   1   5   9    2.28    0.57
  -1   5  -9    2.18    0.33
  -2  -5  -9    1.61    0.31
   2  -5   9    1.07    0.32
   2   5   9    1.06    0.35
   2   5   9    0.92    0.48
  -2   5  -9    1.60    0.32
  -3  -5  -9   38.02    2.01
  -3   5  -9   37.45    2.02
  -4  -6   9    0.84    0.35
   4   6  -9    0.61    0.41
  -4   6   9    0.70    0.35
  -3  -6   9    0.71    0.29
  -3   6   9    0.69    0.36
   3   6  -9    0.32    0.26
  -3   6   9    1.02    0.36
  -2  -6   9    0.20    0.23
   2   6  -9    0.13    0.23
  -2   6   9    0.51    0.33
  -2   6   9    0.13    0.29
  -1  -6   9    8.77    0.63
  -1   6   9    8.40    0.70
  -1   6   9    9.57    0.83
   1   6  -9    9.18    0.68
   0  -6   9    5.50    0.44
   0  -6  -9    6.06    0.42
   0  -6   9    7.18    0.53
   0  -6   9    5.94    0.42
   0   6   9    6.13    0.73
   0   6  -9    5.79    0.55
   0   6   9    5.19    0.58
   1  -6   9    0.90    0.29
  -1  -6  -9    1.80    0.29
   1  -6   9    1.51    0.19
   1   6   9    0.95    0.46
  -1   6  -9    1.34    0.32
   1   6   9    1.34    0.38
  -2  -6  -9    0.94    0.29
  -2   6  -9    1.13    0.29
   2   6   9    0.15    0.43
   2   6   9    0.04    0.30
  -3  -6  -9    0.30    0.27
  -3   6  -9    0.76    0.30
   3   6   9    0.16    0.32
  -3  -7   9   26.98    1.61
  -3   7   9   31.22    1.70
  -3   7   9   32.10    1.87
  -2  -7   9    1.53    0.31
  -2   7   9    1.09    0.36
   2   7  -9    2.12    0.38
  -2   7   9    1.91    0.49
  -1  -7   9   14.63    0.87
  -1   7   9   15.16    0.99
  -1   7   9   15.61    1.10
   1   7  -9   12.94    0.92
   0  -7   9   39.33    1.80
   0  -7  -9   32.91    1.72
   0   7   9   35.73    1.92
   0   7  -9   33.44    1.87
   0   7   9   33.44    2.05
   1  -7   9   18.43    1.14
  -1  -7  -9   15.65    0.90
  -1   7  -9   14.03    0.97
   1   7   9   13.50    1.18
   1   7   9   14.21    1.03
  -2  -7  -9   13.15    0.82
   2   7   9   10.92    0.92
  -3  -7  -9   16.95    1.05
   3   7   9   13.56    1.12
  -3   7  -9   17.87    1.07
  -3  -8   9    0.52    0.28
  -3   8   9    0.57    0.37
  -3   8   9    0.66    0.42
   3   8  -9    0.50    0.28
  -2  -8   9    0.94    0.27
  -2   8   9    0.49    0.33
   2   8  -9    1.15    0.28
  -2   8   9    0.69    0.40
  -1  -8   9    3.28    0.36
  -1   8   9    3.10    0.50
  -1   8   9    3.31    0.56
   1   8  -9    2.41    0.40
   0  -8  -9    0.03    0.16
   0  -8   9    0.24    0.22
   0   8   9    0.38    0.33
   0   8   9    0.25    0.40
   0   8  -9    0.70    0.28
  -1  -8  -9    1.28    0.29
  -1   8  -9    1.41    0.33
   1   8   9    0.99    0.50
   1   8   9    1.81    0.44
  -2  -8  -9    0.06    0.26
   2   8   9   -0.50    0.37
   2   8   9   -0.14    0.39
  -2   8  -9    0.38    0.27
  -2  -9   9    0.82    0.26
  -2   9   9    0.99    0.38
   2   9  -9    1.06    0.29
  -2   9   9    0.83    0.41
  -1  -9   9   18.85    0.98
  -1   9   9   15.88    1.12
  -1   9   9   16.28    1.67
   1   9  -9   16.42    1.06
  -1  -9  -9    1.28    0.29
  -1   9  -9    1.61    0.35
   1   9   9    1.33    0.48
  -4   0  10   19.52    1.15
  -4   0  10   16.94    1.16
   3   0 -10    9.92    0.84
  -3   0  10   11.87    0.79
  -3   0  10   10.75    0.81
   2   0 -10    1.97    0.37
  -2   0  10    2.68    0.42
  -2   0  10    2.77    0.37
   2   0 -10    2.78    0.47
  -1   0  10   50.19    2.45
  -1   0  10   47.18    2.35
   1   0 -10   44.53    2.48
   0   0 -10   38.71    2.20
   0   0  10   43.39    2.21
   0   0  10   41.89    2.06
   1   0  10   -0.22    0.18
  -1   0 -10    0.30    0.26
   1   0  10   -0.18    0.35
  -1   0 -10    0.17    0.27
  -2   0 -10   11.54    0.83
   2   0  10   11.16    0.64
   2   0  10    9.19    0.96
  -2   0 -10   11.91    0.84
  -3   0 -10   55.17    2.84
  -3   0 -10   55.00    2.85
  -4  -1  10    0.32    0.28
  -4  -1  10    1.05    0.34
  -4   1  10    1.03    0.36
  -4   1  10    0.61    0.31
  -3  -1  10    0.93    0.33
  -3  -1  10    1.37    0.32
  -3   1  10    1.39    0.35
  -3   1  10    1.22    0.32
   3   1 -10    0.23    0.33
  -2  -1  10    1.64    0.30
   2  -1 -10    0.91    0.26
  -2  -1  10    1.71    0.37
   2  -1 -10    1.08    0.37
  -2   1  10    2.31    0.41
  -2   1  10    1.72    0.33
   2   1 -10    1.42    0.37
   1  -1 -10    0.13    0.28
  -1  -1  10    0.37    0.26
  -1  -1  10    0.23    0.23
   1  -1 -10    0.03    0.21
   1   1 -10   -0.07    0.25
  -1   1  10    0.64    0.31
  -1   1  10    0.08    0.21
   0  -1  10    3.11    0.33
   0  -1 -10    2.61    0.35
   0  -1 -10    2.41    0.44
   0  -1  10    2.84    0.43
   0   1  10    2.38    0.33
   0   1  10    3.32    0.51
   0   1 -10    1.90    0.39
   1  -1  10    4.76    0.59
   1  -1  10    4.26    0.51
  -1  -1 -10    4.27    0.48
  -1  -1 -10    3.95    0.52
   1   1  10    4.18    0.42
  -1   1 -10    3.84    0.51
   1   1  10    3.81    0.60
  -2  -1 -10    0.09    0.26
   2  -1  10   -0.08    0.12
   2  -1  10   -0.44    0.39
  -2  -1 -10    0.06    0.28
   2   1  10   -0.13    0.37
   2   1  10   -0.10    0.20
  -2   1 -10    0.14    0.26
  -2   1 -10    0.18    0.26
  -3  -1 -10   -0.09    0.24
  -3  -1 -10    0.01    0.27
  -3   1 -10   -0.09    0.25
  -3   1 -10    0.16    0.30
   3   1  10   -0.79    0.37
  -4  -2  10   13.82    0.93
  -4  -2  10   12.34    0.94
  -4   2  10   13.72    0.93
  -4   2  10   13.20    0.95
  -3  -2  10   16.66    1.04
  -3  -2  10   15.89    1.06
  -3   2  10   17.03    1.11
   3   2 -10   16.36    1.12
  -3   2  10   18.57    1.07
   2  -2 -10    4.30    0.40
  -2  -2  10    6.21    0.57
  -2  -2  10    6.18    0.50
   2  -2 -10    5.74    0.67
  -2   2  10    6.00    0.60
  -2   2  10    6.49    0.55
   2   2 -10    5.86    0.59
  -1  -2  10   17.48    1.06
  -1  -2  10   16.94    0.98
   1  -2 -10   16.20    1.14
  -1   2  10   19.08    1.04
  -1   2  10   19.15    1.14
   1   2 -10   16.30    1.10
   0  -2 -10   30.22    1.56
   0  -2 -10   28.59    1.71
   0  -2  10   30.78    1.52
   0   2  10   31.44    1.74
   0   2 -10   28.04    1.66
   0   2  10   31.23    1.59
  -1  -2 -10    2.42    0.36
   1  -2  10    2.55    0.28
  -1  -2 -10    2.81    0.45
  -1   2 -10    2.68    0.43
   1   2  10    2.29    0.35
   1   2  10    2.40    0.53
  -2  -2 -10   36.93    1.96
   2  -2  10   34.56    2.09
  -2  -2 -10   36.77    2.02
  -2   2 -10   37.20    1.98
   2   2  10   32.67    2.19
   2   2  10   38.07    1.89
  -2   2 -10   40.68    2.01
  -3  -2 -10   10.32    0.82
  -3   2 -10   10.84    0.81
  -4  -3  10    0.83    0.33
  -4  -3  10    1.46    0.34
   4   3 -10    0.29    0.39
  -4   3  10    0.71    0.35
  -4   3  10    0.81    0.33
  -3  -3  10    2.89    0.41
  -3  -3  10    3.00    0.44
  -3   3  10    3.36    0.47
  -3   3  10    3.06    0.48
   3   3 -10    3.53    0.50
  -2  -3  10   11.28    0.76
  -2  -3  10   11.14    0.81
   2   3 -10   12.76    0.87
  -2   3  10   11.49    0.81
  -2   3  10   13.70    0.91
  -1  -3  10   14.38    0.88
   1  -3 -10   15.11    0.81
  -1  -3  10   15.33    0.94
   1  -3 -10   13.81    1.03
   1  -3 -10   18.00    0.85
  -1   3  10   14.62    0.93
   1   3 -10   13.19    0.97
  -1   3  10   16.01    1.05
   0  -3  10    6.42    0.57
   0  -3 -10    5.77    0.63
   0  -3 -10    5.57    0.46
   0  -3  10    6.39    0.43
   0   3  10    5.77    0.54
   0   3 -10    5.52    0.56
   0   3  10    6.13    0.67
  -1  -3 -10    7.32    0.58
  -1  -3 -10    6.76    0.66
   1  -3  10    7.18    0.44
   1  -3  10    6.73    0.67
   1  -3  10    7.03    0.45
  -1   3 -10    7.81    0.63
   1   3  10    7.16    0.80
   1   3  10    7.18    0.59
  -2  -3 -10   12.43    0.90
  -2  -3 -10   10.97    0.80
   2  -3  10   10.95    1.01
   2   3  10   11.02    0.77
   2   3  10   10.64    1.07
  -2   3 -10   11.23    0.81
  -3  -3 -10    0.49    0.31
  -3  -3 -10    0.31    0.32
  -3   3 -10    1.41    0.36
   3   3  10    0.46    0.27
  -3  -4  10    3.55    0.47
   3   4 -10    2.89    0.49
  -3   4  10    3.73    0.55
  -2  -4  10    0.14    0.25
  -2  -4  10    0.13    0.21
  -2   4  10    0.17    0.27
   2   4 -10    0.24    0.28
  -2   4  10    0.37    0.32
   1  -4 -10   52.72    2.17
  -1  -4  10   44.08    2.29
  -1  -4  10   40.43    2.22
  -1   4  10   46.30    2.42
  -1   4  10   44.93    2.31
   1   4 -10   41.83    2.35
   0  -4 -10   21.48    1.38
   0  -4  10   22.25    1.16
   0  -4  10   23.77    1.29
   0  -4 -10   21.13    1.19
   0   4  10   24.19    1.30
   0   4  10   24.30    1.46
   0   4 -10   21.92    1.32
  -1  -4 -10    0.61    0.32
  -1  -4 -10    0.48    0.27
   1  -4  10    0.83    0.33
  -1   4 -10    0.12    0.25
   1   4  10    0.64    0.35
   1   4  10    0.45    0.42
   2  -4  10    0.77    0.38
  -2  -4 -10    1.07    0.36
  -2  -4 -10    1.68    0.34
  -2   4 -10    1.43    0.34
   2   4  10    0.33    0.31
   2   4  10    0.28    0.43
  -3  -4 -10   12.31    0.92
  -3  -4 -10   12.70    0.89
  -3   4 -10   12.33    0.89
  -3   4 -10   14.04    0.97
  -3  -5  10    7.82    0.69
  -3   5  10   10.28    0.81
  -3   5  10    9.68    0.75
   3   5 -10    9.03    0.75
  -2  -5  10   22.62    1.39
   2   5 -10   26.64    1.47
  -2   5  10   27.14    1.54
  -2   5  10   25.98    1.45
  -1  -5  10    1.04    0.24
  -1  -5  10    0.53    0.25
  -1   5  10    0.16    0.28
   1   5 -10    0.24    0.24
  -1   5  10    0.57    0.37
   0  -5  10    5.48    0.50
   0  -5 -10    4.75    0.40
   0  -5  10    4.87    0.38
   0   5  10    5.29    0.55
   0   5 -10    4.68    0.52
   0   5  10    5.65    0.71
   1  -5  10   45.85    2.22
  -1  -5 -10   40.95    2.11
   1   5  10   39.31    2.18
  -1   5 -10   40.09    2.19
   1   5  10   42.26    2.44
   2  -5  10    4.85    0.57
  -2  -5 -10    3.74    0.47
   2   5  10    4.29    0.56
  -3  -5 -10    0.14    0.33
  -3   5 -10    0.19    0.25
   3   5  10    0.15    0.35
  -3  -6  10    2.35    0.39
  -3   6  10    2.49    0.44
  -3   6  10    3.15    0.55
   3   6 -10    3.07    0.44
  -2  -6  10    1.90    0.34
  -2   6  10    2.29    0.52
   2   6 -10    2.31    0.40
  -2   6  10    2.20    0.42
  -1  -6  10   -0.16    0.20
  -1   6  10   -0.04    0.32
   1   6 -10    0.32    0.26
  -1   6  10    0.05    0.40
   0  -6  10    1.32    0.22
   0  -6  10    1.42    0.31
   0   6 -10    1.34    0.32
   0   6  10    1.28    0.35
   0   6  10    1.39    0.46
  -1  -6 -10    0.89    0.26
   1  -6  10    0.77    0.30
  -1   6 -10    0.99    0.30
   1   6  10    0.14    0.31
   1   6  10    0.31    0.46
  -2  -6 -10    9.11    0.67
  -2   6 -10    9.22    0.71
   2   6  10    5.76    0.92
   2   6  10    8.88    0.79
  -2  -7  10   22.99    1.37
  -2   7  10   26.22    1.56
   2   7 -10   25.24    1.42
  -2   7  10   25.93    1.48
  -1  -7  10   12.03    0.83
  -1   7  10   11.29    0.86
   1   7 -10   11.45    0.83
   0  -7  10   17.55    0.97
   0  -7  10   20.76    1.08
   0   7  10   19.09    1.22
   0   7 -10   17.37    1.14
   1  -7  10   26.34    1.34
  -1   7 -10   22.62    1.39
   1   7  10   21.90    1.62
   1   7  10   23.40    1.43
  -2  -7 -10   14.28    0.88
   2   7  10   13.63    1.01
  -2   7 -10   12.42    0.91
   2   7  10   11.16    1.18
  -1   8  10   -0.23    0.36
  -1   8  10    0.00    0.31
   0  -8  10    0.75    0.21
   0  -8  10    0.09    0.24
   0   8  10    0.10    0.40
   0   8 -10    0.34    0.26
   0   8  10   -0.01    0.34
  -1  -8 -10    0.68    0.28
  -1   8 -10    0.74    0.29
   1   8  10    0.39    0.43
  -3   0  11   29.08    1.61
   3   0 -11   25.73    1.63
  -2   0  11   12.17    0.88
  -2   0  11   12.56    0.83
   2   0 -11   12.59    0.94
   1   0 -11    0.98    0.36
  -1   0  11    1.25    0.34
  -1   0  11    0.93    0.28
   0   0  11   36.55    1.87
   0   0 -11   36.13    2.04
   0   0 -11   37.85    1.92
   0   0  11   38.23    2.03
  -1   0 -11   45.01    2.45
  -1   0 -11   48.28    2.38
   1   0  11   45.50    2.50
   1   0  11   46.52    2.27
   2   0  11    0.13    0.39
  -2   0 -11    0.87    0.35
  -3  -1  11   -0.04    0.26
  -3  -1  11    0.51    0.28
  -3   1  11   -0.13    0.29
   3   1 -11   -0.56    0.26
  -2  -1  11    0.91    0.33
  -2  -1  11    0.81    0.30
   2  -1 -11    0.59    0.36
  -2   1  11    0.62    0.33
  -2   1  11    0.53    0.27
   2   1 -11    0.57    0.33
  -1  -1  11    4.14    0.50
   1  -1 -11    4.49    0.40
   1  -1 -11    3.95    0.57
  -1  -1  11    4.18    0.43
  -1   1  11    5.21    0.56
  -1   1  11    4.29    0.43
   1   1 -11    3.59    0.52
   0  -1 -11    0.18    0.22
   0  -1 -11    0.04    0.29
   0  -1  11    0.34    0.30
   0  -1  11    0.16    0.20
   0   1  11   -0.10    0.30
   0   1  11    0.34    0.22
   0   1 -11    0.14    0.29
   1  -1  11    0.22    0.33
  -1  -1 -11    0.09    0.28
  -1  -1 -11    0.57    0.28
   1  -1  11    0.24    0.18
  -1   1 -11    0.43    0.28
   1   1  11    0.18    0.21
   1   1  11   -0.21    0.37
  -1   1 -11    0.24    0.29
   2  -1  11    1.89    0.49
  -2  -1 -11    1.30    0.38
   2   1  11    1.48    0.26
  -2   1 -11    1.79    0.37
   2   1  11    0.72    0.46
  -3  -2  11    5.81    0.58
  -3  -2  11    5.27    0.60
   3   2 -11    6.11    0.69
  -3   2  11    6.65    0.60
  -3   2  11    7.25    0.68
  -2  -2  11   29.98    1.60
  -2  -2  11   26.61    1.52
   2  -2 -11   25.54    1.66
  -2   2  11   29.81    1.55
   2   2 -11   27.98    1.63
  -2   2  11   29.50    1.64
   1  -2 -11    0.94    0.22
  -1  -2  11    0.50    0.27
  -1  -2  11    0.73    0.32
   1  -2 -11    0.07    0.31
  -1   2  11    0.85    0.35
   1   2 -11    0.76    0.34
  -1   2  11    0.66    0.27
   0  -2  11   14.85    0.81
   0  -2 -11   13.58    0.86
   0  -2  11   14.97    0.97
   0  -2 -11   13.15    1.00
   0   2  11   14.54    0.88
   0   2  11   14.86    1.04
   0   2 -11   12.93    0.96
  -1  -2 -11   16.97    1.12
   1  -2  11   18.05    1.17
  -1   2 -11   16.67    1.10
   1   2  11   16.97    1.01
   1   2  11   17.22    1.23
  -2  -2 -11    6.88    0.61
   2  -2  11    6.70    0.78
  -2   2 -11    7.11    0.66
  -2   2 -11    8.28    0.68
   2   2  11    6.07    0.81
   2   2  11    7.09    0.57
  -3  -3  11    1.22    0.34
  -3   3  11    1.48    0.41
  -3   3  11    1.02    0.37
   3   3 -11    1.30    0.42
  -2  -3  11    5.60    0.52
  -2  -3  11    6.56    0.63
   2   3 -11    5.78    0.60
  -2   3  11    5.36    0.55
  -1  -3  11   12.98    0.84
   1  -3 -11   12.66    0.71
   1  -3 -11   11.44    0.95
  -1   3  11   12.82    0.94
  -1   3  11   12.83    0.83
   1   3 -11   11.94    0.89
   0  -3 -11   10.51    0.89
   0  -3 -11   12.15    0.74
   0  -3  11   11.58    0.68
   0  -3  11   11.43    0.83
   0   3 -11   11.14    0.84
   0   3  11   11.25    0.79
   0   3  11   12.61    0.96
  -1  -3 -11    2.67    0.49
  -1  -3 -11    2.43    0.39
   1  -3  11    2.58    0.46
   1   3  11    3.00    0.47
   1   3  11    2.84    0.55
  -1   3 -11    1.95    0.40
  -2  -3 -11    3.40    0.52
   2  -3  11    2.63    0.52
  -2  -3 -11    3.50    0.47
   2   3  11    2.63    0.63
  -2   3 -11    2.31    0.44
   2   3  11    2.44    0.39
  -2  -4  11    5.19    0.54
  -2  -4  11    5.21    0.47
  -2   4  11    5.31    0.64
   2   4 -11    5.55    0.58
  -2   4  11    5.94    0.61
  -1  -4  11    7.01    0.61
   1   4 -11    6.79    0.65
  -1   4  11    7.67    0.82
  -1   4  11    7.32    0.62
   0  -4  11    6.32    0.59
   0  -4 -11    5.93    0.48
   0  -4  11    6.19    0.45
   0  -4 -11    6.27    0.69
   0   4  11    6.43    0.73
   0   4  11    7.11    0.58
   0   4 -11    6.39    0.61
  -1   4 -11   17.17    1.14
   1   4  11   19.30    1.12
  -2  -4 -11   -0.34    0.29
   2  -4  11    0.07    0.34
  -2  -4 -11   -0.43    0.20
   2   4  11   -0.26    0.28
   2   4  11   -0.16    0.41
  -2   4 -11   -0.04    0.26
  -2  -5  11    1.11    0.27
  -2  -5  11    1.19    0.34
  -2   5  11    0.98    0.34
  -2   5  11    1.09    0.40
   2   5 -11    0.65    0.31
  -1  -5  11   18.45    1.06
  -1  -5  11   16.35    0.98
  -1   5  11   16.86    1.08
   1   5 -11   17.26    1.11
  -1   5  11   18.79    1.24
   0  -5  11    4.13    0.35
   0  -5 -11    3.66    0.38
   0  -5  11    4.07    0.48
   0   5  11    3.23    0.60
   0   5  11    5.03    0.56
   1  -5  11    0.23    0.31
  -1  -5 -11    0.07    0.29
   1   5  11    0.28    0.43
   1   5  11   -0.12    0.26
  -1   5 -11   -0.02    0.27
  -1  -6  11    1.58    0.28
  -1  -6  11    1.48    0.32
  -1   6  11    1.42    0.45
  -1   6  11    1.77    0.48
   1   6 -11    1.65    0.43
   0  -6  11    0.96    0.30
   0   6  11    0.63    0.43
   0   6 -11    0.45    0.29
   0   6  11    1.10    0.35
  -1  -6 -11   -0.14    0.30
   1  -6  11    0.34    0.31
   1   6  11    0.13    0.39
  -1   6 -11    0.60    0.29
   1   6  11   -0.08    0.27
  -2   0  12   13.47    0.95
  -2   0  12   13.33    0.85
   2   0 -12   13.07    1.01
   1   0 -12   26.23    1.57
   0   0 -12    0.89    0.30
   0   0 -12    0.84    0.35
   0   0  12    0.53    0.25
   0   0  12    1.02    0.37
   1   0  12    2.39    0.55
  -1   0 -12    2.55    0.42
   1   0  12    2.42    0.32
  -1   0 -12    1.94    0.43
  -2  -1  12    0.00    0.26
  -2  -1  12   -0.09    0.28
   2  -1 -12   -0.30    0.32
   2   1 -12   -0.47    0.28
  -2   1  12    0.15    0.31
  -2   1  12    0.29    0.26
  -1  -1  12    2.05    0.32
   1  -1 -12    1.76    0.44
   1  -1 -12    1.85    0.30
  -1  -1  12    1.93    0.47
  -1   1  12    1.70    0.30
  -1   1  12    1.57    0.42
   1   1 -12    1.67    0.41
   0  -1 -12    1.70    0.34
   0  -1 -12    1.55    0.41
   0  -1  12    1.74    0.42
   0  -1  12    1.76    0.28
   0   1 -12    1.23    0.37
   0   1  12    1.35    0.29
  -1  -1 -12   -0.02    0.30
   1  -1  12   -0.25    0.31
  -1  -1 -12    0.37    0.26
   1   1  12   -0.11    0.32
  -1   1 -12   -0.21    0.27
  -1   1 -12    0.43    0.30
   1   1  12    0.32    0.24
  -2  -2  12    5.16    0.50
  -2  -2  12    5.63    0.58
  -2   2  12    4.51    0.60
  -2   2  12    4.01    0.49
   2   2 -12    4.08    0.57
  -1  -2  12   15.19    0.97
   1  -2 -12   14.54    1.08
  -1  -2  12   14.14    0.86
   1   2 -12   14.39    1.02
  -1   2  12   14.38    0.90
  -1   2  12   14.47    1.03
   0  -2 -12    5.84    0.66
   0  -2  12    5.71    0.58
   0  -2 -12    5.21    0.52
   0  -2  12    5.61    0.45
   0   2  12    5.85    0.53
   0   2 -12    5.57    0.62
   0   2  12    6.17    0.68
   1  -2  12   17.43    1.20
  -1  -2 -12   19.48    1.24
   1   2  12   18.33    1.29
  -1   2 -12   18.68    1.12
   1   2  12   19.52    1.06
  -1   2 -12   16.16    1.15
  -1  -3  12    1.22    0.35
   1  -3 -12    0.76    0.39
  -1  -3  12    0.75    0.25
  -1   3  12    1.00    0.33
   1   3 -12    1.02    0.35
  -1   3  12    0.85    0.38
   0  -3  12    3.28    0.35
   0  -3 -12    4.01    0.58
   0  -3  12    3.30    0.46
   0   3  12    2.80    0.53
   0   3  12    3.42    0.43
   0   3 -12    2.60    0.44
  -1  -3 -12    8.18    0.67
  -1  -3 -12    7.15    0.81
   1   3  12    7.96    0.62
  -1   3 -12    8.95    0.82
   1   3  12    7.18    0.83
   0  -4  12   -0.20    0.26
   0   4 -12    0.22    0.29
   0   4  12   -0.17    0.27
   0   4  12   -0.39    0.36
   0   0   0    0.00    0.00
;
_shelx_hkl_checksum              24794
_shelx_res_file
;
TITL 17280z in P2(1)/m
CELL  0.71073   4.7215  10.0181   8.7689   90.000   93.023   90.000
ZERR    2.000   0.0004   0.0009   0.0008    0.000    0.004    0.000
LATT  1
SYMM -X, 1/2+Y, -Z
SFAC C  H N CL BR
UNIT 14 4 2 2  4
TEMP -173.150
SIZE 0.12 0.20 0.20
L.S. 6
ACTA
CONF
BOND $H
LIST 4
FMAP 2
PLAN 5
WGHT    0.019400    0.263600
FVAR       0.16326
BR11  5    0.345363    0.466864    0.692045    11.00000    0.02047    0.01162 =
         0.01577   -0.00098   -0.00046   -0.00213
CL11  4    1.098794    0.750000    1.069604    10.50000    0.01513    0.01755 =
         0.01501    0.00000   -0.00218    0.00000
C11   1    0.394931    0.750000    0.703956    10.50000    0.01529    0.01573 =
         0.01132    0.00000    0.00194    0.00000
N11   3    0.179275    0.750000    0.590052    10.50000    0.01849    0.01400 =
         0.01336    0.00000    0.00003    0.00000
C12   1    0.501749    0.629358    0.762507    11.00000    0.01558    0.01249 =
         0.01297   -0.00171    0.00302   -0.00164
C13   1    0.719274    0.628647    0.875803    11.00000    0.01546    0.01266 =
         0.01388    0.00027    0.00139    0.00114
AFIX  43
H13A  2    0.793412    0.546863    0.915562    11.00000   -1.20000
AFIX   0
C14   1    0.825823    0.750000    0.929588    10.50000    0.01364    0.01492 =
         0.01361    0.00000    0.00158    0.00000
C15   1    0.000128    0.750000    0.494095    10.50000    0.02527    0.01392 =
         0.01894    0.00000   -0.00363    0.00000
HKLF 4
REM  17280z in P2(1)/m
REM R1 =  0.0206 for    1239 Fo > 4sig(Fo)  and  0.0233 for all    1334 data
REM     58 parameters refined using      0 restraints
END
WGHT      0.0194      0.2633
REM Highest difference peak  0.511,  deepest hole -0.903,  1-sigma level  0.131
Q1    1   0.4808  0.4615  0.5860  11.00000  0.05    0.51
Q2    1   0.1804  0.4590  0.7932  11.00000  0.05    0.42
Q3    1   0.7496  0.6901  0.9082  11.00000  0.05    0.38
Q4    1  -0.0151  0.4988  0.7161  11.00000  0.05    0.38
Q5    1   0.7172  0.4691  0.6809  11.00000  0.05    0.37
;
_shelx_res_checksum              44208
_shelxl_version_number           2014/6
loop_
_space_group_symop_operation_xyz
'x, y, z'
'-x, y+1/2, -z'
'-x, -y, -z'
'x, -y-1/2, z'
loop_
_atom_site_type_symbol
_atom_site_label
_atom_site_fract_x
_atom_site_fract_y
_atom_site_fract_z
_atom_site_U_iso_or_equiv
_atom_site_adp_type
_atom_site_calc_flag
_atom_site_occupancy
Br Br11 0.34536(4) 0.46686(2) 0.69204(2) 0.01601(7) Uani d 1
Cl Cl11 1.09879(12) 0.7500 1.06960(7) 0.01600(12) Uani d 1
C C11 0.3949(5) 0.7500 0.7040(3) 0.0141(4) Uani d 1
N N11 0.1793(5) 0.7500 0.5901(2) 0.0153(4) Uani d 1
C C12 0.5017(3) 0.62936(17) 0.76251(19) 0.0136(3) Uani d 1
C C13 0.7193(3) 0.62865(17) 0.87580(19) 0.0140(3) Uani d 1
H H13A 0.7934 0.5469 0.9156 0.017 Uiso calc 1
C C14 0.8258(5) 0.7500 0.9296(3) 0.0140(4) Uani d 1
C C15 0.0001(6) 0.7500 0.4941(3) 0.0195(5) Uani d 1
loop_
_atom_site_aniso_label
_atom_site_aniso_U_11
_atom_site_aniso_U_22
_atom_site_aniso_U_33
_atom_site_aniso_U_12
_atom_site_aniso_U_13
_atom_site_aniso_U_23
Br11 0.02047(10) 0.01162(10) 0.01577(10) -0.00213(6) -0.00046(7) -0.00098(6)
Cl11 0.0151(3) 0.0176(3) 0.0150(3) 0.000 -0.0022(2) 0.000
C11 0.0153(10) 0.0157(11) 0.0113(10) 0.000 0.0019(8) 0.000
N11 0.0185(10) 0.0140(9) 0.0134(9) 0.000 0.0000(8) 0.000
C12 0.0156(7) 0.0125(7) 0.0130(7) -0.0016(6) 0.0030(6) -0.0017(6)
C13 0.0155(7) 0.0127(7) 0.0139(8) 0.0011(6) 0.0014(6) 0.0003(6)
C14 0.0136(10) 0.0149(11) 0.0136(10) 0.000 0.0016(8) 0.000
C15 0.0253(13) 0.0139(10) 0.0189(12) 0.000 -0.0036(10) 0.000
loop_
_atom_type_symbol
_atom_type_description
_atom_type_scat_dispersion_real
_atom_type_scat_dispersion_imag
_atom_type_scat_source
C C 0.0033 0.0016 'International Tables Vol C Tables 4.2.6.8 and 6.1.1.4'
H H 0.0000 0.0000 'International Tables Vol C Tables 4.2.6.8 and 6.1.1.4'
N N 0.0061 0.0033 'International Tables Vol C Tables 4.2.6.8 and 6.1.1.4'
Cl Cl 0.1484 0.1585 'International Tables Vol C Tables 4.2.6.8 and 6.1.1.4'
Br Br -0.2901 2.4595 'International Tables Vol C Tables 4.2.6.8 and 6.1.1.4'
loop_
_geom_angle_atom_site_label_1
_geom_angle_atom_site_label_2
_geom_angle_atom_site_label_3
_geom_angle_site_symmetry_1
_geom_angle_site_symmetry_3
_geom_angle
N11 C11 C12 . 4_575 120.09(11)
N11 C11 C12 . . 120.09(11)
C12 C11 C12 4_575 . 119.8(2)
C15 N11 C11 . . 179.6(3)
C13 C12 C11 . . 120.38(17)
C13 C12 Br11 . . 119.55(13)
C11 C12 Br11 . . 120.06(14)
C14 C13 C12 . . 118.60(17)
C14 C13 H13A . . 120.7
C12 C13 H13A . . 120.7
C13 C14 C13 4_575 . 122.2(2)
C13 C14 Cl11 4_575 . 118.90(11)
C13 C14 Cl11 . . 118.90(11)
loop_
_geom_bond_atom_site_label_1
_geom_bond_atom_site_label_2
_geom_bond_site_symmetry_2
_geom_bond_distance
Br11 C12 . 1.8785(17)
Cl11 C14 . 1.733(3)
C11 N11 . 1.388(3)
C11 C12 4_575 1.397(2)
C11 C12 . 1.397(2)
N11 C15 . 1.161(4)
C12 C13 . 1.391(3)
C13 C14 . 1.389(2)
C13 H13A . 0.9500
C14 C13 4_575 1.389(2)
loop_
_geom_torsion_atom_site_label_1
_geom_torsion_atom_site_label_2
_geom_torsion_atom_site_label_3
_geom_torsion_atom_site_label_4
_geom_torsion_site_symmetry_1
_geom_torsion_site_symmetry_4
_geom_torsion
N11 C11 C12 C13 . . 179.51(19)
C12 C11 C12 C13 4_575 . -1.8(3)
N11 C11 C12 Br11 . . -2.1(3)
C12 C11 C12 Br11 4_575 . 176.61(11)
C11 C12 C13 C14 . . 0.4(3)
Br11 C12 C13 C14 . . -178.03(15)
C12 C13 C14 C13 . 4_575 1.1(3)
C12 C13 C14 Cl11 . . -179.48(14)

_cod_database_fobs_code 1548676
