#------------------------------------------------------------------------------
#$Date: 2018-03-10 10:26:53 +0200 (Sat, 10 Mar 2018) $
#$Revision: 206895 $
#$URL: file:///home/coder/svn-repositories/cod/cif/1/54/90/1549038.cif $
#------------------------------------------------------------------------------
#
# This file is available in the Crystallography Open Database (COD),
# http://www.crystallography.net/. The original data for this entry
# were provided by IUCr Journals, http://journals.iucr.org/.
#
# The file may be used within the scientific community so long as
# proper attribution is given to the journal article from which the
# data were obtained.
#
data_1549038
loop_
_publ_author_name
'Mossine, Valeri V.'
'Barnes, Charles L.'
'Mawhinney, Thomas P.'
_publ_section_title
;
 1-Deoxy-1-(<i>N</i>-methyl-4-fluorophenylamino)-<small>D</small>-<i>arabino</i>-hexulose
;
_journal_coeditor_code           LH4033
_journal_issue                   3
_journal_name_full               IUCrData
_journal_page_first              x180369
_journal_paper_doi               10.1107/S2414314618003693
_journal_volume                  3
_journal_year                    2018
_chemical_formula_iupac          'C13 H18 F N O5'
_chemical_formula_moiety         'C13 H18 F N O5'
_chemical_formula_sum            'C13 H18 F N O5'
_chemical_formula_weight         287.28
_chemical_name_common
;
1-[(4-Fluorophenyl)(methyl)amino]-3,4,5,6-tetrahydroxyhexan-2-one
;
_chemical_name_systematic
;
1-Deoxy-1-(<i>N</i>-methyl-4-fluorophenylamino)-<i>D</i>-<i>arabino</i>-hexulose
;
_space_group_crystal_system      monoclinic
_space_group_IT_number           4
_space_group_name_Hall           'P 2yb'
_space_group_name_H-M_alt        'P 1 21 1'
_symmetry_space_group_name_Hall  'P 2yb'
_symmetry_space_group_name_H-M   'P 1 21 1'
_atom_sites_solution_hydrogens   mixed
_cell_angle_alpha                90
_cell_angle_beta                 90.606(9)
_cell_angle_gamma                90
_cell_formula_units_Z            2
_cell_length_a                   10.561(6)
_cell_length_b                   5.156(3)
_cell_length_c                   12.504(7)
_cell_measurement_reflns_used    1387
_cell_measurement_temperature    100(2)
_cell_measurement_theta_max      24.4
_cell_measurement_theta_min      2.5
_cell_volume                     680.8(7)
_computing_cell_refinement
;
SAINT (Bruker, 1998)
;
_computing_data_collection
;
SMART (Bruker, 1998)
;
_computing_data_reduction
;
SAINT (Bruker, 1998)
;
_computing_molecular_graphics
;
X-SEED (Barbour, 2001) and Mercury (Macrae <i>et al.</i>,  2008)
;
_computing_publication_material
;
CIFTAB (Sheldrick, 2008) and publCIF (Westrip, 2010)
;
_computing_structure_refinement
;
SHELXL2017 (Sheldrick, 2015)
;
_computing_structure_solution
;
SHELXS97 (Sheldrick, 2008)
;
_diffrn_ambient_temperature      100(2)
_diffrn_measured_fraction_theta_full 0.997
_diffrn_measured_fraction_theta_max 0.985
_diffrn_measurement_device_type  'Bruker APEXII CCD area detector'
_diffrn_measurement_method       'omega scans'
_diffrn_radiation_type           MoK\a
_diffrn_radiation_wavelength     0.71073
_diffrn_reflns_av_R_equivalents  0.0385
_diffrn_reflns_limit_h_max       13
_diffrn_reflns_limit_h_min       -13
_diffrn_reflns_limit_k_max       6
_diffrn_reflns_limit_k_min       -6
_diffrn_reflns_limit_l_max       14
_diffrn_reflns_limit_l_min       -15
_diffrn_reflns_number            4693
_diffrn_reflns_theta_full        25.242
_diffrn_reflns_theta_max         27.196
_diffrn_reflns_theta_min         1.629
_diffrn_standards_decay_%        0.0
_exptl_absorpt_coefficient_mu    0.116
_exptl_absorpt_correction_T_max  0.99
_exptl_absorpt_correction_T_min  0.79
_exptl_absorpt_correction_type   multi-scan
_exptl_absorpt_process_details
;
(SADABS; Sheldrick, 2003)
;
_exptl_crystal_colour            Colourless
_exptl_crystal_density_diffrn    1.401
_exptl_crystal_description       Needle
_exptl_crystal_F_000             304
_exptl_crystal_size_max          0.500
_exptl_crystal_size_mid          0.100
_exptl_crystal_size_min          0.050
_refine_diff_density_max         0.176
_refine_diff_density_min         -0.165
_refine_ls_abs_structure_details
;
Flack <i>x</i> determined using 474 quotients
[(<i>I</i>^+^)-(<i>I</i>^-^)]/[(<i>I</i>^+^)+(<i>I</i>^-^)]
(Parsons <i>et al.</i>,  2013)
;
_refine_ls_abs_structure_Flack   0.2(10)
_refine_ls_extinction_method     none
_refine_ls_goodness_of_fit_ref   0.949
_refine_ls_hydrogen_treatment    mixed
_refine_ls_matrix_type           full
_refine_ls_number_parameters     198
_refine_ls_number_reflns         2652
_refine_ls_number_restraints     1
_refine_ls_restrained_S_all      0.949
_refine_ls_R_factor_all          0.0934
_refine_ls_R_factor_gt           0.0421
_refine_ls_shift/su_max          0.000
_refine_ls_shift/su_mean         0.000
_refine_ls_structure_factor_coef Fsqd
_refine_ls_weighting_details
'w=1/[\s^2^(Fo^2^)+(0.0463P)^2^] where P=(Fo^2^+2Fc^2^)/3'
_refine_ls_weighting_scheme      calc
_refine_ls_wR_factor_gt          0.0864
_refine_ls_wR_factor_ref         0.1003
_reflns_number_gt                1588
_reflns_number_total             2652
_reflns_threshold_expression     'I > 2\s(I)'
_cod_data_source_file            lh4033sup1.cif
_cod_data_source_block           I
_cod_original_cell_volume        680.9(6)
_cod_database_code               1549038
_shelx_space_group_comment
;
The symmetry employed for this shelxl refinement is uniquely defined
by the following loop, which should always be used as a source of
symmetry information in preference to the above space-group names.
They are only intended as comments.
;
_shelx_estimated_absorpt_t_min   0.944
_shelx_estimated_absorpt_t_max   0.994
_shelx_hkl_file
;
  -1   0   0 111.450   3.966   1
   1   0   0 106.289   3.833   2
  -2   0   0 7196.23  190.98   1
   2   0   0 7468.11  218.50   3
   2   0   0 6459.63  201.60   2
  -3   0   0 64.6660  4.2548   1
   3   0   0 55.1380  3.5586   2
   3   0   0 65.4969  4.8267   3
   4   0   0 393.838  13.581   2
  -4   0   0 434.230  13.982   1
   4   0   0 446.485  15.118   3
  -5   0   0 15.2892  5.5873   1
   5   0   0 18.2915  6.2623   3
   5   0   0 15.1154  4.7259   2
  -6   0   0 4.62717 7.01635   1
   6   0   0 7.26076 7.91836   3
   6   0   0 5.58074 6.47708   2
   7   0   0 122.706  11.598   3
  -7   0   0 111.499   9.568   1
   7   0   0 111.066   8.259   2
   8   0   0 -7.9801  7.9350   2
   8   0   0  3.2267 11.3477   3
  -8   0   0 6.70476 9.00034   1
   9   0   0 20.4863 12.9172   3
  -9   0   0 -3.8035 10.4630   1
  10   0   0 -12.401  14.526   3
 -10   0   0 -10.562  12.225   1
 -11   0   0 36.4662 15.1255   1
  11   0   0 34.2228 16.9919   3
  12   0   0  8.8074 19.7115   3
  13   0   0 17.9331 23.6778   3
   0  -1   0 -1.8442  2.1562   1
  -1  -1   0 9596.61  250.80   1
   1  -1   0 8878.56  286.74   3
  -1   1   0 9276.90  250.77   1
  -2  -1   0 67.2855  3.5726   1
   2  -1   0 80.5435  4.9404   3
  -2   1   0 69.2180  4.5963   1
   2   1   0 75.0269  3.7963   2
   3  -1   0 32.2790  5.0678   3
  -3  -1   0 41.5908  3.7679   1
  -3   1   0 34.3076  4.5485   1
   3   1   0 44.4729  3.7353   3
   3   1   0 37.5628  3.5560   2
  -4  -1   0 2308.43   63.03   1
   4  -1   0 2309.52   72.53   3
   4   1   0 2272.54   66.37   2
   4   1   0 2268.22   72.29   3
  -4   1   0 2286.90   63.66   1
   5  -1   0 651.477  24.537   3
  -5  -1   0 678.866  20.981   1
   5  -1   0 685.491  21.013   2
  -5   1   0 663.063  21.548   1
   5   1   0 700.166  21.499   2
   5   1   0 682.116  23.164   3
   6  -1   0 189.935  12.030   3
   6  -1   0 183.002   7.557   2
  -6  -1   0 190.226  10.903   1
   6   1   0 165.760   9.710   2
   6   1   0 137.394   8.434   3
  -6   1   0 170.497   9.839   1
   7  -1   0 125.626  12.194   3
  -7  -1   0 114.005   9.373   1
   7  -1   0 110.261   6.633   2
  -7   1   0 97.3611  9.3520   1
   7   1   0 96.6245  8.1666   3
   7   1   0 112.060   8.432   2
  -8  -1   0 460.974  18.773   1
   8  -1   0 430.512  22.497   3
  -8   1   0 419.933  18.892   1
   8   1   0 442.679  18.428   3
   9  -1   0 78.2496 14.6974   3
  -9  -1   0 60.2093 11.9924   1
   9   1   0 71.8512  9.2314   3
  -9   1   0 61.9313 12.4049   1
  10  -1   0 77.9216 17.1080   3
 -10   1   0 87.5350 15.0714   1
  10   1   0 98.7546 16.3018   3
  11  -1   0 39.9784 18.9311   3
 -11   1   0 48.4865 16.7518   1
  11   1   0 36.7448 18.2632   3
  12  -1   0 134.042  23.241   3
 -12   1   0 139.490  19.335   1
  12   1   0 144.083  22.551   3
  13  -1   0 30.1796 25.2890   3
  13   1   0 30.5479 23.4023   3
   0   2   0 1364.88   37.98   4
   0   2   0 1406.63   39.19   1
  -1  -2   0 68.3064  4.6590   1
   1  -2   0 61.4795  6.3404   3
  -1   2   0 65.5653  5.4936   1
   2  -2   0 1043.82   34.55   3
  -2  -2   0 1015.20   29.66   1
   2   2   0 1056.87   31.67   2
  -2   2   0 1070.38   30.69   1
   3  -2   0 231.330  12.544   3
  -3  -2   0 241.216   9.366   1
  -3   2   0 223.585  11.556   1
   3   2   0 243.061  10.323   2
   4  -2   0 989.415  34.611   3
   4   2   0 1030.32   31.12   2
  -4   2   0 1025.95   31.15   1
   4   2   0 1065.86   34.24   3
   5  -2   0 214.258  11.762   3
  -5  -2   0 166.496   9.970   1
  -5   2   0 194.039  10.593   1
   5   2   0 194.152  10.475   2
   5   2   0 191.853   9.963   3
   6  -2   0 6.58607 9.08772   3
  -6  -2   0 8.63160 6.94087   1
   6   2   0 0.27252 4.33944   3
   6   2   0 13.2385  6.7911   2
  -6   2   0 10.0128  8.4837   1
   7  -2   0 208.266  14.370   3
   7   2   0 206.090  11.161   3
  -7   2   0 189.008  13.105   1
   8  -2   0 136.122  14.968   3
   8   2   0 143.532   9.431   3
  -8   2   0 104.195  12.213   1
   9  -2   0 274.080  20.208   3
   9   2   0 306.218  15.043   3
  -9   2   0 276.584  17.103   1
  10  -2   0 49.9218 18.4429   3
 -10   2   0 33.4583 15.2417   1
  10   2   0 9.93808 9.93263   3
  11  -2   0  6.6364 20.2276   3
 -11   2   0 35.3784 17.4708   1
  11   2   0 29.6613 10.9012   3
  12  -2   0 -6.6881 23.2169   3
 -12   2   0 35.0869 20.8106   1
  12   2   0 23.8041 13.1430   3
   0   3   0 0.05834 6.09076   1
   0   3   0 -9.4399  5.1328   4
  -1   3   0 189.202  11.597   1
   1   3   0 181.297  11.701   1
   1   3   0 173.701   9.931   4
  -2  -3   0 129.713   7.696   1
   2  -3   0 137.861  10.909   3
   2   3   0 140.828   8.991   2
  -2   3   0 131.626   9.056   1
   3  -3   0 294.187  16.115   3
  -3  -3   0 281.484  12.445   1
   3   3   0 286.158  13.515   2
  -3   3   0 292.831  14.727   1
   4  -3   0 455.323  20.807   3
  -4  -3   0 466.650  16.504   1
   4   3   0 473.356  17.528   2
  -4   3   0 497.955  19.533   1
   5  -3   0 28.9032 10.2569   3
  -5   3   0 24.5847  9.2423   1
   5   3   0 28.7108  7.0730   2
   5   3   0 34.5427  6.4100   3
   6  -3   0 163.113  13.733   3
   6   3   0 136.875  10.126   3
  -6   3   0 140.098  12.487   1
   7  -3   0 109.427  14.453   3
   7   3   0 131.542   9.867   3
  -7   3   0 137.938  13.641   1
   8  -3   0 121.292  16.214   3
  -8   3   0 147.241  15.389   1
   8   3   0 116.091  10.119   3
   9  -3   0 113.634  18.632   3
  -9   3   0 95.0499 16.0405   1
   9   3   0 134.819  10.406   3
  10  -3   0 43.6143 20.2286   3
  10   3   0 32.3893  8.7721   3
 -10   3   0 44.1283 16.9682   1
  11   3   0 -3.2204 10.8486   3
 -11   3   0  6.5845 20.5664   1
 -12   3   0 30.7115 23.2379   1
   0   4   0 251.848  14.855   1
   1   4   0 246.964  11.314   4
  -1   4   0 219.518  12.516   1
   1   4   0 232.882  12.078   1
   2   4   0 57.0877  8.9135   1
   2   4   0 45.2083  7.5696   4
  -2   4   0 36.5023  9.3496   1
   2   4   0 64.4588  9.9889   2
   3   4   0 49.9185  9.7813   2
  -3   4   0 53.3175 10.3371   1
   4  -4   0 47.6993 14.3347   3
  -4   4   0 44.2642 10.8690   1
   4   4   0 30.2006  9.3171   2
   5  -4   0 298.429  21.981   3
  -5   4   0 292.840  16.516   1
   5   4   0 283.136  16.249   2
   6  -4   0 63.9998 16.5891   3
  -6   4   0 68.3810 13.1711   1
   6   4   0 90.4860  9.9838   3
   7  -4   0  4.7272 17.0647   3
  -7   4   0 34.7703 14.5545   1
   7   4   0 1.52673 7.68625   3
   8   4   0 141.700  11.305   3
  -8   4   0 109.865  17.754   1
  -9   4   0 28.7430 17.9690   1
   9   4   0 7.70430 8.18865   3
  10   4   0 1.36396 9.32251   3
 -10   4   0  3.6070 21.4254   1
   0   5   0  5.4712 10.8492   1
  -1   5   0 49.4409 11.6828   1
   1   5   0 56.9936 13.8216   2
  -2   5   0 14.6368 11.8813   1
   2   5   0 17.5508 12.8344   2
   3   5   0 49.0427 13.1766   2
  -3   5   0 69.0947 13.3309   1
   4   5   0 65.2868 13.2750   2
  -4   5   0 40.1861 13.9506   1
  -5   5   0 71.6824 15.2205   1
   6   5   0 10.7353 10.3069   3
  -6   5   0 11.8223 15.8062   1
  -7   5   0 11.9777 17.4021   1
   7   5   0 16.5021  9.5350   3
   8   5   0 26.8509 10.9019   3
  -8   5   0  5.2985 18.8317   1
   0   6   0 12.1433 17.8153   2
   1   6   0  5.0075 17.2075   2
   2   6   0  0.8588 17.3584   2
   3   6   0 16.7710 17.0943   2
  -3   6   0 18.3350 17.2171   1
  -4   6   0 -0.8950 17.8574   1
  -5   6   0 50.9275 18.8653   1
  13   0  -1 -8.2082 23.2169   3
  12   0  -1 34.5899 19.7918   3
  11   0  -1 -4.5172 16.8398   3
 -10   0   1 27.7112 12.9304   1
  10   0  -1 46.2614 15.3878   3
  -9   0   1 -1.5001 10.8163   1
   9   0  -1 19.9163 13.4277   3
   8   0  -1 342.838  17.016   2
   8   0  -1 345.399  19.172   3
  -8   0   1 349.798  17.156   1
   7   0  -1 0.41188 7.23622   2
  -7   0   1 -7.0165  7.7100   1
   7   0  -1 -8.5026  9.0936   3
  -6   0   1 0.93569 6.33521   1
   6   0  -1 1.48126 5.69266   2
   6   0  -1 -2.5959  4.6710   3
  -5   0   1 364.462  13.426   1
   5   0  -1 400.496  14.273   3
   5   0  -1 370.930  13.548   2
   4   0  -1 176.343   9.268   3
  -4   0   1 263.278   9.219   1
   4   0  -1 238.710   9.019   2
   3   0  -1 1037.57   30.92   2
  -3   0   1 1029.42   29.27   1
   3   0  -1 1066.06   33.37   3
   2   0  -1 1.06782 2.61596   2
   2   0  -1 3.43961 1.81260   3
  -2   0   1 2.73155 2.18255   1
   1   0  -1 403.214  13.970   3
  -1   0   1 457.571  12.064   4
  -1   0   1 424.029  12.401   1
   1   0  -1 411.401  13.185   2
   0   0  -1 456.163  13.794   2
   0   0   1 483.903  14.955   3
   0   0  -1 458.678  13.083   1
   1   0   1 619.101  19.740   3
  -1   0  -1 605.711  17.344   1
  -2   0  -1 794.537  22.526   1
   2   0   1 794.427  25.769   3
   3   0   1 989.071  31.935   3
  -3   0  -1 974.636  27.953   1
  -4   0  -1 2116.67   58.31   1
   4   0   1 2127.80   66.70   3
   4   0   1 2056.65   60.62   2
   5   0   1 163.232  11.483   3
   5   0   1 166.223   7.247   2
  -5   0  -1 187.299  10.184   1
   6   0   1 11.3366  3.2892   2
   6   0   1 6.53852 8.25362   3
  -6   0  -1 8.03082 6.75674   1
   7   0   1 34.4927  9.9161   3
  -7   0  -1 34.9138  8.1622   1
   7   0   1 37.7956  4.1801   2
  -8   0  -1 192.991  11.948   1
   8   0   1 189.779  14.571   3
  -9   0  -1  9.5829 10.7059   1
   9   0   1 -0.1442 12.7808   3
  10   0   1 105.711  16.056   3
 -10   0  -1 90.2525 14.0206   1
  11   0   1 63.9866 18.0761   3
 -11   0  -1 48.6820 15.3730   1
  12   0   1 41.2833 20.4048   3
  13   0   1 -22.039  22.887   3
  13  -1  -1 54.9542 25.7032   3
  13   1  -1 37.3543 24.2156   3
  12  -1  -1 171.520  23.823   3
 -12   1   1 176.480  20.980   1
  12   1  -1 132.102  22.755   3
  11  -1  -1 17.4308 18.8194   3
  11   1  -1 16.8025 18.0048   3
 -11   1   1 18.8899 16.5880   1
  10  -1  -1 67.1632 17.2415   3
 -10   1   1 53.1666 14.1689   1
  10   1  -1 75.3296 10.2417   3
   9  -1  -1 89.8835  6.9281   2
   9  -1  -1 81.5082 14.8763   3
  -9   1   1 81.5470 12.4282   1
   9   1  -1 89.5788  9.2820   3
   8  -1  -1 268.084  18.226   3
  -8  -1   1 239.887  15.113   1
   8  -1  -1 249.065  10.624   2
  -8   1   1 237.189  15.192   1
   8   1  -1 249.391  14.389   3
   8   1  -1 244.124  14.007   2
   7  -1  -1 396.377  19.555   3
  -7  -1   1 394.797  16.438   1
   7  -1  -1 403.568  14.165   2
   7   1  -1 420.280  15.897   3
   7   1  -1 400.646  16.361   2
  -7   1   1 378.481  16.662   1
   6  -1  -1 116.934  10.324   3
   6  -1  -1 90.2783  6.3942   2
  -6  -1   1 114.124   7.938   1
   6   1  -1 103.441   6.820   3
   6   1  -1 123.355   8.196   2
  -6   1   1 114.854   8.595   1
   5  -1  -1 281.653  13.961   3
  -5  -1   1 297.158  11.281   1
   5  -1  -1 286.184  10.395   2
   5   1  -1 288.256  11.551   3
  -5   1   1 277.494  12.604   1
   5   1  -1 289.218  12.157   2
   4  -1  -1 332.003  13.902   3
  -4  -1   1 315.568  11.170   1
   4  -1  -1 331.334  11.166   2
   4   1  -1 320.875  12.161   2
  -4   1   1 315.583  12.666   1
   4   1  -1 350.404  12.584   3
   3  -1  -1 689.958  23.051   3
   3  -1  -1 642.112  20.858   2
  -3   1   1 672.160  20.762   1
   3   1  -1 712.483  21.059   2
   3   1  -1 718.754  22.832   3
   2  -1  -1 1255.49   39.89   3
   2  -1  -1 1269.43   36.99   2
   2   1  -1 1265.50   36.90   2
  -2   1   1 1243.58   35.48   1
   1  -1  -1 7582.60  242.68   3
   1   1  -1 8062.03  224.09   2
   0  -1  -1 1727.64   48.90   1
   0  -1   1 1824.92   56.17   3
   0   1  -1 1790.73   48.76   1
  -1  -1  -1 712.054  20.258   1
   1  -1   1 718.748  23.397   3
  -1   1  -1 713.917  20.397   1
   2  -1   1 1136.24   36.33   3
  -2  -1  -1 1139.92   31.65   1
   2   1   1 1151.86   36.07   3
  -2   1  -1 1130.13   31.94   1
   2   1   1 1101.88   33.00   2
  -3  -1  -1 2836.93   77.18   1
   3  -1   1 2800.82   88.45   3
   3   1   1 2920.75   88.31   3
  -3   1  -1 2703.16   77.45   1
   4  -1   1 660.093  22.965   3
  -4  -1  -1 638.351  19.665   1
  -4   1  -1 617.640  19.936   1
   4   1   1 650.911  21.701   3
   5  -1   1 162.002  12.268   3
  -5  -1  -1 178.426   9.955   1
  -5   1  -1 160.614   9.906   1
   5   1   1 190.424   8.438   3
  -6  -1  -1 526.083  18.378   1
   6  -1   1 517.253  21.590   3
   6   1   1 538.959  19.642   3
  -6   1  -1 492.594  18.682   1
  -7  -1  -1 18.7081  8.4786   1
   7  -1   1  4.4012 11.2439   3
   7   1   1 13.8045  5.6913   3
  -7   1  -1 10.6382  8.6911   1
  -8  -1  -1 236.029  13.427   1
   8  -1   1 231.276  16.760   3
  -8   1  -1 225.332  13.828   1
   8   1   1 233.620  12.809   3
   9  -1   1 98.9369 15.9741   3
  -9  -1  -1 122.548  13.133   1
  -9   1  -1 88.2580 13.3663   1
   9   1   1 88.4325 13.3092   3
  10  -1   1 31.5241 16.5094   3
 -10   1  -1 25.3481 13.9920   1
  10   1   1 -13.360  15.501   3
  11  -1   1  0.8037 18.9455   3
  11   1   1  9.6708 17.9604   3
 -11   1  -1 -6.8677 15.1537   1
  12  -1   1  2.8971 21.4890   3
  12   1   1 16.8828 20.0423   3
 -12   1  -1  1.9157 17.3578   1
  13  -1   1 12.9237 24.8634   3
  13   1   1  4.1097 23.1946   3
 -13   1  -1  8.9349 20.1671   1
 -12   2   1 50.4984 20.7642   1
  12   2  -1 51.6180 13.0778   3
  11  -2  -1 65.0224 21.4076   3
  11   2  -1 70.4177 11.7870   3
 -11   2   1 71.4827 17.9505   1
  10  -2  -1  2.9571 17.7608   3
  10   2  -1 8.14775 8.97933   3
 -10   2   1  2.4357 14.5998   1
   9  -2  -1 73.0297 16.2801   3
  -9   2   1 63.3486 13.3291   1
   9   2  -1 56.7360  7.8803   3
   8  -2  -1 105.568  14.444   3
   8   2  -1 107.157   8.576   3
  -8   2   1 106.459  12.823   1
   7  -2  -1 48.0297 11.1102   3
   7   2  -1 49.1989  6.3350   3
   7   2  -1 56.1637  9.4304   2
  -7   2   1 34.4918 10.2822   1
   6  -2  -1 19.9944  9.0286   3
   6   2  -1 34.1206  7.3702   2
   6   2  -1 12.8230  5.4996   3
  -6   2   1 25.1115  8.4020   1
   5  -2  -1 745.577  26.620   3
  -5   2   1 731.614  24.307   1
   5   2  -1 717.548  23.702   2
   5   2  -1 735.467  25.722   3
   4  -2  -1 1602.12   51.16   3
  -4   2   1 1561.62   45.56   1
   4   2  -1 1582.99   46.86   2
   3  -2  -1 150.525   8.198   3
  -3   2   1 122.470   8.146   1
   3   2  -1 131.974   8.394   2
  -2  -2   1 768.258  21.764   1
   2  -2  -1 723.064  25.836   3
   2   2  -1 766.587  23.728   2
  -2   2   1 748.359  22.674   4
  -2   2   1 770.161  23.348   1
   1   2  -1 1589.50   47.93   2
   1   2  -1 1620.98   44.97   1
  -1   2   1 1584.71   44.37   4
  -1   2   1 1584.27   45.75   1
   1   2  -1 1705.81   43.69   4
   0  -2  -1 1041.83   29.67   1
   0   2  -1 1021.89   29.56   1
  -1  -2  -1 32.1697  4.4391   1
   1  -2   1 40.7780  6.1330   3
  -1   2  -1 41.6450  4.8434   1
  -2  -2  -1 349.962  12.560   1
   2  -2   1 382.826  15.186   3
  -2   2  -1 377.517  13.606   1
   3  -2   1 2316.22   75.55   3
   3   2   1 2407.02   75.33   3
  -3   2  -1 2353.46   66.32   1
   3   2   1 2438.47   69.21   2
  -4  -2  -1 1650.86   46.13   1
   4  -2   1 1626.19   53.43   3
  -4   2  -1 1623.85   47.27   1
   4   2   1 1679.89   53.03   3
   4   2   1 1654.48   48.35   2
   5  -2   1 37.7603  8.7324   3
  -5  -2  -1 55.1446  6.6617   1
  -5   2  -1 45.0218  8.0197   1
   5   2   1 50.4722  5.4807   3
   5   2   1 50.5851  5.5527   2
  -6  -2  -1 36.4750  7.7011   1
   6  -2   1 42.4638  9.9334   3
   6   2   1 41.1568  5.3976   3
  -6   2  -1 47.0876  8.7642   1
  -7  -2  -1 599.380  21.497   1
   7  -2   1 609.029  25.765   3
  -7   2  -1 618.119  23.985   1
   7   2   1 636.714  22.736   3
   8  -2   1 197.839  15.976   3
   8   2   1 195.323  11.509   3
  -8   2  -1 202.171  14.036   1
   9  -2   1 54.0697 15.8638   3
   9   2   1 34.8679 10.2541   3
  -9   2  -1 61.6178 13.8087   1
  10  -2   1 73.1122 18.6101   3
  10   2   1 90.1683 11.0746   3
 -10   2  -1 115.199  16.227   1
  11  -2   1 15.1130 20.2551   3
  11   2   1 28.4280 11.0059   3
 -11   2  -1  7.9087 18.4731   1
  12  -2   1 80.0356 23.1468   3
 -12   2  -1 93.0477 21.5470   1
  12   2   1 26.3362 21.4578   3
 -12   3   1 13.9261 23.4344   1
 -11   3   1 10.3582 19.2674   1
  11   3  -1 -7.3643  9.8494   3
  10   3  -1 -2.3820  7.8058   3
 -10   3   1  1.1796 16.3796   1
   9   3  -1 32.9253  8.3627   3
  -9   3   1 21.4590 15.7617   1
   8  -3  -1 153.975  16.694   3
  -8   3   1 175.222  15.909   1
   8   3  -1 157.493  11.311   3
   7  -3  -1 157.973  14.982   3
   7   3  -1 128.569   9.946   3
  -7   3   1 115.615  13.569   1
   6  -3  -1 95.8537 12.3517   3
   6   3  -1 97.0521  9.5418   2
  -6   3   1 84.1600 11.7910   1
   6   3  -1 87.8971  8.7314   3
   5  -3  -1 283.559  16.889   3
   5   3  -1 269.660  13.249   2
  -5   3   1 268.702  16.424   1
   4  -3  -1 65.8588 10.0232   3
  -4   3   1 40.8654  8.9902   1
   4   3  -1 55.9773  7.3354   2
  -3  -3   1 194.434  10.574   1
   3  -3  -1 227.453  15.225   3
   3   3  -1 230.051  12.129   2
  -3   3   1 252.476  13.935   1
   2   3  -1 190.604   9.435   4
  -2   3   1 196.981  10.339   1
   2   3  -1 171.403  11.612   2
   2   3  -1 183.106  10.851   1
   1   3  -1 503.284  17.119   1
  -1   3   1 493.851  18.566   1
   1   3  -1 509.595  16.683   4
   1   3  -1 490.043  18.701   2
  -1   3   1 485.631  18.246   4
   0   3   1 322.356  14.900   1
   0   3   1 318.129  13.250   4
   0   3  -1 321.778  13.478   1
  -1  -3  -1 144.950   8.428   1
  -1   3  -1 146.013   8.459   1
  -2  -3  -1 1114.48   32.59   1
   2  -3   1 1108.09   38.60   3
  -2   3  -1 1086.32   33.19   1
  -3  -3  -1 169.680  10.779   1
   3  -3   1 203.285  12.841   3
   3   3   1 168.504  11.505   2
  -3   3  -1 166.544  10.228   1
  -4  -3  -1 288.677  12.900   1
   4  -3   1 276.633  16.760   3
   4   3   1 263.690  12.670   3
  -4   3  -1 313.773  15.627   1
   4   3   1 297.296  13.162   2
   5  -3   1 308.058  18.005   3
  -5  -3  -1 307.240  13.974   1
   5   3   1 312.450  13.900   2
   5   3   1 318.900  14.198   3
  -5   3  -1 327.379  17.083   1
   6  -3   1 492.222  23.054   3
  -6   3  -1 509.942  21.399   1
   6   3   1 474.784  19.484   3
   7  -3   1 384.780  21.778   3
  -7   3  -1 403.494  20.587   1
   7   3   1 351.546  16.094   3
   8  -3   1 580.716  27.709   3
  -8   3  -1 557.217  25.548   1
   8   3   1 586.015  22.804   3
   9  -3   1 31.7120 17.7175   3
  -9   3  -1 46.2450 15.4531   1
   9   3   1 50.0387  8.7698   3
  10  -3   1  2.3976 19.7680   3
  10   3   1 10.8067  9.0947   3
 -10   3  -1 -6.4061 18.3080   1
  11  -3   1 18.5517 22.3078   3
  11   3   1 20.0722 12.8255   3
 -11   3  -1  5.5300 20.7103   1
 -12   3  -1 20.3792 23.9418   1
 -10   4   1 97.4349 21.0599   1
  10   4  -1 114.907  12.280   3
   9   4  -1 -4.6094  8.1261   3
  -9   4   1 -0.9885 17.5466   1
  -8   4   1 114.660  17.529   1
   8   4  -1 144.736  11.889   3
   7   4  -1 36.9294  8.4308   3
  -7   4   1 40.4786 14.1698   1
  -6   4   1  6.4341 12.7228   1
   6   4  -1 27.1447  7.3908   3
   5  -4  -1 86.7612 15.2892   3
   5   4  -1 77.5367 10.1840   2
  -5   4   1 78.3254 12.5476   1
   4  -4  -1 71.3901 14.5421   3
   4   4  -1 68.2026  9.8201   2
  -4   4   1 49.7426 11.1574   1
  -3   4   1 188.025  12.975   1
   3   4  -1 212.096  12.579   2
  -2   4   1 -2.7319  9.2783   1
   2   4  -1 -0.5707  9.1502   2
   1   4  -1 205.808  12.954   2
  -1   4   1 158.361  10.775   4
  -1   4   1 172.794  11.507   1
   1   4  -1 172.808  10.215   1
   0   4   1 284.940  16.486   1
   0   4  -1 252.223  14.918   1
   0   4   1 297.998  16.883   4
   1   4   1 5.01445 7.24948   4
   1   4   1 6.31771 8.73757   1
  -1   4  -1 10.2175  8.1182   1
  -2  -4  -1 54.9184  9.3114   1
  -2   4  -1 58.0503  9.4904   1
  -3  -4  -1 505.465  19.494   1
   3  -4   1 484.535  26.619   3
   3   4   1 513.438  20.901   2
  -3   4  -1 530.288  21.703   1
   4  -4   1 31.1871 14.5128   3
   4   4   1 30.7638  9.1704   2
  -4   4  -1 37.5415 10.7619   1
   5  -4   1 153.027  17.168   3
   5   4   1 160.019  11.237   3
  -5   4  -1 131.340  13.795   1
   6  -4   1 66.9449 16.8180   3
  -6   4  -1 70.0489 14.1176   1
   6   4   1 77.6435  8.8806   3
   7  -4   1 26.5784 17.4786   3
   7   4   1 53.8608  9.3626   3
  -7   4  -1 28.1142 14.4544   1
   8  -4   1 30.7472 19.6412   3
   8   4   1 58.2858  8.9233   3
  -8   4  -1 55.9997 16.2772   1
   9  -4   1 53.6230 21.5722   3
   9   4   1 61.7634  9.7950   3
  -9   4  -1 28.3402 18.7546   1
  10   4   1 22.3624 10.2966   3
 -10   4  -1 -4.4567 21.3481   1
  -8   5   1 -3.0049 19.2888   1
   8   5  -1 -7.0161 10.4580   3
   7   5  -1 27.9483 11.5779   3
  -7   5   1 32.0362 17.2455   1
   6   5  -1 16.8736  9.0377   3
  -6   5   1 21.3571 16.0564   1
  -5   5   1 30.7006 14.8961   1
   4   5  -1 218.673  15.838   2
  -4   5   1 197.625  16.921   1
   3   5  -1 17.3998 12.4929   2
  -3   5   1  3.4355 12.5392   1
  -2   5   1 819.615  30.672   1
   2   5  -1 801.573  31.444   2
   1   5  -1 567.405  25.456   2
  -1   5   1 533.516  24.581   1
   0   5   1 59.7810 11.8829   1
   0   5  -1 70.5904 14.1887   2
  -1   5  -1 55.4633 11.7061   1
   1   5   1 46.3376 11.6742   1
   1   5   1 56.1693 10.7174   4
  -2   5  -1 14.2491 11.4762   1
   2   5   1 19.7972 12.9747   2
  -3   5  -1 93.5315 13.9715   1
   3   5   1 100.278  14.398   2
  -4   5  -1 -6.7411 12.9136   1
   5  -5   1 15.8912 21.7500   3
   5   5   1 14.3604  8.6186   3
  -5   5  -1 11.5612 14.6754   1
   6  -5   1 11.3333 22.7927   3
   6   5   1 -1.2665  9.0517   3
  -6   5  -1 -9.7495 15.9269   1
   7   5   1 -5.3088  9.9555   3
  -7   5  -1 11.1303 17.3104   1
   8   5   1 -8.3935  9.4806   3
  -8   5  -1 -10.247  18.783   1
  -5   6   1 -4.1962 19.0858   1
   4   6  -1  0.5411 17.3549   2
  -4   6   1 -4.8575 17.6594   1
  -3   6   1 16.4656 17.4231   1
   3   6  -1 24.3897 17.1192   2
   2   6  -1 86.3303 17.9389   2
  -2   6   1 62.7847 16.9922   1
   1   6  -1 17.5899 17.9119   2
   0   6  -1 189.936  20.402   2
   1   6   1 24.6348 17.8291   2
  -1   6  -1 47.1165 18.5745   2
   2   6   1 64.8500 18.3283   2
  -3   6  -1 -7.1980 16.3574   1
  -4   6  -1 -8.7799 18.1196   1
  -5   6  -1 19.1062 19.5483   1
   5   6   1 -5.8712 11.9172   3
  13   0  -2 21.7460 23.9263   3
  12   0  -2 86.1519 21.0317   3
  11   0  -2 105.026  18.629   3
  10   0  -2 42.2793 15.5465   3
   9   0  -2 37.2451 12.8681   2
  -9   0   2 62.4877 12.0371   1
   9   0  -2 60.9070 14.1039   3
  -8   0   2 74.7448  9.9838   1
   8   0  -2 113.938  10.191   2
   8   0  -2 92.5201 12.2508   3
  -7   0   2 415.023  16.556   1
   7   0  -2 408.912  16.434   3
   7   0  -2 433.599  16.733   2
  -6   0   2 194.024  11.913   1
   6   0  -2 189.755   9.456   3
   6   0  -2 185.803  10.769   2
  -5   0   2 761.782  21.673   1
   5   0  -2 681.035  24.507   3
   5   0  -2 713.470  22.828   2
  -4   0   2 4863.26  126.02   1
   4   0  -2 4717.88  133.32   2
   4   0  -2 4299.39  144.08   3
   3   0  -2 16.6022  4.1098   2
   3   0  -2 15.5103  2.5908   3
  -3   0   2 14.6019  3.4159   1
  -2   0   2 9999.99  258.21   4
   2   0  -2 9964.05  280.11   2
  -2   0   2 9833.85  265.17   1
   2   0  -2 9339.64  303.19   3
   1   0  -2 431.849  13.212   2
   1   0  -2 410.570  12.107   1
   0   0   2 2235.26   68.34   3
   0   0  -2 2196.74   63.15   2
   0   0  -2 2141.89   59.80   1
  -1   0  -2 103.203   4.256   2
   1   0   2 109.479   5.499   3
  -1   0  -2 111.320   5.171   1
  -2   0  -2 3852.15  105.91   1
   2   0   2 3896.35  121.06   3
  -3   0  -2 316.412  11.216   1
   3   0   2 304.169  12.657   3
  -4   0  -2 383.598  13.610   1
   4   0   2 393.006  15.345   3
   5   0   2 143.905   9.621   3
  -5   0  -2 131.043   7.948   1
   6   0   2 0.90302 8.13952   3
  -6   0  -2 -5.1777  6.7969   1
  -7   0  -2 -3.4248  7.9747   1
   7   0   2 -0.6388  9.3800   3
   8   0   2 58.5359 11.7329   3
  -8   0  -2 48.7179 10.4759   1
  -9   0  -2 632.417  24.531   1
   9   0   2 642.406  27.974   3
 -10   0  -2 40.1293 14.1551   1
  10   0   2 43.0127 15.5818   3
  11   0   2 289.634  22.483   3
 -11   0  -2 312.545  19.835   1
  12   0   2 61.5119 20.9826   3
 -12   0  -2 67.4139 18.6440   1
  13   0   2 -11.701  23.278   3
  13   1  -2 60.9269 25.2703   3
  12   1  -2 283.510  25.399   3
  11  -1  -2 52.8952 19.2156   3
 -11   1   2 49.5176 16.8442   1
  11   1  -2 60.6249 15.1468   3
  10  -1  -2 35.9829 16.4372   3
  10  -1  -2 21.5168  7.0223   2
 -10   1   2 14.0887 13.9515   1
  10   1  -2 16.7465  8.8213   3
   9  -1  -2 89.7608  7.8195   2
   9  -1  -2 106.421  14.983   3
   9   1  -2 80.4613 10.2919   3
  -9   1   2 78.5274 12.0933   1
   8  -1  -2 177.117  14.169   3
   8  -1  -2 208.307  12.634   2
   8   1  -2 149.752  11.623   2
  -8   1   2 175.896  12.217   1
   8   1  -2 149.981  10.227   3
   7  -1  -2 18.7084  8.1293   2
   7  -1  -2 24.3890 10.0530   3
  -7  -1   2 22.3120  7.6964   1
   7   1  -2 16.6459  8.3539   2
  -7   1   2 14.2124  8.5686   1
   7   1  -2 22.0602  4.7679   3
  -6  -1   2 524.635  18.125   1
   6  -1  -2 556.752  22.024   3
   6  -1  -2 558.497  19.560   2
  -6   1   2 535.668  19.295   1
   6   1  -2 565.293  19.835   2
   6   1  -2 581.933  19.955   3
  -5  -1   2 405.929  13.764   1
   5  -1  -2 399.391  15.261   2
   5  -1  -2 417.922  17.238   3
   5   1  -2 441.299  15.551   3
   5   1  -2 422.822  15.639   2
  -5   1   2 391.436  15.641   1
   4  -1  -2 393.956  15.567   3
   4  -1  -2 411.159  14.498   2
   4   1  -2 409.275  15.051   3
   4   1  -2 411.956  14.485   2
  -4   1   2 391.026  14.737   1
   3  -1  -2 2673.65   82.43   3
   3  -1  -2 2673.11   76.50   2
   3   1  -2 2553.15   76.37   2
  -3   1   2 2636.81   72.72   1
   2  -1  -2 7748.04  245.80   3
   2  -1  -2 7802.85  227.07   2
  -2   1   2 7965.59  209.56   4
   2   1  -2 8094.47  227.07   2
  -2   1   2 8011.21  215.24   1
   1  -1  -2 2208.81   61.99   1
   1  -1  -2 2256.88   65.28   2
   1   1  -2 2301.48   65.35   2
   0  -1  -2 5812.08  161.61   1
   0  -1  -2 5967.31  170.58   2
   0  -1   2 5904.60  185.00   3
   0   1  -2 5993.46  170.77   2
   0   1  -2 6084.43  161.54   1
  -1  -1  -2 1811.03   48.72   1
   1  -1   2 1719.38   55.78   3
  -1   1  -2 1762.61   48.75   1
   1   1   2 1779.40   55.40   3
   2  -1   2 706.752  23.797   3
  -2  -1  -2 701.474  20.840   1
   2   1   2 717.916  23.135   3
  -2   1  -2 713.400  20.946   1
   3  -1   2 164.462   9.516   3
  -3  -1  -2 160.576   8.338   1
  -3   1  -2 154.782   8.620   1
   3   1   2 161.488   7.074   3
   4  -1   2 2006.72   63.17   3
  -4  -1  -2 1995.65   55.13   1
  -4   1  -2 2020.85   55.49   1
   4   1   2 1885.67   62.71   3
  -5  -1  -2 314.905  13.021   1
   5  -1   2 289.863  15.109   3
   5   1   2 299.800  13.009   3
  -5   1  -2 304.432  13.560   1
  -6  -1  -2 205.808  12.272   1
   6  -1   2 218.121  14.897   3
  -6   1  -2 227.584  13.175   1
   6   1   2 200.269  10.429   3
  -7  -1  -2 372.372  16.509   1
   7  -1   2 350.092  19.445   3
   7   1   2 355.656  15.469   3
  -7   1  -2 366.124  17.301   1
   8  -1   2 -6.6084 12.8542   3
  -8  -1  -2  8.0823 10.1379   1
   8   1   2 -18.006  10.742   3
  -8   1  -2  5.6019 11.1378   1
  -9  -1  -2 97.0791 13.2276   1
   9  -1   2 95.7565 15.9309   3
   9   1   2 79.6634 14.9153   3
  -9   1  -2 62.1524 12.5533   1
  10  -1   2 488.921  26.842   3
 -10  -1  -2 451.326  23.365   1
 -10   1  -2 446.773  22.849   1
  10   1   2 466.620  26.249   3
  11  -1   2 19.1035 19.0839   3
 -11   1  -2 45.1321 15.4980   1
  11   1   2 45.0326 18.2698   3
  12  -1   2 -8.8290 21.4749   3
 -12   1  -2  0.5847 16.8463   1
  12   1   2 14.9913 20.4186   3
  13  -1   2 27.0772 25.2019   3
 -13   1  -2  5.4244 21.0814   1
  13   1   2 45.9413 23.8171   3
 -12   2   2 10.1647 20.3717   1
  12   2  -2 -36.201  11.015   3
  11   2  -2 27.6803 11.9124   3
 -11   2   2 -0.7453 16.5708   1
 -10   2   2 59.8771 16.7452   1
  10   2  -2 27.5791  8.4956   3
   9  -2  -2 57.2890 16.0666   3
  -9   2   2 53.5226 13.8122   1
   9   2  -2 55.9387  7.8151   3
   8  -2  -2 244.740  16.848   3
   8   2  -2 233.511  12.590   3
  -8   2   2 248.192  15.365   1
   7  -2  -2 78.9093 11.4228   3
   7   2  -2 77.6195  7.5863   3
  -7   2   2 80.4058 10.6176   1
   7   2  -2 86.1298 10.1994   2
   6  -2  -2 58.4934  5.8351   2
   6  -2  -2 75.6568  9.5849   3
  -6   2   2 65.9784  9.6637   1
   6   2  -2 57.8916  8.4315   2
   6   2  -2 73.8006  6.6277   3
   5  -2  -2 25.9500  7.5785   3
   5   2  -2 32.4246  6.6738   2
  -5   2   2 29.1614  7.6633   1
   5   2  -2 29.4760  5.1195   3
   4  -2  -2 1332.80   43.35   3
  -4   2   2 1318.61   39.42   1
   4   2  -2 1344.06   40.20   2
   3  -2  -2 62.5454  6.3401   3
  -3   2   2 75.8428  7.2735   1
   3   2  -2 93.2727  6.2596   2
  -3   2   2 62.8467  6.5537   4
   2  -2  -2 1570.13   50.37   3
  -2   2   2 1545.91   43.54   4
  -2   2   2 1574.52   44.92   1
   2   2  -2 1598.40   46.73   2
   1  -2  -2 909.833  27.356   1
   1   2  -2 949.643  28.900   2
   1   2  -2 937.185  26.428   1
   0  -2  -2 170.821   9.001   1
   0   2  -2 167.268   9.659   2
   0   2  -2 187.498   8.369   1
   1  -2   2 406.858  16.748   3
  -1  -2  -2 410.274  13.830   1
  -1   2  -2 404.206  13.673   1
   2  -2   2 10.9254  6.1323   3
  -2  -2  -2 6.60395 4.68000   1
  -2   2  -2 18.5771  5.1144   1
   3  -2   2 441.179  17.980   3
  -3  -2  -2 448.728  14.956   1
   3   2   2 454.540  16.082   3
  -3   2  -2 442.992  15.805   1
   3   2   2 437.638  15.144   2
   4  -2   2 221.661  13.020   3
  -4  -2  -2 206.383  10.329   1
   4   2   2 209.508   9.426   2
   4   2   2 212.821   9.741   3
  -4   2  -2 207.814  11.661   1
   5  -2   2 88.1126  9.9937   3
  -5  -2  -2 85.3201  7.6350   1
   5   2   2 79.5097  6.1180   3
  -5   2  -2 76.1739  8.7182   1
  -6  -2  -2 213.333  13.436   1
   6  -2   2 234.607  15.741   3
  -6   2  -2 245.826  13.946   1
   6   2   2 237.116  10.957   3
   7  -2   2 276.993  18.531   3
  -7  -2  -2 306.615  15.320   1
  -7   2  -2 293.002  16.343   1
   7   2   2 277.040  13.150   3
   8  -2   2 201.918  16.299   3
  -8  -2  -2 226.344  13.686   1
   8   2   2 201.620  14.464   3
  -8   2  -2 209.544  14.961   1
   9  -2   2 39.9271 15.6546   3
  -9   2  -2 22.5510 13.9852   1
   9   2   2 27.0915  8.5484   3
  10  -2   2 -5.9312 17.1150   3
 -10   2  -2 -1.8272 16.0306   1
  10   2   2 -0.0940  9.4618   3
  11  -2   2  2.5760 19.2040   3
 -11   2  -2 10.3083 17.8802   1
  11   2   2 -12.004  18.374   3
  12  -2   2 16.2399 22.2825   3
 -12   2  -2 -1.3419 19.8427   1
  12   2   2 -4.2374 22.4587   3
 -11   3   2 19.8748 21.0497   1
  11   3  -2 60.9785 10.1721   3
 -10   3   2  1.5622 17.1430   1
  10   3  -2 -11.023   8.132   3
   9   3  -2 4.29798 8.09101   3
  -9   3   2 -16.367  15.027   1
   8   3  -2 91.3587  9.8326   3
  -8   3   2 89.7024 14.1993   1
  -7   3   2 63.7893 12.5852   1
   7   3  -2 72.5247 10.9914   2
   7   3  -2 45.8449  7.7513   3
   6  -3  -2 77.7882 11.6724   3
   6   3  -2 88.1385  9.8790   2
  -6   3   2 70.2386 11.1707   1
   6   3  -2 67.6724  7.6524   3
   5  -3  -2 152.585  12.193   3
  -5   3   2 159.940  11.980   1
   5   3  -2 157.394  10.034   2
   4  -3  -2 167.177  11.851   3
  -4   3   2 156.483  11.543   1
   4   3  -2 177.421   9.889   2
   3  -3  -2 344.596  18.059   3
  -3   3   2 364.241  15.879   1
   3   3  -2 324.499  14.605   2
  -2   3   2 24.1118  7.9405   1
   2   3  -2 20.5915  5.1903   1
   2   3  -2 18.6709  6.8230   2
  -2   3   2 28.9527  7.0240   4
   1   3  -2 847.970  27.672   2
  -1   3   2 838.735  27.316   1
   1   3  -2 850.965  25.170   1
  -1   3   2 820.701  25.743   4
   0  -3  -2 72.4480  7.3419   1
   0   3  -2 72.2729  8.1542   2
   0   3  -2 68.7169  6.4353   1
  -1  -3  -2 226.124  12.249   1
  -1   3  -2 250.673  12.371   1
   2  -3   2 1503.99   50.29   3
  -2  -3  -2 1490.72   43.19   1
  -2   3  -2 1499.28   43.37   1
   3  -3   2 262.851  17.174   3
  -3  -3  -2 278.436  13.167   1
  -3   3  -2 283.990  14.364   1
   4  -3   2 159.579  12.636   3
  -4  -3  -2 165.135   9.319   1
  -4   3  -2 173.428  11.132   1
   4   3   2 142.002  10.136   3
   4   3   2 148.792   9.200   2
  -5  -3  -2 211.069  12.867   1
   5  -3   2 251.163  14.825   3
   5   3   2 210.750  11.748   3
  -5   3  -2 229.509  13.206   1
   6  -3   2 188.905  15.024   3
  -6  -3  -2 158.275  10.603   1
   6   3   2 159.677  10.361   3
  -6   3  -2 155.304  12.659   1
   7  -3   2 74.8472 14.2210   3
  -7   3  -2 62.5003 12.9691   1
   7   3   2 64.7000  7.8465   3
   8  -3   2 334.119  22.945   3
  -8   3  -2 348.823  21.398   1
   8   3   2 341.757  15.851   3
   9  -3   2  5.0209 17.2764   3
  -9   3  -2 29.0892 16.7543   1
   9   3   2 33.6984  8.4263   3
  10  -3   2 23.5718 20.0838   3
 -10   3  -2 19.2635 18.6238   1
  10   3   2 30.2017 12.3915   3
  11  -3   2 15.2708 22.7143   3
 -11   3  -2 22.9664 21.5863   1
  11   3   2  5.2544 11.5534   3
 -10   4   2 22.6941 20.1593   1
  10   4  -2 0.38738 9.38169   3
   9   4  -2 73.9062 10.6240   3
  -9   4   2 64.9639 18.8646   1
   8   4  -2 35.8964  9.2317   3
  -8   4   2 19.9986 15.3299   1
  -7   4   2 31.2159 14.5417   1
   7   4  -2 12.5222  8.8602   3
  -6   4   2 129.473  14.179   1
   6   4  -2 147.397  12.658   2
   5   4  -2 9.36981 9.55857   2
  -5   4   2 -21.415  10.933   1
   4   4  -2 497.093  20.765   2
  -4   4   2 502.271  22.716   1
   3   4  -2 225.888  15.116   2
  -3   4   2 232.789  14.304   1
  -2   4   2 130.212  10.842   4
   2   4  -2 115.349  11.247   2
  -2   4   2 118.711  11.598   1
  -1   4   2 113.225  11.199   1
  -1   4   2 115.988  10.625   4
   1   4  -2 111.001  11.572   2
   0   4  -2 92.3740 11.2429   2
   0   4  -2 79.6532  8.6370   1
   0   4   2 92.8006 10.5506   1
   0   4   2 74.8363  8.9468   4
  -1  -4  -2 484.623  19.612   1
  -1   4  -2 466.191  19.368   1
  -2  -4  -2 123.425  10.614   1
  -2   4  -2 130.944  10.684   1
   3  -4   2 53.9524 14.7043   3
  -3  -4  -2 58.6203 10.0784   1
  -3   4  -2 55.7792  9.9420   1
   3   4   2 69.1652 10.0370   2
   4  -4   2 37.8547 15.1072   3
  -4  -4  -2 17.2662  9.6335   1
   4   4   2 30.7735  9.6544   2
  -4   4  -2 28.1446 11.0515   1
   4   4   2 30.1966  7.2436   3
   5  -4   2 14.2068 15.3537   3
  -5   4  -2 -2.4892 11.4404   1
   5   4   2 8.36613 6.71960   3
   6  -4   2 -1.3750 16.0365   3
  -6   4  -2  6.5572 13.2176   1
   6   4   2 19.8342  7.8932   3
   7  -4   2 114.436  18.771   3
  -7   4  -2 83.1819 14.8121   1
   7   4   2 107.869   9.906   3
   8  -4   2 79.0307 20.3236   3
  -8   4  -2 40.5198 17.6678   1
   8   4   2 73.0198  9.8345   3
   9  -4   2  0.1424 20.9600   3
   9   4   2 -15.620   7.757   3
  -9   4  -2 -22.353  18.739   1
  10  -4   2 -22.789  23.435   3
 -10   4  -2  6.9804 22.8428   1
  10   4   2 -10.250   9.703   3
   8   5  -2 75.9650 11.5141   3
  -8   5   2 64.8907 19.6261   1
   7   5  -2 23.5030 11.0726   3
  -7   5   2 33.0101 17.5463   1
  -6   5   2 35.1414 16.2521   1
  -5   5   2 51.8333 15.3168   1
   5   5  -2 33.5577 13.1437   2
   4   5  -2 20.3671 12.7077   2
  -4   5   2 -1.8947 13.5271   1
  -3   5   2 89.3705 14.5899   1
   3   5  -2 109.887  13.945   2
   2   5  -2 -3.0539 12.3451   2
  -2   5   2 -9.0370 12.4501   1
   1   5  -2 145.919  15.375   2
  -1   5   2 145.094  14.185   1
   0   5   2 13.7178 11.2493   4
   0   5  -2 18.9067 13.3710   2
   0   5   2 36.9114 12.5953   1
  -1   5  -2 99.0502 15.2869   2
   1   5   2 99.3836 11.7176   4
   1   5   2 99.0237 13.6349   1
  -2   5  -2 20.2928 11.6665   1
   2   5   2 22.9440 10.9915   4
   2   5   2 27.4187 12.9607   1
  -3   5  -2 127.355  14.354   1
   3   5   2 179.484  15.531   2
  -4   5  -2 25.4182 14.1932   1
   4   5   2 -6.0670  8.3855   3
   5  -5   2 -1.9495 22.0269   3
   5   5   2 21.5041 10.6192   3
  -5   5  -2 12.9121 14.7702   1
   6  -5   2 -6.6212 22.3853   3
  -6   5  -2  6.4897 16.5345   1
   6   5   2 -29.013   9.170   3
   7  -5   2 11.0244 23.7475   3
  -7   5  -2  8.0580 17.4308   1
   7   5   2 11.6301  9.7736   3
   8  -5   2 -7.1106 25.4352   3
  -8   5  -2  4.5682 21.1888   1
   8   5   2  1.2925 10.4045   3
  -5   6   2 35.2674 19.4941   1
   4   6  -2 -9.3887 16.6714   2
  -4   6   2 25.8930 18.6257   1
   3   6  -2 19.1288 16.8005   2
  -3   6   2 23.3240 17.4890   1
  -2   6   2 68.1267 17.4407   1
   2   6  -2 88.0485 17.8995   2
   1   6  -2 10.6219 17.2229   2
  -1   6   2 32.6895 16.9328   1
   0   6  -2 15.2859 18.1031   2
  -1   6  -2  0.3901 18.0882   2
   2   6   2 11.1049 18.1027   2
  -2   6  -2  9.3355 19.0661   2
   4   6   2 64.8634 12.2918   3
  -4   6  -2 33.5524 18.7187   1
  -5   6  -2 18.8854 19.8766   1
   5   6   2 -12.113  13.809   3
  12   0  -3 565.668  33.583   3
  11   0  -3 43.2073 17.7984   3
  10   0  -3 179.346  17.899   3
  10   0  -3 91.1147 16.8839   2
   9   0  -3 14.5191 13.5332   3
   9   0  -3 -9.2861 11.0340   2
  -8   0   3 93.7473 10.3248   1
   8   0  -3 107.011  10.180   3
   8   0  -3 81.9961 10.6689   2
   7   0  -3 511.234  18.982   2
  -7   0   3 481.863  17.986   1
   7   0  -3 477.528  18.383   3
   6   0  -3 35.0574  5.8512   3
   6   0  -3 74.8526  7.7075   2
  -6   0   3 79.4935  7.2328   1
   5   0  -3 4.97591 6.11704   2
   5   0  -3 9.61537 3.27193   3
  -5   0   3 7.36519 5.06449   1
   4   0  -3 1398.82   41.34   2
  -4   0   3 1421.56   38.84   1
   4   0  -3 1322.98   43.88   3
  -3   0   3 1311.08   36.57   1
   3   0  -3 1314.99   39.03   2
  -3   0   3 1283.29   35.51   4
   3   0  -3 1319.58   41.39   3
   2   0  -3 69.7596  3.8249   1
   2   0  -3 69.1320  5.1227   2
   1   0  -3 1010.86   28.88   1
   1   0  -3 1071.00   31.01   2
   0   0  -3 906.529  25.849   1
   0   0  -3 935.447  27.280   2
   0   0   3 908.264  29.133   3
   1   0   3 1032.86   32.97   3
  -1   0  -3 1030.12   30.36   2
  -1   0  -3 1028.52   29.18   1
  -2   0  -3 15.4235  4.0189   1
   2   0   3 24.0489  4.5782   3
  -3   0  -3 1316.89   37.48   1
   3   0   3 1320.38   42.67   3
   4   0   3 228.523  12.258   3
  -4   0  -3 241.725  10.918   1
   5   0   3 39.6420  7.8411   3
  -5   0  -3 33.4930  7.0731   1
   6   0   3 13.9808  8.6835   3
  -6   0  -3 23.9555  8.1271   1
  -7   0  -3 11.9368  9.2934   1
   7   0   3 1.65464 9.88177   3
   8   0   3 218.703  15.453   3
  -8   0  -3 197.115  13.645   1
  -9   0  -3 276.511  16.629   1
   9   0   3 292.878  20.850   3
 -10   0  -3 435.462  22.543   1
  10   0   3 484.257  26.098   3
 -11   0  -3 28.3195 15.8172   1
  11   0   3 50.2320 18.6525   3
  12   0   3 46.9861 21.3457   3
 -12   0  -3 62.2319 18.9069   1
 -13   0  -3 13.7101 22.3980   1
  13   0   3 -17.725  24.407   3
  13   1  -3 37.7195 25.6466   3
  12   1  -3 55.5902 21.3610   3
  11   1  -3 149.884  13.566   3
  10  -1  -3 80.6206 10.7836   2
  10  -1  -3 59.8546 16.6691   3
 -10   1   3 62.4165 14.3000   1
  10   1  -3 76.8622 10.2833   3
   9  -1  -3 135.900  15.733   3
   9  -1  -3 171.712  13.727   2
   9   1  -3 143.845  13.159   2
  -9   1   3 140.145  13.508   1
   9   1  -3 153.666  11.812   3
   8  -1  -3 212.978  15.036   3
   8  -1  -3 207.243  13.264   2
  -8   1   3 206.864  13.115   1
   8   1  -3 206.634  10.831   3
   8   1  -3 170.291  12.989   2
   7  -1  -3 25.0268 10.0789   3
   7  -1  -3 33.2398  9.0616   2
   7   1  -3 14.7975  8.9358   2
   7   1  -3 22.7963  5.4228   3
  -7   1   3 35.9692  8.9864   1
   6  -1  -3 181.054  11.343   2
   6  -1  -3 158.982  11.019   3
  -6   1   3 179.629  10.442   1
   6   1  -3 178.108  10.527   2
   6   1  -3 172.107   9.079   3
   5  -1  -3 620.243  22.964   2
   5  -1  -3 660.488  23.918   3
  -5   1   3 678.690  21.788   1
   5   1  -3 668.010  22.988   3
   5   1  -3 710.709  22.397   2
   4  -1  -3 825.231  28.600   3
  -4   1   3 864.776  26.032   1
   4   1  -3 884.364  26.898   2
   3  -1  -3 1204.05   38.38   3
  -3   1   3 1158.80   33.52   4
  -3   1   3 1229.54   34.82   1
   3   1  -3 1232.22   36.27   2
   2  -1  -3 1981.12   55.39   1
   2   1  -3 2017.30   58.41   2
   1  -1  -3 638.275  17.970   1
   1  -1  -3 536.805  19.049   2
   1   1  -3 628.476  18.838   2
   0  -1   3 4979.00  156.49   3
   0  -1  -3 4955.43  136.75   1
   0  -1  -3 5176.38  144.24   2
   0   1  -3 5029.72  144.44   2
   0   1  -3 4985.37  136.51   1
  -1  -1  -3 92.6130  4.5937   2
  -1  -1  -3 85.1662  5.1604   1
   1  -1   3 109.279   7.398   3
   1   1   3 105.433   4.712   3
  -1   1  -3 101.638   6.865   2
  -1   1  -3 100.116   5.228   1
  -2  -1  -3 4943.36  136.27   1
   2  -1   3 4869.75  155.75   3
  -2   1  -3 4890.50  143.76   2
  -2   1  -3 4908.66  136.39   1
   2   1   3 5377.83  155.60   3
  -3  -1  -3 244.169  10.648   1
   3  -1   3 263.386  12.043   3
  -3   1  -3 262.056  11.163   1
   4  -1   3 1253.97   41.38   3
  -4  -1  -3 1228.58   36.28   1
   4   1   3 1280.14   40.74   3
  -4   1  -3 1246.99   36.65   1
   5  -1   3 328.895  15.701   3
  -5  -1  -3 322.408  13.777   1
   5   1   3 334.267  13.470   3
  -5   1  -3 340.801  14.880   1
   6  -1   3 125.790  11.627   3
  -6  -1  -3 141.717   9.949   1
  -6   1  -3 125.652  10.125   1
   6   1   3 125.651   9.353   3
  -7  -1  -3 264.963  15.257   1
   7  -1   3 254.421  17.531   3
  -7   1  -3 263.001  15.157   1
   7   1   3 246.400  16.434   3
   8  -1   3 184.829  16.240   3
  -8  -1  -3 198.066  13.455   1
   8   1   3 200.207  15.508   3
  -8   1  -3 169.329  13.382   1
  -9  -1  -3 165.308  14.892   1
   9  -1   3 156.773  17.403   3
  -9   1  -3 181.321  14.384   1
   9   1   3 142.235  16.707   3
  10  -1   3 23.7079 16.9670   3
 -10  -1  -3 44.6406 15.1793   1
 -10   1  -3 44.9546 13.4509   1
  10   1   3 37.0704 16.2570   3
  11  -1   3 13.0050 19.4177   3
 -11  -1  -3  8.9472 17.0351   1
 -11   1  -3 10.0410 15.9423   1
  11   1   3 -7.0962 17.8534   3
  12  -1   3 13.0326 21.9500   3
  12   1   3 10.2210 20.0910   3
 -12   1  -3 13.5134 18.3713   1
  13  -1   3 19.9394 24.9496   3
 -13   1  -3 -13.118  21.886   1
  12   2  -3 40.1141 12.5610   3
 -12   2   3 26.8671 20.9293   1
 -11   2   3 45.9051 18.4898   1
  11   2  -3 24.6838 11.2329   3
 -10   2   3 45.4727 15.7426   1
  10   2  -3 49.1997  8.9517   3
   9  -2  -3 12.3860  6.4576   2
   9   2  -3 -10.822   6.464   3
  -9   2   3 10.4190 13.6233   1
   8  -2  -3 571.620  20.000   2
  -8   2   3 549.310  23.401   1
   8   2  -3 587.183  23.715   2
   8   2  -3 593.872  22.275   3
   7  -2  -3 9.48726 5.03310   2
   7  -2  -3  9.3140 10.6943   3
   7   2  -3 30.5666  6.7241   3
   7   2  -3 19.7774  9.9375   2
  -7   2   3 18.2428 10.5553   1
   6  -2  -3 -6.7516  4.1500   2
   6  -2  -3 13.8287  8.6721   3
   6   2  -3 19.2171  5.8978   3
   6   2  -3 13.0144  8.1797   2
  -6   2   3 1.27176 9.11598   1
   5  -2  -3 191.116   8.688   2
   5  -2  -3 195.934  12.935   3
   5   2  -3 197.555  12.027   2
  -5   2   3 220.870  11.502   1
   4  -2  -3 2287.28   66.85   2
   4  -2  -3 2274.63   71.89   3
   4   2  -3 2299.15   66.99   2
  -4   2   3 2228.09   64.19   1
   3  -2  -3 2937.53   82.65   2
   3  -2  -3 2860.69   88.83   3
  -3   2   3 2734.47   76.61   4
   3   2  -3 2854.71   82.56   2
  -3   2   3 2768.55   78.92   1
   2  -2  -3 85.8467  5.2246   2
   2  -2  -3 77.7467  6.6880   1
   2   2  -3 101.383   6.719   2
   1  -2  -3 185.142   9.827   1
   1   2  -3 188.956   9.640   2
   0  -2   3 458.888  18.469   3
   0  -2  -3 449.519  15.103   1
   0   2  -3 441.090  16.079   2
   0   2  -3 459.701  14.530   1
  -1  -2  -3 1037.16   30.69   1
   1  -2   3 1030.57   35.39   3
  -1   2  -3 1073.06   30.42   1
  -1   2  -3 1078.65   32.67   2
  -2  -2  -3 243.884  10.905   1
   2  -2   3 235.362  12.952   3
  -2   2  -3 267.843  11.827   1
   2   2   3 245.597   9.959   3
   3  -2   3 143.745   9.765   3
  -3   2  -3 125.080   7.835   1
   3   2   3 135.625   7.055   3
   4  -2   3 121.889   9.748   3
  -4  -2  -3 107.480   7.456   1
   4   2   3 98.4511  6.7350   3
  -4   2  -3 94.0726  7.8558   1
  -5  -2  -3 414.865  16.044   1
   5  -2   3 418.471  18.995   3
   5   2   3 400.659  15.459   3
  -5   2  -3 410.717  16.728   1
   6  -2   3 1200.12   42.91   3
  -6  -2  -3 1264.21   37.41   1
   6   2   3 1284.71   41.47   3
  -6   2  -3 1211.86   38.20   1
  -7  -2  -3 92.0911 10.8473   1
   7  -2   3 61.1866 12.4177   3
   7   2   3 69.9387  9.2791   3
  -7   2  -3 80.9895 11.8396   1
  -8  -2  -3 187.889  13.497   1
   8  -2   3 153.387  15.803   3
   8   2   3 158.363  11.828   3
  -8   2  -3 166.356  15.218   1
   9  -2   3 21.2913 15.1751   3
  -9  -2  -3 28.0089 13.2221   1
  -9   2  -3 17.1344 14.1749   1
   9   2   3 29.6102  8.9189   3
  10  -2   3 16.3673 17.2421   3
  10   2   3 -4.5216 15.7929   3
 -10   2  -3  6.7228 15.7298   1
  11  -2   3 27.0775 19.8395   3
  11   2   3 37.0584 20.2791   3
 -11   2  -3 45.4278 18.0154   1
  12  -2   3 28.1834 22.3987   3
  12   2   3 -1.7844 23.2812   3
 -12   2  -3 13.7504 19.8726   1
  11   3  -3 18.1521  9.8188   3
 -11   3   3  8.3639 19.3968   1
  10   3  -3 -17.655   8.425   3
 -10   3   3  6.5481 17.4519   1
   9   3  -3 50.7816  8.6261   3
  -9   3   3 53.5702 16.1588   1
   8   3  -3 9.03935 7.59495   3
  -8   3   3 21.5692 13.7095   1
  -7   3   3 76.2120 12.8530   1
   7   3  -3 68.8444  9.0650   3
   7   3  -3 89.1241 11.5964   2
  -6   3   3 114.889  12.579   1
   6   3  -3 158.802  11.638   2
  -5   3   3 35.1907 10.0736   1
   5   3  -3 46.8398  8.6881   2
   4  -3  -3 409.911  19.722   3
  -4   3   3 443.146  18.841   1
   4   3  -3 433.793  17.040   2
   3   3  -3 864.174  28.480   2
  -3   3   3 872.345  28.001   4
  -3   3   3 905.544  28.949   1
  -2   3   3 81.3106  8.1786   4
   2   3  -3 109.018   8.794   2
  -2   3   3 100.227   9.418   1
   1  -3  -3 372.775  15.440   1
   1   3  -3 368.615  15.425   2
   1   3  -3 356.085  13.403   1
   0  -3  -3 482.077  17.828   1
   0   3  -3 497.280  18.784   2
   0   3  -3 493.568  16.961   1
  -1  -3  -3 313.321  13.870   1
   1  -3   3 253.599  18.201   3
  -1   3  -3 309.410  13.520   1
  -1   3  -3 310.400  14.756   2
  -2  -3  -3 151.786   9.322   1
   2  -3   3 159.672  12.579   3
  -2   3  -3 142.956   9.161   1
  -3  -3  -3 58.6424  7.7912   1
   3  -3   3 77.8758 11.3149   3
   3   3   3 53.2713  6.6331   3
  -3   3  -3 56.5161  8.4678   1
   4  -3   3 95.8843 11.7848   3
  -4  -3  -3 95.0520  8.8798   1
  -4   3  -3 74.8736  9.4289   1
   4   3   3 90.6267  8.1920   2
   4   3   3 92.8863  7.4444   3
  -5  -3  -3 184.106  10.678   1
   5  -3   3 189.501  14.277   3
  -5   3  -3 153.975  12.333   1
   5   3   3 162.042   9.815   3
   6  -3   3 57.9174 13.2419   3
  -6  -3  -3 79.4806  9.7477   1
   6   3   3 64.1474  7.4691   3
  -6   3  -3 71.4987 11.2440   1
   7  -3   3 106.493  15.260   3
  -7   3  -3 108.860  14.245   1
   7   3   3 119.638   8.895   3
   8  -3   3 17.4670 15.3240   3
  -8   3  -3  3.7112 14.5541   1
   8   3   3 -4.5682  7.1023   3
   9  -3   3 -4.5500 17.5508   3
  -9   3  -3 11.9034 16.5125   1
   9   3   3  4.6531 11.7024   3
  10  -3   3  0.7626 19.5973   3
 -10   3  -3 19.7123 20.1433   1
  10   3   3 -3.6390 10.0812   3
  11  -3   3 -5.2964 22.6538   3
  11   3   3  0.4775 12.1092   3
 -11   3  -3 29.2538 22.6939   1
 -10   4   3 23.0338 20.5915   1
  10   4  -3 6.65417 9.18933   3
   9   4  -3 -3.3316  9.7688   3
  -9   4   3 14.1730 17.5115   1
   8   4  -3 18.2631  8.4338   3
  -8   4   3  5.4147 16.0820   1
   7   4  -3 85.8153 10.0867   3
  -7   4   3 96.9273 15.3404   1
   7   4  -3 94.0616 13.9890   2
   6   4  -3 78.9662 12.4233   2
  -6   4   3 92.0021 14.1583   1
   5   4  -3 134.174  11.429   2
  -5   4   3 106.469  13.617   1
   4   4  -3 593.146  23.560   2
  -4   4   3 630.224  25.625   1
  -3   4   3 189.825  13.846   1
   3   4  -3 210.774  13.047   2
  -2   4   3 148.645  12.913   1
  -2   4   3 132.126  11.718   4
   2   4  -3 166.518  12.131   2
  -1   4   3 590.960  21.825   4
   1   4  -3 573.909  23.111   2
  -1   4   3 595.015  24.167   1
   0  -4  -3 166.693  12.734   1
   0   4  -3 179.197  10.339   1
   0   4  -3 198.842  13.607   2
  -1  -4  -3 69.9182 10.4469   1
  -1   4  -3 54.4541 11.2944   2
  -1   4  -3 71.7233  9.0783   1
  -2  -4  -3 109.047  11.338   1
  -2   4  -3 100.500  10.301   1
   3  -4   3 244.658  18.204   3
  -3  -4  -3 189.520  12.773   1
   3   4   3 188.552  11.353   3
  -3   4  -3 173.727  12.621   1
  -4  -4  -3 53.1585 10.7724   1
   4  -4   3 70.4546 15.9328   3
  -4   4  -3 45.9619 11.4564   1
   4   4   3 76.5626  8.7069   3
   5  -4   3 26.1281 16.1653   3
  -5   4  -3 14.5391 11.6970   1
   5   4   3 40.7998  8.0950   3
   6  -4   3 26.4059 16.5555   3
   6   4   3 25.5829  7.3774   3
  -6   4  -3 13.9399 13.9153   1
   7  -4   3 32.1117 17.7058   3
  -7   4  -3 44.4025 15.3217   1
   7   4   3 63.5860  9.3574   3
   8  -4   3  4.6164 19.6372   3
   8   4   3 17.0774  7.8083   3
  -8   4  -3 38.9905 17.9870   1
   9  -4   3 33.4162 21.2350   3
  -9   4  -3  0.2437 20.1209   1
   9   4   3 35.6403  9.7270   3
  10  -4   3 -21.386  23.906   3
 -10   4  -3 -13.650  23.402   1
  10   4   3 -11.962  11.636   3
   8   5  -3 -21.205  11.083   3
  -8   5   3  8.8114 19.5589   1
  -7   5   3 79.4635 18.6132   1
   7   5  -3 96.5227 11.4727   3
  -6   5   3 19.6719 16.1519   1
   6   5  -3 10.9859 14.1969   2
  -5   5   3 41.9687 15.4496   1
   5   5  -3 54.0442 13.5677   2
   4   5  -3 65.2455 13.2051   2
  -4   5   3 68.4553 14.9384   1
  -3   5   3 42.8087 13.9590   1
   3   5  -3 59.9767 13.1511   2
  -2   5   3 31.1347 13.3685   1
   2   5  -3 25.1106 12.8021   2
  -1   5   3 101.896  13.496   4
  -1   5   3 99.7220 14.3411   1
   1   5  -3 95.3309 14.2940   2
   0   5   3 11.9671 13.3430   1
   0   5  -3 32.4507 14.1820   2
   0   5   3 31.1939 11.4053   4
  -1   5  -3 48.0470 14.3017   2
   1   5   3 42.8428 12.1477   4
   1   5   3 36.2112 13.9420   1
  -2  -5  -3 24.3359 14.0721   1
  -2   5  -3 40.7013 15.2718   2
  -2   5  -3 22.9611 12.3615   1
  -3   5  -3  3.4850 12.8197   1
   3   5   3 -10.032   7.879   3
   4  -5   3 138.555  22.338   3
  -4   5  -3 51.0419 14.7588   1
   4   5   3 67.0772 10.9860   3
   5  -5   3 19.3317 22.8949   3
  -5   5  -3  5.8614 14.9857   1
   5   5   3 26.9635  9.7552   3
   6  -5   3 23.1291 23.0614   3
  -6   5  -3 21.8981 16.2576   1
   6   5   3 41.1025 10.6055   3
   7  -5   3 56.0642 23.8160   3
  -7   5  -3 43.4885 18.7109   1
   7   5   3 25.4117 10.1539   3
   8  -5   3  9.8839 26.4422   3
   8   5   3 22.6934 10.1519   3
  -8   5  -3  8.5220 21.4498   1
  -5   6   3 31.3451 20.1005   1
   5   6  -3 44.1182 18.2045   2
   4   6  -3 -5.6057 16.5707   2
  -4   6   3 31.2920 18.6177   1
  -3   6   3 13.8580 17.3259   1
   3   6  -3  5.7011 16.6426   2
   2   6  -3 -15.852  16.540   2
  -2   6   3  7.5141 17.7677   1
  -1   6   3 23.8763 17.2566   1
   1   6  -3 19.3093 16.8881   2
   0   6  -3 43.2738 18.1317   2
   0   6   3 30.0698 16.9614   4
   0   6   3 10.8669 17.0701   1
  -1   6  -3 16.0319 18.7486   2
  -2   6  -3 22.6424 19.1186   2
  -3   6  -3 132.544  22.295   2
  -4   6  -3  9.2497 21.3681   2
  -5   6  -3 -4.5497 19.7203   1
  10   0  -4 35.2328 15.9642   3
  10   0  -4 50.5744 14.8301   2
   9   0  -4 78.0399 12.8264   2
   9   0  -4 92.7740 13.9495   3
   8   0  -4 298.159  14.378   3
   8   0  -4 331.168  16.838   2
   7   0  -4 -4.3811  8.3422   2
   7   0  -4 -2.9582  5.3717   3
  -7   0   4 7.59230 7.91743   1
  -6   0   4 411.439  14.797   1
   6   0  -4 371.859  14.620   3
   6   0  -4 392.460  15.971   2
  -5   0   4 119.458   7.437   1
   5   0  -4 121.141   8.610   2
   5   0  -4 111.202   6.236   3
   4   0  -4 226.751   8.875   3
   4   0  -4 224.270  11.090   2
  -4   0   4 221.879  10.110   1
   3   0  -4 -0.7276  2.6993   3
   3   0  -4 -1.3666  5.2469   2
   2   0  -4 42.6738  3.6230   1
   2   0  -4 47.9952  5.2681   2
   1   0  -4 781.421  24.359   2
   1   0  -4 805.467  22.686   1
   0   0   4 36.6827  3.8267   3
   0   0  -4 33.2153  3.8004   1
   0   0  -4 39.0295  4.4657   2
   1   0   4 863.745  26.807   3
  -1   0  -4 801.893  24.839   2
  -1   0  -4 806.172  23.977   1
   2   0   4 3329.73  105.43   3
  -2   0  -4 3410.70   96.99   2
  -2   0  -4 3373.09   92.55   1
   3   0   4 474.168  17.944   3
  -3   0  -4 480.813  16.182   1
   4   0   4 7439.34  228.84   3
  -4   0  -4 7247.59  200.26   1
  -5   0  -4 21.1557  7.0026   1
   5   0   4 20.1932  8.5742   3
  -6   0  -4 19.7504  8.4668   1
   6   0   4 23.0517  9.3176   3
  -7   0  -4 37.5143  9.9496   1
   7   0   4 50.5628 11.4868   3
  -8   0  -4 -9.8740 10.9464   1
   8   0   4 -1.0131 12.3678   3
  -9   0  -4 338.532  19.633   1
   9   0   4 339.698  22.204   3
  10   0   4 216.004  19.562   3
 -10   0  -4 212.874  17.158   1
 -11   0  -4  9.1767 17.0079   1
  11   0   4 -8.5238 18.7037   3
  12   0   4 -5.7692 21.2874   3
 -12   0  -4 -3.6459 19.1520   1
 -13   0  -4 -19.276  22.291   1
  12   1  -4 52.0477 21.0832   3
  11  -1  -4 -3.2534 13.7755   2
  11   1  -4 10.0600 10.4692   3
  10  -1  -4 65.6012 14.6767   2
  10   1  -4 94.3504 11.9344   3
 -10   1   4 100.843  16.674   1
   9  -1  -4  9.1025 12.4493   2
   9   1  -4 14.7559  6.9588   3
  -9   1   4 11.5857 12.4354   1
   9   1  -4 16.8018 12.1177   2
   8  -1  -4 37.7883 12.1262   2
   8  -1  -4 41.5243 12.1424   3
   8   1  -4 42.6159  6.2416   3
  -8   1   4 24.4741 11.1391   1
   8   1  -4 31.4495 10.7847   2
   7  -1  -4 54.4831 12.1108   2
   7  -1  -4 52.7255 10.6682   3
   7   1  -4 65.5288  6.7474   3
  -7   1   4 61.1418  9.8296   1
   7   1  -4 50.8465  9.9354   2
   6  -1  -4 204.330  14.212   3
  -6   1   4 237.921  13.767   1
   6   1  -4 242.744  11.200   3
   6   1  -4 236.172  13.382   2
   5  -1  -4 85.0206  8.2598   2
   5  -1  -4 53.9140  7.6340   3
  -5   1   4 100.195   8.554   1
   5   1  -4 89.7574  6.6623   3
   5   1  -4 78.6878  8.0823   2
   4  -1  -4 48.9951  6.1649   3
   4  -1  -4 59.4542  6.7978   2
  -4   1   4 73.7876  6.4608   4
  -4   1   4 68.4342  7.1177   1
   4   1  -4 57.2172  6.8285   2
   3  -1  -4 515.615  17.611   2
   3   1  -4 524.368  17.755   2
   2  -1  -4 1081.52   32.82   2
   2  -1  -4 1100.21   31.32   1
   2   1  -4 1085.68   32.95   2
   1  -1  -4 307.241  10.811   1
   1  -1  -4 310.529  10.909   2
   1   1  -4 286.836  11.093   2
   1   1  -4 259.230   9.489   1
   0  -1  -4 529.183  16.039   2
   0  -1  -4 512.301  15.643   1
   0  -1   4 494.236  18.070   3
   0   1  -4 482.350  15.184   1
   0   1  -4 486.034  16.408   2
   1  -1   4 69.5422  6.0775   3
  -1  -1  -4 67.5510  5.1342   1
  -1   1  -4 72.8171  5.3150   1
  -1   1  -4 71.7211  5.4541   2
   1   1   4 35.8196  5.0517   3
   2  -1   4 1307.28   42.02   3
  -2  -1  -4 1326.79   36.98   1
  -2   1  -4 1210.70   38.63   2
  -2   1  -4 1346.95   37.00   1
  -3  -1  -4 122.127   7.163   1
   3  -1   4 130.245   8.186   3
   3   1   4 97.0457  7.4999   3
  -3   1  -4 116.932   7.495   1
  -3   1  -4 110.036   7.319   2
  -4  -1  -4 1227.07   35.03   1
   4  -1   4 1148.51   39.48   3
  -4   1  -4 1182.35   36.14   2
  -4   1  -4 1144.67   35.01   1
   4   1   4 1231.63   39.61   3
   5  -1   4 940.150  33.496   3
  -5  -1  -4 944.427  29.353   1
  -5   1  -4 969.770  29.463   1
   5   1   4 956.292  33.396   3
   6  -1   4 316.654  17.197   3
  -6  -1  -4 312.830  14.973   1
   6   1   4 293.662  17.097   3
  -6   1  -4 296.755  15.133   1
   7  -1   4 19.3879 11.7599   3
  -7  -1  -4 19.6926 10.1697   1
  -7   1  -4 9.62001 9.79209   1
   7   1   4 14.5113 11.3233   3
  -8  -1  -4 425.408  20.392   1
   8  -1   4 409.903  22.306   3
   8   1   4 379.505  21.787   3
  -8   1  -4 392.027  19.083   1
  -9  -1  -4 42.6750 14.0650   1
   9  -1   4 53.8840 15.5491   3
  -9   1  -4 42.5272 12.8291   1
   9   1   4 35.6321 14.6689   3
 -10  -1  -4 46.7630 16.0686   1
  10  -1   4 39.2877 17.5339   3
 -10   1  -4 68.7442 15.0449   1
  10   1   4 47.8129 16.8260   3
  11  -1   4 11.7193 19.3000   3
 -11  -1  -4  7.2453 17.8177   1
 -11   1  -4 12.4612 16.5937   1
  11   1   4 13.5073 18.1991   3
  12  -1   4 34.1811 21.8367   3
  12   1   4 -1.2074 21.2321   3
 -12   1  -4 22.4911 19.3796   1
  12   2  -4 -3.0285 13.6665   3
  11  -2  -4 -1.5543  8.3940   2
  11   2  -4 10.8168  9.4210   3
 -11   2   4 18.4806 17.9729   1
 -10   2   4 121.366  17.307   1
  10   2  -4 139.426  11.067   3
   9  -2  -4 -2.8868  6.4662   2
   9   2  -4  5.5082 13.3893   2
  -9   2   4 22.5112 13.7831   1
   9   2  -4 3.75141 7.32588   3
   8  -2  -4 243.376  12.072   2
   8   2  -4 231.613  15.130   2
  -8   2   4 249.094  15.663   1
   8   2  -4 244.464  13.249   3
   7  -2  -4 45.0033  6.8566   2
   7   2  -4 49.6098 10.7905   2
   7   2  -4 49.2963  7.2269   3
  -7   2   4 43.1834 10.9830   1
   6  -2  -4 -0.8208  5.0588   2
  -6   2   4 9.48858 9.26222   1
   6   2  -4 7.79350 8.61963   2
   6   2  -4 17.4781  5.4249   3
   5  -2  -4 798.267  25.097   2
   5   2  -4 771.889  26.391   2
  -5   2   4 779.223  26.094   1
   4  -2  -4 506.302  16.244   2
   4   2  -4 457.053  17.701   2
  -4   2   4 453.923  18.165   1
  -4   2   4 466.550  17.694   4
   3  -2  -4 374.180  12.863   2
  -3   2   4 348.653  14.035   4
  -3   2   4 334.961  15.448   1
   3   2  -4 356.175  14.349   2
   2  -2  -4 88.8191  5.5712   2
   2  -2  -4 95.8246  7.3614   1
   2   2  -4 109.766   7.340   2
   1  -2  -4 855.440  25.476   2
   1  -2  -4 813.048  25.376   1
   1   2  -4 826.483  26.387   2
   0  -2   4 15.6751  7.4769   3
   0  -2  -4 8.74524 5.26089   1
   0   2   4 11.0546  2.9473   3
   0   2  -4 13.6967  5.0086   1
   0   2  -4 18.8846  5.7915   2
   1  -2   4 151.027   9.756   3
  -1  -2  -4 133.221   7.599   1
  -1   2  -4 130.778   8.369   2
  -1   2  -4 134.281   7.361   1
   1   2   4 118.730   6.542   3
   2  -2   4 40.0680  7.7016   3
  -2  -2  -4 28.6088  6.0488   1
  -2   2  -4 44.3331  7.2941   2
   2   2   4 33.4078  3.7586   3
  -2   2  -4 35.7043  6.3315   1
   3  -2   4 237.224  13.853   3
   3   2   4 258.900  10.184   3
  -3   2  -4 250.783  12.695   1
  -3   2  -4 240.083  13.137   2
  -4  -2  -4 94.0773  7.9239   1
   4  -2   4 105.332  10.016   3
   4   2   4 114.741   6.689   3
  -4   2  -4 105.939   9.180   1
   5  -2   4 98.1875 11.1098   3
  -5  -2  -4 88.5517  8.8945   1
   5   2   4 96.5194  6.7500   3
  -5   2  -4 81.0367 10.2250   1
   6  -2   4 296.854  18.671   3
  -6  -2  -4 327.373  16.368   1
  -6   2  -4 332.805  18.108   1
   7  -2   4 69.4057 13.0460   3
  -7  -2  -4 60.9218 11.2436   1
  -7   2  -4 59.1602 12.3043   1
   7   2   4 39.1978  7.3606   3
   8  -2   4 44.3006 14.3619   3
  -8  -2  -4 50.0724 12.3662   1
  -8   2  -4 54.9967 13.2628   1
   8   2   4 37.4957  8.3695   3
  -9  -2  -4 27.0153 13.9735   1
   9  -2   4 26.0699 15.6121   3
   9   2   4 12.7242 14.8731   3
  -9   2  -4 10.4086 14.1239   1
  10  -2   4 60.7915 18.1422   3
 -10   2  -4 69.0775 16.3396   1
  10   2   4 47.4169 18.4509   3
  11  -2   4 -6.1665 19.7307   3
 -11   2  -4 -4.3030 17.5620   1
  11   2   4 -19.867  20.433   3
  12  -2   4  8.0690 22.1662   3
  12   2   4 -9.4126 22.9459   3
 -12   2  -4  0.5209 19.9405   1
  11   3  -4 6.16099 9.26385   3
 -11   3   4 41.5814 20.3685   1
  10   3  -4 16.1544  9.0236   3
 -10   3   4 42.7684 18.0283   1
   9   3  -4 6.82727 8.35604   3
  -9   3   4 -4.6742 15.1473   1
  -8   3   4 -10.824  13.521   1
   8   3  -4  2.4488 12.8951   2
   8   3  -4 -3.7642  7.1843   3
   7   3  -4 70.4633 12.0950   2
  -7   3   4 68.5080 13.2634   1
   7   3  -4 61.0378  8.7842   3
  -6   3   4 286.708  18.099   1
   6   3  -4 280.050  17.176   2
   5   3  -4 1561.39   48.52   2
  -5   3   4 1585.68   47.57   1
  -4   3   4 349.977  17.864   1
   4   3  -4 371.276  16.415   2
  -4   3   4 376.749  17.508   4
  -3   3   4 244.260  13.712   4
   3   3  -4 249.353  13.571   2
  -3   3   4 272.120  15.974   1
   2   3  -4 2.29375 7.01796   2
   1  -3  -4 4.93179 7.27757   1
   1   3  -4 8.35959 5.64045   1
   1   3  -4 6.10797 7.33786   2
   0  -3  -4 196.408  12.670   1
   0   3  -4 196.616  11.303   2
   0   3  -4 209.060   9.521   1
   1  -3   4 10.1887 10.2765   3
  -1  -3  -4 33.4038  7.5795   1
  -1   3  -4 32.2607  6.8177   1
  -1   3  -4 18.1723  8.2564   2
   2  -3   4 294.105  18.157   3
  -2  -3  -4 308.632  14.815   1
  -2   3  -4 306.843  15.928   2
  -2   3  -4 317.179  14.971   1
   2   3   4 342.793  13.368   3
  -3  -3  -4 246.976  13.180   1
   3  -3   4 248.635  16.790   3
  -3   3  -4 251.353  13.848   1
   3   3   4 225.302  11.110   3
  -4  -3  -4 162.614  10.575   1
   4  -3   4 175.587  13.710   3
   4   3   4 146.558   8.841   3
  -4   3  -4 137.645  10.860   1
  -5  -3  -4 64.3592  9.5568   1
   5  -3   4 57.2011 12.2048   3
  -5   3  -4 44.2092 10.6811   1
   5   3   4 55.3867  6.5660   3
  -6  -3  -4 19.5904  9.7396   1
   6  -3   4 25.9462 13.3216   3
  -6   3  -4 27.5043 11.7469   1
   6   3   4 36.8009  6.3374   3
  -7  -3  -4 29.5667 11.5784   1
   7  -3   4 53.2993 14.9004   3
  -7   3  -4 51.9732 13.7608   1
   7   3   4 40.8267  7.7171   3
   8  -3   4 11.3491 15.6362   3
   8   3   4  5.1028 10.4519   3
  -8   3  -4 -0.3600 15.3115   1
   9  -3   4 35.9249 18.3161   3
   9   3   4 33.2001 10.0663   3
  -9   3  -4 62.9565 18.3120   1
  10  -3   4 42.0391 20.2864   3
  10   3   4 39.7021 11.9094   3
 -10   3  -4 83.1253 20.8990   1
  11  -3   4 98.6834 24.1975   3
 -11   3  -4 72.4164 22.2331   1
  11   3   4 40.8537 21.1020   3
 -10   4   4  8.9738 20.6071   1
  10   4  -4 7.31081 9.94079   3
  -9   4   4 23.2775 18.0717   1
   9   4  -4 18.4565 10.2697   3
   8   4  -4 12.5985 10.1713   3
  -8   4   4 18.0162 16.4165   1
   7   4  -4 30.8497 13.8008   2
   7   4  -4 28.5011  8.3607   3
  -7   4   4 51.9301 15.2940   1
   6   4  -4 89.3769 12.9286   2
  -6   4   4 89.7412 14.3526   1
  -5   4   4 77.6161 13.8866   1
   5   4  -4 98.6710 11.8175   2
   4   4  -4 542.145  22.466   2
  -4   4   4 560.644  24.354   1
   3   4  -4 108.952  11.217   2
  -3   4   4 122.413  12.224   4
  -3   4   4 117.780  13.236   1
  -2   4   4 69.7591 10.5299   4
   2   4  -4 83.7600 10.9367   2
  -2   4   4 66.5293 12.2029   1
   1   4  -4 946.947  32.329   2
   0  -4  -4 763.458  27.040   1
   0   4  -4 751.865  27.769   2
  -1  -4  -4 97.2472 11.6019   1
  -1   4  -4 81.2135 12.2005   2
  -1   4  -4 94.1226  9.8489   1
  -2  -4  -4 211.880  14.335   1
   2  -4   4 260.213  19.021   3
   2   4   4 239.539  12.550   3
  -2   4  -4 235.480  15.396   1
  -2   4  -4 264.613  15.865   2
  -3  -4  -4 122.050  12.346   1
   3  -4   4 158.402  17.277   3
  -3   4  -4 97.9157 11.4427   1
   3   4   4 131.904   9.572   3
  -3   4  -4 129.787  14.476   2
  -4  -4  -4 35.1260 11.2039   1
   4  -4   4 47.0117 15.5486   3
   4   4   4 26.5010  7.3778   3
  -4   4  -4 27.6634 11.1589   1
   5  -4   4 100.500  17.862   3
  -5  -4  -4 88.1016 12.5322   1
   5   4   4 106.158   9.089   3
  -5   4  -4 81.3288 12.9622   1
   6  -4   4 78.4086 17.6740   3
  -6   4  -4 95.7153 14.8831   1
   6   4   4 85.0744  9.5383   3
   7  -4   4 39.1140 18.5215   3
   7   4   4 65.2303  8.6912   3
  -7   4  -4 44.1773 16.2955   1
   8  -4   4 11.2613 20.2683   3
  -8   4  -4 60.6326 19.1135   1
   8   4   4 21.4079  8.9689   3
   9  -4   4 17.0200 21.6113   3
   9   4   4 -7.1477 10.2859   3
  -9   4  -4 19.6325 21.3090   1
  10  -4   4 46.1795 24.7988   3
 -10   4  -4 71.5456 26.4933   1
  10   4   4 55.2685 14.9209   3
  -7   5   4 20.0957 18.2941   1
   6   5  -4 29.4871 15.4746   2
  -6   5   4 29.3406 16.4584   1
   5   5  -4 56.0421 13.8302   2
  -5   5   4 53.3044 15.9313   1
  -4   5   4 12.8028 15.1217   1
   4   5  -4 19.5873 12.8279   2
  -3   5   4 27.1163 14.4164   1
   3   5  -4 61.0590 13.4421   2
   2   5  -4 81.2510 13.8697   2
  -2   5   4 85.6734 14.5187   4
  -2   5   4 90.9439 15.0375   1
   1   5  -4 117.275  14.954   2
  -1   5   4 125.283  13.719   4
  -1   5   4 117.796  15.659   1
   0   5   4 281.992  18.586   1
   0   5  -4 251.298  17.997   2
   0   5   4 292.465  16.814   4
  -1  -5  -4 169.960  17.079   1
  -1   5  -4 155.138  16.983   2
  -2  -5  -4  0.4379 14.6229   1
  -2   5  -4 18.9049 14.8762   2
  -3  -5  -4 28.2432 14.8234   1
  -3   5  -4 26.1997 13.1250   1
  -3   5  -4 44.0812 16.6673   2
   4  -5   4 16.1297 22.3647   3
   4   5   4 -0.6945  8.9005   3
  -4   5  -4 -14.552  14.674   1
  -4   5  -4 33.5631 17.3482   2
   5  -5   4 -11.894  22.756   3
   5   5   4 18.7473  9.6624   3
  -5   5  -4  6.2889 15.1279   1
   6  -5   4 19.3513 23.0884   3
   6   5   4 20.1991 10.0446   3
  -6   5  -4 26.7943 17.2226   1
   7  -5   4 15.9386 24.0135   3
  -7   5  -4  2.5292 20.2892   1
   7   5   4 36.6287 10.5657   3
   8  -5   4 44.8737 27.4230   3
   8   5   4 92.5240 12.0085   3
  -8   5  -4 30.5667 22.8806   1
  -4   6   4 31.7729 19.4667   1
   4   6  -4 23.7016 17.4271   2
   3   6  -4 18.4797 17.2057   2
  -3   6   4  2.0254 18.9176   1
   2   6  -4 68.2857 17.9836   2
  -2   6   4 40.2739 18.1457   1
   1   6  -4 35.2175 17.8386   2
  -1   6   4 27.9923 18.2804   1
  -1   6   4 54.2884 18.3887   4
   0   6   4 40.5375 19.1875   1
   0   6   4 50.8800 18.2124   4
   0   6  -4 60.4880 17.9787   2
   1   6   4 28.3438 18.8971   1
   1   6   4 41.9738 16.1544   4
  -1   6  -4 42.7643 18.7725   2
  -2   6  -4 40.9465 20.1463   2
  -3   6  -4 63.2981 21.5553   2
  -4   6  -4 -0.1157 21.9011   2
  11   0  -5 -2.1727 18.7814   2
  10   0  -5 294.215  18.851   2
   9   0  -5 17.2549 12.2161   2
   9   0  -5 52.8250 11.7091   3
   8   0  -5 595.673  23.181   2
   8   0  -5 560.593  21.485   3
   7   0  -5 73.1960 10.2279   2
   7   0  -5 46.0847  7.4167   3
  -7   0   5 71.1715  9.1180   1
  -6   0   5 46.8947  7.5710   1
   6   0  -5 40.5576  9.0481   2
   6   0  -5 32.5207  4.6302   3
   5   0  -5 -5.7416  7.3645   2
   5   0  -5 -3.5190  3.3876   3
  -5   0   5 2.62518 6.57596   1
   4   0  -5 142.156   8.791   2
   4   0  -5 90.4823  6.2666   3
  -4   0   5 124.636   7.351   1
  -4   0   5 108.918   6.381   4
   3   0  -5 457.745  16.752   2
   3   0  -5 465.191  14.816   1
   2   0  -5 1138.76   32.59   1
   2   0  -5 1175.22   35.16   2
   1   0  -5 2181.66   64.17   2
   1   0  -5 2201.07   60.33   1
   0   0  -5 395.361  13.718   2
   0   0   5 370.672  13.594   3
   0   0  -5 370.392  12.791   1
  -1   0  -5 153.668   8.480   1
  -1   0  -5 164.044   8.209   2
   1   0   5 155.679   8.587   3
  -2   0  -5 224.314  10.198   1
   2   0   5 220.357  10.749   3
  -2   0  -5 234.059   9.574   2
  -3   0  -5 112.914   7.692   1
   3   0   5 103.514   8.433   3
   4   0   5 -2.0131  8.0195   3
  -4   0  -5 -0.5135  6.7923   1
  -5   0  -5 25.5211  8.2265   1
   5   0   5 13.5946  9.1297   3
  -6   0  -5 9.49885 9.09726   1
   6   0   5  6.7570 10.1999   3
   7   0   5 684.715  28.366   3
  -7   0  -5 700.757  25.437   1
  -8   0  -5  2.9651 12.1096   1
   8   0   5 -11.366  13.342   3
   9   0   5 -1.1744 15.0212   3
  -9   0  -5 -18.151  13.434   1
 -10   0  -5 65.4852 15.8814   1
  10   0   5 78.7158 18.2966   3
 -11   0  -5 26.3144 17.3802   1
  11   0   5 24.0639 20.0715   3
  12   0   5 15.5539 22.6369   3
 -12   0  -5  4.1023 19.9103   1
  11  -1  -5 28.5067 17.1019   2
  11   1  -5 25.8883 10.8498   3
  10  -1  -5  8.7124 15.0895   2
  10   1  -5 13.1699 14.3273   2
  10   1  -5 -5.5208 10.4937   3
   9  -1  -5 152.331  16.092   2
  -9   1   5 127.633  14.672   1
   9   1  -5 145.667  14.744   2
   9   1  -5 147.492  10.338   3
   8  -1  -5 83.6453 14.6489   2
  -8   1   5 100.046  12.500   1
   8   1  -5 107.232   8.375   3
   8   1  -5 82.4106 12.4505   2
   7  -1  -5 52.6637 11.4540   2
  -7   1   5 55.8633 10.2521   1
   7   1  -5 60.3692 10.8064   2
   7   1  -5 53.0454  6.5156   3
   6  -1  -5 276.576  14.076   2
  -6   1   5 244.929  14.549   1
   6   1  -5 259.177  14.267   2
   6   1  -5 238.686  11.543   3
   5  -1  -5 281.164  13.025   2
  -5   1   5 249.819  13.346   1
   5   1  -5 259.692  13.405   2
   5   1  -5 260.485  11.319   3
   4  -1  -5 315.032  13.831   2
   4   1  -5 333.174  14.412   2
  -4   1   5 328.842  12.850   4
  -4   1   5 334.812  14.156   1
   3  -1  -5 1315.90   39.89   2
   3  -1  -5 1309.54   37.84   1
   3   1  -5 1331.62   40.17   2
   2  -1  -5 4753.88  133.94   1
   2  -1  -5 5042.12  141.57   2
   2   1  -5 4921.71  141.69   2
   1  -1  -5 1178.92   35.32   2
   1  -1  -5 1199.83   33.71   1
   1   1  -5 1182.98   35.62   2
   1   1  -5 1140.56   32.99   1
   0  -1  -5 632.242  19.123   1
   0  -1   5 634.243  22.000   3
   0  -1  -5 640.800  19.549   2
   0   1  -5 587.703  18.738   1
   0   1  -5 596.314  20.016   2
  -1  -1  -5 55.6731  4.8245   2
  -1  -1  -5 55.3265  5.7453   1
   1  -1   5 60.2090  6.5863   3
   1   1   5 39.0141  5.6325   3
  -1   1  -5 57.5496  5.7002   2
  -1   1  -5 56.0598  5.7696   1
   2  -1   5 262.077  12.420   3
  -2  -1  -5 295.687  11.750   1
  -2   1  -5 270.690  11.361   1
  -2   1  -5 279.843  11.561   2
   2   1   5 233.723  12.663   3
  -3  -1  -5 971.919  28.922   1
   3  -1   5 965.395  32.596   3
   3   1   5 953.482  32.575   3
  -3   1  -5 955.717  29.101   1
  -3   1  -5 947.692  29.617   2
  -4  -1  -5 147.317   9.115   1
   4  -1   5 150.739  10.181   3
  -4   1  -5 145.972   8.721   2
   4   1   5 137.534  10.495   3
  -4   1  -5 144.424   9.582   1
  -5  -1  -5 543.325  19.954   1
   5  -1   5 552.219  22.199   3
   5   1   5 557.827  22.521   3
  -5   1  -5 528.573  20.059   2
  -5   1  -5 543.279  19.878   1
   6  -1   5 367.503  19.480   3
  -6  -1  -5 350.613  17.142   1
   6   1   5 385.578  18.823   3
  -6   1  -5 359.349  17.190   1
  -7  -1  -5 876.528  29.506   1
   7  -1   5 887.032  33.328   3
   7   1   5 891.439  33.297   3
  -7   1  -5 834.265  29.271   1
   8  -1   5 187.699  16.747   3
  -8  -1  -5 220.265  15.142   1
   8   1   5 233.775  17.101   3
  -8   1  -5 214.698  15.236   1
   9  -1   5 28.4523 15.6829   3
  -9  -1  -5 14.4657 13.9630   1
  -9   1  -5 30.5177 13.4047   1
   9   1   5  4.0173 14.8337   3
 -10  -1  -5 26.6726 16.0650   1
  10  -1   5  4.0420 17.4757   3
 -10   1  -5  6.3694 15.6139   1
  10   1   5 19.9799 16.6784   3
  11  -1   5 15.1366 19.4193   3
 -11  -1  -5  0.3483 18.0380   1
  11   1   5 -0.8331 18.9632   3
 -11   1  -5 12.5680 17.4581   1
  12  -1   5 14.4454 21.8081   3
 -12  -1  -5 -6.1615 20.7552   1
 -12   1  -5 -8.4718 19.4409   1
  12   1   5  8.4989 22.1936   3
  12  -2  -5 17.1830  9.8186   2
  12   2  -5  4.1149 14.5051   3
  11  -2  -5 -12.809   8.274   2
 -11   2   5 -1.9860 18.7635   1
  11   2  -5 -11.814   9.391   3
  10  -2  -5 113.593  10.402   2
 -10   2   5 129.324  17.675   1
  10   2  -5 107.093  10.605   3
   9  -2  -5 -7.7494  7.3806   2
   9   2  -5 -6.2027 14.0832   2
   9   2  -5 -4.0324  7.8886   3
  -9   2   5 -8.4728 13.8216   1
   8  -2  -5 285.618  12.795   2
  -8   2   5 230.787  16.232   1
   8   2  -5 232.448  16.032   2
   8   2  -5 244.313  14.066   3
   7  -2  -5 131.961  11.314   2
   7   2  -5 116.247  12.536   2
   7   2  -5 137.187   9.825   3
  -7   2   5 132.257  12.698   1
   6  -2  -5 363.433  17.070   2
  -6   2   5 366.427  18.342   1
   6   2  -5 378.791  17.616   2
   5  -2  -5 179.918  12.423   2
   5   2  -5 192.956  13.105   2
  -5   2   5 184.539  11.721   1
  -5   2   5 209.614  11.242   4
   4  -2  -5 137.645   9.922   2
  -4   2   5 115.250   9.794   1
  -4   2   5 107.381   8.757   4
   4   2  -5 141.987   9.789   2
   3  -2  -5 67.8573  8.3344   2
   3  -2  -5 57.3562  7.6085   1
   3   2  -5 72.1534  7.8273   2
   2  -2  -5 383.570  14.788   1
   2  -2  -5 377.943  14.217   2
   2   2  -5 361.049  14.661   2
   1  -2  -5 366.016  14.065   1
   1  -2  -5 361.508  12.635   2
   1   2  -5 360.975  14.401   2
   0  -2  -5 179.440   7.442   2
   0  -2   5 153.870  11.509   3
   0  -2  -5 191.692  10.539   1
   0   2  -5 199.677   9.886   1
   0   2  -5 178.664  10.496   2
   1  -2   5 116.631   9.945   3
  -1  -2  -5 119.844   8.130   1
  -1   2  -5 120.766   8.643   2
  -1   2  -5 117.219   7.631   1
   1   2   5 110.655   5.809   3
  -2  -2  -5 681.571  22.342   1
   2  -2   5 687.382  25.731   3
  -2   2  -5 713.133  22.441   1
  -2   2  -5 707.477  23.576   2
   2   2   5 702.618  23.296   3
   3  -2   5 55.2481  8.8478   3
  -3  -2  -5 6.29020 6.62697   1
  -3   2  -5 52.3540  7.8391   1
  -3   2  -5 55.2481  8.4007   2
   3   2   5 42.7408  5.1422   3
   4  -2   5 -1.0058  8.7191   3
  -4  -2  -5 1.24291 6.94417   1
   4   2   5 -3.7571  5.0979   3
  -4   2  -5 -10.850   8.372   2
  -4   2  -5 2.50220 8.11825   1
  -5  -2  -5 100.166   9.843   1
   5  -2   5 132.461  11.964   3
  -5   2  -5 136.400  11.225   2
  -5   2  -5 111.158  10.991   1
  -6  -2  -5 595.461  22.311   1
   6  -2   5 600.880  25.251   3
   6   2   5 569.929  21.855   3
  -6   2  -5 542.157  22.399   1
   7  -2   5 768.235  31.652   3
  -7  -2  -5 791.249  28.117   1
   7   2   5 764.423  29.555   3
  -7   2  -5 799.525  28.508   1
  -8  -2  -5 285.550  16.925   1
   8  -2   5 256.012  18.675   3
  -8   2  -5 245.908  16.899   1
   8   2   5 211.077  18.091   3
  -9  -2  -5 16.5640 15.0274   1
   9  -2   5  6.6261 16.0466   3
   9   2   5 -21.775  16.028   3
  -9   2  -5  5.5727 14.6886   1
 -10  -2  -5 59.9224 17.4290   1
  10  -2   5 43.3497 18.6640   3
 -10   2  -5 47.4370 16.5833   1
  10   2   5 44.5085 19.2458   3
  11  -2   5 16.9511 20.5057   3
 -11   2  -5 10.1426 18.7139   1
  11   2   5 10.8069 21.1511   3
  12  -2   5 -16.580  22.898   3
  12   2   5 -2.3245 24.1099   3
 -12   2  -5 -2.9923 21.7011   1
 -11   3   5 32.5978 20.7201   1
  11   3  -5  2.8893 10.0780   3
 -10   3   5  8.2574 18.0092   1
  10   3  -5 22.0326  9.7576   3
  -9   3   5  2.0016 15.6247   1
   9   3  -5 7.20861 8.75037   3
   8   3  -5 -6.1384  7.6192   3
   8   3  -5  7.6750 14.3082   2
  -8   3   5 -8.5151 14.2337   1
  -7   3   5 47.9512 13.2225   1
   7   3  -5 39.0071 12.5693   2
   7   3  -5 33.1924  7.5992   3
  -6   3   5 223.219  15.608   1
   6   3  -5 244.506  14.735   2
  -5   3   5 245.122  14.597   1
   5   3  -5 267.357  16.211   2
   4   3  -5 476.484  19.708   2
  -4   3   5 483.185  20.606   4
  -4   3   5 478.911  21.282   1
  -3   3   5 94.9198 11.2733   1
   3   3  -5 86.4187  9.1071   2
  -3   3   5 98.9069  9.9850   4
   2  -3  -5 230.833  14.020   1
   2   3  -5 251.074  13.694   2
   1  -3  -5 51.4168  8.8770   1
   1   3  -5 50.5084  8.4346   2
   0  -3  -5 89.4341  9.4071   1
   0   3  -5 109.186   8.356   1
   0   3  -5 109.614   9.954   2
  -1  -3  -5 36.1127  8.5952   1
   1  -3   5 33.4771 11.4456   3
   1   3   5 44.6184  4.9463   3
  -1   3  -5 43.1306  7.7533   1
  -1   3  -5 31.3749  8.5974   2
   2  -3   5 95.8179 12.4063   3
  -2  -3  -5 99.5406  9.6062   1
   2   3   5 95.8580  6.9288   3
  -2   3  -5 91.3050  8.9709   1
  -2   3  -5 101.193  10.809   2
  -3  -3  -5 191.125  11.260   1
   3  -3   5 214.510  15.033   3
  -3   3  -5 196.634  11.518   1
   3   3   5 153.344   9.153   3
  -3   3  -5 199.686  13.137   2
  -4  -3  -5 220.474  12.184   1
   4  -3   5 209.389  14.950   3
  -4   3  -5 217.476  14.443   2
  -4   3  -5 177.829  12.595   1
   4   3   5 198.464  10.092   3
  -5  -3  -5 28.0433  9.6363   1
   5  -3   5 23.1188 12.4173   3
   5   3   5 10.5814  5.2510   3
  -5   3  -5 21.6067 11.3535   1
  -5   3  -5  9.5580 11.8853   2
  -6  -3  -5 117.371  11.834   1
   6  -3   5 134.431  15.484   3
   6   3   5 157.222  10.203   3
  -6   3  -5 120.249  14.507   1
  -7  -3  -5 23.6861 12.4835   1
   7  -3   5 26.6681 15.0527   3
   7   3   5 55.0980  9.7902   3
  -7   3  -5 53.9527 15.2040   1
  -8  -3  -5  5.9488 13.5192   1
   8  -3   5  3.0449 16.1953   3
  -8   3  -5  0.4226 15.6682   1
   8   3   5 -25.049   8.288   3
   9  -3   5 43.3497 18.1861   3
   9   3   5 60.7042 11.2540   3
  -9   3  -5 81.3510 18.2948   1
  10  -3   5 41.7362 20.8810   3
 -10   3  -5 54.8770 20.3262   1
  10   3   5 -7.1246 19.6278   3
  11  -3   5 24.6684 22.9294   3
  11   3   5 -27.495  23.844   3
 -11   3  -5 17.6417 22.1444   1
  10   4  -5 55.2355 11.2955   3
   9   4  -5 48.7274 11.1235   3
  -9   4   5  4.0000 18.3889   1
   8   4  -5 28.1186 10.5728   3
  -8   4   5 16.2164 16.8336   1
   8   4  -5 38.6227 16.3492   2
  -7   4   5 40.2141 15.4614   1
   7   4  -5  7.6047 14.3217   2
  -6   4   5 59.2788 15.0970   1
   6   4  -5 39.3721 13.3492   2
  -5   4   5 18.9190 13.3247   1
   5   4  -5 21.0804 11.5322   2
  -4   4   5 30.3611 11.9527   4
   4   4  -5 24.4425 10.2222   2
  -4   4   5  1.1139 12.4930   1
  -3   4   5  2.7146 12.4777   1
  -3   4   5 17.3127 10.1744   4
   3   4  -5 26.8546 10.1456   2
   2   4  -5  5.2449 10.0106   2
  -2   4   5 10.7026 12.3315   1
  -2   4   5 -1.7820 10.5189   4
   1  -4  -5 47.3919 12.1662   1
   1   4  -5 57.1328 10.8279   2
   0  -4  -5  0.5245 10.9357   1
   0   4  -5  4.9065 10.4889   2
  -1  -4  -5 23.1687 12.0669   1
  -1   4  -5 56.8239 11.7299   2
  -2  -4  -5 82.8292 12.4898   1
   2  -4   5 82.8629 16.4155   3
  -2   4  -5 70.8553 10.8042   1
  -2   4  -5 82.1329 13.2859   2
  -3  -4  -5 10.4855 11.4811   1
   3  -4   5  6.5943 15.7137   3
   3   4   5 14.7239  6.8802   3
  -3   4  -5  1.8918 12.3274   2
  -3   4  -5 -1.1725 10.8423   1
   4  -4   5 25.5348 16.0519   3
  -4  -4  -5 47.3424 12.4245   1
  -4   4  -5 36.2712 12.1027   1
  -4   4  -5 61.8222 14.4340   2
   4   4   5 51.9914  7.1047   3
   5  -4   5 28.5699 17.1429   3
  -5  -4  -5 14.1304 12.7250   1
  -5   4  -5 18.2654 13.2382   1
  -5   4  -5  9.2732 15.0823   2
   5   4   5 49.3776  7.7897   3
  -6  -4  -5 10.4539 13.0499   1
   6  -4   5  9.8119 17.4752   3
  -6   4  -5 19.5839 14.5927   1
   6   4   5 -0.3685  7.0611   3
   7  -4   5 29.2190 18.6852   3
   7   4   5 30.6068  8.4136   3
  -7   4  -5 47.6611 16.8237   1
   8  -4   5 12.3681 20.5408   3
   8   4   5  1.0925 11.1612   3
  -8   4  -5 20.3963 20.0274   1
   9  -4   5 -8.6800 22.1148   3
  -9   4  -5  0.7864 22.4652   1
   9   4   5 -6.2749 12.2178   3
  -7   5   5 33.9655 19.1649   1
   7   5  -5  7.2165 17.1185   2
   6   5  -5 14.0524 15.8761   2
  -6   5   5 28.6093 17.4382   1
   5   5  -5 49.0125 14.3788   2
  -5   5   5 26.3574 16.7243   1
  -4   5   5 12.3949 15.1985   1
   4   5  -5 -5.5584 12.9159   2
  -3   5   5 75.4053 15.3236   4
  -3   5   5 60.0680 15.8462   1
   3   5  -5 73.7342 14.1496   2
   2   5  -5 73.8891 13.8806   2
  -2   5   5 75.2219 15.6128   4
  -2   5   5 67.9053 15.7183   1
   1   5  -5 38.1528 13.7645   2
  -1   5   5 40.4976 13.6359   4
  -1   5   5 48.8055 15.6158   1
   0   5  -5 283.192  18.505   2
  -1  -5  -5  9.8698 15.6663   1
  -1   5  -5 -1.9192 14.0467   2
  -2  -5  -5 191.477  17.930   1
  -2   5  -5 201.678  18.454   2
  -3  -5  -5 186.350  18.326   1
  -3   5  -5 170.342  19.094   2
  -4  -5  -5  3.9906 16.7344   1
   4  -5   5 13.6148 22.6403   3
  -4   5  -5 18.6840 17.6140   2
  -4   5  -5 -13.478  15.341   1
   5  -5   5  9.8234 23.2971   3
  -5   5  -5  0.3564 16.8603   1
  -5   5  -5 -5.8295 18.7106   2
   6  -5   5 -8.8259 23.6137   3
  -6   5  -5  3.0026 20.1694   2
  -6   5  -5  3.8189 18.2970   1
   7  -5   5 56.5621 25.2466   3
  -7   5  -5 75.0512 22.5292   2
   7   5   5 41.5653 10.5856   3
  -7   5  -5 52.6264 20.6104   1
  -3   6   5 11.2417 19.6289   1
   3   6  -5 13.6957 17.4325   2
  -2   6   5 22.6669 19.4044   1
   2   6  -5  9.9074 17.5359   2
  -1   6   5  3.8886 18.4270   4
   1   6  -5 -25.368  17.018   2
  -1   6   5 -0.2561 19.2446   1
   0   6   5 -19.241  16.492   4
   0   6   5  4.9394 19.5124   1
   0   6  -5 13.4197 18.3349   2
   1   6   5 87.6836 20.7044   1
   1   6   5 66.9690 18.2522   4
  -1   6  -5 82.2349 19.9000   2
  -2   6  -5 28.5492 20.0207   2
  -3   6  -5 118.799  22.814   2
  11   0  -6 10.0025 17.6454   2
  10   0  -6 12.8224 14.8350   2
   9   0  -6 136.400  14.860   2
   8   0  -6 26.9510 11.4531   2
   7   0  -6 328.578  17.030   2
  -6   0   6 344.978  15.487   1
   6   0  -6 333.920  12.827   3
   6   0  -6 315.806  16.306   2
   5   0  -6 187.235  12.660   2
  -5   0   6 184.099  11.470   1
   5   0  -6 182.395   8.547   3
   4   0  -6 493.324  17.884   3
   4   0  -6 558.319  19.204   2
   3   0  -6 964.637  27.907   1
   3   0  -6 953.009  30.529   2
   2   0  -6 1197.16   33.99   1
   2   0  -6 1198.39   36.79   2
   1   0  -6 100.149   5.921   1
   1   0  -6 108.325   7.720   2
   0   0  -6 1329.47   40.56   2
   0   0  -6 1343.62   38.31   1
   0   0   6 1374.03   43.23   3
   1   0   6 149.632   9.070   3
  -1   0  -6 170.541   9.841   1
  -1   0  -6 155.348   9.714   2
   2   0   6 3961.82  125.46   3
  -2   0  -6 4013.64  110.38   1
  -2   0  -6 4061.84  115.82   2
   3   0   6 80.3030  8.3470   3
  -3   0  -6 80.9369  7.6908   1
  -3   0  -6 63.5511  6.3892   2
   4   0   6 7.60236 8.13113   3
  -4   0  -6 15.3681  7.6093   1
  -5   0  -6 33.4338  8.9727   1
   5   0   6 22.7577 10.7082   3
  -6   0  -6 441.606  19.673   1
   6   0   6 455.520  21.599   3
   7   0   6  2.4135 13.2370   3
  -7   0  -6  3.4014 11.4467   1
  -8   0  -6  8.1880 12.9170   1
   8   0   6 -0.0044 14.6572   3
   9   0   6 -10.067  16.308   3
  -9   0  -6  2.3438 14.5238   1
  10   0   6 17.4914 18.4105   3
 -10   0  -6 19.4916 16.2086   1
 -11   0  -6 29.9561 18.5146   1
  11   0   6  8.7754 20.4481   3
  12   0   6 -11.636  23.083   3
 -12   0  -6 -5.9691 20.5516   1
  12  -1  -6  5.8564 19.9963   2
  11  -1  -6 36.7048 17.9371   2
  10  -1  -6 120.908  17.643   2
  10   1  -6 114.905  16.235   2
   9  -1  -6 29.2252 16.1792   2
   9   1  -6 14.7462  7.4203   3
   9   1  -6 12.7339 13.3939   2
  -8   1   6 239.289  15.221   1
   8   1  -6 227.620  15.674   2
   8   1  -6 234.099  12.759   3
   7  -1  -6 65.6171 11.1316   2
  -7   1   6 71.2276 11.3387   1
   7   1  -6 60.9706  7.1297   3
   7   1  -6 51.6304 11.5236   2
   6  -1  -6 50.6368  9.8160   2
  -6   1   6 43.7554  9.8338   1
   6   1  -6 54.8946  6.2892   3
   6   1  -6 53.8802 10.0872   2
   5  -1  -6 103.872   9.778   2
  -5   1   6 102.745   8.865   4
  -5   1   6 94.6604  9.3942   1
   5   1  -6 96.3531  9.7496   2
   4  -1  -6 248.419  12.723   2
   4   1  -6 254.295  13.315   2
   3  -1  -6 22.6397  6.0924   1
   3  -1  -6 23.1231  7.2811   2
   3   1  -6 28.9145  6.9970   2
   2  -1  -6 142.159   9.142   1
   2  -1  -6 144.284   9.428   2
   2   1  -6 124.320   7.287   1
   2   1  -6 146.559   9.909   2
   1  -1  -6 285.315  12.027   1
   1  -1  -6 282.812  12.008   2
   1   1  -6 310.300  12.717   2
   1   1  -6 292.139  11.340   1
   0  -1  -6 431.433  14.846   2
   0  -1   6 430.417  17.084   3
   0  -1  -6 437.667  14.883   1
   0   1  -6 404.858  14.463   1
   0   1  -6 403.789  15.444   2
  -1  -1  -6 76.5918  6.8601   1
  -1  -1  -6 105.707   6.518   2
   1  -1   6 99.4611  8.2882   3
  -1   1  -6 77.5826  6.7476   1
   1   1   6 82.4824  6.6937   3
  -1   1  -6 92.1264  7.1900   2
   2  -1   6 72.1297  8.0707   3
  -2  -1  -6 87.1227  5.8104   2
  -2  -1  -6 70.0607  6.9981   1
   2   1   6 92.5596  7.8765   3
  -2   1  -6 85.5969  7.6310   1
  -2   1  -6 84.2495  7.1105   2
  -3  -1  -6 245.704  12.607   1
   3  -1   6 245.721  13.464   3
  -3   1  -6 233.908  12.311   2
   3   1   6 272.738  14.145   3
  -3   1  -6 227.212  12.551   1
   4  -1   6 204.590  13.538   3
  -4  -1  -6 202.396  12.670   1
  -4   1  -6 191.320  11.948   2
   4   1   6 202.026  14.206   3
  -4   1  -6 197.992  12.468   1
   5  -1   6 90.0641 10.8975   3
  -5  -1  -6 98.2971  9.9631   1
  -5   1  -6 118.513  10.688   1
  -5   1  -6 81.4650  8.8678   2
   5   1   6 126.587  11.715   3
   6  -1   6 106.625  12.912   3
  -6  -1  -6 107.379  11.412   1
  -6   1  -6 122.604  12.183   1
   6   1   6 123.279  13.227   3
  -7  -1  -6 39.5434 12.0467   1
   7  -1   6  9.3141 13.5298   3
  -7   1  -6 28.8756 12.0262   1
   7   1   6 32.0961 12.9697   3
   8  -1   6 31.1549 15.4707   3
  -8  -1  -6 34.9220 13.6315   1
   8   1   6  7.2476 14.4740   3
  -8   1  -6 25.7364 12.9583   1
  -9  -1  -6  0.7892 14.5898   1
   9  -1   6 12.0029 16.6703   3
  -9   1  -6 -0.5156 14.2633   1
   9   1   6 -2.1318 15.9432   3
  10  -1   6 62.4939 19.2001   3
 -10  -1  -6 81.0419 17.9128   1
  10   1   6 45.2447 18.1281   3
 -10   1  -6 58.6087 16.6835   1
  11  -1   6 12.3340 20.7414   3
 -11  -1  -6  8.3413 19.2924   1
 -11   1  -6 -4.3990 17.7872   1
  11   1   6  0.9241 20.4174   3
  12  -1   6  8.5988 24.0301   3
 -12  -1  -6 30.4960 22.4955   1
 -12   1  -6  6.3294 20.8081   1
  12   1   6 24.9056 23.7934   3
  11  -2  -6 35.6131  9.9675   2
  11   2  -6 -17.572   9.162   3
  10  -2  -6 52.2216  8.9555   2
  10   2  -6 40.5162  8.9854   3
 -10   2   6 58.3674 17.3478   1
  10   2  -6 50.3833 17.3346   2
   9  -2  -6 12.4334  9.1448   2
   9   2  -6 19.4036 14.7919   2
  -9   2   6 26.0048 15.1685   1
   9   2  -6 -14.825   7.439   3
   8  -2  -6 211.055  15.848   2
  -8   2   6 268.056  16.854   1
   8   2  -6 203.335  16.064   2
   8   2  -6 226.512  13.628   3
   7  -2  -6 291.636  17.317   2
  -7   2   6 285.117  15.934   1
   7   2  -6 266.493  18.155   2
   7   2  -6 299.159  14.784   3
   6  -2  -6 434.171  19.578   2
   6   2  -6 443.970  20.319   2
  -6   2   6 473.154  19.881   1
   5  -2  -6 287.014  15.517   2
   5   2  -6 273.000  15.764   2
  -5   2   6 259.176  15.905   1
  -5   2   6 275.663  15.740   4
   4  -2  -6 84.3679 10.2657   2
  -4   2   6 84.3189  9.2411   4
   4   2  -6 99.5353  9.9197   2
  -4   2   6 96.1811 10.3154   1
   3  -2  -6 199.850  10.719   1
   3  -2  -6 196.907  12.058   2
   3   2  -6 184.461  12.123   2
   2  -2  -6 19.2745  7.3386   1
   2  -2  -6 31.7343  7.5688   2
   2   2  -6 19.9006  7.3614   2
   1  -2  -6 309.215  12.941   2
   1  -2  -6 284.808  12.901   1
   1   2  -6 279.151  11.615   1
   1   2  -6 297.051  13.400   2
   0  -2   6 11.3545  9.4378   3
   0  -2  -6 10.3726  3.9358   2
   0  -2  -6 7.41647 6.77814   1
   0   2  -6 11.6671  6.9620   2
   0   2  -6 11.5971  5.9839   1
  -1  -2  -6 9.19761 6.77372   1
   1  -2   6 10.6388  8.8857   3
  -1  -2  -6 10.1368  3.1123   2
  -1   2  -6 9.91834 7.03887   2
  -1   2  -6 1.69562 6.78152   1
   1   2   6 4.39598 3.87282   3
  -2  -2  -6 946.202  29.151   1
   2  -2   6 932.117  33.503   3
  -2   2  -6 986.669  29.574   1
  -2   2  -6 942.239  30.824   2
  -3  -2  -6 28.0304  7.5491   1
   3  -2   6 92.1136 10.0736   3
  -3   2  -6 70.2878  9.0574   2
  -3   2  -6 82.8152  8.6859   1
  -4  -2  -6 10.4534  8.0109   1
   4  -2   6 15.3091  9.9985   3
   4   2   6 8.75599 6.17256   3
  -4   2  -6 -2.5869  8.4117   1
  -4   2  -6 21.0953  9.2100   2
   5  -2   6  3.5513 10.7129   3
  -5  -2  -6 -4.8844  8.8954   1
   5   2   6 -26.690  10.227   3
  -5   2  -6 13.1490 10.1613   2
  -5   2  -6 19.0289  9.9267   1
  -6  -2  -6 206.636  13.615   1
   6  -2   6 205.706  15.677   3
  -6   2  -6 196.023  14.239   2
  -6   2  -6 193.705  13.903   1
   6   2   6 202.947  15.840   3
   7  -2   6 82.6242 14.8274   3
  -7  -2  -6 81.4862 13.5079   1
  -7   2  -6 97.2625 13.3023   1
   7   2   6 67.2682 15.0403   3
  -8  -2  -6  0.5046 14.1573   1
   8  -2   6  7.4603 15.3731   3
   8   2   6 -9.6488 15.8255   3
  -8   2  -6  1.4710 13.3919   1
   9  -2   6 27.1688 17.1413   3
  -9  -2  -6 29.5619 16.2523   1
  -9   2  -6 22.4992 15.9080   1
   9   2   6 12.9827 17.6390   3
  10  -2   6 24.7713 18.9528   3
 -10  -2  -6 46.9405 18.6515   1
 -10   2  -6 30.3759 17.9165   1
  10   2   6 39.1135 19.7175   3
 -11  -2  -6 27.3117 21.3381   1
  11  -2   6 21.1411 21.0593   3
 -11   2  -6 19.3888 20.0232   1
  11   2   6  8.6236 22.0826   3
  11   3  -6 -28.546  10.174   3
 -11   3   6 -26.657  21.453   1
  10   3  -6 108.170  11.610   3
 -10   3   6 52.0457 18.6639   1
   9  -3  -6 3.06802 8.25045   2
  -9   3   6  9.7978 16.3871   1
   9   3  -6 -4.1030  8.8461   3
   9   3  -6 15.1619 16.2660   2
   8  -3  -6 32.3060  7.5652   2
  -8   3   6 22.5378 14.8145   1
   8   3  -6 10.4546  9.2016   3
   8   3  -6 15.1511 15.1955   2
   7  -3  -6 123.037   9.288   2
   7   3  -6 115.618  14.699   2
  -7   3   6 148.780  14.725   1
   6  -3  -6 187.136  10.425   2
   6   3  -6 177.334  14.221   2
  -6   3   6 201.713  15.123   1
   5  -3  -6 71.3743  7.0187   2
  -5   3   6 65.0473 11.1291   4
   5   3  -6 86.1236 11.3890   2
  -5   3   6 63.4483 12.3733   1
   4  -3  -6 133.305   8.642   2
  -4   3   6 151.655  11.622   4
   4   3  -6 169.619  12.107   2
  -4   3   6 149.592  12.915   1
   3  -3  -6 67.3140 10.4357   1
   3  -3  -6 59.2095  6.5370   2
   3   3  -6 74.4659 10.0279   2
   2  -3  -6 225.773  14.773   1
   2   3  -6 235.250  13.898   2
   1  -3  -6 70.0714  9.9761   1
   1   3  -6 74.0736  9.4224   2
   0  -3  -6 232.765  14.395   1
   0   3  -6 216.542  14.076   2
   1  -3   6 41.5076 12.5548   3
  -1  -3  -6 31.4242  9.1952   1
  -1   3  -6 21.0711  9.3508   2
  -1   3  -6 33.8313  8.1945   1
  -2  -3  -6 5.87327 9.20812   1
   2  -3   6  4.5842 11.9015   3
  -2   3  -6 12.0338  9.9723   2
   2   3   6 17.3023  4.1297   3
  -2   3  -6 15.3767  8.7475   1
  -3  -3  -6 63.6260 10.3426   1
   3  -3   6 77.3860 13.5888   3
  -3   3  -6 61.4842 10.4104   1
   3   3   6 79.9158  5.9835   3
  -3   3  -6 77.3276 11.5893   2
   4  -3   6 189.381  15.173   3
  -4  -3  -6 176.732  11.987   1
  -4   3  -6 174.195  14.330   2
  -4   3  -6 138.684  12.671   1
   4   3   6 159.024   9.486   3
  -5  -3  -6 90.8196 11.4484   1
   5  -3   6 88.0960 14.3624   3
   5   3   6 71.8182  9.3038   3
  -5   3  -6 95.6152 12.8322   1
  -5   3  -6 105.019  13.784   2
   6  -3   6 531.522  25.870   3
  -6   3  -6 505.406  24.295   2
  -6   3  -6 561.102  24.560   1
   7  -3   6 23.4228 15.2645   3
  -7  -3  -6 -2.6186 12.8079   1
   7   3   6 14.6174  8.4463   3
  -7   3  -6 12.5633 13.9018   1
  -8  -3  -6  8.2736 14.5271   1
   8  -3   6  2.5667 16.9377   3
   8   3   6 0.06559 9.30542   3
  -8   3  -6 -1.3355 15.9725   1
   9  -3   6 87.3801 19.3608   3
  -9  -3  -6 154.427  17.755   1
   9   3   6 25.7867 19.4416   3
  -9   3  -6 146.959  19.612   1
  10  -3   6 26.8149 20.9244   3
 -10   3  -6 18.2442 20.2362   1
  10   3   6 -7.6832 22.8347   3
  -9   4   6 22.5082 19.1520   1
   9   4  -6 15.3364  9.6087   3
   8   4  -6 -6.8981  9.8283   3
   8   4  -6 12.8779 17.4353   2
  -8   4   6  0.4638 17.3335   1
   7   4  -6 46.6879 15.4337   2
  -7   4   6 42.4333 16.2393   1
  -6   4   6 66.6207 16.3132   1
   6   4  -6 25.5984 13.4237   2
  -5   4   6 151.868  16.154   1
   5   4  -6 133.057  14.334   2
  -4   4   6 66.5399 14.5408   1
  -4   4   6 52.8311 12.9833   4
   4   4  -6 67.9951 12.3434   2
  -3   4   6 37.7422 13.7085   1
   3   4  -6 40.6206 11.0046   2
  -3   4   6 48.2423 11.7057   4
   2   4  -6 108.138  12.027   2
   1  -4  -6 121.217  14.105   1
   1   4  -6 98.5902 12.2777   2
   0  -4  -6 14.0568 12.2719   1
   0   4  -6 15.1618 11.0715   2
  -1  -4  -6 50.1549 12.9806   1
  -1   4  -6 28.4105 12.1987   2
   2  -4   6 16.9768 16.7773   3
  -2  -4  -6 13.1576 12.1790   1
  -2   4  -6 24.9447 12.5579   2
  -3  -4  -6 58.8543 12.9127   1
   3  -4   6 64.7773 17.0672   3
  -3   4  -6 61.6809 12.5169   1
  -3   4  -6 92.0110 14.4498   2
   4  -4   6 72.4560 17.2881   3
  -4  -4  -6 83.4691 13.7836   1
  -4   4  -6 49.5850 13.5662   1
  -4   4  -6 70.0844 15.5077   2
   5  -4   6 298.193  22.870   3
  -5  -4  -6 332.952  20.647   1
  -5   4  -6 327.959  22.468   2
  -5   4  -6 282.127  19.269   1
   5   4   6 352.833  15.390   3
  -6  -4  -6 146.878  15.574   1
   6  -4   6 93.0846 19.5358   3
  -6   4  -6 120.659  17.226   1
  -6   4  -6 108.075  18.286   2
   6   4   6 113.297  10.407   3
  -7  -4  -6 21.5824 15.8802   1
   7  -4   6 20.7812 19.1993   3
  -7   4  -6 23.9656 17.9956   1
  -7   4  -6  6.0766 18.3076   2
   7   4   6 -3.6721 11.9942   3
   8  -4   6  7.8525 20.9041   3
  -8   4  -6  9.5838 19.7572   1
   8   4   6 -16.046  10.806   3
   9  -4   6 23.0303 23.0198   3
   9   4   6 16.4615 12.6866   3
  -9   4  -6  1.9976 21.4580   1
   7   5  -6 33.7400 18.7170   2
  -7   5   6 19.9185 19.9377   1
  -6   5   6 34.1553 18.4530   1
   6   5  -6 15.8836 16.7605   2
   5   5  -6 28.9486 15.5576   2
  -5   5   6 27.1300 17.6674   1
   4   5  -6 17.6392 13.9919   2
  -4   5   6 35.7074 16.4602   1
  -3   5   6  9.6697 16.1716   1
   3   5  -6 11.2867 13.5351   2
  -3   5   6  1.2018 15.0747   4
  -2   5   6 185.184  16.666   4
  -2   5   6 205.475  19.058   1
   2   5  -6 155.011  16.027   2
   1   5  -6 46.9329 14.3956   2
  -1   5   6 41.0700 15.1122   4
  -1   5   6 39.2341 17.0171   1
   0  -5  -6 48.0831 17.2445   1
   0   5  -6 68.3400 14.9349   2
  -1  -5  -6  5.5376 16.7225   1
  -1   5  -6 34.0906 15.3835   2
  -2  -5  -6 19.2341 16.7850   1
  -2   5  -6 -20.304  15.356   2
  -3  -5  -6 83.5342 18.0425   1
  -3   5  -6 88.7431 17.8997   2
  -4  -5  -6 13.0330 17.1745   1
   4  -5   6 -5.6309 23.4001   3
  -4   5  -6 -6.5442 17.9869   2
   5  -5   6 69.3635 24.8570   3
  -5   5  -6 68.6680 20.4742   2
  -5   5  -6 58.1250 18.4656   1
   6  -5   6 20.8027 24.6846   3
  -6   5  -6 25.8712 20.3062   1
  -6   5  -6 28.1707 20.9082   2
   7  -5   6  2.6498 25.0387   3
  -7   5  -6 -4.9320 22.2091   1
  -7   5  -6 -8.0630 22.4368   2
  -2   6   6  8.4596 20.2568   4
  -2   6   6 29.9478 20.6119   1
   2   6  -6  7.2374 17.6097   2
   1   6  -6  6.9817 18.3744   2
  -1   6   6 10.5391 20.4426   4
  -1   6   6 11.8995 20.8005   1
   0   6  -6  9.7387 18.9698   2
   0   6   6 36.0577 21.0977   1
   0   6   6 26.1915 18.3951   4
   1   6   6 19.9682 21.9266   1
   1   6   6 54.8295 19.3864   4
  -1   6  -6 49.4432 20.0231   2
  -2  -6  -6 29.4028 23.2777   1
  12   0  -7 15.6256 23.5793   2
  11   0  -7 55.2191 18.1852   2
  10   0  -7 22.4281 15.4612   2
   9   0  -7 41.7753 14.2813   2
   8   0  -7 587.182  24.271   2
   7   0  -7 23.9177 10.9725   2
   6   0  -7 327.863  16.877   2
  -5   0   7 -1.8540  7.3175   4
   5   0  -7 -0.9851  8.9528   2
  -5   0   7 1.82565 8.10262   1
   4   0  -7 892.858  29.973   3
   4   0  -7 900.527  30.215   2
   4   0  -7 955.316  27.549   1
   3   0  -7 280.751  11.508   1
   3   0  -7 249.436  13.930   2
   2   0  -7 937.501  30.103   2
   2   0  -7 926.078  27.444   1
   1   0  -7 2.11744 5.21154   1
   1   0  -7 5.19955 6.87719   2
   0   0  -7 -1.9200  6.6796   2
   0   0  -7 5.82870 5.36501   1
   0   0   7 6.16342 6.29963   3
  -1   0  -7 475.175  16.860   1
   1   0   7 452.202  17.289   3
  -1   0  -7 472.819  17.289   2
  -2   0  -7 165.332  11.064   2
  -2   0  -7 168.870   9.302   1
   2   0   7 153.750  11.291   3
  -3   0  -7 972.616  29.548   1
   3   0   7 981.761  32.480   3
  -3   0  -7 876.379  29.713   2
  -4   0  -7 116.099  10.119   1
   4   0   7 117.266  11.275   3
  -5   0  -7 12.5999  9.7289   1
   5   0   7 12.5089 11.1187   3
   6   0   7 324.268  19.631   3
  -6   0  -7 333.005  18.215   1
   7   0   7  4.8723 14.4776   3
  -7   0  -7  6.1097 12.2863   1
   8   0   7 74.0784 16.8487   3
  -8   0  -7 90.1605 14.8151   1
  -9   0  -7 30.4660 15.5504   1
   9   0   7  5.5170 17.5744   3
  10   0   7 -10.246  18.868   3
 -10   0  -7  1.7538 17.0159   1
 -11   0  -7 -4.5000 19.1127   1
  11   0   7 -6.8777 21.2286   3
 -12   0  -7 38.0040 22.6350   1
  12   0   7 31.9657 24.8102   3
  12  -1  -7 -7.8525 21.0852   2
  11  -1  -7  0.4833 18.4860   2
  11   1  -7 -10.616  18.035   2
  10  -1  -7 42.4063 18.5239   2
  10   1  -7 53.2071 15.9949   2
   9  -1  -7 27.1988 15.9892   2
   9   1  -7 44.1761 14.5177   2
   8  -1  -7 134.920  14.447   2
   8   1  -7 116.469  14.391   2
   7  -1  -7 286.552  17.061   2
   7   1  -7 291.065  14.013   3
  -7   1   7 315.126  18.291   1
   7   1  -7 296.860  18.055   2
   6  -1  -7 547.011  21.577   2
   6   1  -7 530.264  22.477   2
  -6   1   7 563.358  21.179   1
   6   1  -7 534.498  20.521   3
   5  -1  -7 299.697  15.025   2
  -5   1   7 293.842  13.992   4
  -5   1   7 259.694  15.262   1
   5   1  -7 279.436  15.029   2
   4  -1  -7 400.131  17.237   2
   4  -1  -7 422.878  16.110   1
   4   1  -7 405.251  17.190   2
   3  -1  -7 132.100   8.831   1
   3  -1  -7 144.624  10.234   2
   3   1  -7 113.086   9.623   2
   2  -1  -7 229.376  11.633   1
   2  -1  -7 221.425  11.761   2
   2   1  -7 196.723   9.690   1
   2   1  -7 221.967  12.267   2
   1  -1  -7 69.7610  7.0313   1
   1  -1  -7 75.1791  7.7773   2
   1   1  -7 70.1663  7.9465   2
   1   1  -7 80.8149  6.3506   1
   0  -1  -7 162.119   9.676   2
   0  -1  -7 161.623  10.280   1
   0  -1   7 194.846  12.936   3
   0   1  -7 180.213  10.109   1
   0   1  -7 158.541  10.795   2
  -1  -1  -7 420.082  15.715   2
   1  -1   7 462.666  18.491   3
  -1   1  -7 457.032  16.484   1
  -1   1  -7 454.311  16.930   2
   1   1   7 437.468  16.785   3
  -2  -1  -7 147.342   9.123   2
  -2  -1  -7 184.029   9.580   1
   2  -1   7 177.011  10.967   3
  -2   1  -7 173.073  11.175   2
   2   1   7 153.408  11.368   3
  -2   1  -7 168.985   9.776   1
  -3  -1  -7 305.760  14.434   1
   3  -1   7 277.961  15.058   3
   3   1   7 302.080  15.464   3
  -3   1  -7 272.255  14.722   1
  -3   1  -7 285.645  13.651   2
   4  -1   7 43.0053 10.0510   3
  -4  -1  -7 38.1919  8.9085   1
  -4   1  -7 32.4650  7.9364   2
   4   1   7 38.0868  9.8618   3
  -4   1  -7 34.6436  9.7097   1
  -5  -1  -7 8.37017 9.11488   1
   5  -1   7 19.9903 10.8078   3
   5   1   7 14.0059 11.2382   3
  -5   1  -7 14.8852 10.1903   1
  -6  -1  -7 52.5784 11.1406   1
   6  -1   7 35.7060 12.4522   3
  -6   1  -7 44.8935 11.4831   1
   6   1   7 42.1991 13.3575   3
  -7  -1  -7 25.8435 12.3912   1
   7  -1   7 15.6274 13.5197   3
   7   1   7 21.5092 14.6486   3
  -7   1  -7 14.3192 12.5520   1
  -8  -1  -7 26.3478 14.1394   1
   8  -1   7 14.5911 15.3230   3
   8   1   7 -8.5378 16.0829   3
  -8   1  -7 25.9087 13.9382   1
  -9  -1  -7 40.6333 16.7013   1
   9  -1   7 43.8858 17.7105   3
  -9   1  -7 38.6373 16.0239   1
   9   1   7 45.9221 17.8278   3
  10  -1   7  7.8866 19.0637   3
 -10  -1  -7  7.4585 17.9980   1
 -10   1  -7 19.7780 17.5765   1
  10   1   7  9.7835 19.4566   3
 -11  -1  -7  2.7960 20.2512   1
  11  -1   7 -9.1334 21.2393   3
  11   1   7 33.8121 22.1200   3
 -11   1  -7 -4.9612 20.1520   1
  11  -2  -7 59.2821 11.0312   2
  10  -2  -7 76.5644 11.7347   2
  10   2  -7 42.6994 18.0418   2
  10   2  -7 57.2862 10.3535   3
   9  -2  -7 48.5814 15.3063   2
  -9   2   7 70.8207 15.7912   1
   9   2  -7 36.7212  8.8160   3
   9   2  -7 43.1586 15.9251   2
   8  -2  -7 17.1535 13.3611   2
   8   2  -7 -1.1680 13.0569   2
  -8   2   7  8.3552 13.7914   1
   8   2  -7 -2.1877  8.0521   3
   7  -2  -7 61.4239 13.0163   2
   7   2  -7 55.0868 12.6890   2
  -7   2   7 55.7431 13.3660   1
   7   2  -7 62.5081  8.8727   3
   6  -2  -7 29.6023 11.8276   2
   6   2  -7 45.3112 11.9404   2
  -6   2   7 37.4713 11.4404   1
   5  -2  -7 74.5599 11.6107   2
  -5   2   7 81.1606 10.0086   4
  -5   2   7 66.2661 11.5139   1
   5   2  -7 82.1419 11.2566   2
   4  -2  -7 27.3344 10.0721   2
   4   2  -7 15.5858  9.2232   2
   3  -2  -7 25.6340  8.3690   1
   3  -2  -7 31.0757  9.7408   2
   3   2  -7 26.1371  8.7728   2
   2  -2  -7 241.826  13.578   2
   2  -2  -7 252.651  13.484   1
   2   2  -7 221.409  13.738   2
   1  -2  -7 17.9994  8.0982   2
   1  -2  -7 20.7889  7.8184   1
   1   2  -7 32.9157  6.4641   1
   1   2  -7 40.7679  8.4648   2
   0  -2   7 55.1564 11.7161   3
   0  -2  -7 103.953   8.486   2
   0  -2  -7 82.5439  8.4946   1
   0   2  -7 82.4125  7.7710   1
   0   2  -7 78.2759  8.6884   2
  -1  -2  -7 219.253  13.145   1
  -1  -2  -7 195.545   8.950   2
   1  -2   7 240.723  15.631   3
  -1   2  -7 245.261  12.867   1
  -1   2  -7 204.266  13.191   2
  -2  -2  -7 229.909  12.959   1
   2  -2   7 222.166  15.371   3
  -2  -2  -7 200.035   8.099   2
  -2   2  -7 224.797  14.012   2
  -2   2  -7 221.537  13.451   1
   2   2   7 209.662  15.114   3
   3  -2   7 129.353  12.122   3
  -3   2  -7 107.927  10.591   1
   3   2   7 90.1532 11.8113   3
  -3   2  -7 117.246  10.854   2
  -4  -2  -7 10.1398  9.0724   1
   4  -2   7 21.3362 11.0757   3
   4   2   7  5.5494 11.7942   3
  -4   2  -7 6.80510 9.63406   2
  -4   2  -7 16.8422  9.9531   1
   5  -2   7 891.249  33.091   3
  -5  -2  -7 876.784  29.141   1
  -5   2  -7 916.301  30.360   1
  -5   2  -7 837.994  30.278   2
  -6  -2  -7 488.655  21.281   1
   6  -2   7 479.377  23.732   3
  -6   2  -7 466.919  22.466   1
  -7  -2  -7 70.7463 13.9432   1
   7  -2   7 67.7275 15.2830   3
  -7   2  -7 75.0611 14.3284   1
   7   2   7 29.4979 15.6622   3
  -8  -2  -7  1.6514 15.3104   1
   8  -2   7 12.5564 16.1620   3
   8   2   7 -10.002  17.012   3
  -8   2  -7  9.0116 15.1277   1
   9  -2   7  9.9091 17.9439   3
  -9  -2  -7  4.7361 17.1867   1
  -9   2  -7  7.2028 17.2197   1
   9   2   7 11.2418 19.0528   3
 -10  -2  -7 19.7077 19.7553   1
  10  -2   7 -0.1947 20.2777   3
 -10   2  -7  7.3328 18.8044   1
  10   2   7  8.7051 20.4818   3
 -11  -2  -7 25.2510 22.7677   1
  11  -2   7 20.9373 23.0380   3
 -11   2  -7  3.0169 21.5785   1
  11   2   7 15.2468 23.6852   3
  10  -3  -7 50.5776 10.2717   2
  10   3  -7 33.0318 10.0031   3
 -10   3   7 64.2698 19.7638   1
   9  -3  -7 20.8428  7.7945   2
   9   3  -7 -12.874   9.549   3
  -9   3   7 -9.2585 16.5151   1
   9   3  -7 -2.0550 16.7251   2
   8  -3  -7 32.8862  7.5110   2
   8   3  -7 44.2921 16.0388   2
  -8   3   7 35.2738 15.8451   1
   8   3  -7 47.7162 10.4671   3
   7  -3  -7 48.6291  7.6696   2
  -7   3   7 53.9012 15.1954   1
   7   3  -7 47.0258 13.7627   2
   6  -3  -7 70.9866  7.5721   2
  -6   3   7 59.4406 13.6092   1
   6   3  -7 76.3499 13.1492   2
   5  -3  -7 59.1279  6.9158   2
  -5   3   7 35.3631 11.9988   4
   5   3  -7 64.6130 12.1377   2
  -5   3   7 47.3794 13.3112   1
   4  -3  -7 -1.1057  5.4873   2
  -4   3   7  6.5170 11.7133   1
   4   3  -7  6.2541 10.4421   2
  -4   3   7 -1.0794 10.0191   4
   3  -3  -7 42.5074  6.0196   2
   3  -3  -7 29.2664 10.9676   1
   3   3  -7 42.1672 10.4700   2
   2  -3  -7 159.772  12.337   1
   2  -3  -7 138.663   8.513   2
   2   3  -7 146.984  11.724   2
   1  -3  -7 181.780  12.586   1
   1   3  -7 153.403  11.755   2
   0  -3  -7 118.440  11.309   1
   0   3  -7 120.364  11.474   2
   1  -3   7 79.0609 14.7335   3
  -1  -3  -7 86.4918 10.9554   1
  -1   3  -7 113.701  11.383   2
  -1   3  -7 95.1663 10.1606   1
   2  -3   7 75.8749 14.0267   3
  -2  -3  -7 76.3377 10.9205   1
  -2   3  -7 53.4751  9.6220   1
  -2   3  -7 70.0983 11.3516   2
  -3  -3  -7 10.3702 10.3716   1
   3  -3   7 17.2501 13.5641   3
  -3   3  -7 28.0759 10.0165   1
  -3   3  -7  0.0482 11.2389   2
  -4  -3  -7 257.293  16.448   1
   4  -3   7 274.892  18.443   3
  -4   3  -7 280.067  18.329   2
  -4   3  -7 322.872  18.183   1
   5  -3   7 154.311  16.504   3
  -5  -3  -7 141.724  13.137   1
  -5   3  -7 161.792  14.203   1
  -5   3  -7 135.770  15.037   2
   6  -3   7 96.1164 15.4486   3
  -6  -3  -7 86.9914 12.5552   1
  -6   3  -7 86.4001 14.1056   1
   6   3   7 84.2024 10.2208   3
  -6   3  -7 105.577  15.234   2
  -7  -3  -7 -4.3613 13.3969   1
   7  -3   7 24.1377 16.5293   3
  -7   3  -7 10.9293 14.5838   1
   7   3   7 33.7343 16.5453   3
   8  -3   7 11.7403 17.6366   3
  -8  -3  -7  7.0786 15.6955   1
   8   3   7 11.5152 19.4492   3
  -8   3  -7 17.4322 16.2732   1
   9  -3   7 -4.4386 19.2579   3
  -9  -3  -7 17.5036 17.4718   1
  -9   3  -7 43.8602 18.8869   1
   9   3   7 -28.769  21.761   3
  10  -3   7  4.2299 21.3948   3
 -10   3  -7  4.5442 22.2991   1
  10   3   7 21.6487 24.6356   3
   9   4  -7 16.5974 20.6746   2
   9   4  -7 -23.472  10.244   3
  -9   4   7  7.7369 19.8302   1
  -8   4   7 17.5208 18.3488   1
   8   4  -7 23.1976 17.7453   2
   8   4  -7 35.9014 10.3964   3
  -7   4   7 33.6192 17.3836   1
   7   4  -7 18.3725 15.5727   2
   6   4  -7 14.3086 14.4197   2
  -6   4   7  0.1106 16.3623   1
  -5   4   7 43.3746 15.1557   4
   5   4  -7 18.4126 13.2563   2
  -5   4   7 16.9496 15.7118   1
  -4   4   7  8.5812 11.8413   4
   4   4  -7  0.5111 12.6759   2
  -4   4   7 26.6635 15.3420   1
   3   4  -7 78.4950 12.6048   2
  -3   4   7 78.7735 13.2868   4
  -3   4   7 83.4149 15.6009   1
   2  -4  -7 250.565  17.216   1
   2   4  -7 238.453  15.273   2
   1  -4  -7 93.4143 14.1861   1
   1   4  -7 96.7036 12.7637   2
   0  -4  -7 64.1501 14.0459   1
   0   4  -7 51.3061 12.0381   2
  -1  -4  -7 41.3222 13.4897   1
  -1   4  -7 28.2983 12.5129   2
  -2  -4  -7 16.8831 12.8268   1
   2  -4   7 28.3101 17.8005   3
  -2   4  -7 25.9592 13.2764   2
   3  -4   7 53.8940 18.0633   3
  -3  -4  -7 46.5638 13.5545   1
  -3   4  -7 43.8527 14.1649   2
   4  -4   7 23.3918 17.3925   3
  -4  -4  -7 -0.1268 13.6252   1
  -4   4  -7  4.9570 14.2581   2
  -4   4  -7 19.4329 13.5566   1
   5  -4   7 50.5797 18.6702   3
  -5  -4  -7 65.3922 15.2458   1
  -5   4  -7 58.4965 16.7172   2
  -5   4  -7 68.3414 14.9859   1
  -6  -4  -7  3.5900 14.9019   1
   6  -4   7 -6.1833 18.8905   3
  -6   4  -7  7.0184 17.4948   2
  -6   4  -7  7.7032 15.9053   1
  -7  -4  -7 17.9499 16.8052   1
   7  -4   7 10.9248 19.9372   3
  -7   4  -7 24.3594 17.8632   1
   8  -4   7 26.4969 21.3993   3
  -8   4  -7 14.5819 19.9855   1
   8   4   7 -14.270  11.548   3
  -6   5   7 57.0220 21.0009   1
   6   5  -7 46.4962 17.8101   2
   5   5  -7 -2.9088 16.1976   2
  -5   5   7  7.0123 18.4296   1
  -4   5   7 25.6895 17.9888   1
  -4   5   7 50.6479 17.5102   4
   4   5  -7 33.3876 15.2181   2
   3   5  -7 -1.0584 13.4888   2
  -3   5   7 -5.5892 17.3507   4
  -3   5   7 -15.758  17.080   1
  -2   5   7 -0.8176 17.1229   1
  -2   5   7 -0.7383 14.7987   4
   2   5  -7 -3.1479 13.9417   2
   1   5  -7 -1.4654 13.6995   2
   0  -5  -7 117.401  18.990   1
   0   5  -7 101.901  16.424   2
  -1  -5  -7 195.852  19.610   1
  -1   5  -7 210.499  18.605   2
  -2  -5  -7  0.5872 17.6620   1
  -2   5  -7 37.8727 16.4803   2
  -3  -5  -7 30.4551 18.4324   1
  -3   5  -7 58.1106 17.9201   2
  -4  -5  -7 25.7953 18.4188   1
   4  -5   7 26.6924 24.3483   3
  -4   5  -7 32.9388 18.6223   2
   5  -5   7 -4.7440 24.3411   3
  -5  -5  -7 24.4646 18.8554   1
  -5   5  -7 29.8161 20.2516   2
   6  -5   7  9.5975 25.4310   3
  -6   5  -7 14.2643 20.6480   1
  -6   5  -7 18.9336 21.9640   2
  11   0  -8 24.4744 18.2920   2
  10   0  -8  3.4983 15.6093   2
   9   0  -8 -0.0895 14.1553   2
   8   0  -8 20.4808 12.4643   2
   7   0  -8 -5.6796 11.4074   2
   6   0  -8 -0.1741 10.6433   2
   5   0  -8 679.728  24.996   2
   4   0  -8 47.8103  9.8118   2
   4   0  -8 34.9162  7.3480   1
   3   0  -8 73.5261  9.9085   2
   3   0  -8 78.9126  7.3512   1
   2   0  -8 851.010  25.936   1
   2   0  -8 848.160  28.557   2
   1   0  -8 75.9727  7.3453   1
   1   0  -8 63.8657  9.1090   2
   0   0  -8 339.915  13.850   1
   0   0  -8 336.277  15.333   2
   0   0   8 326.335  15.238   3
   1   0   8 -2.5332  7.1685   3
  -1   0  -8 -3.8155  6.9445   1
  -1   0  -8 -4.7258  7.7185   2
  -2   0  -8 388.002  16.566   2
   2   0   8 401.408  16.985   3
  -2   0  -8 384.604  16.724   1
   3   0   8 6.28414 8.63024   3
  -3   0  -8 9.20264 8.46020   1
  -3   0  -8 6.97817 8.01093   2
   4   0   8 26.7206  9.9239   3
  -4   0  -8 10.0941  9.5906   1
  -5   0  -8 188.037  13.466   1
   5   0   8 190.220  15.018   3
   6   0   8 66.5705 14.4305   3
  -6   0  -8 79.0625 12.6031   1
  -7   0  -8  7.3240 13.7027   1
   7   0   8 16.7401 15.3627   3
  -8   0  -8  0.5173 15.0480   1
   8   0   8  4.4922 16.7109   3
   9   0   8  0.0674 18.0393   3
  -9   0  -8 15.9561 17.2215   1
 -10   0  -8 12.4191 18.5525   1
  10   0   8  4.4638 19.9826   3
  11   0   8 10.9091 22.1762   3
 -11   0  -8 30.5858 21.3040   1
  11  -1  -8  5.8203 19.9427   2
  11   1  -8  5.4481 18.4014   2
  10  -1  -8 105.733  21.013   2
  10   1  -8 123.360  17.818   2
   9  -1  -8 83.8501 16.3921   2
   9   1  -8 97.3973 15.9996   2
   8  -1  -8 57.8289 13.4619   2
   8   1  -8 54.3985 14.1490   2
   7  -1  -8 74.5437 12.4251   2
   7   1  -8 88.4333 13.3829   2
   6  -1  -8 514.676  22.115   2
  -6   1   8 562.500  22.081   1
  -6   1   8 561.882  21.585   4
   6   1  -8 545.352  23.272   2
   5  -1  -8 377.835  17.706   2
  -5   1   8 386.305  18.066   1
   5   1  -8 362.972  17.984   2
  -5   1   8 383.273  16.730   4
   4  -1  -8 413.203  18.085   2
   4  -1  -8 409.336  16.481   1
   4   1  -8 375.029  17.825   2
   3  -1  -8 112.551  10.585   2
   3  -1  -8 123.034   9.249   1
   3   1  -8 109.849  10.955   2
   2  -1  -8 17.0707  8.2611   2
   2  -1  -8 -5.8653  7.1320   1
   2   1  -8 -2.3363  8.0266   2
   2   1  -8 6.47612 5.78622   1
   1  -1  -8 37.5430  7.3015   1
   1  -1  -8 21.5516  7.9289   2
   1   1  -8 33.0596  6.3153   1
   1   1  -8 42.3641  8.8271   2
   0  -1   8 105.769  10.775   3
   0  -1  -8 91.9553  8.5508   2
   0  -1  -8 97.6350  8.3931   1
   0   1  -8 97.6017  8.2476   1
   0   1  -8 92.9926  9.5441   2
  -1  -1  -8 203.883  11.363   2
   1  -1   8 222.715  14.403   3
  -1   1  -8 220.699  12.954   2
  -1   1  -8 215.379  13.220   1
   1   1   8 204.434  12.113   3
  -2  -1  -8 236.966  11.706   2
  -2  -1  -8 224.806  13.137   1
   2  -1   8 225.337  13.825   3
  -2   1  -8 222.101  13.980   1
  -2   1  -8 225.818  13.264   2
   2   1   8 205.383  13.161   3
   3  -1   8 -5.0558  9.1573   3
  -3  -1  -8 7.61389 8.38126   1
  -3   1  -8 0.09548 9.30483   1
  -3   1  -8 0.09807 8.41108   2
   3   1   8 -9.5191  9.5019   3
   4  -1   8 142.692  12.617   3
  -4  -1  -8 113.553  11.340   1
  -4   1  -8 123.375  12.012   1
   4   1   8 145.216  12.963   3
  -4   1  -8 105.138  10.425   2
   5  -1   8 41.1208 12.6805   3
  -5  -1  -8 31.7488 11.0077   1
  -5   1  -8 20.1401 11.6925   1
   5   1   8 12.1604 12.9117   3
   6  -1   8 45.8450 13.9803   3
  -6  -1  -8 44.0488 12.0567   1
  -6   1  -8 34.7753 12.8954   1
   6   1   8 32.4315 14.7322   3
  -7  -1  -8 105.183  14.362   1
   7  -1   8 99.6282 15.8076   3
   7   1   8 110.057  17.125   3
  -7   1  -8 102.453  14.704   1
   8  -1   8 19.1668 15.9330   3
  -8  -1  -8 44.2455 15.1538   1
  -8   1  -8  8.9979 15.5291   1
   8   1   8 29.9864 18.1234   3
   9  -1   8 44.9769 17.8986   3
  -9  -1  -8 54.3971 17.2854   1
   9   1   8 38.1401 19.6573   3
  -9   1  -8 57.5573 17.5254   1
 -10  -1  -8  7.3048 18.8821   1
  10  -1   8 14.2894 19.6251   3
 -10   1  -8 10.6623 18.7759   1
  10   1   8 -1.4976 21.5192   3
 -11  -1  -8  3.0029 21.4021   1
  11  -1   8 -4.1272 21.8296   3
 -11   1  -8 -2.9831 21.1337   1
  11   1   8  2.0691 24.0675   3
  11   2  -8 16.0264 20.9628   2
  10  -2  -8 -0.3898 17.1216   2
  10   2  -8 -6.6916 18.1864   2
   9  -2  -8 28.1502 15.6548   2
   9   2  -8  5.3336 16.1927   2
   8  -2  -8 71.5789 14.7800   2
   8   2  -8 69.8681  9.4888   3
  -8   2   8 91.4676 15.2839   1
   8   2  -8 67.7813 15.1153   2
   7  -2  -8 24.8899 13.4491   2
   7   2  -8 3.72430 7.60883   3
  -7   2   8 22.8383 13.8552   1
   7   2  -8 27.8683 12.9965   2
   6  -2  -8 171.269  15.399   2
  -6   2   8 177.962  14.468   1
   6   2  -8 169.279  14.869   2
  -6   2   8 201.030  14.020   4
   5  -2  -8 188.202  15.162   2
  -5   2   8 180.464  14.096   1
  -5   2   8 165.412  12.397   4
   5   2  -8 194.367  13.885   2
   4  -2  -8 147.352  13.869   2
   4  -2  -8 139.665  11.957   1
   4   2  -8 162.242  12.891   2
   3  -2  -8 68.4366 12.4246   2
   3  -2  -8 59.9765  9.9406   1
   3   2  -8 67.5562 10.5181   2
   2  -2  -8 208.020  13.658   2
   2  -2  -8 197.472  11.902   1
   2   2  -8 182.218  12.618   2
   1  -2  -8 6.45914 9.43098   2
   1  -2  -8 3.64904 8.47543   1
   1   2  -8 0.91422 9.23381   2
   0  -2  -8 166.412  11.424   1
   0  -2  -8 207.884  11.637   2
   0  -2   8 155.723  15.226   3
   0   2  -8 184.956  10.519   1
   0   2  -8 206.631  12.681   2
  -1  -2  -8 83.8181  8.9232   2
  -1  -2  -8 83.4377  9.7441   1
   1  -2   8 84.5839 12.5416   3
  -1   2  -8 76.5610  9.3834   1
  -1   2  -8 96.1796 10.4007   2
   2  -2   8 129.016  13.681   3
  -2  -2  -8 126.407  10.685   1
  -2   2  -8 128.918  11.073   2
  -2   2  -8 129.001  11.096   1
   3  -2   8 526.016  23.686   3
  -3   2  -8 560.168  21.921   1
  -3   2  -8 521.962  21.851   2
   4  -2   8 41.6495 12.3942   3
  -4  -2  -8 20.0075 10.4138   1
  -4   2  -8 28.4256 11.3366   2
  -4   2  -8 29.4235 11.2684   1
   4   2   8 12.7159 12.2321   3
   5  -2   8 39.4616 13.4244   3
  -5  -2  -8 32.2770 11.0386   1
   5   2   8 65.4795 14.5812   3
  -5   2  -8 39.0655 12.2303   1
  -6  -2  -8 13.2380 12.3165   1
   6  -2   8 -6.6350 13.8064   3
   6   2   8  6.6352 15.2608   3
  -6   2  -8 33.5673 13.1070   1
   7  -2   8 10.7003 15.2657   3
  -7  -2  -8  0.4483 13.8236   1
  -7   2  -8  9.0717 14.4065   1
   7   2   8 -11.744  16.878   3
  -8  -2  -8 14.8616 16.2831   1
   8  -2   8 -8.6020 16.9324   3
  -8   2  -8 -8.3355 16.0072   1
   8   2   8 -6.0291 18.5209   3
   9  -2   8 39.0532 18.8155   3
  -9  -2  -8 72.9453 19.1403   1
   9   2   8 48.5132 20.7821   3
  -9   2  -8 59.5726 18.5321   1
  10  -2   8 21.7861 21.0224   3
 -10  -2  -8 21.6957 21.0662   1
  10   2   8  8.3285 22.6291   3
 -10   2  -8  8.6727 19.9440   1
  10  -3  -8 6.12693 9.06883   2
  10   3  -8 16.4296 10.5312   3
  10   3  -8 28.8636 20.8361   2
 -10   3   8 19.0192 21.0043   1
   9  -3  -8 29.1872  8.6132   2
   9   3  -8  9.3764 10.1041   3
   9   3  -8 28.4295 18.0581   2
  -9   3   8 16.0838 18.1704   1
   8  -3  -8 64.1785  8.5638   2
  -8   3   8 52.0026 16.8665   1
   8   3  -8 49.3951 16.3105   2
   8   3  -8 52.5693 11.2689   3
   7  -3  -8 30.0310  7.7315   2
  -7   3   8 27.2431 15.9030   1
   7   3  -8 26.2415 14.8101   2
   6  -3  -8 21.5946  7.4714   2
  -6   3   8 -7.8551 13.1511   4
  -6   3   8  1.6262 13.7698   1
   6   3  -8  8.9842 13.4097   2
   5  -3  -8 13.7077  7.0737   2
  -5   3   8 -4.0772 11.2520   4
   5   3  -8  8.5741 12.4101   2
  -5   3   8 -4.6352 13.6725   1
   4  -3  -8 9.23018 6.70179   2
  -4   3   8  1.4410 11.7333   4
  -4   3   8 -6.6295 13.6178   1
   4   3  -8  2.1289 11.3462   2
   3  -3  -8 190.882  14.332   1
   3   3  -8 185.480  14.056   2
   2  -3  -8 41.1973 11.3524   1
   2  -3  -8 31.3127  5.9211   2
   2   3  -8 60.9037 11.4392   2
   1  -3  -8 403.929  15.653   2
   1  -3  -8 479.441  20.133   1
   1   3  -8 432.660  19.682   2
   0  -3  -8 31.3786 10.9523   1
   0   3  -8 43.1776 10.7539   2
   1  -3   8 15.1882 15.2415   3
  -1  -3  -8 41.6503 11.5258   1
  -1   3  -8 41.3483 11.4203   2
  -2  -3  -8 123.312  12.569   1
   2  -3   8 96.5884 15.7197   3
  -2   3  -8 80.8113 11.9121   1
  -2   3  -8 99.8539 12.8767   2
   3  -3   8 47.5525 14.9947   3
  -3  -3  -8 42.8673 11.9790   1
  -3   3  -8 36.9747 11.8332   1
  -3   3  -8 51.5015 13.1463   2
   4  -3   8 753.262  31.890   3
  -4  -3  -8 740.703  27.178   1
  -4   3  -8 797.770  28.877   1
  -4   3  -8 741.425  29.249   2
   5  -3   8 12.5480 14.9969   3
  -5  -3  -8  4.9822 11.8820   1
  -5   3  -8  8.7670 13.4575   1
  -5   3  -8  3.5321 14.2497   2
   6  -3   8 25.2039 15.8327   3
  -6  -3  -8 35.4961 12.8215   1
  -6   3  -8 37.6607 14.9249   1
  -7  -3  -8 10.6297 14.1621   1
   7  -3   8  3.5501 17.0248   3
  -7   3  -8  1.1258 16.1207   1
   7   3   8 22.0022 19.6519   3
  -8  -3  -8 19.3398 17.0641   1
   8  -3   8 23.3255 18.9492   3
  -8   3  -8 23.7041 18.3327   1
   8   3   8 41.4069 21.8072   3
  -9  -3  -8 17.6283 18.6875   1
   9  -3   8 31.7773 21.0669   3
   9   3   8 53.5758 23.7247   3
  -9   3  -8 26.1046 20.8049   1
   8   4  -8 -1.8062 18.4626   2
  -8   4   8 22.6683 19.4398   1
   8   4  -8 -2.7220 10.3378   3
   7   4  -8 30.7818 17.3141   2
  -7   4   8 55.3342 18.9855   1
   6   4  -8 23.5347 15.5389   2
  -6   4   8 -0.0163 17.3018   1
   5   4  -8 19.1741 14.2269   2
  -5   4   8 37.9209 17.6246   1
  -5   4   8 39.7636 16.4492   4
  -4   4   8  3.2170 13.2191   4
  -4   4   8 19.4084 16.6133   1
   4   4  -8 11.1883 13.6099   2
  -3   4   8  5.1261 13.5345   4
  -3   4   8 11.5976 15.7842   1
   3   4  -8 -6.0329 12.7891   2
   2  -4  -8 112.454  16.113   1
   2   4  -8 90.0231 13.3958   2
   1  -4  -8 39.9812 14.7895   1
   1   4  -8 34.4665 12.4434   2
   0  -4  -8 179.820  16.791   1
   0   4  -8 154.183  15.049   2
  -1  -4  -8 37.7329 14.3017   1
  -1   4  -8 29.0085 13.1216   2
   2  -4   8 49.6381 19.4425   3
  -2  -4  -8 54.7987 14.5690   1
  -2   4  -8 47.6092 14.1726   2
   3  -4   8 262.624  22.941   3
  -3  -4  -8 280.408  18.320   1
  -3   4  -8 303.932  19.190   2
   4  -4   8 60.6103 19.3293   3
  -4  -4  -8 89.5605 15.8982   1
  -4   4  -8 70.9894 16.7118   2
  -4   4  -8 82.0424 15.1918   1
   5  -4   8 16.4846 19.1666   3
  -5  -4  -8 12.1288 15.5479   1
  -5   4  -8 11.8718 15.4465   1
  -5   4  -8 13.0640 16.7204   2
  -6  -4  -8 -9.4991 15.8809   1
   6  -4   8  3.3665 20.3414   3
  -6   4  -8 -12.750  18.179   2
  -6   4  -8 10.1486 16.7705   1
   7  -4   8 -6.6076 20.6002   3
  -7  -4  -8 12.8597 17.8506   1
  -7   4  -8 -6.2081 18.0060   1
  -8  -4  -8 35.0024 19.6142   1
   8  -4   8 12.7576 22.6156   3
  -8   4  -8 11.5063 20.3385   1
   5   5  -8 11.7904 17.4852   2
  -5   5   8 -8.6780 20.1808   1
   4   5  -8 23.6280 16.5922   2
  -4   5   8 29.2974 18.8277   4
  -4   5   8 33.4445 19.7344   1
   3   5  -8 -9.3945 15.5075   2
  -3   5   8 15.4506 16.1744   4
  -3   5   8 -18.068  18.890   1
  -2   5   8 -24.116  16.068   4
   2   5  -8  8.1674 14.1941   2
  -2   5   8 -7.3841 18.7948   1
   1  -5  -8 11.3916 18.6386   1
   1   5  -8  3.5469 15.2488   2
   0  -5  -8  3.1977 18.4010   1
   0   5  -8 -10.993  15.303   2
  -1  -5  -8 28.7258 18.4852   1
  -1   5  -8 10.0474 16.1207   2
  -2  -5  -8 20.4617 19.2258   1
  -2   5  -8 15.2273 17.4728   2
  -3  -5  -8 41.8216 19.3399   1
  -3   5  -8 37.4461 18.5937   2
  -4  -5  -8 13.2799 19.7524   1
   4  -5   8 -6.0639 25.5205   3
  -4   5  -8 31.9759 20.0747   2
   5  -5   8 40.5321 26.8246   3
  -5  -5  -8 31.5726 20.7009   1
  -5   5  -8 47.0938 21.4765   2
  11   0  -9 44.3882 19.1632   2
  10   0  -9 124.849  17.899   2
   9   0  -9 -1.8855 14.7565   2
   8   0  -9  7.5346 13.0893   2
   7   0  -9  7.3313 12.1243   2
   6   0  -9 197.466  14.986   2
   5   0  -9 17.6295 11.1762   2
   4   0  -9 38.2773  8.3865   1
   4   0  -9 28.3096 10.9316   2
   3   0  -9 129.507   9.161   1
   3   0  -9 98.8326 11.7757   2
   2   0  -9 101.815  11.364   2
   2   0  -9 96.9078  8.7113   1
   1   0  -9 4.22657 7.58613   1
   1   0  -9 15.5611  9.8303   2
   0   0  -9 73.1478  8.6563   1
   0   0   9 91.8505 10.2131   3
   0   0  -9 89.1631 10.4941   2
   1   0   9 46.2913  9.0088   3
  -1   0  -9 42.2725  8.4369   1
  -1   0  -9 36.3214  9.6165   2
  -2   0  -9 15.2041  9.2382   1
   2   0   9 23.7209  9.0784   3
  -2   0  -9 7.11833 9.50671   2
  -3   0  -9 325.397  16.722   1
   3   0   9 319.296  17.158   3
   4   0   9 205.331  14.813   3
  -4   0  -9 206.449  13.762   1
  -5   0  -9 17.2765 11.9568   1
   5   0   9  7.4643 13.1604   3
   6   0   9 80.1665 16.5613   3
  -6   0  -9 68.3924 13.9409   1
  -7   0  -9 17.3904 14.7702   1
   7   0   9 -1.1940 17.0454   3
  -8   0  -9 -11.238  15.749   1
   8   0   9 -1.6180 18.4853   3
  -9   0  -9 -10.277  17.570   1
   9   0   9 12.3637 19.8198   3
 -10   0  -9 28.8330 19.6734   1
  10   0   9  0.3365 21.1737   3
  11   0   9 22.4930 24.0066   3
 -11   0  -9  3.6007 22.1857   1
  11  -1  -9 14.6369 22.3512   2
  11   1  -9 39.6581 19.9019   2
  10  -1  -9 -8.3584 19.9923   2
  10   1  -9 16.0102 17.0213   2
   9  -1  -9 53.9333 16.6927   2
   9   1  -9 29.7490 16.0065   2
   8  -1  -9 18.1597 13.7619   2
   8   1  -9 30.9828 14.2140   2
   7  -1  -9 27.4471 12.6169   2
   7   1  -9 42.6329 13.7662   2
   6  -1  -9 99.3762 13.2741   2
  -6   1   9 109.254  12.309   4
  -6   1   9 97.4192 13.4189   1
   6   1  -9 101.855  13.498   2
   5  -1  -9  5.0403 11.4995   2
   5   1  -9 -1.3659 10.8181   2
  -5   1   9 -11.204  10.454   4
   4  -1  -9 10.9663 10.8000   2
   4  -1  -9 21.7225  9.2018   1
   4   1  -9 26.9889 10.7096   2
   3  -1  -9 138.705  12.358   2
   3  -1  -9 136.085  10.394   1
   3   1  -9 119.119  12.062   2
   2  -1  -9 78.8756 10.4712   2
   2  -1  -9 78.3725  9.3943   1
   2   1  -9 101.874  11.245   2
   1  -1  -9 76.7868  9.0189   1
   1  -1  -9 77.2513  9.9097   2
   1   1  -9 65.3436  7.8149   1
   1   1  -9 83.6202 10.5831   2
   0  -1  -9 42.3888  8.3729   1
   0  -1  -9 45.7247  9.1507   2
   0  -1   9 36.6747 11.7450   3
   0   1  -9 37.0979  8.5220   1
   0   1  -9 43.4516 10.0293   2
  -1  -1  -9 551.432  21.105   2
   1  -1   9 601.393  24.089   3
  -1   1  -9 602.772  21.379   1
  -1   1  -9 595.187  22.581   2
  -2  -1  -9 937.801  30.063   1
   2  -1   9 924.763  33.438   3
  -2   1  -9 988.439  30.774   1
  -2   1  -9 906.959  31.199   2
  -3  -1  -9 330.537  16.483   1
   3  -1   9 315.066  17.495   3
  -3   1  -9 320.946  17.688   1
  -3   1  -9 285.210  16.487   2
   3   1   9 310.387  18.106   3
  -4  -1  -9  3.0829 10.8981   1
   4  -1   9  9.1978 12.2325   3
  -4   1  -9 -2.3768 11.8298   1
   4   1   9 14.5382 12.2048   3
  -5  -1  -9 22.2825 12.2217   1
   5  -1   9  9.1278 13.8652   3
   5   1   9 10.2953 14.3348   3
  -5   1  -9 20.3858 12.8990   1
  -6  -1  -9 64.5817 14.0999   1
   6  -1   9 72.5613 16.2837   3
  -6   1  -9 73.2920 14.4994   1
   6   1   9 79.9124 16.4452   3
  -7  -1  -9 11.6631 13.9357   1
   7  -1   9 21.4331 16.3305   3
   7   1   9 27.6010 18.5655   3
  -7   1  -9 25.2377 15.3337   1
  -8  -1  -9 26.0993 15.7194   1
   8  -1   9 18.0156 17.2781   3
  -8   1  -9 22.6865 16.8787   1
   8   1   9 12.6191 19.7206   3
   9  -1   9 50.0286 19.3419   3
  -9  -1  -9 62.7984 18.0202   1
  -9   1  -9 74.6261 19.1092   1
   9   1   9 46.7243 21.7999   3
  10  -1   9 35.8318 20.9519   3
 -10  -1  -9 66.2251 20.2594   1
 -10   1  -9 21.2427 20.6271   1
  10   1   9 44.2794 24.0826   3
  10  -2  -9 18.3006 18.0050   2
  10   2  -9 32.3162 19.3339   2
   9  -2  -9 60.4744 17.0784   2
   9   2  -9 73.2463 17.8414   2
   8  -2  -9  6.7603 15.3102   2
   8   2  -9 14.3723 15.7523   2
  -8   2   9 33.6184 15.7627   1
   7  -2  -9 16.3245 14.2128   2
  -7   2   9 20.0851 14.1717   1
   7   2  -9 -2.3468 13.5955   2
   6  -2  -9 17.1734 14.1150   2
  -6   2   9 30.4495 13.9010   1
  -6   2   9 17.9299 12.6058   4
   6   2  -9 17.0885 12.8878   2
   5  -2  -9 35.9148 14.0070   2
  -5   2   9 23.3801 11.8602   4
  -5   2   9 39.9791 13.5007   1
   5   2  -9 31.4799 12.7190   2
   4  -2  -9 -3.0926 10.7273   1
   4  -2  -9 -2.5982 13.5360   2
   4   2  -9 -8.5430 11.1865   2
   3  -2  -9 89.1339 11.3042   1
   3  -2  -9 58.4620 13.9816   2
   3   2  -9 58.0686 11.8194   2
   2  -2  -9 75.0376 13.2768   2
   2  -2  -9 101.107  11.352   1
   2   2  -9 109.312  12.306   2
   1  -2  -9 36.0242 10.0761   1
   1  -2  -9 33.2690 11.4337   2
   1   2  -9 34.3441 10.7536   2
   0  -2   9 158.527  16.522   3
   0  -2  -9 155.845  11.975   1
   0  -2  -9 155.537  12.191   2
   0   2  -9 155.835  13.086   2
  -1  -2  -9 56.1771 10.4842   1
  -1  -2  -9 81.5366 10.0002   2
   1  -2   9 75.1551 14.5800   3
  -1   2  -9 63.8705 11.6237   2
  -1   2  -9 60.0398 10.2463   1
   2  -2   9 966.956  36.245   3
  -2  -2  -9 975.015  31.240   1
  -2   2  -9 937.948  33.075   2
  -2   2  -9 974.737  32.163   1
   3  -2   9 238.701  16.793   3
  -3  -2  -9 229.934  14.874   1
  -3   2  -9 209.367  14.574   2
  -3   2  -9 212.893  14.947   1
   4  -2   9  3.1643 13.2353   3
  -4  -2  -9 22.8129 11.5226   1
  -4   2  -9 24.5285 12.9074   1
  -4   2  -9 27.0852 11.6924   2
   5  -2   9 37.9155 14.6729   3
  -5  -2  -9 24.7010 12.0751   1
  -5   2  -9 31.2365 14.1130   1
  -6  -2  -9 67.1787 13.3653   1
   6  -2   9 60.9693 15.9134   3
   6   2   9 34.5527 17.3895   3
  -6   2  -9 45.6294 15.4349   1
   7  -2   9 -1.7541 16.1356   3
  -7  -2  -9  3.2085 14.6611   1
   7   2   9 -3.9104 19.1541   3
  -7   2  -9  9.0992 16.1424   1
  -8  -2  -9 -1.2767 16.7066   1
   8  -2   9  3.5346 17.5140   3
   8   2   9 -2.8393 21.1839   3
  -8   2  -9 -6.9470 17.7184   1
   9  -2   9  6.9805 20.1675   3
  -9  -2  -9 20.8555 19.0084   1
  -9   2  -9 29.2211 20.3088   1
   9   2   9 16.4404 22.9723   3
  10  -2   9 19.1791 22.6289   3
 -10  -2  -9 22.6913 22.3661   1
 -10   2  -9 20.0432 22.9960   1
  10   2   9 12.5260 25.1056   3
   9  -3  -9 37.2075  9.3635   2
   9   3  -9 13.1444 18.8827   2
  -9   3   9 -6.6641 18.8684   1
   8  -3  -9 36.2823  8.8480   2
   8   3  -9 20.4516 17.1273   2
  -8   3   9  9.7628 17.6264   1
   8   3  -9 25.4589 11.1128   3
   7  -3  -9 37.7521  8.9302   2
  -7   3   9  8.3244 16.2099   1
   7   3  -9 24.0200 16.5573   2
   6  -3  -9 71.8474  9.5135   2
  -6   3   9 53.8973 15.4081   4
  -6   3   9 51.4601 16.5635   1
   6   3  -9 54.9469 14.7729   2
   5  -3  -9 5.98884 7.66385   2
   5   3  -9  6.5930 13.2012   2
  -5   3   9 27.2335 15.4983   1
  -5   3   9  3.8836 12.7447   4
   4  -3  -9 27.1581  7.5464   2
   4   3  -9 13.0784 12.4879   2
   3  -3  -9 90.4610 13.8489   1
   3  -3  -9 91.5854  8.9798   2
   3   3  -9 103.771  13.743   2
   2  -3  -9  2.8623 12.4553   1
   2  -3  -9 -8.5621  6.3493   2
   2   3  -9 -0.3289 11.9535   2
   1  -3  -9 -12.339   5.627   2
   1  -3  -9 12.3210 11.9794   1
   1   3  -9 17.1153 12.1106   2
   0  -3  -9 -3.5498  5.3550   2
   0  -3  -9 18.0454 12.1555   1
   0   3  -9 14.2603 12.0054   2
   1  -3   9 116.050  18.532   3
  -1  -3  -9 126.024  14.038   1
  -1   3  -9 141.863  13.624   2
   2  -3   9 155.123  18.503   3
  -2  -3  -9 157.433  14.313   1
  -2   3  -9 154.357  14.974   2
  -3  -3  -9  6.1750 12.1893   1
   3  -3   9 18.0695 15.6210   3
  -3   3  -9  0.8440 12.7227   1
  -3   3  -9 14.6497 13.5807   2
  -4  -3  -9 52.2802 12.7772   1
   4  -3   9 40.4862 16.5648   3
  -4   3  -9 39.0768 14.5080   2
  -4   3  -9 44.1483 13.9720   1
   5  -3   9 22.1349 16.3805   3
  -5  -3  -9 11.1317 13.1161   1
  -5   3  -9 14.5794 15.4405   2
  -5   3  -9 23.1349 14.7898   1
  -6  -3  -9 15.6881 14.2031   1
   6  -3   9 20.4221 17.5016   3
  -6   3  -9 39.7872 16.3357   1
  -7  -3  -9 -7.5400 14.7990   1
   7  -3   9 25.1131 18.2814   3
  -7   3  -9 11.6449 17.6872   1
   8  -3   9  7.4118 19.6676   3
  -8  -3  -9  0.3112 17.2741   1
  -8   3  -9  9.2439 19.4950   1
  -9  -3  -9 -0.9349 20.6831   1
   9  -3   9 16.0323 22.3501   3
  -9   3  -9 12.3828 21.7289   1
  -7   4   9 75.0290 20.5080   1
   7   4  -9 74.5265 19.1888   2
  -6   4   9 19.6416 18.0254   4
  -6   4   9 46.2835 19.1042   1
   6   4  -9 64.6791 17.0937   2
  -5   4   9 96.4058 19.6025   1
   5   4  -9 66.2778 16.2585   2
  -5   4   9 77.3497 18.3031   4
   4   4  -9  1.0048 14.4532   2
  -4   4   9 -5.1096 14.3141   4
  -4   4   9 -3.1233 17.4466   1
   3  -4  -9 47.3533 17.0033   1
   3   4  -9 35.3150 14.4980   2
   2  -4  -9 120.869  17.319   1
   2   4  -9 105.043  15.475   2
   1  -4  -9 46.5296 15.9539   1
   1   4  -9 51.1309 13.9430   2
   0  -4  -9 -10.006  15.281   1
   0   4  -9 18.0228 13.1373   2
  -1  -4  -9 -1.1840 15.4902   1
  -1   4  -9  7.0762 14.2668   2
  -2  -4  -9 12.1300 15.2008   1
   2  -4   9 12.2828 20.0171   3
  -2   4  -9  8.1157 15.0368   2
   3  -4   9 26.0528 20.8362   3
  -3  -4  -9 21.4523 15.5060   1
  -3   4  -9 -7.5177 15.6597   2
   4  -4   9 -2.1691 19.9837   3
  -4  -4  -9 10.6865 15.5038   1
  -4   4  -9  3.1747 16.9267   2
  -5  -4  -9 -15.133  16.322   1
   5  -4   9 -0.0652 19.5699   3
  -5   4  -9 25.3746 17.9139   1
  -5   4  -9 11.7292 18.1723   2
   6  -4   9 33.1087 21.7434   3
  -6  -4  -9 -3.8094 16.9979   1
  -6   4  -9  0.7182 19.0196   1
  -7  -4  -9 28.5639 19.6241   1
   7  -4   9 15.2296 22.8287   3
  -7   4  -9  8.8191 20.3344   1
  -4   5   9 -17.880  20.880   4
   4   5  -9 17.1117 18.1575   2
  -4   5   9 33.0122 22.3067   1
   3   5  -9 -1.2385 17.1970   2
  -3   5   9 -4.2427 20.8339   1
  -3   5   9  0.2793 17.5905   4
  -2   5   9 -8.1730 20.7745   1
   2   5  -9  6.4575 16.3133   2
  -2   5   9 -1.8888 17.7030   4
   1  -5  -9 19.7689 20.0294   1
   1   5  -9 -4.3679 15.3074   2
   0  -5  -9 -15.326  19.325   1
   0   5  -9 15.7078 16.4530   2
  -1  -5  -9 10.1061 19.4603   1
  -1   5  -9 10.1878 17.4943   2
  -2  -5  -9 -0.4495 20.2241   1
  -2   5  -9 -15.398  17.644   2
  -3  -5  -9 20.5675 20.1047   1
  -3   5  -9 39.0207 19.7991   2
   4  -5   9 28.7198 27.2523   3
  -4  -5  -9  7.9567 21.2236   1
  -4   5  -9 18.8457 21.0340   2
  10   0 -10 -0.4362 17.2971   2
   9   0 -10 62.6151 16.7499   2
   8   0 -10 -11.942  13.712   2
   7   0 -10 -4.8164 12.9953   2
   6   0 -10 117.778  14.230   2
   5   0 -10  2.8440 11.9265   2
   4   0 -10 37.6773 12.1095   2
   3   0 -10 152.995  13.820   2
   3   0 -10 182.023  11.418   1
   2   0 -10 192.984  11.511   1
   2   0 -10 194.102  14.345   2
   1   0 -10 18.6008  8.7464   1
   1   0 -10 11.2482 10.9594   2
   0   0 -10 24.9746  8.8978   1
   0   0 -10 114.202  12.264   2
  -1   0 -10 442.953  20.214   2
  -1   0 -10 451.940  18.409   1
   2   0  10 61.4007 11.0922   3
  -2   0 -10 56.5425 11.5892   2
  -2   0 -10 53.1411 10.8047   1
   3   0  10 13.5747 11.3377   3
  -3   0 -10 32.2647 11.6510   1
   4   0  10 193.854  16.420   3
  -4   0 -10 192.891  14.388   1
   5   0  10  8.3443 15.1825   3
  -5   0 -10  4.2799 12.8927   1
   6   0  10 101.042  17.910   3
  -6   0 -10 141.611  16.408   1
  -7   0 -10 -6.4989 15.3750   1
   7   0  10 13.3095 18.4700   3
  -8   0 -10 -20.839  17.329   1
   8   0  10 27.2476 20.4952   3
   9   0  10 25.9894 21.8362   3
  -9   0 -10 -3.0279 19.8644   1
  10   0  10 -14.959  23.750   3
 -10   0 -10  1.4751 21.7235   1
  10  -1 -10 13.6943 20.7197   2
  10   1 -10 95.7945 18.9848   2
   9  -1 -10 -16.667  15.971   2
   9   1 -10  9.5831 16.5308   2
   8  -1 -10  0.7579 14.5210   2
   8   1 -10 -4.4054 15.1240   2
   7  -1 -10  2.2903 13.1629   2
   7   1 -10 22.7303 14.3076   2
   6  -1 -10  8.1306 12.5043   2
   6   1 -10 21.6871 13.4586   2
   5  -1 -10 21.7008 11.2505   1
   5  -1 -10  9.9522 12.1560   2
   5   1 -10  5.4660 12.8284   2
   4  -1 -10 15.7297 10.4631   1
   4  -1 -10 -10.298  11.952   2
   4   1 -10 19.4073 11.9011   2
   3  -1 -10 90.4794 10.9367   1
   3  -1 -10 57.8845 12.4004   2
   3   1 -10 61.8501 11.9189   2
   2  -1 -10 10.0086  9.6951   1
   2  -1 -10 -4.7201 10.7723   2
   2   1 -10 16.5164 11.5223   2
   1  -1 -10  1.4216 10.4409   2
   1  -1 -10 -3.7149  9.2992   1
   1   1 -10  0.1320 11.1907   2
   1   1 -10 -2.8930  8.4326   1
   0  -1 -10 21.3549 10.4861   2
   0  -1 -10 18.1383  9.4553   1
   0  -1  10 20.8256 13.3874   3
   0   1 -10 20.6258  8.9987   1
   0   1 -10 18.9457 10.8496   2
   1  -1  10 13.1540 12.5727   3
  -1  -1 -10 10.2463  9.2386   1
  -1  -1 -10  0.6975 10.1936   2
  -1   1 -10  0.5110 11.6988   2
  -1   1 -10 -0.8213 10.1270   1
   2  -1  10  8.7590 12.2641   3
  -2  -1 -10 12.3747 10.3264   1
  -2   1 -10 25.7663 11.5921   2
  -2   1 -10 -17.343  10.029   1
   3  -1  10 -2.1463 12.4172   3
  -3  -1 -10  5.0507 10.0424   1
  -3   1 -10 19.5151 11.7626   1
   4  -1  10 51.8970 14.2958   3
  -4  -1 -10 49.8103 12.1739   1
  -4   1 -10 36.9554 13.2519   1
  -5  -1 -10 381.006  22.519   1
   5  -1  10 394.878  23.500   3
  -5   1 -10 441.289  23.340   1
   5   1  10 439.321  24.605   3
  -6  -1 -10 97.9983 15.6132   1
   6  -1  10 102.151  17.905   3
  -6   1 -10 89.8704 16.4301   1
   6   1  10 114.491  18.707   3
   7  -1  10 18.8359 18.1184   3
  -7  -1 -10  6.8457 16.3055   1
  -7   1 -10  5.5870 17.0332   1
   7   1  10  9.8559 19.9564   3
   8  -1  10 44.8706 20.1812   3
  -8  -1 -10 34.7266 17.7638   1
   8   1  10 22.5849 21.8514   3
  -8   1 -10 22.8702 18.9236   1
   9  -1  10  4.8020 21.1188   3
  -9  -1 -10 -2.6887 19.3847   1
   9   1  10 -3.7805 23.2672   3
  -9   1 -10 17.0205 20.4799   1
 -10  -1 -10 -39.104  21.052   1
  10  -1  10 -5.2320 22.8316   3
  10   1  10 11.3426 25.6581   3
 -10   1 -10 -2.2609 22.9759   1
   9  -2 -10 24.9547 17.8316   2
   9   2 -10 19.6869 18.5488   2
   8  -2 -10 52.0239 16.3770   2
   8   2 -10 53.0211 17.3153   2
   7  -2 -10 78.5314 16.8074   2
   7   2 -10 114.503  16.465   2
  -7   2  10 128.623  16.825   1
  -6   2  10 210.992  17.662   1
   6   2 -10 190.585  16.895   2
  -6   2  10 209.529  15.425   4
   5  -2 -10  9.6351 16.0889   2
  -5   2  10 26.3206 14.7013   1
   5   2 -10 26.4486 13.4146   2
  -5   2  10  8.4187 13.1793   4
   4  -2 -10 -4.1931 11.9200   1
   4  -2 -10 16.4619 15.8041   2
   4   2 -10 16.9655 12.5149   2
   3  -2 -10 32.5492 15.2170   2
   3  -2 -10 66.4009 12.5212   1
   3   2 -10 41.9744 12.8729   2
   2  -2 -10 78.1762 15.4308   2
   2  -2 -10 124.732  12.735   1
   2   2 -10 120.602  13.527   2
   1  -2 -10 89.5072 12.0204   1
   1  -2 -10 73.9487 14.2740   2
   1   2 -10 88.7134 12.9933   2
   0  -2 -10 69.3987 12.6835   2
   0  -2 -10 70.1450 11.8300   1
   0   2 -10 63.8674 13.0209   2
   1  -2  10 94.0536 16.4931   3
  -1  -2 -10 80.8184 11.8699   1
  -1   2 -10 89.0357 13.4144   2
   2  -2  10 77.8407 15.5547   3
  -2  -2 -10 69.4221 11.4949   1
  -2   2 -10 63.8605 12.4472   1
  -2   2 -10 63.2068 13.6555   2
  -3  -2 -10 29.9963 11.1783   1
   3  -2  10 18.0347 15.2183   3
  -3   2 -10 23.9884 13.2859   2
  -3   2 -10 18.4624 13.6613   1
  -4  -2 -10 -7.7238 11.9088   1
   4  -2  10  1.3906 15.2461   3
  -4   2 -10 23.0597 13.9679   1
   5  -2  10 24.9423 15.8773   3
  -5  -2 -10 23.4260 13.3293   1
  -5   2 -10 28.5497 15.2693   1
  -6  -2 -10  2.2018 14.0753   1
   6  -2  10 -0.6122 16.7360   3
  -6   2 -10  7.8519 16.1648   1
   7  -2  10  0.7976 17.7461   3
  -7  -2 -10 -2.4534 15.5556   1
  -7   2 -10 -10.746  17.511   1
   8  -2  10  9.4923 19.1495   3
  -8  -2 -10  1.1655 17.8435   1
  -8   2 -10  2.7168 19.2413   1
   8   2  10  5.7442 23.7727   3
   9  -2  10 -2.2273 21.2525   3
  -9  -2 -10  6.5987 20.3737   1
  -9   2 -10 -1.9788 21.7069   1
   9   2  10 15.8176 25.5219   3
  -8   3  10 74.7463 20.2188   1
   8   3 -10 52.8661 18.7372   2
   7  -3 -10 57.3402  9.4260   2
   7   3 -10 12.3824 17.1850   2
  -7   3  10 11.2999 17.2756   1
   6  -3 -10 25.2307  8.1957   2
   6   3 -10 -1.7073 15.3175   2
  -6   3  10 21.7973 16.9868   1
  -6   3  10 -1.6766 15.8408   4
   5  -3 -10 15.8372  8.1586   2
  -5   3  10  8.8404 16.6956   1
  -5   3  10 -2.0431 14.5716   4
   5   3 -10 12.7883 15.0778   2
   4  -3 -10 21.2161  8.0755   2
   4  -3 -10 -8.4046 14.4686   1
   4   3 -10  1.2104 13.5068   2
   3  -3 -10 107.835  14.834   1
   3  -3 -10 103.873   9.962   2
   3   3 -10 116.605  14.938   2
   2  -3 -10 -14.426   7.347   2
   2  -3 -10 -11.004  13.788   1
   2   3 -10 -0.0844 13.0268   2
   1  -3 -10 15.6366 13.4007   1
   1  -3 -10 2.22783 6.68508   2
   1   3 -10 14.5129 13.4395   2
   0  -3 -10 92.6480 14.3644   1
   0   3 -10 75.5006 14.2046   2
   1  -3  10  8.3551 18.8120   3
  -1  -3 -10 -3.2787 13.3214   1
  -1   3 -10 -1.2058 13.8314   2
   2  -3  10 55.9948 18.6646   3
  -2  -3 -10 37.5972 13.8099   1
  -2   3 -10 59.7855 14.7069   2
  -3  -3 -10 29.1033 13.1108   1
   3  -3  10 23.5357 17.4315   3
  -3   3 -10 34.1201 14.6083   2
  -4  -3 -10 26.7327 13.5413   1
   4  -3  10 23.4949 18.1270   3
  -4   3 -10 -5.0097 15.6558   2
  -4   3 -10 22.7124 16.5877   1
   5  -3  10  3.1230 18.0222   3
  -5  -3 -10 14.9669 14.0486   1
  -5   3 -10 27.2638 17.3455   1
   6  -3  10  5.0827 18.8009   3
  -6  -3 -10  9.3689 15.0281   1
  -6   3 -10 -3.5096 17.7036   1
  -7  -3 -10  7.0557 16.2782   1
   7  -3  10 -13.730  20.411   3
  -7   3 -10 -1.1496 18.9665   1
  -8  -3 -10  9.6697 18.1377   1
   8  -3  10 17.0902 21.5422   3
  -8   3 -10 20.4510 21.0875   1
  -6   4  10 -6.5641 18.7693   4
  -6   4  10  0.4282 20.3968   1
   6   4 -10 -16.265  18.226   2
  -5   4  10 28.4830 20.3312   1
  -5   4  10 31.7509 16.5191   4
   5   4 -10 27.6953 17.4132   2
  -4   4  10 37.6223 19.9953   1
  -4   4  10 35.9015 16.7117   4
   4   4 -10 20.7568 16.3980   2
   3  -4 -10 45.2838 18.1254   1
   3   4 -10 25.1389 15.5889   2
   2  -4 -10 100.982  18.351   1
   2   4 -10 76.0962 16.4456   2
   1  -4 -10 39.9831 17.2741   1
   1   4 -10  4.6027 15.3270   2
   0  -4 -10 15.6626 16.6260   1
   0   4 -10 23.9136 15.2928   2
  -1  -4 -10 60.6404 16.9188   1
  -1   4 -10 35.8253 15.5815   2
  -2  -4 -10 146.486  18.488   1
  -2   4 -10 127.226  17.677   2
   3  -4  10 20.9765 22.3904   3
  -3  -4 -10 25.9845 16.8233   1
  -3   4 -10 13.3708 17.1095   2
   4  -4  10 -2.8376 21.9723   3
  -4  -4 -10 -16.752  16.704   1
  -4   4 -10  8.2996 18.1037   2
   5  -4  10 28.0631 21.9467   3
  -5  -4 -10 31.4036 18.3628   1
  -6  -4 -10 33.8437 18.9307   1
   6  -4  10 -4.1461 23.5454   3
  -6   4 -10  0.9867 20.8700   1
   1  -5 -10 24.5797 21.7593   1
   1   5 -10  8.5629 18.1681   2
   0  -5 -10 -0.3321 21.0086   1
   0   5 -10 -3.5161 17.6811   2
  -1  -5 -10 -8.3350 21.2070   1
  -1   5 -10  2.0510 18.2996   2
  -2  -5 -10 -6.8160 21.5210   1
  -2   5 -10  1.2431 19.8111   2
   9   0 -11 -16.300  17.012   2
   8   0 -11 30.5842 14.9026   2
   7   0 -11 48.5255 14.8895   2
   6   0 -11 30.3579 14.1484   2
   5   0 -11  1.2405 13.0123   2
   4   0 -11 76.8804 13.5424   2
   3   0 -11  4.9637 12.7513   2
   2   0 -11 337.720  17.326   1
   2   0 -11 284.053  18.851   2
   1   0 -11 114.318  14.280   2
   1   0 -11 123.544  11.562   1
   0   0 -11 150.566  14.824   2
  -1   0 -11 380.068  18.401   1
  -1   0 -11 334.068  20.093   2
  -2   0 -11 87.9416 12.1276   1
  -3   0 -11  7.5351 12.6224   1
   4   0  11 102.084  15.743   3
   4   0  11 105.141  15.793   3
  -4   0 -11 97.5377 15.1357   1
  -5   0 -11  8.6014 14.0872   1
   5   0  11 -5.0384 17.3371   3
  -6   0 -11 -0.0420 15.4300   1
   6   0  11  6.5882 18.4390   3
   7   0  11 35.9048 20.5533   3
  -7   0 -11 29.4625 17.6770   1
  -8   0 -11 21.2096 19.2786   1
   8   0  11 10.3947 21.8347   3
   9   0  11 20.1335 23.1927   3
  -9   0 -11 40.0222 21.7732   1
   9  -1 -11 40.9743 18.1465   2
   9   1 -11 51.3512 18.3347   2
   8  -1 -11 16.0170 15.5894   2
   8   1 -11  1.1193 16.0975   2
   7  -1 -11 24.1259 14.6145   2
   7   1 -11 28.6428 15.1937   2
   6  -1 -11 -1.2512 13.3508   2
   6   1 -11  8.5146 14.4739   2
   5  -1 -11 -9.2780 13.2020   2
   5   1 -11  1.8440 13.7908   2
   4  -1 -11 15.9030 13.4364   2
   4  -1 -11  4.3556 11.6270   1
   4   1 -11 14.8477 13.0097   2
   3  -1 -11 97.9847 12.6512   1
   3  -1 -11 81.2909 13.9054   2
   3   1 -11 85.8441 13.5477   2
   2  -1 -11 119.743  12.439   1
   2  -1 -11 73.7003 13.6634   2
   2   1 -11 88.3559 13.6936   2
   1  -1 -11 106.586  12.310   1
   1  -1 -11 80.7446 13.5616   2
   1   1 -11 92.4613 14.0472   2
   0  -1 -11 676.615  25.914   2
   0  -1 -11 656.460  24.607   1
   0   1 -11 657.624  24.093   1
   0   1 -11 601.697  26.943   2
  -1  -1 -11 250.881  14.389   1
   1  -1  11 265.625  17.878   3
  -1   1 -11 233.367  16.799   2
  -1   1 -11 219.001  14.615   1
   2  -1  11 71.1952 14.8233   3
  -2  -1 -11 15.2485 11.0820   1
  -2   1 -11 66.1196 13.7982   2
  -2   1 -11 96.8805 13.2066   1
  -3  -1 -11 18.2135 11.4601   1
   3  -1  11 10.9494 14.3028   3
  -3   1 -11 12.7141 12.8221   1
   4  -1  11 57.2313 16.0047   3
  -4  -1 -11 49.5873 13.0773   1
  -4   1 -11 41.8067 14.8751   1
   5  -1  11 18.1488 16.9819   3
  -5  -1 -11  2.8095 14.4031   1
  -5   1 -11  3.8257 15.7736   1
   6  -1  11  4.5708 17.8934   3
  -6  -1 -11  1.0186 16.3914   1
  -6   1 -11 27.1869 17.1012   1
   7  -1  11  4.3516 19.6680   3
  -7  -1 -11  2.4822 18.1972   1
   7   1  11 11.3466 22.7297   3
  -7   1 -11  2.2141 18.0093   1
   8  -1  11 -31.387  20.558   3
  -8  -1 -11 -7.7815 19.9410   1
   8   1  11  4.7021 23.8712   3
  -8   1 -11  8.6040 19.8876   1
  -9  -1 -11 -17.190  22.004   1
   9  -1  11 -9.6915 23.2338   3
  -9   1 -11  6.6067 21.9850   1
   9   1  11 37.9528 24.9850   3
   9   2 -11 14.8662 19.7419   2
   8  -2 -11 -8.9588 17.4445   2
   8   2 -11 -6.1320 17.6731   2
   7  -2 -11 -9.5459 17.1061   2
   7   2 -11 -0.3263 16.4194   2
   6  -2 -11  1.3890 17.6206   2
   6   2 -11 13.8228 15.1709   2
  -6   2  11 13.6625 16.6747   1
  -6   2  11  2.8660 14.5800   4
   5  -2 -11  1.6307 17.5528   2
   5   2 -11 23.9238 14.6502   2
   4  -2 -11  8.6380 17.2425   2
   4  -2 -11 22.5536 13.7598   1
   4   2 -11 19.6656 14.6444   2
   3  -2 -11 13.0531 16.2892   2
   3  -2 -11 36.8903 13.4037   1
   3   2 -11 23.8743 13.5868   2
   2  -2 -11  3.4616 15.8799   2
   2  -2 -11 39.2699 13.1783   1
   2   2 -11 42.6366 14.5041   2
   1  -2 -11  8.8808 15.5360   2
   1  -2 -11 12.8876 12.4832   1
   1   2 -11  2.5890 13.6034   2
   0  -2 -11 26.9053 12.3701   1
   0  -2 -11 28.9210 14.0573   2
   0   2 -11 31.6905 14.1523   2
  -1  -2 -11 14.5487 12.1080   1
   1  -2  11 13.3815 18.0432   3
  -1   2 -11 25.0499 14.4829   2
  -2  -2 -11 47.9061 12.0684   1
   2  -2  11 79.5810 17.2556   3
  -2   2 -11 74.2538 14.3556   1
  -2   2 -11 55.5144 15.1531   2
  -3  -2 -11 17.4632 12.6110   1
   3  -2  11 13.3191 17.4747   3
  -3   2 -11 37.7331 15.0784   1
  -3   2 -11 -3.8664 15.0081   2
  -4  -2 -11 14.1767 13.1509   1
   4  -2  11 43.1301 17.2778   3
  -4   2 -11 53.4804 16.2911   1
   5  -2  11 18.4699 18.0930   3
  -5  -2 -11 -2.2288 14.7008   1
  -5   2 -11 19.8511 17.2320   1
   6  -2  11 -2.8206 18.6783   3
  -6  -2 -11 -12.758  15.541   1
  -6   2 -11 -3.7974 17.7651   1
  -7  -2 -11  2.3427 16.9318   1
   7  -2  11  8.3038 19.9300   3
  -7   2 -11 -5.8153 18.9286   1
   8  -2  11 11.9334 21.8086   3
  -8  -2 -11 13.5580 18.9502   1
  -8   2 -11 -17.523  21.084   1
   7  -3 -11 26.2801  9.4765   2
  -7   3  11  3.1553 19.8819   1
   7   3 -11 22.6542 18.7071   2
   6  -3 -11 59.9023  9.7563   2
  -6   3  11 27.5244 17.9155   4
   6   3 -11 33.3655 18.1871   2
  -6   3  11  7.1654 18.9848   1
   5  -3 -11 15.5987  9.1880   2
  -5   3  11  4.3346 16.2893   4
  -5   3  11  0.9952 17.9882   1
   5   3 -11  0.9790 15.6108   2
   4  -3 -11 44.9699 16.4235   1
   4  -3 -11 18.7181  9.2298   2
   4   3 -11 29.8725 16.0541   2
   3  -3 -11 29.6573  8.7750   2
   3  -3 -11 36.6121 15.5298   1
   3   3 -11 36.6713 15.5240   2
   2  -3 -11 40.4133 15.9684   1
   2  -3 -11 30.1001  8.8143   2
   2   3 -11 31.3612 15.2707   2
   1  -3 -11 -15.422   7.502   2
   1  -3 -11 -9.2887 14.8699   1
   1   3 -11 -5.0873 14.8121   2
   0  -3 -11 23.3966 15.1343   1
   0   3 -11 15.3557 15.0918   2
  -1  -3 -11  8.8641 14.7628   1
  -1   3 -11 -0.8194 15.4777   2
   2  -3  11 41.0255 20.7326   3
  -2  -3 -11 40.9922 14.9238   1
  -2   3 -11 48.1335 16.8681   2
  -3  -3 -11 38.5082 14.4853   1
   3  -3  11 13.7312 19.6633   3
  -3   3 -11 33.1307 16.6981   2
  -4  -3 -11 28.9729 15.0257   1
   4  -3  11 13.7936 20.0135   3
   5  -3  11 23.6698 20.7468   3
  -5  -3 -11 35.5728 15.6641   1
  -5   3 -11 17.6841 19.4229   1
   6  -3  11  5.4623 21.0699   3
  -6  -3 -11 24.0558 17.1242   1
  -6   3 -11 -0.3975 20.4243   1
   7  -3  11  4.9686 22.4462   3
  -7  -3 -11  6.8609 17.8730   1
  -7   3 -11  5.6565 21.5955   1
   5   4 -11 16.0987 19.1643   2
  -5   4  11 -2.8730 22.0222   1
  -5   4  11 -7.6859 18.0220   4
  -4   4  11 -8.4314 21.7685   1
  -4   4  11 12.1474 18.3942   4
   4   4 -11 39.3573 18.2636   2
   3  -4 -11 -6.1866 18.9090   1
   3   4 -11 -13.718  17.202   2
   2  -4 -11 17.0981 18.8233   1
   2   4 -11 16.9295 17.4689   2
   1  -4 -11 18.4935 18.1440   1
   1   4 -11 23.3182 17.4977   2
   0  -4 -11  1.0134 18.2383   1
   0   4 -11 -4.1383 17.5424   2
  -1  -4 -11 29.6374 18.1035   1
  -1   4 -11 18.8710 17.8549   2
  -2  -4 -11 14.1517 18.3122   1
  -2   4 -11 -1.5096 17.7509   2
  -3  -4 -11 19.8878 17.9426   1
   3  -4  11  9.7472 24.6874   3
  -3   4 -11 20.4781 17.8741   2
  -4  -4 -11 10.8020 18.2136   1
   4  -4  11  9.1293 24.2907   3
  -4   4 -11 22.3994 19.3225   2
   5  -4  11 -1.9597 24.3575   3
  -5  -4 -11  7.3154 19.7249   1
   8   0 -12 57.1956 16.9518   2
   7   0 -12 47.5970 15.6165   2
   6   0 -12 121.606  16.771   2
   5   0 -12 -4.7182 14.5143   2
   4   0 -12  5.3234 14.4294   2
   3   0 -12 -9.6091 13.9569   2
   2   0 -12 25.4237 14.2992   2
   1   0 -12 409.584  22.938   2
   1   0 -12 450.086  20.804   1
   0   0 -12 -5.5947 11.3858   1
   0   0 -12 10.7513 14.4463   2
  -1   0 -12  5.7487 11.9877   1
  -1   0 -12  0.2677 14.4654   2
  -2   0 -12 22.0966 12.0777   1
  -3   0 -12  5.3743 13.6281   1
  -4   0 -12 18.1907 15.5270   1
  -5   0 -12 29.5112 17.0620   1
  -6   0 -12 -28.547  17.733   1
  -7   0 -12 34.5628 19.2596   1
   7   0  12 -2.0861 23.7782   3
  -8   0 -12  4.9298 20.5956   1
   8   0  12 27.3105 24.8274   3
   8  -1 -12  4.9620 16.5524   2
   8   1 -12  3.0449 17.9660   2
   7  -1 -12 17.3002 15.8474   2
   7   1 -12  4.8950 16.3050   2
   6  -1 -12 16.0882 14.8660   2
   6   1 -12 -12.230  15.228   2
   5  -1 -12  1.5439 14.6965   2
   5   1 -12 12.1891 15.4715   2
   4  -1 -12  8.9587 14.9482   2
   4   1 -12 24.0376 15.0984   2
   3  -1 -12 55.1556 13.8362   1
   3  -1 -12 40.0614 14.8341   2
   3   1 -12 41.2819 14.7542   2
   2  -1 -12 188.364  14.904   1
   2  -1 -12 152.392  16.302   2
   2   1 -12 151.484  16.323   2
   1  -1 -12 115.706  15.612   2
   1  -1 -12 112.278  13.826   1
   1   1 -12 82.8360 15.4507   2
   0  -1 -12 106.254  13.205   1
   0  -1 -12 110.566  15.459   2
   0   1 -12 84.5824 15.6556   2
  -1  -1 -12 43.9308 12.3712   1
  -1   1 -12 45.4588 15.9614   2
  -1   1 -12 59.1328 12.8633   1
  -2  -1 -12 23.2960 12.0046   1
  -2   1 -12 14.6412 14.2543   1
  -3  -1 -12 59.3311 13.7741   1
   3  -1  12 90.0632 17.8624   3
  -3   1 -12 65.7146 15.7141   1
  -4  -1 -12 79.5007 14.9232   1
   4  -1  12 109.452  18.743   3
  -4   1 -12 85.0152 16.1555   1
   5  -1  12  6.4469 19.3767   3
  -5  -1 -12  7.9923 15.3542   1
  -5   1 -12 -9.5579 16.8285   1
  -6  -1 -12 -9.7508 17.3706   1
   6  -1  12  0.2200 19.8902   3
  -6   1 -12 -0.7289 18.6613   1
  -7  -1 -12 -5.0239 19.5317   1
   7  -1  12 -12.344  21.025   3
  -7   1 -12 -3.2892 20.4377   1
   8  -1  12 17.6639 23.2198   3
  -8  -1 -12  3.4511 22.2631   1
  -8   1 -12 18.9775 23.0524   1
   7  -2 -12 -0.9955 19.0507   2
   7   2 -12 -3.9071 17.6709   2
   6  -2 -12 18.9438 19.2461   2
   6   2 -12 21.8755 16.6554   2
   5  -2 -12 14.1425 19.3963   2
   5   2 -12 22.1152 16.1117   2
   4  -2 -12 14.8347 18.9179   2
   4  -2 -12  7.3070 15.2241   1
   4   2 -12  7.6941 15.7371   2
   3  -2 -12 17.6168 15.0950   1
   3  -2 -12 -4.1657 18.0921   2
   3   2 -12 19.3526 16.1415   2
   2  -2 -12  0.9902 14.1594   1
   2  -2 -12 10.3227 17.9235   2
   2   2 -12 -2.6400 15.2031   2
   1  -2 -12 51.3569 18.3123   2
   1  -2 -12 108.027  15.014   1
   1   2 -12 99.7187 16.8327   2
   0  -2 -12 35.3162 13.6805   1
   0   2 -12 26.7278 16.1555   2
   1  -2  12 47.4701 21.4790   3
  -1  -2 -12 80.0592 13.9245   1
  -1   2 -12 76.7460 16.7881   2
  -2  -2 -12 45.5456 13.7412   1
   2  -2  12 59.3080 20.0451   3
  -2   2 -12 35.5248 17.3118   2
  -3  -2 -12 54.1472 14.3997   1
   3  -2  12 66.1131 20.4144   3
  -3   2 -12 76.7266 17.5238   1
  -4  -2 -12 27.0239 14.3423   1
   4  -2  12 49.8321 19.9377   3
  -4   2 -12 33.3392 18.1242   1
   5  -2  12 83.1093 21.1652   3
  -5  -2 -12  6.1702 15.0696   1
  -5   2 -12 78.1455 19.0214   1
   6  -2  12  8.7379 20.8757   3
  -6  -2 -12  3.0119 17.8463   1
  -6   2 -12 11.5583 19.6716   1
   7  -2  12 -30.489  22.423   3
  -7  -2 -12 26.4689 19.1623   1
  -7   2 -12 15.8941 21.4472   1
   6  -3 -12 14.0436 10.2610   2
  -6   3  12 12.5338 21.4368   1
   6   3 -12 -3.3981 19.0175   2
  -6   3  12 -14.195  17.742   4
   5  -3 -12 32.6254 11.8941   2
   5   3 -12 -7.6904 18.1254   2
  -5   3  12  5.8481 18.7325   4
  -5   3  12  9.9070 20.3797   1
   4  -3 -12 -21.509  10.388   2
   4  -3 -12 -11.374  17.719   1
   4   3 -12 -1.2444 16.8411   2
   3  -3 -12 27.3691  9.9930   2
   3  -3 -12 35.5709 17.1671   1
   3   3 -12  0.3231 17.5564   2
   2  -3 -12 -14.562   8.561   2
   2  -3 -12 -18.357  16.915   1
   2   3 -12  4.0618 16.8937   2
   1  -3 -12 -1.0837 16.2723   1
   1   3 -12 -8.0666 16.7702   2
   0  -3 -12 32.9810 16.5132   1
   0   3 -12  5.5982 17.4219   2
  -1  -3 -12 49.7528 16.6335   1
  -1   3 -12 73.2382 18.2131   2
  -2  -3 -12 36.5905 16.2462   1
   2  -3  12 21.2173 23.5825   3
  -2   3 -12 35.2423 18.2763   2
  -3  -3 -12 -8.3504 15.3493   1
   3  -3  12  0.4097 22.0195   3
  -3   3 -12 -3.7831 19.1421   2
   4  -3  12  4.8419 21.7203   3
  -4  -3 -12 24.0314 16.9194   1
   5  -3  12  1.2350 23.4945   3
  -5  -3 -12  8.7681 16.8755   1
   6  -3  12 17.5026 24.0713   3
  -6  -3 -12 46.9930 18.8664   1
  -6   3 -12  9.8092 22.2732   1
   3  -4 -12 58.0092 22.0402   1
   3   4 -12 43.8414 19.9336   2
   2  -4 -12 50.2180 20.7493   1
   2   4 -12 31.3194 19.7387   2
   1  -4 -12 14.7529 20.4827   1
   1   4 -12 -16.157  18.585   2
   0  -4 -12  3.8844 20.3808   1
   0   4 -12  9.5275 19.7734   2
  -1  -4 -12  4.8428 19.6675   1
  -1   4 -12  7.1433 19.9997   2
  -2  -4 -12 -4.3714 19.9188   1
  -2   4 -12  4.3775 20.7466   2
   3  -4  12 -28.769  27.339   3
  -3  -4 -12  8.1101 19.7786   1
  -3   4 -12 -10.244  21.619   2
   7   0 -13 13.7157 16.8563   2
   6   0 -13 17.0875 16.3267   2
   5   0 -13 -6.6498 15.9460   2
   4   0 -13 10.1964 16.0956   2
   3   0 -13 23.4658 16.3381   2
   2   0 -13 13.4791 15.9794   2
   1   0 -13 152.694  18.012   2
   0   0 -13 54.5111 13.7898   1
   0   0 -13 63.6462 16.9033   2
  -1   0 -13  2.1989 13.0350   1
  -2   0 -13  0.6100 13.4843   1
  -3   0 -13  4.0039 14.2378   1
  -4   0 -13 20.7904 16.4620   1
  -5   0 -13 30.7775 19.0888   1
  -6   0 -13 14.6537 20.4520   1
  -7   0 -13 42.1118 22.8011   1
   7  -1 -13 21.6900 17.1192   2
   7   1 -13  8.2975 18.2885   2
   6  -1 -13 -10.696  16.277   2
   6   1 -13  0.4890 17.4493   2
   5  -1 -13 -3.8534 16.0041   2
   5   1 -13  8.1710 17.0255   2
   4  -1 -13 42.8222 16.6667   2
   4   1 -13 47.8765 17.0911   2
   3  -1 -13 38.7313 16.8035   2
   3   1 -13 22.8063 16.7087   2
   2  -1 -13 22.6109 16.4736   2
   2  -1 -13 27.2656 14.8422   1
   2   1 -13 11.6252 16.1423   2
   1  -1 -13 -4.9573 14.0125   1
   1  -1 -13 15.9319 16.4093   2
   1   1 -13 12.9171 16.3728   2
   0  -1 -13 14.0397 13.7784   1
   0   1 -13 -2.4818 16.0127   2
  -1  -1 -13 22.9767 13.2515   1
  -1   1 -13 -0.7838 16.9996   2
  -2  -1 -13 18.8684 13.6281   1
  -2   1 -13 32.0123 15.5255   1
  -3  -1 -13 -14.731  13.751   1
  -3   1 -13  6.4453 17.0847   1
  -4  -1 -13 -0.3922 15.5891   1
  -4   1 -13 -19.994  17.814   1
  -5  -1 -13 32.4674 17.1110   1
  -5   1 -13 12.0082 18.1290   1
   6  -1  13 -5.2782 23.7145   3
  -6  -1 -13 30.9290 18.9135   1
  -6   1 -13 31.7898 20.1839   1
   7  -1  13  1.1976 24.9244   3
  -7  -1 -13 -3.3504 21.4407   1
  -7   1 -13  8.9386 22.4316   1
   6  -2 -13 10.0118 21.1027   2
   6   2 -13 -1.2337 19.1046   2
   5  -2 -13  6.2086 21.4117   2
   5   2 -13 -7.7459 17.6176   2
   4  -2 -13 -1.7157 17.0444   1
   4  -2 -13 17.0513 21.2263   2
   4   2 -13  4.3607 17.1862   2
   3  -2 -13  8.6855 17.0413   1
   3  -2 -13 12.0019 20.7641   2
   3   2 -13 -2.5458 17.2880   2
   2  -2 -13 17.9383 16.1668   1
   2  -2 -13 16.2320 20.4262   2
   2   2 -13 31.7604 18.0833   2
   1  -2 -13 16.6096 15.4073   1
   1   2 -13 -13.409  17.844   2
   0  -2 -13 11.1746 15.1531   1
   0   2 -13 10.1051 17.5503   2
  -1  -2 -13 28.8024 15.1998   1
  -1   2 -13 38.5207 19.0458   2
  -2  -2 -13 85.7085 16.1893   1
   2  -2  13 65.0469 23.4350   3
  -3  -2 -13  3.6367 15.1970   1
   3  -2  13 32.2130 22.0876   3
   4  -2  13 90.9462 23.8773   3
  -4  -2 -13 62.1800 17.0655   1
  -4   2 -13 63.4446 20.2470   1
  -5  -2 -13 14.5895 16.7399   1
   5  -2  13 40.7483 23.2331   3
  -5   2 -13 13.6815 21.4384   1
  -6  -2 -13  9.4992 18.8123   1
   6  -2  13 39.4335 24.8455   3
  -6   2 -13 35.0358 22.8303   1
   5  -3 -13  1.9525 13.1821   2
  -5   3  13  0.1862 21.4742   4
  -5   3  13  5.7590 23.0728   1
   4  -3 -13 -2.9570 12.9030   2
   4  -3 -13  0.2439 19.8485   1
   4   3 -13 15.3594 19.7885   2
   3  -3 -13  3.0424 18.9641   1
   3  -3 -13 11.8307 11.2644   2
   3   3 -13 16.4758 18.7802   2
   2  -3 -13 12.6814 19.0543   1
   2   3 -13  2.6581 19.4559   2
   1  -3 -13 -10.254  18.372   1
   1   3 -13 19.4393 19.3341   2
   0  -3 -13 34.6567 18.1462   1
   0   3 -13  7.9907 19.5272   2
  -1  -3 -13 126.275  19.157   1
  -1   3 -13 119.765  21.294   2
  -2  -3 -13 26.4749 17.5311   1
   2  -3  13  4.3949 26.6795   3
  -2   3 -13 28.9621 21.2324   2
   3  -3  13 23.7991 25.5936   3
  -3  -3 -13 60.1725 18.4015   1
   4  -3  13  5.8276 25.5375   3
  -4  -3 -13 -9.6879 18.4564   1
   5  -3  13  2.0177 26.6391   3
   6   0 -14 -10.230  18.215   2
   5   0 -14 52.8658 18.2558   2
   4   0 -14 -10.379  17.656   2
   3   0 -14  1.4968 17.7035   2
   2   0 -14 27.8161 18.1848   2
   1   0 -14  6.0699 18.0353   2
  -1   0 -14 37.7251 15.2776   1
  -2   0 -14 15.1929 15.8027   1
  -3   0 -14 16.0248 16.1999   1
  -4   0 -14  9.1009 17.6186   1
  -5   0 -14 -20.598  19.843   1
  -6   0 -14 32.0291 22.8918   1
   6  -1 -14 29.0705 18.7883   2
   6   1 -14 18.9497 19.9369   2
   5  -1 -14  7.9915 18.2414   2
   5   1 -14 -21.544  18.468   2
   4  -1 -14 19.5508 17.7596   2
   4   1 -14 15.6984 18.8892   2
   3  -1 -14  7.5888 18.0474   2
   3   1 -14 14.5562 18.5622   2
   2  -1 -14 45.8183 18.8570   2
   2   1 -14 51.6178 18.9387   2
   1  -1 -14 23.4320 16.4552   1
   1   1 -14  8.6003 18.7371   2
   0  -1 -14  8.1188 15.1788   1
   0   1 -14 11.7005 18.5642   2
  -1  -1 -14  6.9344 15.1132   1
  -2  -1 -14 -2.4479 15.2475   1
  -3  -1 -14  5.2349 15.5043   1
  -3   1 -14  4.9048 18.6167   1
  -4  -1 -14 29.9915 17.7587   1
  -4   1 -14 19.6529 21.0245   1
  -5  -1 -14  3.1491 19.1581   1
  -5   1 -14 11.8080 21.9471   1
  -6   1 -14 13.1815 23.6752   1
   5  -2 -14  1.5281 23.3833   2
   5   2 -14 -4.4384 20.6046   2
   4  -2 -14 15.1383 23.7305   2
   4   2 -14 32.6736 20.1341   2
   3  -2 -14 66.7324 20.1012   1
   3  -2 -14 30.8359 23.6667   2
   3   2 -14 39.6708 19.9991   2
   2  -2 -14 16.6385 18.3742   1
   2  -2 -14  2.7901 22.8402   2
   2   2 -14 16.2807 19.6044   2
   1  -2 -14 33.8185 17.9880   1
   1   2 -14 30.8394 20.3578   2
   0  -2 -14 57.6213 17.7068   1
   0   2 -14 58.3106 21.8670   2
  -1  -2 -14 22.7360 17.3852   1
  -1   2 -14  9.9545 21.1179   2
  -2  -2 -14 -9.9291 17.3635   1
  -3  -2 -14 11.7003 17.2225   1
  -4  -2 -14 29.1963 18.2223   1
   5  -2  14 20.1675 27.3817   3
  -5   2 -14 14.6055 22.9236   1
   2  -3 -14 29.0129 21.7651   1
   2   3 -14 11.3394 21.4359   2
   1  -3 -14 14.9257 20.2284   1
   1   3 -14 18.9908 22.8524   2
   0  -3 -14 70.7944 20.4187   1
   0   3 -14 68.7213 23.2462   2
  -1  -3 -14 -0.6759 20.0254   1
  -1   3 -14 21.7937 22.7186   2
   4   0 -15 -19.792  19.722   2
   3   0 -15  3.4149 20.1945   2
   2   0 -15  2.8982 20.2831   2
  -2   0 -15 -4.8093 16.6625   1
  -3   0 -15 -26.107  18.722   1
  -4   0 -15 -0.3160 19.3756   1
   4  -1 -15  4.6982 20.2088   2
   4   1 -15 -11.325  20.695   2
   3  -1 -15 41.2871 20.2184   2
   3   1 -15 21.3776 21.4017   2
   2  -1 -15 -8.9535 19.8169   2
   2   1 -15 16.8584 21.2184   2
   1  -1 -15  7.7342 18.9595   1
   1   1 -15  7.8854 21.3086   2
   0  -1 -15  4.9036 18.3168   1
  -1  -1 -15  0.1974 17.8821   1
  -2  -1 -15 -1.4234 17.1599   1
  -3  -1 -15 20.9340 18.1821   1
  -4  -1 -15  7.3023 19.0446   1
  -4   1 -15 29.4184 22.5807   1
   2  -2 -15 21.5417 20.5717   1
   2   2 -15 15.0701 22.0993   2
   1  -2 -15 20.2404 20.1660   1
   1   2 -15 -14.154  22.667   2
   0  -2 -15  0.6544 19.3340   1
   0   2 -15 -6.6945 23.1486   2
  -1  -2 -15 -2.8463 19.5905   1
  -2  -2 -15  3.6917 19.0407   1
   0   0   0    0.00    0.00   0
;
_shelx_hkl_checksum              23175
_shelx_res_file
;
TITL frunanf in P2(1)
    C:\Xtals\Mossine\FruNanF\FRUNANF.res
    created by SHELXL-2017/1 at 12:00:12 on 17-Dec-2017
CELL 0.71073 10.5612 5.1561 12.5042 90.000 90.606 90.000
ZERR 2.0000 0.0057 0.0028 0.0068 0.000 0.009 0.000
LATT -1
SYMM -X, 0.5+Y, -Z
SFAC C H N O F
UNIT 26 36 2 10 2
BOND $H
CONF
EQIV $1 1-X,1/2+Y,1-Z
EQIV $2 1-X,Y-1/2,1-Z
EQIV $3 X,Y,1+Z
EQIV $4 -X,1/2+Y,1-Z
EQIV $5 -X,Y-1/2,1-Z
EQIV $6 X,Y-1,Z
EQIV $7 X,1+Y,Z
EQIV $8 -X,1/2+Y,-Z
EQIV $9 X,Y-1,Z-1
EQIV $10 1-X,Y-1/2,-Z
HTAB O4 O4_$1
HTAB O4 O6_$2
HTAB O5 F1_$3
HTAB O5 O3_$4
HTAB O3 O5_$6
HTAB O6 O4_$7
HTAB O6 O5
ACTA
FMAP 2 1 53
GRID
PLAN 20 0 0
MERG 2
SIZE .5 .1 .05
TEMP -100
L.S. 10
WGHT    0.046300
FVAR       1.42112
F1    5    0.031968    0.115224   -0.241345    11.00000    0.07174    0.10042 =
         0.06199    0.00384   -0.02379   -0.00967
N1    3    0.365572    0.175385    0.104175    11.00000    0.03965    0.02579 =
         0.03770   -0.00096    0.00643    0.00019
C1    1    0.323909    0.282626    0.205286    11.00000    0.04465    0.02649 =
         0.04100   -0.00102    0.00301   -0.00942
AFIX  23
H1A   2    0.277228    0.445581    0.190761    11.00000   -1.20000
H1B   2    0.399564    0.327236    0.248943    11.00000   -1.20000
AFIX   0
O2    4    0.221799   -0.120305    0.244889    11.00000    0.04940    0.02341 =
         0.06913   -0.00689    0.01654   -0.00545
C2    1    0.239412    0.103711    0.270622    11.00000    0.02632    0.02389 =
         0.04855    0.00018    0.00350    0.00293
O3    4    0.091027    0.042912    0.414983    11.00000    0.02532    0.02555 =
         0.06165    0.00278    0.00716   -0.00056
C3    1    0.180983    0.217447    0.370301    11.00000    0.02485    0.02408 =
         0.04815    0.00172    0.00652    0.00003
AFIX  13
H3    2    0.135141    0.379624    0.349283    11.00000   -1.20000
AFIX   0
O4    4    0.361129    0.065482    0.474268    11.00000    0.02964    0.02304 =
         0.05668    0.00450    0.00446    0.00601
C4    1    0.284399    0.290932    0.452479    11.00000    0.02832    0.02071 =
         0.03779    0.00149    0.00313    0.00181
AFIX  13
H4    2    0.338661    0.431473    0.422352    11.00000   -1.20000
AFIX   0
O5    4    0.154361    0.608711    0.536291    11.00000    0.02378    0.02350 =
         0.06097    0.00088    0.01129    0.00180
C5    1    0.228349    0.381795    0.557883    11.00000    0.02379    0.02283 =
         0.05033    0.00584    0.00743    0.00151
AFIX  13
H5    2    0.171498    0.242944    0.585874    11.00000   -1.20000
AFIX   0
O6    4    0.408512    0.653874    0.610211    11.00000    0.02830    0.03658 =
         0.05135    0.00436   -0.00050   -0.00623
C6    1    0.327157    0.445007    0.642259    11.00000    0.03826    0.02820 =
         0.04849    0.00001    0.00652   -0.00335
AFIX  23
H6A   2    0.284356    0.493149    0.709461    11.00000   -1.20000
H6B   2    0.379111    0.288784    0.656630    11.00000   -1.20000
AFIX   0
C7    1    0.277529    0.156698    0.019070    11.00000    0.03256    0.02386 =
         0.03897    0.00171    0.00058   -0.00364
C8    1    0.171628    0.314812    0.010967    11.00000    0.05070    0.04649 =
         0.04669   -0.00874    0.00305    0.01708
AFIX  43
H8    2    0.155226    0.435436    0.066554    11.00000   -1.20000
AFIX   0
C9    1    0.089520    0.302366   -0.075159    11.00000    0.04553    0.06520 =
         0.05459    0.00547    0.00190    0.01747
AFIX  43
H9    2    0.017345    0.412140   -0.078552    11.00000   -1.20000
AFIX   0
C10   1    0.112766    0.132083   -0.154893    11.00000    0.04751    0.05907 =
         0.04649    0.00723   -0.01113   -0.00832
C11   1    0.216291   -0.020427   -0.152310    11.00000    0.08408    0.05892 =
         0.05741   -0.02320   -0.01535    0.00806
AFIX  43
H11   2    0.232965   -0.135503   -0.209800    11.00000   -1.20000
AFIX   0
C12   1    0.297792   -0.008408   -0.065774    11.00000    0.06526    0.04645 =
         0.06946   -0.01878   -0.01810    0.02429
AFIX  43
H12   2    0.370320   -0.117390   -0.064489    11.00000   -1.20000
AFIX   0
C13   1    0.462646   -0.026626    0.113314    11.00000    0.03448    0.04223 =
         0.05096    0.00389    0.00513    0.00657
AFIX 137
H13A  2    0.421826   -0.197004    0.117209    11.00000   -1.50000
H13B  2    0.513541    0.002372    0.178204    11.00000   -1.50000
H13C  2    0.517502   -0.020370    0.050643    11.00000   -1.50000
AFIX   0
H4O   2    0.438298    0.076801    0.437812    11.00000    0.11206
H5O   2    0.077805    0.583814    0.556167    11.00000    0.05518
H3O   2    0.128867   -0.090175    0.433649    11.00000    0.05505
H6O   2    0.363231    0.752602    0.570332    11.00000    0.08645
HKLF 4
REM  frunanf in P2(1)
REM R1 =  0.0421 for    1588 Fo > 4sig(Fo)  and  0.0934 for all    2652 data
REM    198 parameters refined using      1 restraints
END
WGHT      0.0471      0.0000
REM Highest difference peak  0.176,  deepest hole -0.165,  1-sigma level  0.040
Q1    1   0.3360 -0.0188 -0.0776  11.00000  0.05    0.18
Q2    1   0.0683 -0.0300  0.3166  11.00000  0.05    0.17
Q3    1   0.4361  0.1038  0.4642  11.00000  0.05    0.16
Q4    1   0.1271  0.3705 -0.1396  11.00000  0.05    0.16
Q5    1   0.3600  0.0389  0.5622  11.00000  0.05    0.15
Q6    1   0.4388  0.6574  0.6860  11.00000  0.05    0.15
Q7    1   0.4997 -0.0626  0.0198  11.00000  0.05    0.15
Q8    1   0.2759  0.1285 -0.0592  11.00000  0.05    0.15
Q9    1   0.0861 -0.1220  0.1797  11.00000  0.05    0.15
Q10   1  -0.0291  0.5956 -0.1569  11.00000  0.05    0.15
Q11   1   0.5626  0.2224  0.2479  11.00000  0.05    0.15
Q12   1   0.2380 -0.1222 -0.0690  11.00000  0.05    0.14
Q13   1   0.3602  0.1339  0.3557  11.00000  0.05    0.14
Q14   1   0.1805 -0.1359 -0.1016  11.00000  0.05    0.14
Q15   1   0.2229  0.3822  0.4784  11.00000  0.05    0.14
Q16   1   0.2811 -0.1910  0.0610  11.00000  0.05    0.14
Q17   1   0.3155  0.0894  0.1833  11.00000  0.05    0.14
Q18   1   0.3398  0.1692  0.3740  11.00000  0.05    0.14
Q19   1   0.3503  0.2085  0.0346  11.00000  0.05    0.14
Q20   1   0.1791 -0.1997 -0.1752  11.00000  0.05    0.13
;
_shelx_res_checksum              20345
loop_
_space_group_symop_operation_xyz
'x, y, z'
'-x, y+1/2, -z'
loop_
_atom_site_type_symbol
_atom_site_label
_atom_site_fract_x
_atom_site_fract_y
_atom_site_fract_z
_atom_site_U_iso_or_equiv
_atom_site_adp_type
_atom_site_calc_flag
_atom_site_occupancy
F F1 0.0320(2) 0.1152(6) -0.2413(2) 0.0782(9) Uani d 1
N N1 0.3656(3) 0.1754(6) 0.1042(2) 0.0343(8) Uani d 1
C C1 0.3239(4) 0.2826(7) 0.2053(3) 0.0374(10) Uani d 1
H H1A 0.277228 0.445581 0.190761 0.045 Uiso calc 1
H H1B 0.399564 0.327236 0.248943 0.045 Uiso calc 1
O O2 0.2218(2) -0.1203(5) 0.2449(2) 0.0472(8) Uani d 1
C C2 0.2394(3) 0.1037(8) 0.2706(3) 0.0329(9) Uani d 1
O O3 0.0910(2) 0.0429(5) 0.4150(2) 0.0375(7) Uani d 1
C C3 0.1810(3) 0.2174(7) 0.3703(3) 0.0323(10) Uani d 1
H H3 0.135141 0.379624 0.349283 0.039 Uiso calc 1
O O4 0.3611(2) 0.0655(5) 0.4743(2) 0.0364(7) Uani d 1
C C4 0.2844(3) 0.2909(7) 0.4525(3) 0.0289(9) Uani d 1
H H4 0.338661 0.431473 0.422352 0.035 Uiso calc 1
O O5 0.1544(2) 0.6087(5) 0.5363(2) 0.0360(7) Uani d 1
C C5 0.2283(3) 0.3818(8) 0.5579(3) 0.0323(9) Uani d 1
H H5 0.171498 0.242944 0.585874 0.039 Uiso calc 1
O O6 0.4085(2) 0.6539(5) 0.6102(2) 0.0387(7) Uani d 1
C C6 0.3272(3) 0.4450(7) 0.6423(3) 0.0383(10) Uani d 1
H H6A 0.284356 0.493149 0.709461 0.046 Uiso calc 1
H H6B 0.379111 0.288784 0.656630 0.046 Uiso calc 1
C C7 0.2775(3) 0.1567(7) 0.0191(3) 0.0318(8) Uani d 1
C C8 0.1716(4) 0.3148(9) 0.0110(3) 0.0479(11) Uani d 1
H H8 0.155226 0.435436 0.066554 0.058 Uiso calc 1
C C9 0.0895(4) 0.3024(10) -0.0752(4) 0.0551(12) Uani d 1
H H9 0.017345 0.412140 -0.078552 0.066 Uiso calc 1
C C10 0.1128(4) 0.1321(9) -0.1549(3) 0.0511(12) Uani d 1
C C11 0.2163(5) -0.0204(10) -0.1523(4) 0.0669(14) Uani d 1
H H11 0.232965 -0.135503 -0.209800 0.080 Uiso calc 1
C C12 0.2978(4) -0.0084(9) -0.0658(3) 0.0605(14) Uani d 1
H H12 0.370320 -0.117390 -0.064489 0.073 Uiso calc 1
C C13 0.4626(3) -0.0266(8) 0.1133(3) 0.0425(10) Uani d 1
H H13A 0.421826 -0.197004 0.117209 0.064 Uiso calc 1
H H13B 0.513541 0.002372 0.178204 0.064 Uiso calc 1
H H13C 0.517502 -0.020370 0.050643 0.064 Uiso calc 1
H H4O 0.438(5) 0.077(13) 0.438(4) 0.11(2) Uiso d 1
H H5O 0.078(4) 0.584(9) 0.556(3) 0.055(13) Uiso d 1
H H3O 0.129(4) -0.090(10) 0.434(3) 0.055(15) Uiso d 1
H H6O 0.363(5) 0.753(10) 0.570(4) 0.09(2) Uiso d 1
loop_
_atom_site_aniso_label
_atom_site_aniso_U_11
_atom_site_aniso_U_22
_atom_site_aniso_U_33
_atom_site_aniso_U_12
_atom_site_aniso_U_13
_atom_site_aniso_U_23
F1 0.0717(17) 0.100(2) 0.0620(16) -0.0097(17) -0.0238(14) 0.0038(16)
N1 0.0397(17) 0.0258(18) 0.0377(18) 0.0002(15) 0.0064(15) -0.0010(14)
C1 0.045(2) 0.026(2) 0.041(2) -0.0094(18) 0.0030(19) -0.0010(18)
O2 0.0494(16) 0.0234(16) 0.069(2) -0.0055(13) 0.0165(14) -0.0069(14)
C2 0.0263(17) 0.024(2) 0.049(2) 0.0029(16) 0.0035(16) 0.0002(18)
O3 0.0253(14) 0.0256(16) 0.0617(19) -0.0006(13) 0.0072(12) 0.0028(14)
C3 0.0248(19) 0.024(2) 0.048(2) 0.0000(16) 0.0065(18) 0.0017(18)
O4 0.0296(14) 0.0230(14) 0.0567(17) 0.0060(12) 0.0045(13) 0.0045(13)
C4 0.0283(19) 0.021(2) 0.038(2) 0.0018(16) 0.0031(18) 0.0015(17)
O5 0.0238(14) 0.0235(15) 0.0610(18) 0.0018(12) 0.0113(12) 0.0009(13)
C5 0.0238(19) 0.023(2) 0.050(3) 0.0015(17) 0.0074(18) 0.0058(18)
O6 0.0283(14) 0.0366(18) 0.0513(17) -0.0062(13) -0.0005(13) 0.0044(14)
C6 0.038(2) 0.028(3) 0.048(3) -0.0034(18) 0.007(2) 0.0000(19)
C7 0.0326(19) 0.024(2) 0.039(2) -0.0036(17) 0.0006(17) 0.0017(18)
C8 0.051(3) 0.046(3) 0.047(3) 0.017(2) 0.003(2) -0.009(2)
C9 0.046(3) 0.065(3) 0.055(3) 0.017(2) 0.002(2) 0.005(3)
C10 0.048(3) 0.059(3) 0.046(3) -0.008(2) -0.011(2) 0.007(2)
C11 0.084(3) 0.059(3) 0.057(3) 0.008(3) -0.015(3) -0.023(3)
C12 0.065(3) 0.046(3) 0.069(3) 0.024(2) -0.018(3) -0.019(3)
C13 0.034(2) 0.042(2) 0.051(3) 0.0066(19) 0.0051(19) 0.004(2)
loop_
_atom_type_symbol
_atom_type_description
_atom_type_scat_dispersion_real
_atom_type_scat_dispersion_imag
_atom_type_scat_source
C C 0.0033 0.0016 'International Tables Vol C Tables 4.2.6.8 and 6.1.1.4'
H H 0.0000 0.0000 'International Tables Vol C Tables 4.2.6.8 and 6.1.1.4'
N N 0.0061 0.0033 'International Tables Vol C Tables 4.2.6.8 and 6.1.1.4'
O O 0.0106 0.0060 'International Tables Vol C Tables 4.2.6.8 and 6.1.1.4'
F F 0.0171 0.0103 'International Tables Vol C Tables 4.2.6.8 and 6.1.1.4'
loop_
_geom_angle_atom_site_label_1
_geom_angle_atom_site_label_2
_geom_angle_atom_site_label_3
_geom_angle
C7 N1 C1 118.7(3)
C7 N1 C13 117.8(3)
C1 N1 C13 114.9(3)
N1 C1 C2 114.8(3)
N1 C1 H1A 108.6
C2 C1 H1A 108.6
N1 C1 H1B 108.6
C2 C1 H1B 108.6
H1A C1 H1B 107.5
O2 C2 C3 121.6(3)
O2 C2 C1 121.5(3)
C3 C2 C1 116.9(3)
C3 O3 H3O 108(3)
O3 C3 C2 110.9(3)
O3 C3 C4 111.4(3)
C2 C3 C4 110.6(3)
O3 C3 H3 107.9
C2 C3 H3 107.9
C4 C3 H3 107.9
C4 O4 H4O 110(4)
O4 C4 C5 107.9(3)
O4 C4 C3 108.7(3)
C5 C4 C3 111.9(3)
O4 C4 H4 109.4
C5 C4 H4 109.4
C3 C4 H4 109.4
C5 O5 H5O 110(3)
O5 C5 C6 109.1(3)
O5 C5 C4 107.7(3)
C6 C5 C4 113.5(3)
O5 C5 H5 108.8
C6 C5 H5 108.8
C4 C5 H5 108.8
C6 O6 H6O 106(3)
O6 C6 C5 112.2(3)
O6 C6 H6A 109.2
C5 C6 H6A 109.2
O6 C6 H6B 109.2
C5 C6 H6B 109.2
H6A C6 H6B 107.9
C12 C7 C8 116.0(4)
C12 C7 N1 121.1(3)
C8 C7 N1 122.7(3)
C9 C8 C7 122.0(4)
C9 C8 H8 119.0
C7 C8 H8 119.0
C10 C9 C8 119.3(4)
C10 C9 H9 120.4
C8 C9 H9 120.4
C11 C10 C9 121.0(4)
C11 C10 F1 118.7(4)
C9 C10 F1 120.3(4)
C10 C11 C12 119.5(4)
C10 C11 H11 120.2
C12 C11 H11 120.2
C11 C12 C7 122.1(4)
C11 C12 H12 118.9
C7 C12 H12 118.9
N1 C13 H13A 109.5
N1 C13 H13B 109.5
H13A C13 H13B 109.5
N1 C13 H13C 109.5
H13A C13 H13C 109.5
H13B C13 H13C 109.5
loop_
_geom_bond_atom_site_label_1
_geom_bond_atom_site_label_2
_geom_bond_distance
F1 C10 1.373(4)
N1 C7 1.409(4)
N1 C1 1.452(4)
N1 C13 1.465(5)
C1 C2 1.527(5)
C1 H1A 0.9900
C1 H1B 0.9900
O2 C2 1.213(4)
C2 C3 1.515(5)
O3 C3 1.427(4)
O3 H3O 0.83(5)
C3 C4 1.539(5)
C3 H3 1.0000
O4 C4 1.441(4)
O4 H4O 0.94(6)
C4 C5 1.524(4)
C4 H4 1.0000
O5 C5 1.431(4)
O5 H5O 0.86(4)
C5 C6 1.512(5)
C5 H5 1.0000
O6 C6 1.437(4)
O6 H6O 0.86(5)
C6 H6A 0.9900
C6 H6B 0.9900
C7 C12 1.379(5)
C7 C8 1.387(5)
C8 C9 1.377(5)
C8 H8 0.9500
C9 C10 1.353(6)
C9 H9 0.9500
C10 C11 1.347(6)
C11 C12 1.377(6)
C11 H11 0.9500
C12 H12 0.9500
C13 H13A 0.9800
C13 H13B 0.9800
C13 H13C 0.9800
loop_
_geom_hbond_atom_site_label_D
_geom_hbond_atom_site_label_H
_geom_hbond_atom_site_label_A
_geom_hbond_site_symmetry_A
_geom_hbond_distance_DH
_geom_hbond_distance_HA
_geom_hbond_distance_DA
_geom_hbond_angle_DHA
_geom_hbond_publ_flag
O3 H3O O5 1_545 0.83(5) 2.03(5) 2.782(4) 151(4) yes
O4 H4O O6 2_646 0.94(6) 1.78(6) 2.701(4) 167(5) yes
O5 H5O O3 2_556 0.86(4) 1.84(4) 2.690(4) 174(4) yes
O6 H6O O4 1_565 0.86(5) 2.01(5) 2.762(4) 146(5) yes
loop_
_geom_torsion_atom_site_label_1
_geom_torsion_atom_site_label_2
_geom_torsion_atom_site_label_3
_geom_torsion_atom_site_label_4
_geom_torsion
C7 N1 C1 C2 73.7(4)
C13 N1 C1 C2 -73.4(4)
N1 C1 C2 O2 8.2(5)
N1 C1 C2 C3 -173.1(3)
O2 C2 C3 O3 -9.4(5)
C1 C2 C3 O3 171.8(3)
O2 C2 C3 C4 114.7(4)
C1 C2 C3 C4 -64.0(4)
O3 C3 C4 O4 68.4(4)
C2 C3 C4 O4 -55.4(4)
O3 C3 C4 C5 -50.7(4)
C2 C3 C4 C5 -174.5(3)
O4 C4 C5 O5 178.8(3)
C3 C4 C5 O5 -61.6(3)
O4 C4 C5 C6 58.0(4)
C3 C4 C5 C6 177.6(3)
O5 C5 C6 O6 -58.2(4)
C4 C5 C6 O6 61.9(4)
C1 N1 C7 C12 -160.5(4)
C13 N1 C7 C12 -14.3(5)
C1 N1 C7 C8 24.7(5)
C13 N1 C7 C8 170.8(4)
C12 C7 C8 C9 1.9(6)
N1 C7 C8 C9 177.0(4)
C7 C8 C9 C10 -0.4(7)
C8 C9 C10 C11 -1.6(7)
C8 C9 C10 F1 179.7(4)
C9 C10 C11 C12 1.9(7)
F1 C10 C11 C12 -179.3(4)
C10 C11 C12 C7 -0.3(7)
C8 C7 C12 C11 -1.5(6)
N1 C7 C12 C11 -176.7(4)

_cod_database_fobs_code 1549038
