#------------------------------------------------------------------------------
#$Date: 2018-04-30 20:04:28 +0300 (Mon, 30 Apr 2018) $
#$Revision: 207575 $
#$URL: file:///home/coder/svn-repositories/cod/cif/1/54/93/1549344.cif $
#------------------------------------------------------------------------------
#
# This file is available in the Crystallography Open Database (COD),
# http://www.crystallography.net/. The original data for this entry
# were provided by IUCr Journals, http://journals.iucr.org/.
#
# The file may be used within the scientific community so long as
# proper attribution is given to the journal article from which the
# data were obtained.
#
data_1549344
loop_
_publ_author_name
'Peloquin, Andrew J.'
'Godman, Nicholas P.'
'Allison, Bruce D.'
'Balaich, Gary J.'
'Iacono, Scott T.'
_publ_section_title
;
 1,3-Bis(4-bromophenyl)propane
;
_journal_coeditor_code           BV4016
_journal_issue                   4
_journal_name_full               IUCrData
_journal_page_first              x180563
_journal_paper_doi               10.1107/S2414314618005631
_journal_volume                  3
_journal_year                    2018
_chemical_formula_iupac          'C15 H14 Br2'
_chemical_formula_moiety         'C15 H14 Br2'
_chemical_formula_sum            'C15 H14 Br2'
_chemical_formula_weight         354.08
_chemical_name_common            1,3-di(4-bromophenyl)propane
_chemical_name_systematic
;
1,3-Bis(4-bromophenyl)propane
;
_space_group_crystal_system      monoclinic
_space_group_IT_number           4
_space_group_name_Hall           'P 2yb'
_space_group_name_H-M_alt        'P 1 21 1'
_symmetry_space_group_name_Hall  'P 2yb'
_symmetry_space_group_name_H-M   'P 1 21 1'
_atom_sites_solution_hydrogens   geom
_cell_angle_alpha                90
_cell_angle_beta                 101.808(2)
_cell_angle_gamma                90
_cell_formula_units_Z            2
_cell_length_a                   7.4526(13)
_cell_length_b                   5.8441(10)
_cell_length_c                   16.278(3)
_cell_measurement_reflns_used    9704
_cell_measurement_temperature    100
_cell_measurement_theta_max      29.6708
_cell_measurement_theta_min      2.5566
_cell_volume                     694.0(2)
_computing_cell_refinement
;
SAINT (Bruker, 2017)
;
_computing_data_collection
;
APEX3 (Bruker, 2017)
;
_computing_data_reduction
;
SAINT (Bruker, 2017)
;
_computing_molecular_graphics
;
<i>ORTEP-3 for Windows</i> (Farrugia, 2012) and Mercury (Macrae <i>et
al.</i>,
2008)
;
_computing_publication_material
;
SHELXL (Sheldrick, 2008)
;
_computing_structure_refinement
;
SHELXL (Sheldrick, 2015<i>b</i>)
;
_computing_structure_solution
;
SHELXT (Sheldrick, 2015<i>a</i>)
;
_diffrn_ambient_temperature      100
_diffrn_detector_area_resol_mean 8.3333
_diffrn_measured_fraction_theta_full 0.998
_diffrn_measured_fraction_theta_max 0.998
_diffrn_measurement_device_type  'Bruker SMART APEX CCD'
_diffrn_measurement_method       'Omega Scans'
_diffrn_radiation_monochromator  graphite
_diffrn_radiation_type           'Mo K\a'
_diffrn_radiation_wavelength     0.71073
_diffrn_reflns_av_R_equivalents  0.0337
_diffrn_reflns_limit_h_max       10
_diffrn_reflns_limit_h_min       -10
_diffrn_reflns_limit_k_max       7
_diffrn_reflns_limit_k_min       -7
_diffrn_reflns_limit_l_max       21
_diffrn_reflns_limit_l_min       -21
_diffrn_reflns_number            14936
_diffrn_reflns_theta_full        28.70
_diffrn_reflns_theta_max         28.70
_diffrn_reflns_theta_min         2.56
_exptl_absorpt_coefficient_mu    5.816
_exptl_absorpt_correction_T_max  0.55
_exptl_absorpt_correction_T_min  0.25
_exptl_absorpt_correction_type   multi-scan
_exptl_absorpt_process_details
;
(SADABS; Bruker, 2017)
;
_exptl_crystal_colour            'clear colourless'
_exptl_crystal_density_diffrn    1.694
_exptl_crystal_density_method    'not measured'
_exptl_crystal_description       'flat prism'
_exptl_crystal_F_000             348
_exptl_crystal_size_max          0.470
_exptl_crystal_size_mid          0.251
_exptl_crystal_size_min          0.116
_refine_diff_density_max         0.684
_refine_diff_density_min         -0.353
_refine_ls_abs_structure_details
;
Flack <i>x</i> determined using 1492 quotients
[(<i>I</i>^+^)-(<i>I</i>^-^)]/[(<i>I</i>^+^)+(<i>I</i>^-^)]
(Parsons <i>et al.</i>,  2013)
;
_refine_ls_abs_structure_Flack   0.019(9)
_refine_ls_extinction_method     none
_refine_ls_goodness_of_fit_ref   1.376
_refine_ls_hydrogen_treatment    constr
_refine_ls_matrix_type           full
_refine_ls_number_parameters     154
_refine_ls_number_reflns         3562
_refine_ls_number_restraints     1
_refine_ls_restrained_S_all      1.376
_refine_ls_R_factor_all          0.0246
_refine_ls_R_factor_gt           0.0231
_refine_ls_shift/su_max          0.001
_refine_ls_shift/su_mean         0.000
_refine_ls_structure_factor_coef Fsqd
_refine_ls_weighting_details     'w=1/[\s^2^(Fo^2^)] where P=(Fo^2^+2Fc^2^)/3'
_refine_ls_weighting_scheme      calc
_refine_ls_wR_factor_gt          0.0544
_refine_ls_wR_factor_ref         0.0548
_reflns_number_gt                3421
_reflns_number_total             3562
_reflns_threshold_expression     'I > 2\s(I)'
_cod_data_source_file            bv4016sup1.cif
_cod_data_source_block           I
_cod_database_code               1549344
_shelx_hkl_file
;
  -1   0   0   72.49    4.50
  -1   0   0   53.49    4.50
   1   0   0   73.59    4.50
  -1   0   0   63.29    4.90
  -2   0   0 2016.80  121.99
   2   0   0 2147.59  121.89
   2   0   0 2204.48  122.19
   2   0   0 2129.89  122.39
  -2   0   0 1865.51  122.19
  -2   0   0 2004.20  122.89
   3   0   0  431.76   26.20
  -3   0   0  389.96   26.10
   3   0   0  420.46   25.50
  -3   0   0  414.06   25.80
  -3   0   0  402.46   27.10
  -4   0   0  411.66   25.50
  -4   0   0  397.56   26.10
   4   0   0  413.56   26.30
   4   0   0  386.46   25.00
   4   0   0  391.66   25.80
  -4   0   0  395.76   27.30
  -5   0   0 1216.68   71.49
   5   0   0 1199.38   71.89
  -5   0   0 1196.68   73.69
   5   0   0 1201.48   72.39
   5   0   0 1119.69   70.99
  -5   0   0 1150.68   71.99
  -6   0   0  655.23   44.70
   6   0   0  639.94   41.20
  -6   0   0  688.83   42.90
   6   0   0  684.23   42.40
   6   0   0  678.63   42.80
   7   0   0  126.39   12.70
  -7   0   0  118.89   12.50
  -7   0   0  112.49   14.50
   7   0   0  128.79   12.10
   8   0   0  312.87   22.80
  -8   0   0  279.07   26.60
  -8   0   0  338.27   24.60
  -9   0   0  146.69   15.20
  -9   0   0  122.09   17.20
   9   0   0  122.29   14.10
   9   0   0  134.19   14.10
   0   1   0    6.20    0.90
   0   1   0   10.80    1.10
   0   1   0    4.80    0.70
  -1  -1   0 8596.54  534.85
  -1  -1   0 8281.37  534.55
   1  -1   0 8374.26  534.75
   1  -1   0 8837.62  534.35
  -1  -1   0 9090.49  534.65
  -1   1   0 8780.72  534.75
  -1   1   0 9732.53  535.45
   1   1   0 9394.76  534.65
  -1   1   0 9835.42  534.75
   1   1   0 9453.45  534.55
  -1   1   0 9651.23  534.45
   1   1   0 9200.08  536.05
  -2  -1   0  855.11   51.69
   2  -1   0  887.71   50.99
  -2  -1   0  873.81   51.09
  -2  -1   0  879.71   51.09
   2  -1   0  872.31   50.79
   2   1   0  815.72   50.29
  -2   1   0  834.92   50.39
  -2   1   0  845.42   51.49
  -2   1   0  842.12   51.79
   2   1   0  862.31   51.19
   2   1   0  820.82   51.49
   3  -1   0 1046.50   62.19
  -3  -1   0 1108.79   63.09
   3  -1   0 1029.10   62.49
   3  -1   0 1074.99   62.19
  -3  -1   0 1053.39   62.49
  -3   1   0  989.50   63.49
  -3   1   0  992.20   62.59
   3   1   0 1072.09   61.39
   3   1   0 1030.70   62.69
  -3   1   0  953.30   61.29
  -4  -1   0 1077.39   67.49
  -4  -1   0 1198.48   67.89
   4  -1   0 1151.28   67.39
   4  -1   0 1180.38   67.59
  -4  -1   0 1140.39   68.49
   4  -1   0 1194.08   67.19
   4   1   0 1138.19   66.19
   4   1   0 1084.99   67.79
   4   1   0 1079.79   67.19
  -4   1   0 1058.09   67.09
  -4   1   0 1054.79   68.79
  -4   1   0  956.40   65.89
   5  -1   0 1279.77   79.49
  -5  -1   0 1409.86   81.09
  -5  -1   0 1421.66   79.89
  -5  -1   0 1320.67   79.79
   5  -1   0 1244.48   79.59
   5   1   0 1239.68   79.49
   5   1   0 1306.47   80.29
  -5   1   0 1414.06   82.09
  -5   1   0 1138.29   79.29
   5   1   0 1306.77   78.19
   6  -1   0   20.80    5.50
  -6  -1   0   21.00    6.10
  -6  -1   0   19.90    5.60
   6  -1   0   14.10    4.50
   6  -1   0   12.60    3.40
  -6  -1   0   19.90    7.00
   6   1   0    5.60    5.40
  -6   1   0    6.80    7.80
   6   1   0    3.40    4.90
  -6   1   0    0.60    6.30
   7  -1   0   47.40    7.30
   7  -1   0   47.80    6.30
  -7  -1   0   47.40    8.40
   7  -1   0   52.09    7.70
  -7  -1   0   51.39   10.00
   7   1   0   49.10    9.10
  -7   1   0   44.50   11.30
   7   1   0   58.29    8.60
  -7   1   0   67.69   10.30
  -8  -1   0   15.70    9.40
  -8  -1   0   15.90    7.90
   8  -1   0   11.00    5.70
   8  -1   0   13.90    5.50
   8   1   0    4.40    6.40
  -8   1   0   11.30   10.70
   8   1   0    0.50    5.70
  -8   1   0    8.00    9.00
   9  -1   0    3.10    5.70
   9  -1   0    7.50    5.90
  -9  -1   0    8.70    8.70
  -9  -1   0    2.40    9.90
  -9   1   0   13.00   10.00
  -9   1   0   18.80   12.50
   9   1   0    8.80    6.70
   9   1   0   10.40    7.20
   0   2   0 5994.70  356.06
   0   2   0 6114.49  356.46
   0   2   0 6075.19  356.26
  -1  -2   0 1285.87   70.59
  -1  -2   0 1267.87   69.59
   1  -2   0 1221.48   69.59
  -1  -2   0 1199.58   69.59
  -1   2   0 1130.39   69.39
  -1   2   0 1115.49   69.69
   1   2   0 1127.49   69.39
   1   2   0 1113.99   69.69
   1   2   0 1167.78   70.49
   1   2   0 1154.08   69.49
  -1   2   0 1135.19   69.69
  -1   2   0 1161.88   70.19
  -2  -2   0  920.11   54.09
   2  -2   0  880.11   53.99
  -2  -2   0  899.31   55.29
   2  -2   0  873.11   53.89
  -2  -2   0  830.92   54.09
   2   2   0  894.11   54.29
   2   2   0  931.81   53.89
   2   2   0  946.71   55.29
   2   2   0  909.61   53.49
  -2   2   0  938.21   55.09
  -2   2   0  882.51   53.89
  -2   2   0  940.01   54.89
  -2   2   0  929.71   53.89
  -3  -2   0  374.96   26.30
  -3  -2   0  370.26   25.10
   3  -2   0  367.36   24.90
  -3  -2   0  367.96   25.00
   3  -2   0  401.66   24.70
   3   2   0  424.66   24.80
  -3   2   0  427.66   24.80
  -3   2   0  401.76   24.30
  -3   2   0  425.56   26.60
   3   2   0  423.96   25.60
   3   2   0  414.56   24.00
  -3   2   0  426.16   26.30
  -4  -2   0  239.18   17.90
   4  -2   0  249.58   17.10
   4  -2   0  233.28   17.20
  -4  -2   0  237.08   17.70
   4  -2   0  238.58   17.80
  -4  -2   0  233.58   18.80
  -4   2   0  281.07   18.80
   4   2   0  291.27   17.30
   4   2   0  300.47   18.70
  -4   2   0  291.57   17.40
  -4   2   0  264.47   19.70
  -5  -2   0  752.32   50.79
  -5  -2   0  801.22   51.09
   5  -2   0  859.81   50.09
   5  -2   0  864.91   49.99
   5  -2   0  814.62   49.90
  -5  -2   0  830.52   50.49
  -5   2   0  894.71   50.99
   5   2   0  731.33   50.79
  -5   2   0  677.73   52.09
   6  -2   0  314.07   24.40
  -6  -2   0  330.67   25.30
   6  -2   0  318.27   24.30
  -6  -2   0  367.56   26.10
   6  -2   0  369.56   23.90
  -6   2   0  403.06   29.40
   6   2   0  381.36   26.60
  -7  -2   0  151.78   15.50
  -7  -2   0  155.78   15.30
   7  -2   0  128.09   13.60
   7  -2   0  150.48   12.30
  -7  -2   0  148.79   15.70
   7  -2   0  131.69   13.40
  -7   2   0  156.38   18.80
  -7   2   0  116.59   14.70
   7   2   0  150.88   16.30
  -8  -2   0  148.19   15.80
   8  -2   0  124.59   11.00
   8  -2   0  109.39   12.50
   8  -2   0  109.99   12.30
  -8  -2   0  116.09   17.10
   8   2   0  108.79   14.60
  -8   2   0   92.39   17.30
  -8   2   0  100.59   15.10
   9  -2   0  275.57   21.70
   9  -2   0  271.77   21.30
  -9  -2   0  313.77   24.00
   9   2   0  264.67   24.10
  -9   2   0  259.37   29.10
  -9   2   0  255.37   26.00
   0  -3   0    1.20    1.60
   0   3   0    0.70    1.10
   0   3   0   -0.40    1.40
   0   3   0    2.80    2.10
   0   3   0    0.30    1.60
   0   3   0    0.90    1.60
   0   3   0    0.00    1.30
  -1  -3   0 1299.67   78.79
  -1  -3   0 1255.47   77.39
   1  -3   0 1207.08   77.39
  -1  -3   0 1228.98   77.29
   1   3   0 1331.77   77.69
  -1   3   0 1342.27   78.29
   1   3   0 1298.27   77.49
   1   3   0 1314.37   77.39
   1   3   0 1390.06   78.99
  -1   3   0 1282.77   77.29
  -1   3   0 1306.47   77.69
  -1   3   0 1366.36   78.59
   1   3   0 1323.27   77.79
  -2  -3   0 1068.49   59.79
   2  -3   0 1055.49   59.79
  -2  -3   0 1052.09   59.89
   2  -3   0 1027.70   59.79
  -2  -3   0 1094.09   61.69
  -2   3   0  941.41   60.39
   2   3   0  993.80   61.39
  -2   3   0  937.01   59.49
   2   3   0  967.00   59.49
   2   3   0  950.90   59.69
   2   3   0  940.01   60.09
  -2   3   0  965.60   60.09
  -2   3   0  985.80   61.09
  -3  -3   0  750.72   46.80
   3  -3   0  763.92   46.40
   3  -3   0  740.73   46.60
  -3  -3   0  788.02   46.70
  -3  -3   0  694.83   48.20
  -3   3   0  783.32   46.30
  -3   3   0  757.12   46.50
  -3   3   0  816.52   48.40
   3   3   0  758.02   48.30
   3   3   0  780.02   46.50
  -3   3   0  785.22   48.00
   3   3   0  803.42   47.30
   4  -3   0  981.20   61.29
  -4  -3   0 1007.60   62.29
  -4  -3   0 1018.70   60.29
   4  -3   0 1028.70   59.79
   4  -3   0 1010.70   60.19
  -4  -3   0  979.50   60.39
   4   3   0  942.91   59.79
  -4   3   0 1002.10   62.39
   4   3   0 1009.10   61.09
  -4   3   0  949.11   59.69
  -4   3   0  959.50   61.69
  -5  -3   0  341.77   27.80
  -5  -3   0  367.16   26.60
   5  -3   0  340.17   26.20
   5  -3   0  378.96   25.40
  -5  -3   0  352.66   26.50
   5  -3   0  362.96   25.70
   5   3   0  435.26   25.90
  -5   3   0  415.56   29.90
  -5   3   0  444.16   28.00
   5   3   0  454.05   28.00
  -5   3   0  428.06   26.00
   6  -3   0  153.38   12.30
   6  -3   0  128.49   12.30
   6  -3   0  151.98   12.50
  -6  -3   0  138.69   14.40
  -6  -3   0  157.08   15.40
  -6   3   0  120.19   13.50
  -6   3   0   98.19   11.80
   6   3   0  112.29   12.30
   6   3   0  111.79   14.00
  -6   3   0   81.79   15.30
  -7  -3   0   18.10    8.30
  -7  -3   0   24.90    9.20
   7  -3   0   16.70    6.60
   7  -3   0   24.70    5.70
   7  -3   0   20.00    6.60
  -7   3   0   15.70   12.30
   7   3   0   18.10    9.00
  -7   3   0   17.40    8.40
   7   3   0   30.00    8.00
  -8  -3   0   60.89   11.40
   8  -3   0   61.39    9.50
   8  -3   0   57.89    9.50
   8  -3   0   64.29    8.60
   8   3   0   38.20   11.60
  -8   3   0   30.60   15.20
   9  -3   0   57.29    8.40
   9  -3   0   74.99   10.70
   9  -3   0   62.79   10.70
  -9  -3   0   67.99   15.30
   9   3   0   76.29   14.80
  -9   3   0   68.99   21.10
   0  -4   0  848.42   49.60
   0  -4   0  923.71   51.39
   0  -4   0  765.72   49.20
   0   4   0  801.72   49.50
   0   4   0  833.02   50.59
   0   4   0  785.12   49.10
   0   4   0  799.62   49.70
   0   4   0  794.32   49.50
   1  -4   0  847.12   47.70
  -1  -4   0  855.71   49.80
  -1  -4   0  833.02   47.50
  -1  -4   0  842.62   47.50
  -1   4   0  820.72   49.10
  -1   4   0  737.23   47.60
   1   4   0  756.62   48.10
   1   4   0  729.83   47.20
   1   4   0  773.12   49.40
   1   4   0  780.32   47.60
  -1   4   0  760.22   47.90
   1   4   0  730.23   47.80
  -1   4   0  754.52   47.20
  -1   4   0  759.12   48.90
   2  -4   0  859.81   52.19
  -2  -4   0  843.82   52.19
   2  -4   0  833.42   51.99
  -2  -4   0  895.01   54.59
  -2  -4   0  833.92   51.89
   2   4   0  910.51   54.49
  -2   4   0  857.21   52.39
   2   4   0  862.21   52.69
  -2   4   0  901.41   54.09
  -2   4   0  898.41   53.39
  -2   4   0  789.02   52.69
   2   4   0  860.51   52.09
  -2   4   0  871.11   51.89
   3  -4   0  465.65   30.50
  -3  -4   0  456.35   30.70
  -3  -4   0  478.05   33.30
   3  -4   0  469.95   30.30
  -3  -4   0  487.45   30.50
   3   4   0  502.05   31.40
   3   4   0  493.55   30.40
   3   4   0  514.95   33.10
  -3   4   0  493.35   30.20
  -3   4   0  512.75   33.10
  -3   4   0  499.75   31.90
   4  -4   0   88.69    8.50
  -4  -4   0   84.99   11.60
   4  -4   0   88.29    8.80
  -4  -4   0   87.09    9.70
   4  -4   0  103.79   11.10
  -4   4   0  106.89    8.60
  -4   4   0   87.39   11.20
  -4   4   0  102.19   11.80
   4   4   0  110.29   10.60
   4   4   0   94.79    8.60
   5  -4   0  293.07   21.70
  -5  -4   0  283.07   21.60
   5  -4   0  296.47   20.00
  -5  -4   0  250.77   23.80
   5  -4   0  287.27   20.50
  -5   4   0  300.47   20.20
  -5   4   0  260.17   22.50
   5   4   0  310.37   20.40
   5   4   0  303.47   22.60
  -5   4   0  309.07   24.50
  -6  -4   0  169.38   19.60
   6  -4   0  185.28   14.50
  -6  -4   0  171.28   16.90
   6  -4   0  179.18   15.20
   6  -4   0  163.48   14.90
  -6   4   0  156.68   17.10
  -6   4   0  147.49   19.10
   6   4   0  151.48   17.60
  -7  -4   0  312.87   26.20
   7  -4   0  345.17   23.80
   7  -4   0  333.57   24.60
   7  -4   0  356.96   24.50
  -7  -4   0  363.66   27.70
   7   4   0  258.17   27.60
  -7   4   0  224.68   30.30
  -8  -4   0   74.09   12.90
   8  -4   0   80.99   10.40
   8  -4   0   70.39   11.00
  -8  -4   0   75.19   13.40
  -8   4   0   81.89   19.00
   8   4   0   69.69   15.60
   0  -5   0   -1.80    4.60
   0  -5   0    0.50    3.00
   0  -5   0   -1.40    2.70
   0   5   0   -0.10    2.80
   0   5   0   -1.80    2.90
   0   5   0    2.10    2.60
   0   5   0   -0.30    3.90
   0   5   0   -0.40    3.30
   0   5   0    0.20    3.60
   1  -5   0   47.60    7.60
   1  -5   0   34.40    5.10
   1  -5   0   46.80    5.80
  -1  -5   0   42.40    5.10
  -1  -5   0   41.50    8.10
  -1  -5   0   36.90    4.80
  -1   5   0   28.80    4.20
   1   5   0   27.90    5.20
  -1   5   0   17.20    4.00
  -1   5   0   27.30    5.00
  -1   5   0   27.40    6.80
   1   5   0   29.60    7.40
   1   5   0   27.00    4.50
   2  -5   0  834.22   52.19
  -2  -5   0  835.02   52.29
  -2  -5   0  802.72   55.09
   2  -5   0  823.72   52.29
   2   5   0  862.81   52.39
  -2   5   0  891.21   55.09
   2   5   0  879.81   53.19
  -2   5   0  871.01   51.99
   2   5   0  910.01   55.49
  -3  -5   0  647.14   41.10
   3  -5   0  679.83   40.70
   3  -5   0  708.03   43.40
   3  -5   0  698.53   41.10
  -3  -5   0  686.93   44.60
  -3   5   0  616.64   41.90
   3   5   0  607.04   41.70
   3   5   0  621.54   41.00
  -3   5   0  654.03   43.90
   4  -5   0   41.70    8.20
   4  -5   0   39.30    6.20
  -4  -5   0   36.70    6.80
   4  -5   0   39.10    5.80
  -4  -5   0   28.10    9.60
   4   5   0   56.49    8.20
  -4   5   0   53.69   10.20
  -4   5   0   62.69    9.20
   5  -5   0  185.88   15.00
   5  -5   0  190.48   14.30
  -5  -5   0  164.98   19.90
   5  -5   0  169.18   16.40
  -5   5   0  175.18   18.70
   5   5   0  180.28   17.30
  -5   5   0  156.88   17.70
  -6  -5   0  132.19   18.00
  -6  -5   0  124.79   14.80
   6  -5   0  154.78   14.90
   6  -5   0  140.49   15.10
   6   5   0  164.68   18.70
  -6   5   0  187.48   18.60
  -6   5   0  171.38   21.20
   7  -5   0   31.30    7.50
   7  -5   0   26.90    7.80
  -7  -5   0   29.70   12.30
  -7  -5   0   24.30    9.80
   7   5   0   19.90   10.50
  -7   5   0    8.60   13.30
   0  -6   0   66.59    6.90
   0  -6   0   65.09   10.90
   0   6   0   55.99    7.20
   0   6   0   54.39    7.70
  -1  -6   0  326.67   21.90
  -1  -6   0  304.77   26.00
   1  -6   0  338.27   22.40
   1  -6   0  274.07   25.10
   1   6   0  334.17   23.00
  -1   6   0  301.47   27.60
  -1   6   0  351.86   25.60
   1   6   0  344.17   26.50
   2  -6   0  542.75   31.70
   2  -6   0  559.74   31.80
  -2  -6   0  528.15   31.80
   2  -6   0  483.05   33.90
  -2  -6   0  506.45   36.10
  -2   6   0  447.96   31.50
   2   6   0  443.36   32.30
   2   6   0  462.85   35.50
  -2   6   0  418.36   34.60
  -2   6   0  445.46   32.00
  -3  -6   0   14.10    5.40
   3  -6   0   18.90    6.90
   3  -6   0   13.70    4.80
   3  -6   0   14.20    4.90
  -3  -6   0   13.20    9.40
   3   6   0   12.90    5.90
  -3   6   0    8.60    8.10
  -3   6   0    3.60    2.90
   4  -6   0  113.99   13.60
  -4  -6   0   98.09   15.20
  -4  -6   0  119.09   12.90
   4  -6   0  116.59   11.50
  -4   6   0   84.59   13.70
   4   6   0   98.29   11.90
  -4   6   0   91.69   12.20
   5  -6   0   45.30    7.80
  -5  -6   0   44.90    9.10
   5  -6   0   47.60    9.60
  -5  -6   0   33.10   12.60
  -5   6   0   35.70   11.50
   5   6   0   43.10    9.80
  -5   6   0   35.60   10.30
   6  -6   0   35.40    8.00
  -6  -6   0   42.10   13.30
  -6  -6   0   41.00   10.00
   6  -6   0   46.80    9.10
  -6   6   0   42.50   12.60
   6   6   0   43.20   11.00
   0  -7   0    4.70    8.40
   0  -7   0    3.70    5.50
   0   7   0    3.00    5.40
   1  -7   0   22.70    8.30
  -1  -7   0   21.20   10.20
   1   7   0   24.10    6.80
  -2  -7   0  176.18   21.40
   2  -7   0  154.58   16.70
   2  -7   0  164.18   14.10
   2   7   0  161.78   15.70
  -2   7   0  153.08   18.50
   3  -7   0  434.36   29.50
  -3  -7   0  430.56   29.90
  -3  -7   0  468.15   36.20
   3  -7   0  430.76   32.50
   3   7   0  439.66   31.20
  -3   7   0  396.26   34.40
   4  -7   0   38.30    7.50
   4  -7   0   47.10    9.90
  -4  -7   0   34.30    8.30
  -4  -7   0   37.80   12.80
   4   7   0   56.89    9.90
  -4   7   0   44.40   12.30
   9   0  -1    0.30    5.40
   9   0  -1    3.90    6.10
  -9   0   1   -5.40    9.90
  -9   0   1    7.20    8.80
   8   0  -1  817.72   53.09
  -8   0   1  887.01   53.29
  -8   0   1  784.32   55.49
   8   0  -1  829.32   52.29
  -7   0   1  366.26   25.40
   7   0  -1  347.27   24.10
   7   0  -1  351.86   24.90
  -7   0   1  335.27   27.50
   6   0  -1   85.49   10.10
   6   0  -1   88.39    9.20
  -6   0   1   97.39   10.80
   6   0  -1   87.19    7.70
  -6   0   1   87.89   11.70
  -5   0   1 1194.48   72.99
   5   0  -1 1213.48   72.89
  -5   0   1 1214.48   74.69
   5   0  -1 1232.88   73.49
  -5   0   1 1174.98   72.19
   5   0  -1 1162.48   71.99
  -4   0   1 1691.93  102.69
   4   0  -1 1642.94  102.49
   4   0  -1 1727.33  102.69
   4   0  -1 1674.53  101.89
  -4   0   1 1714.03  104.19
  -4   0   1 1714.43  102.09
   4   0  -1 1822.62  103.39
  -3   0   1  389.66   24.70
  -3   0   1  398.66   25.20
   3   0  -1  407.36   25.70
   3   0  -1  405.76   24.50
  -3   0   1  403.96   26.40
  -3   0   1  381.76   24.50
   3   0  -1  389.26   25.10
   3   0  -1  390.36   25.00
   2   0  -1 3337.27  217.68
  -2   0   1 3576.24  218.18
  -2   0   1 3893.61  216.98
   2   0  -1 3655.13  217.38
  -2   0   1 3958.40  216.98
  -1   0   1  276.57   17.80
  -1   0   1  313.97   18.30
   1   0  -1  305.67   18.20
   1   0  -1  301.27   18.10
  -1   0  -1 2654.13  163.08
   1   0   1 2730.53  163.08
   1   0   1 2683.93  163.18
  -1   0  -1 3015.90  163.28
   2   0   1 3824.42  221.68
   2   0   1 3565.74  222.08
  -2   0  -1 4145.89  222.68
  -2   0  -1 3507.25  221.98
  -2   0  -1 3779.22  221.88
   3   0   1  314.47   19.40
   3   0   1  289.17   18.60
  -3   0  -1  286.97   20.00
  -3   0  -1  281.47   19.00
  -3   0  -1  282.17   19.30
   3   0   1  309.47   19.50
  -4   0  -1  282.67   21.20
   4   0   1  306.87   20.00
   4   0   1  293.57   19.10
   4   0   1  314.57   20.40
  -4   0  -1  288.47   20.00
  -4   0  -1  288.97   19.60
   5   0   1  486.55   30.50
  -5   0  -1  468.05   29.70
   5   0   1  436.66   29.00
   5   0   1  476.75   30.20
  -5   0  -1  471.15   32.10
  -5   0  -1  435.76   30.30
   6   0   1  967.70   58.29
   6   0   1  931.11   57.09
  -6   0  -1  906.51   60.19
  -6   0  -1  957.40   58.59
   6   0   1  923.11   58.49
   7   0   1 1298.77   79.09
   7   0   1 1273.37   78.49
  -7   0  -1 1231.78   80.79
  -7   0  -1 1309.77   79.09
  -8   0  -1   32.60   11.10
   8   0   1   39.00    8.00
   8   0   1   44.90    7.90
  -8   0  -1   49.40   10.10
   9   0   1   55.79    9.60
  -9   0  -1   60.09   13.80
  -9   0  -1   59.89   11.70
   9   0   1   59.89    9.30
  -9  -1   1  570.24   38.20
   9  -1  -1  521.05   37.10
   9  -1  -1  525.95   36.60
  -9  -1   1  550.64   40.80
  -9   1   1  531.55   42.00
   9   1  -1  553.04   37.30
  -9   1   1  616.24   39.10
   9   1  -1  560.94   38.60
  -8  -1   1  214.68   18.50
  -8  -1   1  193.88   20.10
   8  -1  -1  193.48   17.00
   8  -1  -1  185.38   16.10
   8   1  -1  190.68   17.00
  -8   1   1  197.18   22.40
   8   1  -1  207.18   18.70
  -8   1   1  220.68   20.40
  -7  -1   1  203.28   16.80
  -7  -1   1  190.08   18.20
   7  -1  -1  173.68   15.80
   7  -1  -1  179.88   14.00
   7  -1  -1  186.08   15.20
  -7   1   1  172.98   20.00
  -7   1   1  204.28   17.90
   7   1  -1  198.58   16.10
   7   1  -1  198.08   17.20
   6  -1  -1  123.09   12.20
   6  -1  -1  126.69   11.60
  -6  -1   1  130.99   14.00
   6  -1  -1  132.59   10.50
  -6  -1   1  139.89   13.10
  -6  -1   1  135.59   12.20
   6   1  -1  126.79   11.70
  -6   1   1  138.19   15.90
   6   1  -1  124.99   13.30
  -6   1   1  137.69   14.00
  -5  -1   1  107.59    9.90
  -5  -1   1   91.39    9.90
  -5  -1   1  110.29   11.10
   5  -1  -1   89.99    8.90
   5  -1  -1   86.09    9.50
  -5   1   1   85.39    9.30
  -4  -1   1 2192.08  126.89
   4  -1  -1 2224.38  126.49
   4  -1  -1 2152.58  125.69
  -4  -1   1 2200.38  126.69
   4  -1  -1 2251.67  126.69
  -4  -1   1 2204.98  127.69
   4  -1  -1 1978.50  126.29
  -4   1   1 2206.88  126.69
  -4   1   1 2092.79  128.49
   4   1  -1 2050.59  125.39
   4   1  -1 1778.82  126.89
  -3  -1   1 3991.30  234.48
  -3  -1   1 4106.29  234.98
   3  -1  -1 4158.98  233.78
   3  -1  -1 4163.38  234.38
   3  -1  -1 4060.49  234.28
   3   1  -1 3767.52  233.58
  -3   1   1 3798.92  234.28
   3   1  -1 3875.61  234.68
   3   1  -1 3791.02  235.08
  -3   1   1 4036.00  234.68
   3   1  -1 4068.59  234.38
  -3   1   1 3863.81  233.38
   2  -1  -1   65.99    5.00
   2  -1  -1   62.79    4.90
  -2  -1   1   60.59    5.00
  -2  -1   1   61.09    5.20
  -2   1   1   76.79    5.50
   2   1  -1   74.29    5.60
   2   1  -1   71.09    5.50
  -2   1   1   72.69    6.50
   2   1  -1   79.99    4.90
  -2   1   1   81.59    5.00
   1  -1  -1  740.33   41.10
  -1  -1   1  706.03   41.00
  -1  -1   1  762.62   41.10
  -1   1   1  637.34   41.00
   1   1  -1  703.83   40.80
  -1   1   1  644.74   41.10
  -1   1   1  694.73   40.80
  -1   1   1  660.33   41.20
   1   1  -1  662.93   41.30
   0  -1  -1  708.73   40.90
   0  -1   1  654.63   41.40
   0  -1  -1  759.82   41.70
   0   1  -1  705.03   41.00
   0   1  -1  605.74   41.30
   0   1  -1  615.14   41.20
   0   1   1  717.33   41.10
   0   1   1  742.23   41.20
   0   1   1  719.93   41.20
   0   1  -1  682.23   41.00
   0   1  -1  715.93   41.00
  -1  -1  -1  940.71   53.29
   1  -1   1  936.51   53.09
  -1  -1  -1  937.61   53.09
  -1  -1  -1  861.01   54.09
   1  -1   1  806.52   53.79
   1  -1   1  961.50   53.29
   1   1   1  903.61   52.99
   1   1   1  895.91   53.09
  -1   1  -1  895.71   53.09
   1   1   1  930.21   53.29
  -1   1  -1  768.52   53.79
  -1   1  -1  916.71   53.49
  -2  -1  -1 1043.10   65.09
   2  -1   1 1083.79   64.59
   2  -1   1 1040.40   64.99
  -2  -1  -1  907.01   65.59
  -2  -1  -1 1075.99   65.19
   2  -1   1  957.70   65.19
   2   1   1 1209.18   64.99
  -2   1  -1 1201.38   65.59
  -2   1  -1 1062.39   64.29
  -2   1  -1 1068.49   65.49
   2   1   1 1168.88   64.69
   2   1   1 1139.89   64.29
  -2   1  -1 1170.08   64.69
  -3  -1  -1 1030.30   70.89
  -3  -1  -1 1038.00   71.19
   3  -1   1 1126.89   70.59
   3  -1   1 1151.38   70.89
   3  -1   1 1144.29   70.79
   3   1   1 1296.87   70.99
   3   1   1 1275.47   69.79
  -3   1  -1 1203.18   71.69
  -3   1  -1 1162.28   69.79
  -3   1  -1 1242.28   70.39
   3   1   1 1251.07   70.49
   4  -1   1  380.06   21.80
  -4  -1  -1  353.76   22.50
   4  -1   1  317.17   22.00
  -4  -1  -1  290.17   22.10
   4  -1   1  350.26   22.20
  -4  -1  -1  381.06   23.30
  -4   1  -1  276.47   20.60
   4   1   1  316.97   21.80
   4   1   1  339.37   22.50
  -4   1  -1  324.87   21.90
  -4   1  -1  307.07   23.20
   4   1   1  346.47   20.80
  -5  -1  -1 1239.28   67.79
   5  -1   1 1148.59   67.39
   5  -1   1 1130.89   67.49
  -5  -1  -1 1273.17   68.89
   5  -1   1 1170.38   66.79
  -5  -1  -1 1177.98   67.69
  -5   1  -1 1044.20   69.09
  -5   1  -1  907.11   67.09
   5   1   1  946.01   67.09
   5   1   1  998.90   65.99
   5   1   1 1054.39   67.99
  -6  -1  -1 1579.54   96.99
  -6  -1  -1 1617.14   98.39
  -6  -1  -1 1585.94   97.19
   6  -1   1 1473.15   96.89
   6  -1   1 1571.64   96.99
   6   1   1 1682.33   97.69
   6   1   1 1678.63   98.29
  -6   1  -1 1612.14   97.79
  -6   1  -1 1622.94   99.79
   7  -1   1  152.08   13.40
   7  -1   1  140.49   11.80
  -7  -1  -1  169.08   15.40
  -7  -1  -1  154.68   16.30
   7  -1   1  155.28   13.40
   7   1   1  131.29   15.30
  -7   1  -1  141.59   17.40
  -7   1  -1  154.98   15.50
   7   1   1  144.49   14.50
   8  -1   1   85.69    9.90
  -8  -1  -1   78.59   12.90
   8  -1   1   75.29    9.80
  -8  -1  -1   73.89   10.80
  -8   1  -1   65.69   14.30
   8   1   1   77.89   11.20
  -8   1  -1   70.79   12.30
   8   1   1   71.79   10.40
   9  -1   1   32.10    7.40
  -9  -1  -1   54.09   10.60
   9  -1   1   39.30    8.10
  -9  -1  -1   48.40   12.00
  -9   1  -1   28.00   13.10
  -9   1  -1   30.60   11.40
   9   1   1   35.00    9.10
   9   1   1   36.70    8.60
   9  -2  -1   14.80    6.50
  -9  -2   1   12.30    8.90
   9  -2  -1   14.20    6.60
  -9   2   1   12.00   12.80
   9   2  -1    4.30    8.10
   8  -2  -1  450.15   33.60
   8  -2  -1  456.15   32.20
  -8  -2   1  454.35   35.60
  -8  -2   1  493.55   34.70
   8  -2  -1  443.16   33.30
   8   2  -1  587.94   36.90
  -8   2   1  573.14   40.60
   8   2  -1  558.94   35.00
   7  -2  -1  595.44   41.40
  -7  -2   1  681.43   42.70
   7  -2  -1  572.14   41.60
   7  -2  -1  675.23   40.80
  -7  -2   1  649.43   43.50
  -7  -2   1  732.23   42.80
   7   2  -1  558.24   41.60
   7   2  -1  627.24   43.40
  -7   2   1  657.53   46.40
  -6  -2   1  552.74   36.10
   6  -2  -1  586.14   35.10
  -6  -2   1  507.55   36.70
   6  -2  -1  565.64   35.50
   6  -2  -1  561.74   35.70
  -6  -2   1  570.84   36.40
   6   2  -1  455.65   35.00
  -6   2   1  593.84   36.20
   6   2  -1  483.05   36.60
  -6   2   1  538.35   38.90
   5  -2  -1 1084.99   69.59
  -5  -2   1 1099.69   70.49
   5  -2  -1 1096.19   69.19
  -5  -2   1 1141.29   69.79
   5  -2  -1 1142.49   69.29
  -5   2   1 1263.17   70.49
   5   2  -1 1222.68   69.49
  -5   2   1 1181.28   69.49
  -5   2   1 1021.70   71.89
   5   2  -1 1147.39   70.89
   4  -2  -1  892.91   54.99
  -4  -2   1  882.91   56.39
   4  -2  -1  876.91   55.69
  -4  -2   1  841.52   56.99
  -4  -2   1  855.31   56.09
   4  -2  -1  873.01   55.79
   4   2  -1 1021.80   57.39
   4   2  -1 1004.70   55.89
  -4   2   1  869.71   58.19
  -4   2   1 1032.60   57.19
  -4   2   1 1027.70   55.89
  -3  -2   1  752.42   45.30
   3  -2  -1  733.43   45.10
  -3  -2   1  763.72   46.30
   3  -2  -1  766.62   45.00
  -3  -2   1  775.22   45.40
  -3   2   1  740.83   44.80
  -3   2   1  750.62   46.90
   3   2  -1  732.73   46.10
   3   2  -1  723.83   44.80
  -3   2   1  702.53   44.40
   3   2  -1  777.02   45.80
  -3   2   1  755.62   46.00
   2  -2  -1  885.31   53.09
   2  -2  -1  873.01   52.99
  -2  -2   1  913.91   54.09
  -2  -2   1  869.11   53.09
  -2  -2   1  913.01   53.19
  -2   2   1  902.61   53.79
   2   2  -1  910.91   53.99
  -2   2   1  891.91   52.79
  -2   2   1  906.81   53.99
   2   2  -1  869.31   53.29
  -2   2   1  890.11   52.99
  -2   2   1  842.92   53.19
   2   2  -1  885.61   52.79
  -1  -2   1  664.33   36.50
   1  -2  -1  662.53   36.50
  -1  -2   1  674.63   36.50
  -1   2   1  564.04   36.50
  -1   2   1  566.04   36.10
   1   2  -1  585.84   36.20
  -1   2   1  586.24   36.80
  -1   2   1  578.04   36.50
  -1   2   1  605.04   36.80
  -1   2   1  594.34   36.60
   1   2  -1  611.64   36.40
   1   2  -1  589.94   37.00
   0  -2  -1  595.34   37.70
   0  -2   1  554.64   37.00
   0   2  -1  634.04   36.90
   0   2   1  615.94   37.10
   0   2   1  628.94   36.70
   0   2   1  636.44   37.00
   0   2  -1  617.54   36.80
   0   2  -1  594.24   37.30
   0   2   1  604.04   37.00
   0   2   1  656.53   36.90
   0   2  -1  642.74   37.50
  -1  -2  -1 4225.08  232.48
   1  -2   1 3997.90  231.08
  -1  -2  -1 4280.87  230.98
   1  -2   1 4119.69  230.98
  -1  -2  -1 3934.01  231.08
  -1   2  -1 3764.52  232.08
  -1   2  -1 3842.52  231.08
  -1   2  -1 3851.11  231.48
   1   2   1 3941.71  231.38
  -1   2  -1 3528.35  231.18
   1   2   1 3891.11  232.28
   1   2   1 3751.32  230.98
   2  -2   1 1162.38   68.09
  -2  -2  -1 1171.98   68.19
  -2  -2  -1 1177.18   67.99
   2  -2   1 1208.98   69.29
   2  -2   1 1194.48   67.89
  -2  -2  -1 1139.69   69.69
  -2   2  -1 1122.89   67.99
   2   2   1 1106.69   67.59
  -2   2  -1 1085.69   69.29
   2   2   1 1083.29   68.39
  -2   2  -1 1129.59   68.79
   3  -2   1  160.98   12.60
   3  -2   1  152.48   11.70
  -3  -2  -1  158.28   11.90
  -3  -2  -1  143.39   13.40
  -3  -2  -1  151.88   12.10
   3  -2   1  156.28   11.30
   3   2   1  193.78   10.80
  -3   2  -1  184.78   11.20
   3   2   1  195.98   12.40
  -3   2  -1  195.18   13.50
  -3   2  -1  187.78   13.40
   4  -2   1   71.49    7.10
  -4  -2  -1   52.99    7.50
   4  -2   1   68.39    6.20
  -4  -2  -1   68.09    7.50
  -4  -2  -1   66.39    7.10
   4  -2   1   62.59    6.50
   4   2   1   44.90    4.30
  -4   2  -1   47.30    5.00
  -4   2  -1   44.90    5.50
  -4   2  -1   48.60    7.80
  -4   2  -1   51.99    7.30
   4   2   1   41.50    6.10
   5  -2   1  226.38   17.50
   5  -2   1  259.87   17.40
  -5  -2  -1  238.88   18.90
  -5  -2  -1  204.08   18.10
  -5  -2  -1  261.47   18.90
   5  -2   1  231.48   17.40
  -5   2  -1  246.78   17.70
   5   2   1  266.27   17.70
   5   2   1  257.67   18.90
  -5   2  -1  222.68   20.30
   6  -2   1  172.08   14.90
   6  -2   1  192.78   14.00
  -6  -2  -1  205.28   16.70
  -6  -2  -1  175.08   16.10
   6  -2   1  156.88   14.60
   6   2   1  178.08   15.70
  -6   2  -1  165.68   16.30
   6   2   1  185.48   16.80
  -6   2  -1  195.98   19.90
   7  -2   1  720.03   45.30
  -7  -2  -1  771.62   47.00
   7  -2   1  705.53   46.10
  -7  -2  -1  761.02   47.70
  -7  -2  -1  807.32   47.20
   7  -2   1  710.83   46.20
   7   2   1  640.74   47.90
  -7   2  -1  737.43   50.99
   7   2   1  611.44   46.80
   8  -2   1  243.68   19.40
  -8  -2  -1  265.77   21.50
   8  -2   1  232.88   18.00
   8  -2   1  245.28   19.40
  -8   2  -1  220.58   23.80
   8   2   1  275.87   22.60
   8   2   1  246.98   21.40
  -8   2  -1  223.88   26.70
  -9  -2  -1  129.49   14.90
   9  -2   1  135.19   14.10
   9  -2   1  130.29   13.80
   9   2   1  140.19   15.30
   9   2   1  121.59   15.80
  -9   2  -1  123.49   19.70
  -9   2  -1  123.29   17.10
   9  -3  -1  194.48   17.20
   9  -3  -1  217.18   19.50
   9  -3  -1  196.08   18.80
  -9  -3   1  219.78   21.70
   9   3  -1  254.17   23.60
  -9   3   1  254.77   29.20
   8  -3  -1  181.68   15.30
   8  -3  -1  173.58   16.90
   8  -3  -1  160.38   16.80
  -8  -3   1  190.48   19.80
  -8   3   1  202.68   24.40
   8   3  -1  173.88   20.80
   7  -3  -1  229.98   17.50
  -7  -3   1  224.68   20.30
   7  -3  -1  229.18   18.30
   7  -3  -1  217.18   18.60
  -7  -3   1  209.48   20.20
  -7   3   1  237.48   26.00
   7   3  -1  190.58   21.10
  -6  -3   1   25.60    7.40
  -6  -3   1   23.70    8.60
  -6  -3   1   29.00    7.80
   6  -3  -1   33.30    6.30
   6  -3  -1   37.00    6.50
   6  -3  -1   24.10    5.80
  -6   3   1   31.60    8.00
  -6   3   1   34.80   11.30
  -6   3   1   40.00    7.10
   6   3  -1   35.80    6.30
   6   3  -1   37.10    8.60
  -5  -3   1  388.56   29.60
   5  -3  -1  391.86   27.50
  -5  -3   1  397.66   28.20
   5  -3  -1  401.66   27.30
   5  -3  -1  393.26   28.30
  -5  -3   1  397.06   28.40
  -5   3   1  429.66   31.70
  -5   3   1  465.65   27.70
   5   3  -1  491.95   27.70
   5   3  -1  477.65   29.80
  -5   3   1  450.95   29.50
   4  -3  -1  441.06   26.70
  -4  -3   1  439.46   27.20
   4  -3  -1  424.26   26.80
  -4  -3   1  428.06   27.20
  -4  -3   1  429.26   29.00
   4   3  -1  408.46   28.30
   4   3  -1  405.76   27.80
  -4   3   1  406.56   26.40
   4   3  -1  419.16   26.50
  -4   3   1  419.86   28.50
  -4   3   1  420.46   29.50
   3  -3  -1 1116.79   64.89
  -3  -3   1 1160.18   65.09
  -3  -3   1 1180.88   65.09
  -3  -3   1 1111.79   66.49
   3  -3  -1 1151.98   64.79
  -3   3   1  915.31   64.99
   3   3  -1 1054.99   66.19
  -3   3   1 1022.70   64.29
  -3   3   1 1080.89   66.09
   3   3  -1 1029.30   64.49
  -3   3   1 1078.29   66.19
   3   3  -1 1053.29   65.39
  -2  -3   1  974.90   57.99
  -2  -3   1  983.30   58.09
  -2  -3   1  973.90   59.39
   2  -3  -1  942.81   57.89
  -2   3   1  946.81   57.59
   2   3  -1  953.90   57.79
  -2   3   1  967.30   58.19
   2   3  -1  984.30   58.29
  -2   3   1  973.90   58.29
   2   3  -1  930.31   57.79
  -2   3   1  990.70   59.09
   2   3  -1  988.70   59.29
  -2   3   1  965.60   58.49
   1  -3  -1  146.89   11.70
  -1  -3   1  150.58   11.70
   1  -3  -1  189.28   13.00
  -1  -3   1  156.58   11.80
   1   3  -1  176.18   12.10
   1   3  -1  190.48   11.80
  -1   3   1  186.28   11.50
  -1   3   1  195.68   12.20
  -1   3   1  182.98   12.20
  -1   3   1  188.38   12.10
   1   3  -1  193.88   11.90
   1   3  -1  200.78   12.40
  -1   3   1  211.28   13.30
  -1   3   1  180.08   12.60
   1   3  -1  183.58   13.00
   0  -3  -1  877.21   51.39
   0  -3  -1  884.51   52.79
   0  -3  -1  829.12   51.19
   0  -3   1  866.01   51.69
   0   3  -1  852.51   51.69
   0   3   1  855.71   51.89
   0   3  -1  813.42   51.49
   0   3   1  863.51   51.79
   0   3   1  829.42   51.19
   0   3  -1  857.71   51.39
   0   3   1  874.91   51.39
   0   3  -1  898.71   52.39
   0   3  -1  885.11   52.39
   0   3   1  839.82   51.59
  -1  -3  -1  331.57   20.60
  -1  -3  -1  326.57   18.30
   1  -3   1  314.87   18.50
  -1  -3  -1  316.47   18.50
  -1   3  -1  281.77   19.80
   1   3   1  283.17   18.90
  -1   3  -1  276.67   18.30
  -1   3  -1  290.57   19.20
   1   3   1  288.67   20.20
   1   3   1  290.47   18.60
  -1   3  -1  279.47   19.00
  -1   3  -1  261.57   18.40
  -2  -3  -1 1622.74   90.59
   2  -3   1 1477.85   88.29
  -2  -3  -1 1561.04   88.09
   2  -3   1 1526.35   88.19
  -2  -3  -1 1518.15   88.39
   2   3   1 1424.46   88.29
  -2   3  -1 1450.65   88.19
  -2   3  -1 1427.96   88.99
   2   3   1 1448.16   90.09
  -2   3  -1 1474.15   88.29
  -2   3  -1 1461.05   88.59
   2   3   1 1499.05   88.09
   2   3   1 1429.76   88.69
  -2   3  -1 1460.05   89.99
  -3  -3  -1  544.05   36.30
   3  -3   1  559.54   36.20
   3  -3   1  555.34   37.80
   3  -3   1  545.75   36.50
  -3  -3  -1  513.85   38.50
  -3  -3  -1  522.35   36.60
   3   3   1  670.53   37.40
  -3   3  -1  618.64   36.60
  -3   3  -1  666.73   38.10
  -3   3  -1  653.83   38.70
   3   3   1  663.03   36.60
  -3   3  -1  645.64   36.40
   4  -3   1 1353.26   77.79
  -4  -3  -1 1391.96   78.09
   4  -3   1 1385.86   77.29
  -4  -3  -1 1321.77   78.09
  -4  -3  -1 1338.47   80.09
   4  -3   1 1326.27   78.89
  -4   3  -1 1198.28   77.29
   4   3   1 1201.18   77.39
  -4   3  -1 1186.88   79.19
   4   3   1 1237.58   78.39
  -4   3  -1 1215.58   79.39
   5  -3   1  476.35   28.90
   5  -3   1  444.16   29.30
  -5  -3  -1  464.45   31.70
  -5  -3  -1  445.36   30.20
   5  -3   1  479.75   29.90
  -5   3  -1  398.36   32.10
  -5   3  -1  447.46   31.00
   5   3   1  428.46   29.00
   5   3   1  417.36   30.40
   6  -3   1  669.03   44.50
   6  -3   1  718.63   44.30
  -6  -3  -1  750.52   46.50
   6  -3   1  732.33   44.30
  -6  -3  -1  639.84   45.20
  -6   3  -1  603.04   48.00
   6   3   1  718.93   46.50
   7  -3   1   31.90    7.00
  -7  -3  -1   23.90    8.40
   7  -3   1   29.00    7.10
  -7  -3  -1   27.40    9.10
   7  -3   1   27.40    6.00
   7   3   1   26.20    9.50
   7   3   1   11.00    4.90
  -7   3  -1   26.70   12.80
   8  -3   1   19.60    6.80
  -8  -3  -1    3.50    5.80
   8  -3   1   23.70    5.90
   8  -3   1   27.10    7.10
  -8  -3  -1   28.30    9.20
  -8   3  -1   -1.10    6.90
   8   3   1    3.60    8.80
  -8   3  -1   27.30   14.40
   9  -3   1   30.00    6.50
  -8  -4   1   68.19   12.80
   8  -4  -1   69.29   11.10
   8  -4  -1   87.49   12.00
  -8  -4   1   95.89   14.60
   8  -4  -1   86.79   10.60
  -8   4   1   93.69   19.50
   8   4  -1   65.19   15.40
  -7  -4   1  158.38   18.80
   7  -4  -1  162.98   14.90
   7  -4  -1  163.48   15.30
   7  -4  -1  145.69   15.10
  -7  -4   1  149.79   16.30
  -7   4   1  127.79   20.70
   7   4  -1  119.79   17.80
  -7   4   1  182.28   18.20
  -6  -4   1  593.94   38.90
  -6  -4   1  545.85   40.80
   6  -4  -1  625.74   37.50
   6  -4  -1  565.34   38.30
   6  -4  -1  569.54   37.60
   6   4  -1  570.24   40.40
  -6   4   1  592.84   39.90
  -6   4   1  524.55   42.40
   5  -4  -1  345.47   23.70
  -5  -4   1  330.17   23.00
  -5  -4   1  315.07   25.20
   5  -4  -1  331.07   22.10
   5  -4  -1  332.77   21.60
  -5   4   1  293.97   25.80
  -5   4   1  269.27   23.90
   5   4  -1  321.87   24.10
   4  -4  -1  396.56   24.20
  -4  -4   1  384.96   25.00
  -4  -4   1  412.66   24.80
  -4  -4   1  365.56   26.90
   4  -4  -1  366.96   24.40
   4   4  -1  386.16   25.70
   4   4  -1  344.07   26.30
  -4   4   1  360.46   23.80
  -4   4   1  368.06   26.70
  -4   4   1  359.96   26.50
   4   4  -1  356.76   24.00
  -3  -4   1   81.49    7.70
  -3  -4   1   78.09    9.60
  -3  -4   1   87.09    7.30
   3  -4  -1   83.29    7.00
   3  -4  -1   85.79    7.30
   3   4  -1   57.39    6.20
  -3   4   1   61.09    8.00
  -3   4   1   59.49    6.20
   3   4  -1   57.79    7.10
   3   4  -1   57.69    8.40
  -3   4   1   58.99    8.40
   2  -4  -1  302.87   19.80
  -2  -4   1  327.37   21.10
  -2  -4   1  313.77   18.50
  -2  -4   1  302.87   18.60
   2  -4  -1  307.87   18.50
  -2   4   1  286.57   20.10
  -2   4   1  263.77   18.70
  -2   4   1  267.37   17.90
   2   4  -1  277.97   18.90
  -2   4   1  256.77   18.50
  -2   4   1  251.37   18.80
   2   4  -1  276.37   20.30
   2   4  -1  263.67   18.10
  -2   4   1  264.67   19.60
  -1  -4   1  634.44   36.80
  -1  -4   1  556.44   34.70
  -1  -4   1  576.94   34.80
   1  -4  -1  577.34   36.40
   1  -4  -1  588.04   34.90
  -1   4   1  582.34   36.00
   1   4  -1  557.34   36.30
   1   4  -1  554.74   34.60
  -1   4   1  590.84   36.60
  -1   4   1  531.25   34.90
  -1   4   1  539.15   34.90
   1   4  -1  521.85   35.40
  -1   4   1  576.74   35.00
   1   4  -1  549.45   34.60
   1   4  -1  570.04   35.00
  -1   4   1  535.05   34.20
   0  -4  -1  844.62   52.39
   0  -4  -1  863.11   50.09
   0  -4  -1  884.31   50.39
   0  -4   1  869.61   50.69
   0   4  -1  793.72   50.29
   0   4  -1  828.52   51.79
   0   4   1  802.72   50.69
   0   4   1  821.52   50.19
   0   4  -1  805.02   50.49
   0   4  -1  820.62   51.79
   0   4   1  799.52   50.49
   0   4   1  846.52   51.19
  -1  -4  -1  821.52   50.09
  -1  -4  -1  744.93   47.20
  -1  -4  -1  747.93   47.40
   1  -4   1  753.12   47.40
  -1   4  -1  803.42   47.40
   1   4   1  823.92   48.10
  -1   4  -1  707.43   49.10
   1   4   1  858.41   50.19
  -1   4  -1  803.82   48.90
   1   4   1  807.22   48.20
  -1   4  -1  772.22   47.60
  -2  -4  -1  331.97   21.80
   2  -4   1  319.07   22.00
   2  -4   1  355.16   24.10
   2  -4   1  335.07   22.00
  -2  -4  -1  341.67   25.20
  -2  -4  -1  335.07   22.30
  -2   4  -1  352.66   22.20
  -2   4  -1  361.06   23.10
   2   4   1  357.66   22.90
   2   4   1  353.46   22.30
  -2   4  -1  352.16   22.10
  -2   4  -1  363.06   24.70
  -2   4  -1  362.66   23.40
   2   4   1  364.66   24.90
   3  -4   1  965.70   56.79
  -3  -4  -1  925.01   56.89
   3  -4   1  953.30   56.39
   3  -4   1  959.60   58.59
  -3  -4  -1  988.30   59.79
  -3   4  -1  910.01   56.39
  -3   4  -1  923.41   57.89
   3   4   1  886.81   56.59
   3   4   1  911.41   57.39
  -3   4  -1  921.91   59.09
  -4  -4  -1  253.37   17.60
   4  -4   1  261.07   17.00
   4  -4   1  263.07   18.70
  -4  -4  -1  241.78   20.70
   4  -4   1  260.17   16.40
   4   4   1  217.88   17.70
  -4   4  -1  226.38   16.40
   4   4   1  216.78   16.50
  -4   4  -1  225.38   19.60
  -4   4  -1  209.58   18.80
  -5  -4  -1  445.76   35.70
   5  -4   1  522.65   32.20
  -5  -4  -1  468.85   33.60
   5  -4   1  480.95   33.80
   5  -4   1  464.95   32.70
  -5   4  -1  524.85   35.50
   5   4   1  561.14   33.00
  -5   4  -1  532.45   32.70
   5   4   1  512.55   34.60
  -5   4  -1  508.15   36.10
  -6  -4  -1   91.59   13.70
   6  -4   1  103.19   11.30
  -6  -4  -1   88.69   12.10
   6  -4   1  105.69   11.40
   6  -4   1  110.69   11.30
  -6   4  -1  105.59   12.10
   6   4   1  113.19   14.20
   6   4   1   93.39   15.50
  -6   4  -1   99.09   15.40
   7  -4   1  154.98   15.70
  -7  -4  -1  174.18   18.60
   7  -4   1  183.18   15.30
  -7  -4  -1  190.78   20.50
  -7   4  -1  127.49   20.50
   7   4   1  130.69   18.40
  -8  -4  -1  155.68   17.20
   8  -4   1  180.98   16.70
  -8  -4  -1  174.38   19.40
   8  -4   1  157.98   14.80
  -8   4  -1  133.59   22.30
   8   4   1  134.09   19.90
   7  -5  -1  159.68   15.50
  -7  -5   1  123.69   17.70
   7  -5  -1  143.29   14.90
  -7  -5   1  129.39   15.50
   7   5  -1  139.49   18.70
  -7   5   1   96.09   19.10
   6  -5  -1   15.00    5.90
   6  -5  -1   13.20    6.60
  -6  -5   1    8.70   10.40
   6  -5  -1   14.10    6.10
  -6  -5   1    7.50    7.60
   6   5  -1   16.90    8.60
  -6   5   1    3.10    8.40
  -6   5   1   10.70   10.60
  -5  -5   1  416.76   28.70
  -5  -5   1  430.96   32.10
   5  -5  -1  427.96   27.30
   5  -5  -1  423.56   27.80
   5  -5  -1  391.16   29.30
  -5   5   1  358.46   30.10
  -5   5   1  402.96   31.10
   5   5  -1  410.46   29.90
  -4  -5   1  216.18   16.80
  -4  -5   1  208.28   20.40
   4  -5  -1  229.68   18.40
   4  -5  -1  203.58   16.00
   4  -5  -1  210.38   15.70
   4   5  -1  229.78   17.80
  -4   5   1  226.78   18.50
  -4   5   1  211.28   19.40
  -3  -5   1  187.08   14.30
   3  -5  -1  195.18   13.60
   3  -5  -1  200.58   13.90
  -3  -5   1  207.18   17.90
  -3   5   1  164.68   16.50
   3   5  -1  155.08   16.30
   3   5  -1  153.18   14.30
   2  -5  -1  456.35   32.00
  -2  -5   1  496.55   32.20
  -2  -5   1  461.35   32.50
  -2  -5   1  473.85   34.80
  -2   5   1  567.24   34.90
   2   5  -1  537.85   33.00
   2   5  -1  510.95   32.00
   2   5  -1  556.64   35.30
  -2   5   1  528.75   32.60
  -2   5   1  541.65   32.90
   1  -5  -1  547.05   33.90
   1  -5  -1  536.05   33.20
  -1  -5   1  518.15   33.50
   1  -5  -1  567.94   34.00
  -1  -5   1  536.85   33.60
  -1  -5   1  509.45   36.00
   1  -5  -1  513.45   36.00
   1   5  -1  512.75   33.40
  -1   5   1  514.65   33.00
  -1   5   1  544.35   34.00
   1   5  -1  540.35   34.10
   1   5  -1  521.25   33.40
  -1   5   1  543.55   34.00
  -1   5   1  543.05   36.40
  -1   5   1  545.05   33.80
   1   5  -1  582.54   36.50
   0  -5   1  135.79   11.00
   0  -5  -1  127.19   10.00
   0  -5   1  131.09   10.50
   0  -5   1  137.09   13.20
   0  -5  -1  137.39   10.50
   0  -5  -1  119.59   13.80
   0   5   1  138.59   11.90
   0   5  -1  132.19   10.10
   0   5   1  150.58   12.30
   0   5  -1  132.39   10.40
   0   5  -1  127.49   12.40
   0   5  -1  133.59   10.70
   0   5  -1  146.39   13.40
   0   5   1  129.09   11.10
   1  -5   1   13.20    4.30
   1  -5   1   15.10    5.20
  -1  -5  -1   16.50    6.70
  -1  -5  -1   17.10    3.70
   1  -5   1   17.70    4.10
  -1   5  -1   23.50    4.30
   1   5   1   25.60    7.20
  -1   5  -1    7.90    3.10
   1   5   1   24.50    4.40
  -1   5  -1   21.00    3.80
  -1   5  -1   21.30    4.60
   1   5   1   22.90    4.70
  -1   5  -1   21.70    6.10
  -1   5  -1   18.50    4.20
   2  -5   1  151.58   13.90
   2  -5   1  157.68   11.60
   2  -5   1  154.28   11.50
  -2  -5  -1  143.49   16.10
  -2  -5  -1  151.38   11.70
  -2   5  -1  144.49   15.00
  -2   5  -1  148.49   11.80
  -2   5  -1  154.48   12.80
   2   5   1  151.58   11.80
  -2   5  -1  152.88   11.40
   2   5   1  138.79   12.60
  -3  -5  -1   86.59    8.80
  -3  -5  -1   78.09   11.60
   3  -5   1   76.49    8.00
   3  -5   1   93.89   10.70
   3  -5   1   91.19    7.90
  -3   5  -1   58.39   10.70
  -3   5  -1   68.79    9.10
  -3   5  -1   69.29    7.80
   3   5   1   63.99    7.50
   3   5   1   66.39    8.50
  -4  -5  -1  848.52   53.69
  -4  -5  -1  811.52   56.89
   4  -5   1  865.51   52.69
   4  -5   1  879.61   55.39
   4  -5   1  867.31   53.39
   4   5   1  886.11   54.69
  -4   5  -1  862.01   55.19
  -4   5  -1  844.52   56.39
  -5  -5  -1  214.28   18.30
  -5  -5  -1  218.28   22.30
   5  -5   1  221.58   18.30
   5   5   1  216.08   18.90
  -5   5  -1  197.28   20.20
  -5   5  -1  191.48   20.60
  -6  -5  -1   68.79   11.50
   6  -5   1   91.79   11.30
   6  -5   1   74.19   10.20
  -6  -5  -1   76.29   14.40
  -6   5  -1   75.79   14.80
   6   5   1   72.19   12.20
   7  -5   1   79.79   11.30
   7  -5   1   91.69   11.40
  -7  -5  -1   79.49   14.60
  -7  -5  -1   84.19   12.90
  -7   5  -1   68.39   16.90
   7   5   1   59.79   13.80
   6  -6  -1  414.06   28.00
  -6  -6   1  372.66   29.10
  -6  -6   1  352.76   33.20
   6  -6  -1  381.46   28.80
  -6   6   1  404.66   33.20
   6   6  -1  368.06   30.50
  -6   6   1  337.87   30.80
   5  -6  -1  103.39   13.30
   5  -6  -1   99.39   10.90
  -5  -6   1   97.59   11.60
  -5  -6   1   89.59   15.80
  -5   6   1   95.49   13.60
  -5   6   1   84.29   13.90
   5   6  -1   80.69   12.40
   4  -6  -1   29.90    8.00
  -4  -6   1   20.40   10.30
  -4  -6   1   25.30    6.80
   4  -6  -1   24.50    5.90
   4  -6  -1   19.50    5.60
  -4   6   1   26.50    7.90
  -4   6   1   24.50    9.60
   4   6  -1   19.10    7.10
  -3  -6   1   64.19    8.30
   3  -6  -1   70.39    8.10
  -3  -6   1   58.19   11.80
   3  -6  -1   71.99    8.40
  -3   6   1   72.49    9.50
   3   6  -1   69.09   11.80
  -3   6   1   85.19   12.60
   3   6  -1   78.59    9.60
   2  -6  -1    6.60    4.60
  -2  -6   1   13.30    8.20
  -2  -6   1   11.00    4.80
  -2   6   1    5.70    7.00
   2   6  -1    3.70    4.80
  -2   6   1    3.90    4.60
  -2   6   1    4.90    4.80
   2   6  -1    4.10    7.20
   1  -6  -1  383.66   26.10
  -1  -6   1  374.36   25.60
  -1  -6   1  377.86   29.70
   1  -6  -1  340.07   34.60
  -1   6   1  404.76   28.80
   1   6  -1  356.26   26.10
  -1   6   1  404.76   26.30
  -1   6   1  426.96   26.60
   1   6  -1  412.36   30.20
   0  -6   1  267.37   18.10
   0  -6   1  279.57   18.80
   0  -6   1  264.67   21.80
   0  -6  -1  247.68   22.60
   0   6  -1  215.98   18.20
   0   6   1  258.77   19.10
   0   6  -1  258.27   21.60
   0   6  -1  254.67   19.80
  -1  -6  -1  135.89   16.30
  -1  -6  -1  131.39   11.10
   1  -6   1  131.49   11.60
   1  -6   1  125.79   12.10
   1  -6   1  121.89   14.80
   1  -6   1   94.39   12.70
   1   6   1  133.29   12.60
  -1   6  -1  141.59   12.20
  -1   6  -1  113.59   14.30
  -1   6  -1  135.49   11.80
  -1   6  -1  137.79   10.90
  -1   6  -1  140.89   11.70
   1   6   1  137.29   11.70
  -1   6  -1  132.49   15.70
  -2  -6  -1  206.18   15.10
   2  -6   1  227.98   16.50
   2  -6   1  204.18   14.70
   2  -6   1  184.08   17.40
   2  -6   1  196.38   15.60
  -2  -6  -1  194.68   21.10
  -2   6  -1  159.18   18.60
   2   6   1  147.79   15.40
  -3  -6  -1  342.07   23.70
   3  -6   1  337.27   23.10
   3  -6   1  326.57   25.90
  -3  -6  -1  312.67   28.40
   3   6   1  338.67   24.60
  -3   6  -1  343.37   24.80
  -3   6  -1  339.17   27.90
  -4  -6  -1   17.10   11.00
   4  -6   1   24.00    7.70
   4  -6   1   18.40    5.70
  -4  -6  -1   18.20    6.70
  -4   6  -1   19.60    9.80
   4   6   1   19.00    7.20
  -4   6  -1   25.40    7.90
   5  -6   1   71.09   10.80
  -5  -6  -1   71.59   14.80
   5  -6   1   77.29    9.90
  -5  -6  -1   69.19   10.70
  -5   6  -1   80.49   13.10
   5   6   1   87.99   12.70
   6  -6   1   23.30    7.50
   6  -6   1   28.50    8.10
  -6  -6  -1   22.80    9.10
  -6  -6  -1   41.70   13.40
   6   6   1   26.50    9.90
  -6   6  -1   25.40   12.00
  -4  -7   1   43.10    8.60
   4  -7  -1   54.89   10.50
   4  -7  -1   55.39    8.50
  -4  -7   1   43.80   12.90
  -4   7   1   48.20   11.70
   4   7  -1   45.80    9.40
   3  -7  -1   47.60    9.90
  -3  -7   1   47.80   13.10
  -3  -7   1   42.60    7.90
   3  -7  -1   43.40    7.50
   3   7  -1   34.00    8.30
  -3   7   1   36.60   11.60
  -2  -7   1  193.18   17.00
   2  -7  -1  206.68   17.10
   2  -7  -1  214.38   17.60
   2  -7  -1  208.48   19.50
  -2  -7   1  211.88   23.10
   2   7  -1  254.57   23.40
   2   7  -1  237.58   18.50
  -2   7   1  227.08   22.00
   1  -7  -1  278.07   20.00
  -1  -7   1  234.98   24.60
   1   7  -1  244.88   25.10
  -1   7   1  238.58   19.70
   0  -7  -1    4.90    9.40
   0  -7  -1   -0.60    5.50
   0  -7   1    1.10    7.80
   0   7   1    2.00    5.50
  -1  -7  -1   31.10   11.00
   1   7   1   25.20    7.20
   2  -7   1    9.70    6.70
  -2  -7  -1   10.30   10.60
  -2   7  -1   -0.90    8.60
   2   7   1    5.00    6.40
  -3  -7  -1   84.99   15.80
   3  -7   1   72.29   11.40
   3  -7   1   72.79    9.00
  -3   7  -1   69.89   14.20
   3   7   1   65.29   10.60
  -4  -7  -1  262.17   23.90
  -4  -7  -1  310.17   29.10
   4  -7   1  310.17   24.40
   4  -7   1  311.47   22.20
  -4   7  -1  266.27   24.30
   4   7   1  283.47   23.90
 -10   0   2   11.80   11.80
 -10   0   2    7.80    9.30
  10   0  -2    2.90    5.90
  10   0  -2    8.90    7.40
   9   0  -2   78.39   10.10
  -9   0   2   81.19   11.60
   9   0  -2   88.29   11.50
  -9   0   2   81.09   14.80
   8   0  -2    2.80    5.50
  -8   0   2    4.20    7.20
   8   0  -2    2.30    4.70
   7   0  -2  506.55   32.20
  -7   0   2  457.05   35.00
   7   0  -2  463.55   32.70
  -7   0   2  528.25   33.00
   6   0  -2 1219.98   76.19
  -6   0   2 1334.67   77.49
   6   0  -2 1249.68   77.79
   6   0  -2 1305.47   77.19
  -6   0   2 1225.88   79.29
   5   0  -2   45.10    6.20
  -5   0   2   44.00    5.50
  -5   0   2   49.10    5.90
   5   0  -2   52.49    6.30
  -5   0   2   46.90    6.40
   5   0  -2   48.20    6.90
  -5   0   2   53.19    8.50
   5   0  -2   46.40    5.10
   4   0  -2  493.45   29.40
   4   0  -2  446.06   30.00
  -4   0   2  499.35   29.50
  -4   0   2  471.15   31.90
  -4   0   2  447.16   29.40
  -4   0   2  486.85   30.30
   4   0  -2  481.65   30.90
  -3   0   2 2454.15  141.49
   3   0  -2 2449.45  142.19
  -3   0   2 2469.65  143.39
   3   0  -2 2400.96  141.39
   3   0  -2 2205.08  142.59
  -3   0   2 2386.16  141.49
  -2   0   2  122.39    7.80
   2   0  -2  128.19    8.00
   2   0  -2  116.69    7.70
   2   0  -2  122.79    8.70
  -2   0   2  124.79    9.00
   2   0  -2  125.79    8.50
   1   0  -2  994.70   59.59
   1   0  -2 1118.89   60.09
  -1   0   2  979.80   59.59
  -1   0   2 1014.90   59.89
  -1   0   2 1002.40   59.59
  -1   0   2  960.70   59.59
   0   0   2  393.06   24.80
   0   0  -2  431.06   24.70
   0   0  -2  415.56   24.90
   0   0   2  423.56   24.70
   0   0   2  421.36   24.70
   0   0  -2  417.46   24.80
  -1   0  -2 1916.91  111.69
   1   0   2 1891.31  111.49
   1   0   2 1922.41  111.69
  -1   0  -2 1898.71  111.69
   1   0   2 1840.72  111.59
  -2   0  -2 6682.23  367.96
  -2   0  -2 5996.20  367.56
   2   0   2 6232.58  367.66
   2   0   2 6078.69  367.76
   3   0   2  554.04   38.30
  -3   0  -2  599.54   38.90
  -3   0  -2  618.54   38.80
  -3   0  -2  729.03   39.90
   3   0   2  639.04   39.00
   3   0   2  650.93   39.00
  -4   0  -2  153.08   11.20
   4   0   2  151.08   11.50
  -4   0  -2  125.99   12.10
   4   0   2  144.29   11.20
  -4   0  -2  122.69   11.40
   4   0   2  126.49   10.00
  -5   0  -2    2.70    4.80
   5   0   2    5.90    2.80
   5   0   2    4.80    4.20
  -5   0  -2    2.60    5.50
  -5   0  -2    6.90    4.40
   5   0   2    0.20    3.50
  -6   0  -2  128.09   15.10
   6   0   2  126.69   12.60
  -6   0  -2  140.99   14.10
   6   0   2  119.49   10.40
  -6   0  -2  134.89   15.90
   6   0   2  143.09   12.40
  -7   0  -2   39.40    9.20
   7   0   2   44.80    7.50
  -7   0  -2   40.50   10.50
   7   0   2   45.30    7.90
   8   0   2  633.74   43.80
   8   0   2  682.13   43.60
  -8   0  -2  726.73   45.10
  -8   0  -2  634.74   46.80
   9   0   2  220.68   19.10
  -9   0  -2  236.08   22.00
  -9   0  -2  194.58   23.40
   9   0   2  222.18   19.20
   9  -1  -2  100.69   11.70
  -9  -1   2   97.29   14.70
   9  -1  -2   90.79   10.50
  -9  -1   2  100.69   12.40
   9   1  -2   78.39   11.90
  -9   1   2   93.09   12.80
   9   1  -2   52.89    9.00
  -9   1   2   95.39   16.10
   8  -1  -2  391.96   29.40
  -8  -1   2  408.16   30.60
  -8  -1   2  370.16   32.30
   8  -1  -2  398.66   30.10
  -8   1   2  545.35   32.50
   8   1  -2  496.65   31.90
  -8   1   2  500.35   35.40
   7  -1  -2  227.68   17.00
  -7  -1   2  239.18   21.10
   7  -1  -2  242.58   19.20
   7  -1  -2  239.48   18.40
  -7  -1   2  251.17   19.60
  -7   1   2  210.68   19.40
  -7   1   2  268.37   23.20
   7   1  -2  288.97   20.60
   6  -1  -2   15.20    3.80
  -6  -1   2   19.90    5.20
  -6  -1   2   20.30    6.00
  -6  -1   2   15.20    6.60
   6  -1  -2   14.70    5.10
   6  -1  -2   12.70    4.60
  -6   1   2    6.10    4.60
  -6   1   2   17.80    8.10
   6   1  -2    3.60    4.10
   6   1  -2    1.80    5.10
   5  -1  -2  227.08   17.80
   5  -1  -2  234.78   18.60
   5  -1  -2  247.48   17.30
  -5  -1   2  252.37   20.00
  -5  -1   2  242.08   18.40
  -5  -1   2  229.48   18.40
  -5   1   2  318.17   22.00
   5   1  -2  310.57   20.10
   5   1  -2  286.77   18.50
   5   1  -2  296.67   17.30
  -5   1   2  294.57   18.50
  -5   1   2  236.88   18.40
   4  -1  -2  558.24   31.40
   4  -1  -2  563.74   32.20
   4  -1  -2  544.55   31.70
  -4  -1   2  535.55   32.00
  -4  -1   2  550.04   32.20
  -4  -1   2  572.94   33.10
   4   1  -2  454.45   33.10
   4   1  -2  455.65   31.70
  -4   1   2  444.76   31.70
  -4   1   2  446.16   34.00
   4   1  -2  469.95   30.70
  -3  -1   2 1496.35   80.99
  -3  -1   2 1518.95   80.49
   3  -1  -2 1496.25   80.29
  -3  -1   2 1456.45   80.79
  -3   1   2 1233.88   80.49
   3   1  -2 1286.77   82.09
   3   1  -2 1249.18   79.69
   3   1  -2 1141.99   80.29
   3   1  -2 1272.57   80.59
  -2  -1   2 9305.67  540.55
   2  -1  -2 8887.91  540.15
   2  -1  -2 9383.16  540.25
  -2  -1   2 9084.49  540.25
   2   1  -2 9215.28  540.85
   2   1  -2 9623.84  540.05
  -2   1   2 8653.93  540.45
  -2   1   2 9999.00  540.15
   2   1  -2 8633.64  540.45
   1  -1  -2 1195.08   72.99
  -1  -1   2 1211.38   73.09
  -1  -1   2 1247.18   72.99
   1  -1  -2 1224.08   72.99
   1   1  -2 1289.67   72.99
   1   1  -2 1139.49   73.09
  -1   1   2 1254.17   73.09
  -1   1   2 1200.68   73.59
  -1   1   2 1291.67   73.09
  -1   1   2 1218.48   73.09
   1   1  -2 1310.77   72.99
   0  -1  -2  227.98   14.10
   0   1  -2  205.18   13.10
   0   1  -2  221.28   13.50
   0   1   2  218.58   13.40
   0   1  -2  218.78   13.40
   0   1   2  218.58   13.40
   0   1  -2  220.48   13.30
   0   1   2  219.78   13.30
  -1  -1  -2 2364.86  130.39
   1  -1   2 2499.35  130.29
   1  -1   2 2418.46  129.69
  -1  -1  -2 1877.71  130.79
   1  -1   2 2036.60  130.39
   1   1   2 2215.98  129.69
  -1   1  -2 1948.91  129.79
  -1   1  -2 2210.38  130.19
  -1   1  -2 2247.78  129.89
   1   1   2 2213.78  129.99
   1   1   2 2209.98  129.89
   2  -1   2  153.98   11.20
   2  -1   2  128.89   11.40
   2  -1   2  130.59   11.60
   2   1   2  190.88   11.40
  -2   1  -2  172.38   10.90
   2   1   2  187.88   11.20
  -2   1  -2  189.08   11.10
  -2   1  -2  196.38   11.90
   2   1   2  189.18   10.80
   3  -1   2 2480.55  151.18
  -3  -1  -2 2476.55  151.48
   3  -1   2 2268.37  150.68
   3  -1   2 2531.15  150.88
  -3  -1  -2 2494.15  151.28
  -3  -1  -2 2396.86  151.18
   3   1   2 2671.03  149.99
  -3   1  -2 2269.37  149.88
  -3   1  -2 2678.43  151.58
   3   1   2 2706.13  150.78
  -3   1  -2 2814.92  150.58
   3   1   2 2696.63  150.68
   4  -1   2  736.43   43.10
   4  -1   2  704.63   43.50
  -4  -1  -2  748.93   44.30
   4  -1   2  734.73   43.50
  -4  -1  -2  747.33   43.80
  -4   1  -2  643.44   43.10
   4   1   2  678.63   43.50
   4   1   2  669.93   42.20
   4   1   2  646.34   43.10
  -4   1  -2  654.33   44.50
  -5  -1  -2  171.78   13.30
  -5  -1  -2  177.68   14.40
   5  -1   2  171.88   12.60
  -5  -1  -2  181.18   13.60
   5  -1   2  176.48   12.60
   5  -1   2  167.38   11.70
  -5   1  -2  114.49   14.60
   5   1   2  129.49   11.00
   5   1   2  103.49   12.20
   5   1   2  122.19   12.80
   6  -1   2  587.94   36.40
  -6  -1  -2  625.04   38.60
  -6  -1  -2  603.94   36.90
   6  -1   2  589.14   36.50
   6  -1   2  490.75   35.20
  -6  -1  -2  582.24   36.60
  -6   1  -2  500.15   37.40
  -6   1  -2  526.45   39.40
   6   1   2  545.55   37.60
   6   1   2  579.74   37.20
   7  -1   2  354.96   25.50
  -7  -1  -2  360.46   28.20
  -7  -1  -2  402.26   27.00
   7  -1   2  375.66   25.80
   7   1   2  361.46   26.80
  -7   1  -2  371.56   28.30
   7   1   2  378.26   27.50
  -7   1  -2  352.96   30.00
   8  -1   2   42.30    7.60
   8  -1   2   36.80    7.50
  -8  -1  -2   46.70    9.90
  -8  -1  -2   47.80   11.20
  -8   1  -2   56.09   13.50
  -8   1  -2   47.10   11.60
   8   1   2   45.40    9.70
   8   1   2   50.69    9.20
   9  -1   2   44.80    8.50
  -9  -1  -2   56.69   11.40
   9  -1   2   48.40    8.80
   9   1   2   68.69   10.60
  -9   1  -2   57.19   14.70
  -9   1  -2   72.69   13.40
   9   1   2   75.49   11.60
  -9  -2   2   15.40    9.00
   9  -2  -2   14.70    7.10
  -9  -2   2   12.30   10.10
   9  -2  -2   15.80    6.40
  -9   2   2   10.30   13.20
   9   2  -2   10.60    8.60
  -8  -2   2   69.19   12.20
   8  -2  -2   65.89    9.50
   8  -2  -2   74.59   10.60
  -8  -2   2   70.79   11.20
  -8   2   2   80.09   15.60
   8   2  -2   74.89   12.50
  -8   2   2   65.39   19.00
  -7  -2   2  557.74   38.80
   7  -2  -2  521.25   37.50
   7  -2  -2  600.54   37.20
  -7  -2   2  649.83   39.10
  -7  -2   2  579.84   40.10
   7  -2  -2  518.45   38.10
   7   2  -2  540.75   37.90
  -7   2   2  627.14   38.70
  -7   2   2  456.65   38.20
   7   2  -2  648.94   40.50
  -7   2   2  636.34   42.80
   6  -2  -2  398.06   26.90
   6  -2  -2  411.46   26.80
  -6  -2   2  395.96   27.70
  -6  -2   2  404.46   28.30
   6  -2  -2  374.56   27.10
  -6  -2   2  359.16   28.60
   6   2  -2  402.16   27.20
  -6   2   2  504.55   32.30
  -6   2   2  329.67   27.10
   6   2  -2  456.05   29.50
  -5  -2   2  312.57   18.90
  -5  -2   2  302.67   18.20
  -5   2   2  236.48   17.80
   5   2  -2  220.08   16.80
  -5   2   2  189.68   20.30
   5   2  -2  208.98   18.60
  -5   2   2  217.58   17.10
   4  -2  -2 1107.59   61.29
  -4  -2   2 1050.89   61.89
  -4  -2   2 1090.89   62.49
   4  -2  -2 1048.90   61.29
  -4  -2   2 1049.30   61.49
   4  -2  -2 1100.69   60.69
   4   2  -2  946.01   60.89
  -4   2   2  945.91   60.99
   4   2  -2  935.91   61.99
  -4   2   2  933.31   61.89
   4   2  -2  946.61   62.39
   3  -2  -2 4560.34  264.17
  -3  -2   2 4597.84  264.57
  -3  -2   2 4504.75  265.07
  -3  -2   2 4501.75  264.37
   3  -2  -2 4376.36  264.17
  -3   2   2 4319.07  265.97
  -3   2   2 4477.15  263.87
   3   2  -2 4384.96  264.97
   3   2  -2 4654.93  264.97
   3   2  -2 4481.95  263.87
  -3   2   2 4468.05  264.87
  -2  -2   2  418.56   25.20
  -2  -2   2  429.76   25.30
   2  -2  -2  414.06   25.10
   2  -2  -2  411.36   25.10
   2   2  -2  409.36   24.70
  -2   2   2  411.56   25.30
  -2   2   2  404.36   24.60
  -2   2   2  385.16   25.50
   2   2  -2  423.76   25.30
  -2   2   2  396.16   25.30
   2   2  -2  405.16   25.70
   1  -2  -2 2517.15  152.78
  -1  -2   2 2496.05  152.78
   1  -2  -2 2415.96  153.38
  -1  -2   2 2709.43  152.88
  -1  -2   2 2597.14  152.88
   1   2  -2 2607.24  152.48
   1   2  -2 2638.14  152.78
  -1   2   2 2592.44  153.08
   1   2  -2 2542.15  152.88
   1   2  -2 2605.54  152.78
  -1   2   2 2622.34  152.98
  -1   2   2 2561.44  152.38
   1   2  -2 2587.04  153.28
  -1   2   2 2579.44  152.98
  -1   2   2 2786.82  152.98
   0  -2  -2 1027.90   58.79
   0  -2   2  852.61   59.49
   0  -2  -2 1018.30   60.29
   0  -2   2 1086.39   59.39
   0   2  -2  958.20   59.29
   0   2   2 1063.49   58.79
   0   2   2  945.81   59.19
   0   2   2 1009.60   59.19
   0   2  -2  980.20   58.89
   0   2  -2 1013.80   59.29
   0   2  -2  964.50   58.79
   0   2  -2  984.10   58.99
  -1  -2  -2 1181.98   72.09
  -1  -2  -2 1179.78   73.79
   1  -2   2 1088.69   73.09
   1  -2   2 1197.68   71.89
   1  -2   2 1183.68   72.09
  -1  -2  -2 1245.08   71.79
  -1   2  -2 1286.97   72.09
   1   2   2 1270.97   72.29
  -1   2  -2 1124.99   73.29
   1   2   2 1277.47   72.49
  -1   2  -2 1281.47   72.69
  -1   2  -2 1250.57   72.19
  -1   2  -2 1189.28   72.29
   1   2   2 1242.68   72.09
   2  -2   2 2448.06  143.39
   2  -2   2 2500.35  142.89
  -2  -2  -2 2266.47  144.99
  -2  -2  -2 2499.55  143.59
   2  -2   2 2377.96  144.39
  -2  -2  -2 2499.95  143.09
  -2   2  -2 2331.57  143.89
   2   2   2 2427.36  143.19
  -2   2  -2 2386.76  143.19
   2   2   2 2540.65  143.59
   2   2   2 2428.26  142.89
  -2   2  -2 2419.36  143.19
  -2   2  -2 2373.46  144.69
   3  -2   2 1133.49   66.89
  -3  -2  -2 1046.30   68.29
  -3  -2  -2 1141.29   67.19
  -3  -2  -2 1150.88   67.09
   3  -2   2 1122.99   67.49
   3  -2   2 1157.68   66.19
   3   2   2 1082.29   66.39
  -3   2  -2 1121.29   67.69
   3   2   2 1104.79   65.79
  -3   2  -2 1060.19   66.09
  -3   2  -2 1065.39   66.29
   3   2   2 1114.09   66.89
  -4  -2  -2  183.78   15.80
   4  -2   2  192.18   14.00
  -4  -2  -2  175.68   14.70
  -4  -2  -2  184.58   14.50
   4  -2   2  181.48   14.00
   4  -2   2  178.98   13.50
  -4   2  -2  195.48   13.70
  -4   2  -2  190.08   15.70
  -4   2  -2  193.68   12.90
   4   2   2  202.78   13.70
   4   2   2  194.78   14.30
   4   2   2  191.28   12.40
  -5  -2  -2   27.40    6.50
   5  -2   2   29.10    5.70
   5  -2   2   37.30    5.90
   5  -2   2   42.40    5.90
  -5  -2  -2   30.10    6.90
  -5  -2  -2   35.10    6.60
   5   2   2   32.50    6.40
  -5   2  -2   32.90    8.20
   5   2   2   33.60    5.80
  -5   2  -2   43.40    6.80
  -6  -2  -2    4.00    5.90
  -6  -2  -2    0.90    5.60
   6  -2   2    4.80    4.40
   6  -2   2    6.70    4.50
  -6  -2  -2    6.50    6.00
   6  -2   2    4.40    3.50
  -6   2  -2    6.10    8.40
   6   2   2    3.70    5.20
  -6   2  -2    3.50    6.60
   6   2   2    6.80    5.80
   7  -2   2   69.59    7.90
  -7  -2  -2   63.59    9.70
   7  -2   2   79.69    9.20
  -7  -2  -2   68.69    9.80
   7  -2   2   75.99    9.10
  -7   2  -2   52.69   13.50
   7   2   2   52.19   10.00
  -7   2  -2   43.10   11.10
   7   2   2   56.39   10.60
   8  -2   2  283.37   21.10
  -8  -2  -2  315.87   23.60
   8  -2   2  301.87   21.70
   8  -2   2  296.87   20.40
   8   2   2  260.77   23.50
   8   2   2  269.67   24.40
  -8   2  -2  236.08   25.20
  -8   2  -2  266.67   28.80
   9  -2   2  169.08   16.40
  -9  -2  -2  182.08   19.60
   9   2   2  170.18   19.20
  -9   2  -2  193.78   20.40
  -9   2  -2  191.38   23.40
   9   2   2  185.38   19.00
   9  -3  -2  177.68   16.00
   9  -3  -2  178.18   17.60
  -9  -3   2  189.48   20.80
   9  -3  -2  181.98   18.50
  -9   3   2  232.78   28.00
   9   3  -2  205.88   22.00
   8  -3  -2  261.67   19.30
   8  -3  -2  223.28   20.80
   8  -3  -2  230.48   20.50
  -8  -3   2  239.88   23.20
  -8   3   2  267.97   29.40
   8   3  -2  263.27   24.40
   7  -3  -2   28.60    6.70
  -7  -3   2   17.50    8.30
  -7  -3   2   23.00    8.60
  -7  -3   2   15.50    7.70
   7  -3  -2   30.60    7.40
   7  -3  -2   28.00    6.30
  -7   3   2   39.00    8.90
  -7   3   2   32.80   13.30
   7   3  -2   29.40   10.00
  -6  -3   2  198.08   17.00
  -6  -3   2  214.28   17.80
  -6  -3   2  199.28   18.80
   6  -3  -2  208.28   16.30
   6  -3  -2  210.78   15.80
   6  -3  -2  209.08   15.90
   6   3  -2  193.08   18.60
  -6   3   2  204.08   17.60
  -6   3   2  149.88   20.00
   5  -3  -2   62.69    7.40
   5  -3  -2   72.79    8.10
  -5  -3   2   74.09    9.30
  -5  -3   2   62.89    8.10
  -5  -3   2   71.49    9.80
  -5   3   2   78.89    9.70
  -5   3   2   83.59   12.30
   5   3  -2  107.59   11.00
   5   3  -2   89.69    7.80
  -5   3   2   95.29    8.50
   4  -3  -2  624.24   36.90
  -4  -3   2  619.74   38.80
   4  -3  -2  611.34   37.00
  -4  -3   2  642.74   37.40
  -4  -3   2  633.64   37.60
   4   3  -2  563.04   36.40
   4   3  -2  550.54   38.20
  -4   3   2  572.74   39.50
  -4   3   2  572.34   36.40
  -4   3   2  576.34   38.20
   4   3  -2  599.74   38.10
  -3  -3   2  831.22   48.60
   3  -3  -2  815.42   48.30
  -3  -3   2  877.31   48.80
   3  -3  -2  848.12   48.50
  -3  -3   2  812.22   49.80
  -3   3   2  752.42   47.70
   3   3  -2  773.22   49.50
   3   3  -2  766.32   48.80
   3   3  -2  731.13   47.80
  -3   3   2  778.02   49.30
  -3   3   2  797.42   49.80
  -2  -3   2 2139.09  128.89
  -2  -3   2 2170.18  128.39
   2  -3  -2 2013.60  129.29
   2  -3  -2 2108.39  128.79
  -2  -3   2 2219.18  128.89
  -2   3   2 2211.88  128.99
   2   3  -2 2239.78  129.09
  -2   3   2 2248.88  129.59
   2   3  -2 2366.26  128.69
   2   3  -2 2181.38  128.39
  -2   3   2 2213.58  129.09
  -2   3   2 2250.37  129.39
  -2   3   2 1995.10  129.29
  -2   3   2 2188.38  128.29
   2   3  -2 2061.99  129.69
   1  -3  -2 1549.94   95.49
  -1  -3   2 1539.75   95.59
  -1  -3   2 1501.05   95.89
   1  -3  -2 1617.24   96.69
  -1   3   2 1620.14   95.79
   1   3  -2 1647.54   95.49
  -1   3   2 1615.74   94.99
   1   3  -2 1550.94   95.99
  -1   3   2 1673.13   95.79
  -1   3   2 1614.74   96.69
   1   3  -2 1649.73   95.19
   1   3  -2 1655.93   96.39
  -1   3   2 1692.53   95.69
  -1   3   2 1595.44   95.99
   1   3  -2 1513.35   95.49
   1   3  -2 1686.83   95.59
   0  -3   2  883.51   52.99
   0  -3  -2  926.11   51.69
   0  -3  -2  977.20   53.99
   0  -3   2 1000.70   52.49
   0   3  -2  852.71   51.89
   0   3   2  891.71   52.29
   0   3  -2  825.52   51.79
   0   3   2  862.51   52.19
   0   3  -2  859.31   52.69
   0   3  -2  739.63   52.09
   0   3  -2  769.02   52.89
   0   3  -2  852.71   51.89
   0   3   2  840.82   52.29
   0   3   2  854.91   51.69
   1  -3   2  622.54   41.00
   1  -3   2  647.84   39.50
   1  -3   2  627.54   39.50
  -1  -3  -2  670.73   39.30
  -1  -3  -2  681.63   42.00
  -1  -3  -2  637.84   39.60
  -1   3  -2  661.83   39.70
   1   3   2  687.03   40.30
  -1   3  -2  666.03   40.30
  -1   3  -2  647.24   39.60
   1   3   2  690.93   40.00
  -1   3  -2  665.13   40.30
  -1   3  -2  606.54   41.20
   1   3   2  673.83   39.80
   2  -3   2  330.17   20.80
  -2  -3  -2  331.87   20.90
  -2  -3  -2  340.67   23.60
   2  -3   2  343.07   20.50
  -2  -3  -2  347.27   20.40
   2  -3   2  329.07   22.40
   2   3   2  325.27   21.30
   2   3   2  316.97   20.80
  -2   3  -2  305.07   22.70
  -2   3  -2  318.07   21.10
   2   3   2  331.17   20.50
  -2   3  -2  327.17   21.60
   3  -3   2  749.62   48.20
  -3  -3  -2  781.72   46.60
  -3  -3  -2  778.22   47.30
   3  -3   2  792.02   46.40
   3  -3   2  767.22   47.00
  -3  -3  -2  771.02   49.50
  -3   3  -2  744.73   46.90
   3   3   2  735.53   47.30
   3   3   2  788.92   46.20
  -3   3  -2  749.42   47.90
  -3   3  -2  809.22   49.10
   4  -3   2  922.21   56.19
   4  -3   2  993.80   55.59
  -4  -3  -2  928.01   56.69
   4  -3   2  988.70   57.19
  -4  -3  -2  927.61   58.49
   4   3   2  919.81   56.79
   4   3   2  760.72   55.49
  -4   3  -2  899.11   57.69
   5  -3   2  210.98   15.40
  -5  -3  -2  177.58   16.90
  -5  -3  -2  214.88   18.70
   5  -3   2  208.68   16.10
   5  -3   2  190.38   16.00
  -5   3  -2  226.68   16.50
   5   3   2  212.28   17.20
   5   3   2  227.68   16.00
  -5   3  -2  198.88   19.10
   6  -3   2  179.28   15.30
  -6  -3  -2  230.58   19.30
  -6  -3  -2  179.58   16.90
   6  -3   2  173.38   15.60
   6  -3   2  221.38   15.50
  -6   3  -2  144.69   19.70
  -6   3  -2  186.48   17.40
   6   3   2  167.98   17.50
   6   3   2  179.38   16.20
   7  -3   2  287.27   18.70
  -7  -3  -2  292.47   21.80
   7  -3   2  272.67   21.20
  -7  -3  -2  293.97   21.70
   7  -3   2  255.57   19.50
   7   3   2  192.88   21.70
  -7   3  -2  193.58   25.40
  -7   3  -2  178.48   21.30
   7   3   2  199.08   20.70
   8  -3   2   19.90    5.70
  -8  -3  -2   20.40    8.80
   8  -3   2   29.30    6.80
  -8  -3  -2   18.10    9.00
  -8   3  -2   21.60   14.20
   8   3   2   22.00   10.20
  -8   3  -2  -17.30   10.30
   8   3   2   20.40    9.60
  -8  -4   2   17.00   10.00
   8  -4  -2   18.50    7.70
   8  -4  -2   17.50    6.40
  -8  -4   2   20.50   10.90
   8  -4  -2   16.80    7.30
   8   4  -2    7.70   10.80
  -8   4   2    5.00   14.90
  -7  -4   2  129.19   16.50
   7  -4  -2  139.69   14.50
  -7  -4   2  119.49   14.90
   7  -4  -2  148.59   14.70
   7  -4  -2  158.28   14.60
  -7   4   2  115.79   20.20
   7   4  -2  153.58   18.30
  -7   4   2  161.48   16.50
   6  -4  -2  217.58   17.20
  -6  -4   2  232.38   19.00
   6  -4  -2  231.68   18.10
  -6  -4   2  230.28   21.60
   6  -4  -2  242.78   17.30
  -6   4   2  173.48   22.90
   6   4  -2  207.58   20.60
  -6   4   2  183.78   19.20
   5  -4  -2  603.84   36.80
   5  -4  -2  600.74   37.20
  -5  -4   2  605.94   37.80
  -5  -4   2  604.94   40.10
  -5  -4   2  614.64   37.80
   5   4  -2  551.14   38.90
  -5   4   2  509.65   38.60
  -5   4   2  548.95   40.60
  -4  -4   2  807.42   51.69
   4  -4  -2  801.62   49.40
  -4  -4   2  808.72   49.70
   4  -4  -2  787.02   49.10
  -4  -4   2  781.72   49.60
   4   4  -2  805.02   51.39
  -4   4   2  817.22   51.59
   4   4  -2  804.62   50.39
  -4   4   2  824.52   51.29
  -3  -4   2  443.26   28.60
   3  -4  -2  432.66   28.50
  -3  -4   2  436.96   28.70
  -3  -4   2  407.86   30.40
   3  -4  -2  430.26   28.40
   3   4  -2  459.65   28.00
  -3   4   2  469.45   28.30
   3   4  -2  473.05   29.20
   3   4  -2  490.25   30.60
  -3   4   2  484.55   30.30
  -2  -4   2  167.48   11.70
   2  -4  -2  155.78   13.00
  -2  -4   2  179.68   14.00
   2  -4  -2  167.38   11.70
  -2  -4   2  181.68   12.10
  -2   4   2  163.28   13.10
   2   4  -2  169.68   13.40
  -2   4   2  169.28   12.20
   2   4  -2  168.48   11.20
   2   4  -2  148.59   11.90
  -2   4   2  144.39   13.00
  -2   4   2  160.68   10.90
  -2   4   2  162.18   12.20
  -2   4   2  153.68   11.90
   1  -4  -2  588.54   39.50
  -1  -4   2  604.44   37.80
   1  -4  -2  607.24   37.80
  -1  -4   2  557.64   38.30
  -1  -4   2  642.04   37.80
   1   4  -2  617.74   37.40
  -1   4   2  623.84   38.10
  -1   4   2  608.44   38.00
  -1   4   2  604.94   37.10
   1   4  -2  573.94   38.60
  -1   4   2  659.93   38.80
   1   4  -2  627.04   37.80
   1   4  -2  655.73   38.00
  -1   4   2  646.54   37.90
   1   4  -2  597.34   37.50
   1   4  -2  613.74   39.10
  -1   4   2  598.74   39.60
   0  -4   2  672.43   38.50
   0  -4  -2  697.43   40.80
   0  -4  -2  630.24   37.60
   0  -4   2  548.95   39.10
   0  -4  -2  659.73   37.80
   0   4  -2  600.24   37.90
   0   4  -2  637.04   39.40
   0   4   2  605.04   37.70
   0   4  -2  607.14   37.90
   0   4   2  642.24   38.40
   0   4  -2  545.35   39.40
   0   4   2  635.54   38.70
   0   4   2  584.54   38.40
   0   4  -2  615.54   38.10
  -1  -4  -2 1428.36   84.09
   1  -4   2 1393.76   80.99
   1  -4   2 1368.56   80.99
  -1  -4  -2 1407.16   80.69
   1  -4   2 1324.67   82.89
  -1  -4  -2 1416.76   80.99
  -1   4  -2 1326.57   82.19
   1   4   2 1350.76   81.79
   1   4   2 1319.17   81.39
  -1   4  -2 1333.47   81.79
   1   4   2 1310.47   81.49
  -1   4  -2 1303.07   81.09
  -2  -4  -2  822.62   50.49
   2  -4   2  799.52   49.10
   2  -4   2  858.51   46.80
   2  -4   2  787.42   47.00
  -2  -4  -2  834.62   47.20
  -2   4  -2  704.23   47.70
   2   4   2  755.52   47.70
   2   4   2  753.62   47.10
  -2   4  -2  738.73   46.80
  -2   4  -2  697.43   49.30
  -2   4  -2  735.93   48.00
   3  -4   2  363.16   23.20
  -3  -4  -2  334.27   27.10
   3  -4   2  355.56   25.50
  -3  -4  -2  328.97   23.90
   3  -4   2  340.47   23.70
  -3   4  -2  407.76   25.40
  -3   4  -2  428.16   27.40
  -3   4  -2  360.86   23.50
   3   4   2  409.26   24.80
  -4  -4  -2  227.18   18.20
  -4  -4  -2  233.18   21.30
   4  -4   2  237.98   18.80
   4  -4   2  242.38   16.70
   4  -4   2  230.98   17.50
  -4   4  -2  268.37   17.30
   4   4   2  266.37   18.90
  -4   4  -2  268.47   20.00
  -4   4  -2  316.17   21.50
   4   4   2  218.58   17.10
   5  -4   2   43.00    6.80
   5  -4   2   39.90    6.80
  -5  -4  -2   37.00    7.70
  -5  -4  -2   34.20   10.00
   5  -4   2   55.99    7.90
   5   4   2   34.50    7.80
   5   4   2   31.10    6.20
  -5   4  -2   32.30    6.30
  -5   4  -2   43.80    9.80
  -6  -4  -2   46.10    9.50
   6  -4   2   46.00    7.70
  -6  -4  -2   52.79   11.10
   6  -4   2   53.19    8.30
   6   4   2   40.80    9.70
  -6   4  -2   32.40    7.70
  -6   4  -2   43.20   12.10
   6   4   2   43.20    8.20
   7  -4   2  106.69   12.30
  -7  -4  -2  108.39   13.60
  -7  -4  -2  106.19   14.80
   7  -4   2  106.89   11.40
   7   4   2   70.29   13.60
  -7   4  -2   74.69   16.80
   8  -4   2  108.29   11.70
  -8  -4  -2  112.39   14.90
   8  -4   2   99.09   12.30
  -8  -4  -2  108.79   13.90
  -8   4  -2   78.39   18.60
   8   4   2   68.19   15.30
  -7  -5   2   80.59   12.70
   7  -5  -2   82.29   11.60
   7  -5  -2   83.79   11.20
   7  -5  -2   99.39   11.40
  -7  -5   2   95.59   15.90
  -7   5   2   75.59   13.70
  -7   5   2   75.29   17.40
   7   5  -2   85.09   15.50
   6  -5  -2  147.19   13.80
   6  -5  -2  147.39   15.30
  -6  -5   2  130.89   16.80
  -6  -5   2  151.28   16.10
   6  -5  -2  142.49   13.30
  -6   5   2  123.49   18.00
   6   5  -2  153.28   17.80
  -6   5   2  103.99   14.90
   5  -5  -2    5.40    4.60
  -5  -5   2    7.10    5.90
   5  -5  -2    8.60    4.70
  -5  -5   2    4.40    8.80
   5  -5  -2    6.80    6.00
  -5   5   2    4.50    7.60
  -5   5   2    4.40    7.30
   5   5  -2    7.30    6.30
   4  -5  -2  451.25   29.40
  -4  -5   2  440.06   33.10
   4  -5  -2  454.75   29.80
  -4  -5   2  447.86   30.20
   4   5  -2  458.65   31.00
  -4   5   2  483.85   31.80
   4   5  -2  447.96   32.30
  -4   5   2  456.55   32.40
   3  -5  -2  244.28   17.20
  -3  -5   2  241.78   19.60
  -3  -5   2  249.78   20.40
   3  -5  -2  247.38   17.00
  -3  -5   2  258.47   17.60
   3   5  -2  230.58   17.70
  -3   5   2  226.98   18.00
  -3   5   2  241.88   19.60
  -3   5   2  235.18   17.40
   3   5  -2  234.58   19.70
  -2  -5   2  157.98   16.40
  -2  -5   2  148.99   13.70
   2  -5  -2  154.58   13.60
  -2  -5   2  151.78   13.40
  -2   5   2  217.28   14.70
   2   5  -2  225.88   16.90
  -2   5   2  209.58   14.50
  -2   5   2  215.08   14.50
   2   5  -2  224.38   14.60
  -2   5   2  228.58   16.50
  -1  -5   2 1124.79   69.09
   1  -5  -2 1195.88   67.29
   1  -5  -2 1012.40   69.29
  -1  -5   2 1182.38   66.99
  -1  -5   2 1191.98   67.19
   1   5  -2 1055.29   66.79
  -1   5   2 1087.09   67.29
  -1   5   2  993.60   69.29
   1   5  -2 1084.59   67.09
   1   5  -2 1129.19   69.19
  -1   5   2 1072.79   67.29
   1   5  -2 1046.60   66.49
  -1   5   2 1152.98   67.39
  -1   5   2 1110.29   68.39
   0  -5   2  966.90   55.99
   0  -5  -2  908.91   54.89
   0  -5  -2  903.81   58.69
   0  -5   2  737.93   56.49
   0   5  -2  935.31   55.59
   0   5  -2  932.91   55.29
   0   5  -2 1010.00   57.99
   0   5   2  951.80   55.89
   0   5   2  969.40   56.79
   0   5  -2  772.52   57.09
   0   5   2  949.11   56.19
   0   5  -2  804.72   54.99
   0   5  -2  958.90   55.89
   1  -5   2  200.88   17.60
  -1  -5  -2  253.47   20.70
   1  -5   2  240.28   16.80
   1  -5   2  228.38   15.50
   1  -5   2  252.57   15.80
  -1  -5  -2  242.58   15.70
   1   5   2  185.58   18.30
  -1   5  -2  234.48   18.30
   1   5   2  217.38   16.60
  -1   5  -2  205.48   15.60
  -2  -5  -2  334.47   22.60
  -2  -5  -2  333.17   27.10
   2  -5   2  343.87   22.40
   2  -5   2  312.97   24.60
   2  -5   2  348.87   22.20
  -2   5  -2  345.17   25.10
  -2   5  -2  355.96   22.50
   2   5   2  278.37   22.30
  -2   5  -2  359.36   22.50
   2   5   2  362.36   23.70
  -2   5  -2  370.36   23.80
  -2   5  -2  361.66   26.30
  -3  -5  -2  216.98   20.50
   3  -5   2  222.18   17.70
  -3  -5  -2  211.08   15.80
   3  -5   2  204.88   15.20
  -3   5  -2  211.88   15.20
   3   5   2  206.18   16.40
   3   5   2  204.18   15.40
  -3   5  -2  217.78   19.40
  -3   5  -2  197.68   17.00
  -4  -5  -2  159.68   19.20
  -4  -5  -2  163.48   15.10
   4  -5   2  180.68   14.20
   4  -5   2  183.68   16.10
   4   5   2  161.08   15.40
  -4   5  -2  190.88   18.60
  -4   5  -2  184.58   16.90
   4   5   2  171.58   14.10
  -4   5  -2  177.58   13.90
  -5  -5  -2  343.07   28.80
   5  -5   2  371.96   25.30
   5  -5   2  330.67   24.00
  -5  -5  -2  323.97   25.30
   5   5   2  322.97   25.60
  -5   5  -2  320.87   27.00
   6  -5   2  110.39   12.60
  -6  -5  -2  119.09   16.30
   6  -5   2  114.79   12.50
  -6  -5  -2   79.49   12.80
   6   5   2  121.79   15.40
  -6   5  -2  112.69   16.90
  -7  -5  -2   68.49   12.00
  -7  -5  -2   75.59   14.10
   7  -5   2   62.19   10.20
   7  -5   2   62.59    9.70
   7   5   2   64.79   13.90
  -7   5  -2   53.09   15.90
   6  -6  -2   18.20    7.90
  -6  -6   2   13.50    8.40
  -6  -6   2   24.10   12.40
   6  -6  -2   26.20    7.30
  -6   6   2   21.30   11.20
  -6   6   2   41.10   11.20
   6   6  -2   39.20   10.60
   5  -6  -2  506.55   33.90
  -5  -6   2  520.85   39.50
   5  -6  -2  530.25   34.70
  -5  -6   2  516.35   35.40
   5  -6  -2  500.35   36.40
   5   6  -2  537.95   36.70
  -5   6   2  501.65   38.00
  -5   6   2  506.95   37.50
   4  -6  -2  178.68   14.40
  -4  -6   2  172.08   15.60
  -4  -6   2  187.48   20.40
   4  -6  -2  190.78   15.10
   4   6  -2  159.78   18.20
  -4   6   2  147.29   17.40
   4   6  -2  171.48   16.30
   3  -6  -2    7.10    4.80
  -3  -6   2    9.40    8.90
  -3  -6   2    9.70    5.30
   3  -6  -2   10.20    4.90
   3   6  -2   18.00    6.00
  -3   6   2   15.20    7.90
  -3   6   2   20.20    5.80
   3   6  -2   18.40    8.30
  -2  -6   2   97.39    9.90
   2  -6  -2   85.69    9.60
  -2  -6   2   87.19   12.40
   2   6  -2   60.19    8.40
  -2   6   2   85.09   11.60
   2   6  -2   91.09   12.70
  -2   6   2   82.99    9.40
  -2   6   2   88.79    9.60
   1  -6  -2   24.40    6.20
  -1  -6   2   37.30    8.90
  -1   6   2   43.70    7.10
   1   6  -2   65.09   10.60
   1   6  -2   50.99    7.00
  -1   6   2   44.10    6.70
   0  -6  -2  615.24   44.20
   0  -6   2  700.73   41.00
   0  -6   2  619.74   43.00
   0  -6   2  686.23   40.40
   0  -6   2  652.53   40.20
   0   6  -2  633.44   43.50
   0   6  -2  614.14   40.40
   0   6   2  618.04   40.90
   0   6  -2  614.04   40.30
   0   6   2  606.44   40.50
  -1  -6  -2  473.35   39.40
   1  -6   2  460.35   37.00
   1  -6   2  545.85   36.10
   1  -6   2  522.85   34.90
   1  -6   2  504.35   38.00
  -1   6  -2  617.24   39.40
  -1   6  -2  619.04   35.30
  -1   6  -2  596.84   36.20
   1   6   2  630.34   36.90
  -1   6  -2  546.95   39.10
   2  -6   2   16.30    6.90
  -2  -6  -2   12.80    9.80
   2  -6   2   23.60    6.10
  -2  -6  -2   30.20    5.60
   2  -6   2   27.50    5.20
   2   6   2   33.40    6.80
  -2   6  -2   35.00    6.80
   2   6   2   30.40    5.80
  -2   6  -2   31.10    5.50
  -2   6  -2   32.10   10.00
   3  -6   2  163.08   13.00
  -3  -6  -2  149.29   18.60
  -3  -6  -2  155.88   13.70
   3  -6   2  150.48   15.60
  -3   6  -2  138.09   14.50
   3   6   2  135.59   14.50
  -3   6  -2  161.08   18.20
  -4  -6  -2  129.69   18.90
  -4  -6  -2  179.48   16.20
   4  -6   2  186.58   17.20
   4  -6   2  177.98   15.20
   4   6   2  199.18   17.70
  -4   6  -2  191.28   17.80
  -5  -6  -2    7.90    7.40
   5  -6   2   11.10    6.80
   5  -6   2    8.00    6.00
  -5  -6  -2   10.90   11.60
  -5   6  -2   10.20    9.10
   5   6   2    6.30    7.70
  -6  -6  -2   58.89   18.30
   6  -6   2  103.29   13.40
  -6  -6  -2   87.19   12.50
   6  -6   2   84.99   11.40
   6   6   2   79.79   13.80
  -6   6  -2   82.39   15.40
   4  -7  -2   86.99   13.30
  -4  -7   2   91.09   11.50
  -4  -7   2   83.09   15.80
   4  -7  -2   97.39   11.40
  -4   7   2  130.99   16.10
   4   7  -2  148.39   15.00
   3  -7  -2   65.19   11.10
  -3  -7   2   62.39    9.20
   3  -7  -2   74.29    9.30
   3  -7  -2   76.89    9.40
  -3  -7   2   79.79   14.60
   3   7  -2   69.79   13.40
   3   7  -2   60.09    9.60
  -3   7   2   59.29   12.80
   2  -7  -2  100.09   11.40
  -2  -7   2   73.99   13.80
  -2  -7   2   81.79    9.50
  -2   7   2   68.79    9.70
   2   7  -2   62.79   13.00
  -2   7   2   74.59   10.00
  -2   7   2   66.29   12.80
  -1  -7   2  299.67   22.60
   1  -7  -2  336.57   23.90
  -1  -7   2  300.77   27.60
  -1   7   2  335.27   24.10
   1   7  -2  331.87   28.40
  -1   7   2  324.77   23.50
   0  -7   2  184.28   21.40
   0  -7  -2  232.88   18.20
   0   7  -2  187.98   21.30
   0   7   2  230.08   18.50
  -1  -7  -2   -0.10    9.20
   1   7   2    2.10    5.90
   2  -7   2   13.20    9.40
  -2  -7  -2    6.70   10.60
   2   7   2   19.40    7.20
   3  -7   2    5.10    5.70
  -3  -7  -2    6.80   11.20
   3  -7   2   -0.50    6.40
  -3   7  -2    2.30    6.60
   3   7   2    5.40    6.60
   4  -7   2   77.59    9.90
   4  -7   2   64.79   11.10
  -4  -7  -2   85.49   16.70
   4   7   2   67.69   11.20
  -4   7  -2   78.39   12.20
 -10   0   3   83.19   16.00
  10   0  -3   84.99   12.00
  10   0  -3   79.79   12.40
 -10   0   3   90.99   12.60
   9   0  -3    1.00    5.10
   9   0  -3    2.00    6.10
  -9   0   3    7.60    8.10
  -9   0   3    8.80   10.60
   8   0  -3   81.59    9.60
  -8   0   3   97.39   11.30
   8   0  -3   87.89   11.00
  -8   0   3   86.39   13.70
  -7   0   3   13.10    8.20
  -7   0   3   14.70    6.30
   7   0  -3    6.60    4.20
   7   0  -3    9.00    5.20
   6   0  -3 2147.99  133.39
  -6   0   3 2225.08  135.49
   6   0  -3 2033.90  132.69
   6   0  -3 2326.37  133.99
   6   0  -3 2233.38  132.19
  -6   0   3 2366.86  133.39
  -5   0   3 1227.18   76.19
  -5   0   3 1198.88   73.29
   5   0  -3 1303.37   74.99
   5   0  -3 1262.27   73.29
   5   0  -3 1210.18   74.29
  -5   0   3 1107.09   73.89
  -5   0   3 1225.78   73.39
  -4   0   3   21.00    3.10
   4   0  -3   22.20    4.00
  -4   0   3   21.60    5.30
   4   0  -3   16.70    3.30
   4   0  -3   16.00    4.20
  -4   0   3   24.40    3.30
   3   0  -3  441.56   27.10
   3   0  -3  457.85   26.50
   3   0  -3  440.86   26.10
  -3   0   3  446.36   27.90
   3   0  -3  407.06   27.30
  -3   0   3  401.46   26.60
  -3   0   3  418.06   26.10
  -2   0   3 1640.94   99.29
  -2   0   3 1624.84   99.29
   2   0  -3 1601.54   99.19
   2   0  -3 1737.73   99.89
   2   0  -3 1783.42   99.99
   2   0  -3 1714.33   99.29
  -2   0   3 1687.43  100.09
   1   0  -3   10.10    1.10
  -1   0   3    9.10    1.10
  -1   0   3   13.30    1.30
  -1   0   3    7.50    1.20
   1   0  -3   10.20    1.20
   1   0  -3   10.40    1.20
   1   0  -3   11.70    1.60
  -1   0   3    8.90    1.00
   0   0   3  457.95   27.20
   0   0   3  463.25   27.30
   0   0  -3  452.25   27.40
   0   0  -3  470.65   27.20
   0   0   3  440.26   27.30
   0   0  -3  464.65   27.40
   0   0   3  466.05   27.20
  -1   0  -3 1976.80  133.69
   1   0   3 2385.36  133.69
   1   0   3 2333.97  133.39
   1   0   3 2259.87  133.59
  -1   0  -3 2363.86  133.59
  -1   0  -3 2285.77  133.59
  -2   0  -3   12.60    2.30
  -2   0  -3   12.20    2.40
   2   0   3   14.50    2.10
   2   0   3   14.40    2.10
   2   0   3   10.50    2.20
   3   0   3 1370.86   87.99
  -3   0  -3 1302.97   87.79
  -3   0  -3 1684.53   88.69
   3   0   3 1520.35   87.99
  -3   0  -3 1465.75   87.99
  -4   0  -3 1890.81  111.29
   4   0   3 1888.91  110.59
  -4   0  -3 1801.72  110.19
   4   0   3 1876.71  110.39
  -4   0  -3 1737.13  110.29
  -5   0  -3   13.70    6.20
  -5   0  -3    2.20    5.20
   5   0   3   18.70    5.10
  -5   0  -3   11.70    5.10
   5   0   3    8.80    4.40
   5   0   3   14.10    3.60
  -6   0  -3   61.59   10.80
  -6   0  -3   70.39    8.60
   6   0   3   72.49    9.30
   6   0   3   70.69    8.80
   6   0   3   64.49    7.40
  -6   0  -3   72.69    9.90
   7   0   3   21.00    7.20
  -7   0  -3   17.50    9.40
   7   0   3   20.10    6.10
   7   0   3   16.20    6.30
  -7   0  -3   12.70    8.30
   8   0   3  125.09   14.00
  -8   0  -3  122.99   16.60
  -8   0  -3  129.39   15.10
   8   0   3  136.29   14.20
  -9   0  -3  365.86   28.00
   9   0   3  327.77   25.50
   9   0   3  341.97   25.40
  -9   0  -3  304.37   29.80
   9  -1  -3  197.98   17.90
   9  -1  -3  198.48   17.00
  -9  -1   3  201.28   19.30
  -9  -1   3  193.98   22.90
  -9   1   3  210.78   25.20
   9   1  -3  213.18   19.20
   8  -1  -3  136.19   14.40
   8  -1  -3  133.69   13.50
  -8  -1   3  146.79   17.90
  -8  -1   3  144.09   15.70
  -8   1   3  156.68   18.50
   8   1  -3  169.58   14.50
   8   1  -3  171.18   16.00
   7  -1  -3  530.55   38.60
   7  -1  -3  574.24   37.20
   7  -1  -3  552.24   38.00
  -7  -1   3  568.84   38.80
  -7  -1   3  529.55   40.50
   7   1  -3  657.33   39.80
  -7   1   3  646.44   42.30
  -7   1   3  646.24   38.60
  -7   1   3  547.85   38.30
   7   1  -3  646.54   38.30
   6  -1  -3  769.72   51.59
  -6  -1   3  735.33   51.99
   6  -1  -3  683.53   51.89
  -6  -1   3  737.93   53.59
   6  -1  -3  808.62   51.19
  -6  -1   3  803.52   51.69
  -6   1   3  954.90   52.39
   6   1  -3  975.30   51.99
  -6   1   3  898.91   51.89
  -6   1   3  961.70   55.49
   5  -1  -3  232.88   17.60
   5  -1  -3  232.58   18.40
  -5  -1   3  244.58   18.20
   5  -1  -3  253.27   17.50
  -5  -1   3  243.88   19.80
  -5  -1   3  225.68   18.10
  -5   1   3  276.87   18.20
   5   1  -3  285.97   19.70
   5   1  -3  290.27   18.30
   5   1  -3  293.17   19.80
  -5   1   3  312.27   21.90
  -5   1   3  275.07   18.60
  -4  -1   3  601.74   36.50
  -4  -1   3  592.24   35.60
  -4  -1   3  588.74   35.70
   4  -1  -3  630.54   35.30
   4  -1  -3  603.64   35.70
   4  -1  -3  607.04   35.30
  -4   1   3  560.74   38.20
   4   1  -3  592.74   34.60
  -4   1   3  548.15   35.40
   4   1  -3  558.14   37.20
   4   1  -3  565.54   35.50
   4   1  -3  465.85   35.30
   4   1  -3  535.85   36.70
   3  -1  -3  148.99   10.60
   3  -1  -3  162.48   10.80
   3  -1  -3  157.98   10.90
  -3  -1   3  158.38   11.40
  -3  -1   3  157.48   10.90
  -3  -1   3  166.08   10.20
   3   1  -3  159.38   11.00
  -3   1   3  204.48   11.30
  -3   1   3  187.78   14.00
  -3   1   3  150.08   11.00
   3   1  -3  137.29   12.00
   3   1  -3  204.78   13.50
   2  -1  -3  483.15   31.60
  -2  -1   3  507.15   31.90
  -2  -1   3  468.45   31.50
   2   1  -3  592.64   31.40
  -2   1   3  563.04   31.70
   2   1  -3  562.74   31.90
   2   1  -3  465.95   33.30
  -2   1   3  438.36   33.20
  -2   1   3  579.04   31.40
  -2   1   3  572.44   31.80
   1  -1  -3 5963.00  326.57
   1  -1  -3 6038.60  326.37
  -1  -1   3 5607.94  326.27
  -1   1   3 5494.25  326.57
  -1   1   3 5331.97  326.57
   1   1  -3 5642.64  326.47
   1   1  -3 5118.59  326.67
   1   1  -3 5990.20  326.57
   1   1  -3 4813.22  327.87
   0  -1  -3 1585.14  109.09
   0  -1   3 1675.03  108.69
   0  -1   3 1657.03  108.89
   0   1   3 1974.70  108.89
   0   1   3 1949.30  108.79
   0   1  -3 2007.50  108.89
   0   1  -3 1576.44  109.59
   0   1  -3 2007.00  108.99
   0   1   3 2048.70  108.89
   0   1  -3 1958.40  108.69
  -1  -1  -3  772.52   55.09
   1  -1   3  801.32   55.29
   1  -1   3 1014.50   55.19
  -1  -1  -3  859.41   55.69
  -1   1  -3  990.90   55.19
  -1   1  -3  960.80   54.79
   1   1   3 1000.20   54.89
   1   1   3  962.80   54.79
   2  -1   3  744.83   47.60
  -2  -1  -3  874.11   47.70
   2  -1   3  859.41   48.40
  -2  -1  -3  798.12   48.20
  -2  -1  -3  739.53   48.50
   2  -1   3  775.42   47.90
   2   1   3  788.12   47.40
  -2   1  -3  798.02   47.90
   2   1   3  778.72   47.30
  -2   1  -3  768.52   47.30
   2   1   3  821.32   47.10
  -2   1  -3  738.53   47.20
   3  -1   3  799.22   51.19
  -3  -1  -3  886.31   51.79
  -3  -1  -3  792.52   51.49
  -3  -1  -3  832.02   51.99
   3  -1   3  909.81   51.89
   3  -1   3  874.91   51.39
  -3   1  -3  851.31   51.89
   3   1   3  876.11   51.09
  -3   1  -3  858.21   50.99
   3   1   3  851.81   51.09
   3   1   3  832.62   50.49
  -3   1  -3  751.02   50.59
  -4  -1  -3 1157.88   76.69
  -4  -1  -3 1372.56   77.39
   4  -1   3 1354.46   76.39
  -4  -1  -3 1402.56   76.99
   4  -1   3 1479.55   77.09
  -4   1  -3 1160.78   76.29
   4   1   3 1190.08   76.49
  -4   1  -3 1201.28   77.49
   4   1   3 1185.08   75.59
   4   1   3 1151.98   76.39
  -5  -1  -3 1098.49   62.19
   5  -1   3 1042.90   61.39
   5  -1   3 1121.09   62.19
  -5  -1  -3 1104.79   63.19
   5  -1   3 1127.19   61.89
  -5   1  -3  855.01   61.99
   5   1   3  926.81   62.19
  -5   1  -3  958.70   63.59
   5   1   3  905.81   60.89
   5   1   3  907.71   61.99
  -6  -1  -3  135.69   15.10
  -6  -1  -3  157.08   13.90
   6  -1   3  128.49   11.50
   6  -1   3  151.28   12.70
   6  -1   3  140.99   12.30
  -6  -1  -3  135.29   13.60
   6   1   3  140.99   13.90
  -6   1  -3  140.09   14.30
  -6   1  -3  126.69   16.50
   6   1   3  144.19   14.00
  -7  -1  -3  226.58   18.90
   7  -1   3  218.88   16.90
   7  -1   3  221.58   17.20
  -7  -1  -3  222.08   20.00
  -7   1  -3  181.58   20.60
   7   1   3  207.18   18.30
   7   1   3  190.08   18.10
  -7   1  -3  195.98   22.00
   8  -1   3  309.87   24.10
  -8  -1  -3  362.26   26.50
   8  -1   3  339.37   24.40
   8  -1   3  307.87   23.40
  -8   1  -3  373.96   28.70
   8   1   3  340.97   26.10
  -8   1  -3  310.37   29.80
   8   1   3  355.46   26.00
  -9  -1  -3   11.10    9.70
   9  -1   3   10.90    6.20
   9  -1   3   19.90    6.70
   9   1   3    5.00    7.20
  -9   1  -3    6.80   12.40
  -9   1  -3   -3.00   10.80
   9   1   3    9.10    7.60
  -9  -2   3   95.29   13.10
   9  -2  -3   94.49   12.50
   9  -2  -3   78.19   11.00
  -9  -2   3   89.79   14.90
  -9   2   3  105.19   18.00
   9   2  -3  116.19   14.40
  -8  -2   3   32.50   10.00
   8  -2  -3   27.50    8.00
   8  -2  -3   35.40    7.70
  -8  -2   3   34.00    9.60
   8   2  -3   28.50    9.30
  -8   2   3   20.10   12.10
  -7  -2   3   75.99   11.20
   7  -2  -3  100.69   10.00
  -7  -2   3   85.89   12.50
   7  -2  -3   86.19   11.00
  -7  -2   3   98.79   13.20
   7  -2  -3   83.69   10.20
   7   2  -3   95.89   12.80
  -7   2   3  105.39   15.50
  -7   2   3   54.29   10.80
  -7   2   3   93.09   11.00
  -6  -2   3  960.20   62.69
   6  -2  -3 1005.20   60.79
   6  -2  -3 1050.99   61.19
  -6  -2   3 1005.60   61.49
   6  -2  -3 1030.50   61.39
  -6  -2   3 1019.00   61.89
  -6   2   3  981.80   64.99
  -6   2   3  936.31   61.39
   6   2  -3  874.81   62.49
   5  -2  -3 1489.35   83.49
   5  -2  -3 1357.66   83.09
  -5  -2   3 1447.76   84.49
  -5  -2   3 1434.36   83.59
   5   2  -3 1405.66   83.99
  -5   2   3 1448.96   83.99
   5   2  -3 1370.16   83.19
  -5   2   3 1267.57   83.09
  -5   2   3 1356.56   86.89
   5   2  -3 1228.58   84.69
  -4  -2   3  455.85   30.90
   4  -2  -3  497.55   30.00
   4  -2  -3  484.55   29.50
   4  -2  -3  440.66   29.80
  -4  -2   3  482.65   30.70
  -4  -2   3  468.05   30.20
   4   2  -3  493.35   30.80
   4   2  -3  509.65   29.70
  -4   2   3  503.65   29.80
   4   2  -3  463.15   31.40
  -4   2   3  498.25   30.80
  -3  -2   3  205.28   15.40
  -3  -2   3  196.38   15.10
   3  -2  -3  197.58   15.00
   3   2  -3  251.07   15.90
   3   2  -3  237.28   18.50
  -3   2   3  260.57   14.60
   3   2  -3  257.57   14.60
  -3   2   3  257.97   15.90
  -3   2   3  221.18   17.30
   3   2  -3  261.27   16.10
  -2  -2   3  827.92   47.50
  -2  -2   3  787.82   47.20
   2  -2  -3  806.02   47.00
   2  -2  -3  805.72   47.20
  -2   2   3  811.82   47.40
   2   2  -3  787.72   46.60
  -2   2   3  766.52   47.50
   2   2  -3  686.53   49.80
  -2   2   3  802.02   46.60
  -2   2   3  799.12   48.20
  -2   2   3  766.12   47.40
   2   2  -3  771.72   47.70
   1  -2  -3   26.40    3.10
   1  -2  -3   30.70    3.80
  -1  -2   3   27.70    3.20
  -1  -2   3   32.40    2.50
   1   2  -3   29.00    2.80
  -1   2   3   25.90    3.10
   1   2  -3   29.20    3.40
  -1   2   3   29.70    3.20
   1   2  -3   26.20    2.90
   1   2  -3   26.80    3.20
   1   2  -3   27.20    2.30
  -1   2   3   27.40    2.10
  -1   2   3   26.60    3.20
   1   2  -3   19.00    4.30
  -1   2   3   32.90    3.10
   0  -2   3 1691.63  109.19
   0  -2  -3 1728.53  108.59
   0  -2   3 1682.03  108.49
   0  -2   3 1735.93  109.19
   0   2   3 2050.79  108.59
   0   2   3 1955.00  109.29
   0   2  -3 1887.11  108.59
   0   2  -3 1921.41  109.29
   0   2   3 1847.12  108.99
   0   2   3 1958.40  109.09
   0   2  -3 1860.81  108.89
   0   2  -3 1789.42  109.19
  -1  -2  -3  218.08   15.60
   1  -2   3  211.08   15.50
   1  -2   3  215.18   15.10
  -1   2  -3  267.77   16.20
  -1   2  -3  258.97   15.80
   1   2   3  266.77   15.80
  -1   2  -3  266.47   15.70
  -1   2  -3  274.17   15.30
   1   2   3  257.57   15.50
   1   2   3  266.57   16.00
   2  -2   3 1077.99   58.79
   2  -2   3 1004.70   60.29
  -2  -2  -3 1044.30   59.89
  -2  -2  -3 1073.99   59.39
   2  -2   3 1074.09   59.69
  -2  -2  -3  972.30   61.29
   2   2   3  920.41   58.79
  -2   2  -3  922.61   59.09
   2   2   3  971.70   59.49
   2   2   3  932.71   59.19
  -2   2  -3  937.81   59.19
  -2   2  -3  947.41   59.79
  -3  -2  -3 2468.75  153.08
  -3  -2  -3 2648.54  152.88
   3  -2   3 2537.35  152.88
  -3  -2  -3 2705.53  154.28
   3  -2   3 2723.93  152.08
   3  -2   3 2690.83  153.28
  -3   2  -3 2446.16  152.08
   3   2   3 2549.34  152.58
   3   2   3 2560.24  151.68
  -3   2  -3 2489.75  151.98
   3   2   3 2515.95  152.18
  -3   2  -3 2501.35  153.08
  -4  -2  -3 1049.59   64.79
  -4  -2  -3  987.40   63.99
   4  -2   3  916.31   63.59
   4  -2   3 1014.80   63.59
  -4  -2  -3 1076.29   63.89
   4  -2   3  957.00   63.09
  -4   2  -3 1089.99   64.89
   4   2   3 1096.89   63.39
  -4   2  -3 1045.80   63.09
   4   2   3 1098.89   62.49
   4   2   3 1117.19   63.89
  -4   2  -3 1025.80   62.79
   5  -2   3   56.39    7.10
   5  -2   3   53.59    7.50
  -5  -2  -3   62.39    8.00
  -5  -2  -3   56.19    8.60
   5  -2   3   54.09    6.90
  -5  -2  -3   42.40    7.40
  -5   2  -3   54.49    7.70
   5   2   3   58.29    7.50
   5   2   3   61.29    8.20
  -5   2  -3   52.09    9.50
  -6  -2  -3   63.29    9.30
  -6  -2  -3   60.69    8.70
   6  -2   3   60.79    8.00
   6  -2   3   61.49    7.40
   6  -2   3   62.29    7.70
  -6   2  -3   40.40    9.20
   6   2   3   43.00    8.20
   6   2   3   58.09    9.30
  -6   2  -3   52.39   11.50
   7  -2   3  110.29   11.60
  -7  -2  -3  122.29   12.20
   7  -2   3  123.09   10.50
   7  -2   3  114.89   10.80
  -7   2  -3   77.69   15.20
   7   2   3   70.09   11.90
   7   2   3   72.09   12.40
   8  -2   3   99.69   10.70
  -8  -2  -3  113.39   13.00
   8  -2   3  102.99   11.40
   8   2   3  102.29   13.80
  -8   2  -3   81.79   15.10
  -8   2  -3  119.39   18.30
   8   2   3  119.39   15.00
  -9  -2  -3  290.27   24.70
   9  -2   3  286.37   22.20
  -9   2  -3  270.27   26.70
   9   2   3  271.87   24.70
   9   2   3  284.77   24.30
  -9   2  -3  264.37   29.50
   9  -3  -3   62.09    9.00
  -9  -3   3   59.69   12.40
   9  -3  -3   60.79    9.90
   9  -3  -3   66.69   11.00
   9   3  -3   41.20   12.40
  -9   3   3   46.90   16.30
  -8  -3   3  347.67   29.60
   8  -3  -3  396.46   26.70
   8  -3  -3  343.77   28.00
   8  -3  -3  347.57   27.30
  -8  -3   3  349.17   29.50
  -8   3   3  400.76   29.00
   8   3  -3  402.16   31.50
  -8   3   3  415.76   35.80
   7  -3  -3  655.13   42.10
   7  -3  -3  676.53   42.50
  -7  -3   3  605.04   44.10
   7  -3  -3  659.73   42.00
  -7  -3   3  690.73   43.50
  -7   3   3  678.83   48.50
  -7   3   3  640.04   43.10
   7   3  -3  530.95   44.20
   6  -3  -3  255.67   18.50
  -6  -3   3  255.77   20.90
  -6  -3   3  241.98   19.90
   6  -3  -3  247.38   18.20
  -6  -3   3  263.67   19.80
  -6   3   3  259.47   20.00
   6   3  -3  220.78   20.90
  -6   3   3  222.28   24.30
   5  -3  -3  193.48   13.80
   5  -3  -3  195.78   13.70
  -5  -3   3  201.58   14.50
  -5  -3   3  189.68   16.40
  -5  -3   3  196.08   15.00
   5   3  -3  157.88   14.70
  -5   3   3  161.48   15.10
   5   3  -3  175.78   15.80
  -5   3   3  151.38   18.10
  -4  -3   3  203.78   14.20
   4  -3  -3  198.28   13.70
  -4  -3   3  195.48   14.30
  -4  -3   3  193.88   15.50
   4  -3  -3  189.78   13.60
   4   3  -3  200.98   14.90
  -4   3   3  188.78   14.90
   4   3  -3  189.18   12.90
  -4   3   3  190.18   12.90
  -4   3   3  190.18   16.80
   4   3  -3  198.98   14.90
   3  -3  -3  555.04   34.70
  -3  -3   3  583.04   35.10
  -3  -3   3  544.05   34.90
  -3   3   3  462.85   35.70
  -3   3   3  578.14   34.00
   3   3  -3  600.64   36.00
  -3   3   3  579.44   35.10
   3   3  -3  591.54   35.30
   3   3  -3  573.64   34.10
  -3   3   3  577.34   35.70
  -2  -3   3  636.64   36.80
   2  -3  -3  638.24   37.70
  -2  -3   3  650.03   37.80
  -2  -3   3  648.04   37.90
   2  -3  -3  633.34   38.50
   2   3  -3  588.34   38.50
  -2   3   3  595.34   36.90
  -2   3   3  589.94   38.20
  -2   3   3  609.74   37.90
  -2   3   3  589.44   37.90
  -2   3   3  633.04   38.30
   2   3  -3  598.74   37.00
   1  -3  -3 1674.93   99.49
   1  -3  -3 1390.36  100.39
  -1  -3   3 1739.43   99.59
  -1  -3   3 1784.32   99.49
  -1   3   3 1758.92   99.39
  -1   3   3 1728.33   99.69
   1   3  -3 1754.62   99.39
   1   3  -3 1668.53  100.09
   1   3  -3 1635.34   98.89
  -1   3   3 1592.84   98.69
  -1   3   3 1613.94   99.59
   1   3  -3 1711.53   99.59
  -1   3   3 1672.23   99.79
   1   3  -3 1684.33   99.29
   0  -3   3  235.38   17.50
   0  -3  -3  251.47   16.30
   0  -3   3  276.87   17.30
   0  -3  -3  238.98   18.70
   0   3  -3  267.67   16.80
   0   3   3  276.37   17.30
   0   3  -3  277.07   17.30
   0   3  -3  232.78   16.40
   0   3   3  284.47   16.40
   0   3  -3  277.27   17.60
   0   3   3  277.17   17.20
   0   3  -3  270.97   16.60
   1  -3   3  736.63   45.50
   1  -3   3  729.33   45.30
  -1  -3  -3  753.72   45.10
  -1  -3  -3  740.53   45.60
   1  -3   3  680.23   46.80
  -1  -3  -3  699.23   48.00
  -1   3  -3  780.02   45.50
  -1   3  -3  757.52   46.30
   1   3   3  818.62   46.30
  -1   3  -3  804.12   45.80
  -1   3  -3  739.93   47.50
   1   3   3  774.92   45.80
  -1   3  -3  796.32   46.40
   1   3   3  781.52   46.00
  -2  -3  -3  451.25   26.50
   2  -3   3  450.05   25.70
   2  -3   3  434.36   26.20
  -2  -3  -3  451.85   25.50
   2  -3   3  443.16   27.70
  -2  -3  -3  412.06   29.00
   2   3   3  399.36   25.90
   2   3   3  406.26   26.60
  -2   3  -3  390.56   26.90
  -2   3  -3  388.06   26.40
  -2   3  -3  403.96   26.10
   2   3   3  402.06   26.20
   3  -3   3  197.78   12.70
  -3  -3  -3  186.48   14.20
   3  -3   3  190.78   13.70
   3  -3   3  197.08   14.80
  -3  -3  -3  179.08   16.40
   3   3   3  210.18   14.10
   3   3   3  182.48   13.30
  -3   3  -3  186.98   14.70
  -3   3  -3  186.98   13.30
  -3   3  -3  188.28   13.60
   3   3   3  200.48   12.80
  -4  -3  -3  682.93   45.40
   4  -3   3  657.43   43.30
   4  -3   3  738.23   44.00
  -4  -3  -3  635.64   43.70
   4  -3   3  724.53   42.40
  -4   3  -3  688.23   44.60
   4   3   3  716.13   43.70
   4   3   3  681.33   42.90
  -4   3  -3  684.13   42.80
   5  -3   3  351.76   22.70
   5  -3   3  316.77   23.30
  -5  -3  -3  370.86   25.90
  -5  -3  -3  314.97   24.10
   5  -3   3  382.66   23.40
   5   3   3  320.57   23.10
   5   3   3  334.27   24.30
  -5   3  -3  321.37   23.30
  -5   3  -3  277.87   25.10
   6  -3   3  413.36   28.90
  -6  -3  -3  491.05   31.20
  -6  -3  -3  435.26   29.90
   6  -3   3  473.35   28.50
  -6   3  -3  411.56   29.90
   6   3   3  399.96   29.50
   6   3   3  367.66   30.20
  -6   3  -3  350.86   31.90
  -7  -3  -3  156.18   16.10
   7  -3   3  147.39   12.80
   7  -3   3  133.59   13.70
  -7  -3  -3  158.98   17.30
   7   3   3  137.19   15.50
  -7   3  -3  120.29   15.60
   7   3   3  127.69   16.20
  -7   3  -3  120.49   18.70
  -8  -3  -3  221.48   19.50
  -8  -3  -3  213.78   19.80
   8  -3   3  207.98   15.90
   8  -3   3  210.78   16.90
   8   3   3  139.89   18.80
   8   3   3  139.09   19.70
  -8   3  -3  166.18   23.00
   8  -4  -3   53.59    9.60
   8  -4  -3   56.89   10.20
  -8  -4   3   49.80   11.80
  -8  -4   3   57.49   12.90
   8  -4  -3   54.99    9.30
  -8   4   3   33.70   16.80
   8   4  -3   29.50   12.90
  -8   4   3   59.09   12.00
   7  -4  -3  140.29   14.40
  -7  -4   3  136.49   16.60
  -7  -4   3  108.89   14.00
   7  -4  -3  136.69   13.60
   7  -4  -3  132.49   13.90
  -7   4   3  109.59   19.70
  -7   4   3  126.29   15.00
   7   4  -3  107.19   16.40
   6  -4  -3  329.37   24.10
   6  -4  -3  330.07   22.80
  -6  -4   3  347.97   24.30
  -6  -4   3  329.77   24.40
  -6  -4   3  328.57   26.10
   6  -4  -3  333.87   23.00
   6   4  -3  323.87   26.10
  -6   4   3  253.47   28.40
  -6   4   3  302.07   25.00
  -5  -4   3  187.28   15.00
   5  -4  -3  184.98   14.10
  -5  -4   3  182.48   18.00
   5  -4  -3  191.98   14.00
  -5  -4   3  188.48   15.10
  -5   4   3  160.38   18.70
   5   4  -3  181.38   16.50
  -5   4   3  171.38   16.30
   5   4  -3  155.68   15.80
   4  -4  -3 1046.80   64.59
  -4  -4   3 1038.00   64.79
   4  -4  -3 1022.60   64.39
  -4  -4   3 1074.59   64.99
  -4  -4   3 1031.00   66.49
   4   4  -3 1060.09   66.29
  -4   4   3 1065.59   66.19
   4   4  -3 1092.89   65.59
  -4   4   3 1138.59   67.09
  -3  -4   3  163.18   13.30
  -3  -4   3  158.08   13.10
   3  -4  -3  153.58   12.80
  -3  -4   3  148.99   14.90
  -3   4   3  210.88   14.50
   3   4  -3  203.48   15.00
   3   4  -3  201.38   13.70
  -3   4   3  206.08   13.90
  -3   4   3  224.68   15.20
   2  -4  -3  489.75   28.70
  -2  -4   3  495.75   27.10
  -2  -4   3  499.85   27.10
   2  -4  -3  482.45   27.00
  -2   4   3  384.86   26.90
  -2   4   3  388.56   26.90
  -2   4   3  394.56   27.60
   2   4  -3  345.07   26.60
  -2   4   3  400.36   27.10
   2   4  -3  376.66   26.00
   2   4  -3  421.26   28.20
  -1  -4   3   60.99    6.10
   1  -4  -3   54.19    7.70
  -1  -4   3   60.49    6.10
  -1  -4   3   58.39    6.00
   1  -4  -3   57.49    6.10
   1  -4  -3   58.19    4.60
   1   4  -3   44.30    5.20
  -1   4   3   50.29    6.00
   1   4  -3   48.20    5.50
  -1   4   3   43.40    5.30
  -1   4   3   54.59    6.40
  -1   4   3   50.49    5.70
   1   4  -3   48.20    6.50
   1   4  -3   44.30    4.70
   0  -4  -3  412.26   28.90
   0  -4  -3  432.86   25.50
   0  -4  -3  450.55   25.60
   0  -4   3  450.15   26.70
   0  -4   3  378.16   27.00
   0   4  -3  414.66   26.50
   0   4  -3  402.26   25.90
   0   4   3  417.86   26.60
   0   4  -3  393.46   25.60
   0   4  -3  415.86   27.20
   0   4   3  414.36   26.40
   0   4   3  418.16   26.50
   0   4  -3  393.96   25.80
   0   4  -3  376.86   27.60
   0   4   3  405.96   25.40
  -1  -4  -3  327.17   24.30
   1  -4   3  304.27   22.30
  -1  -4  -3  313.57   20.50
   1  -4   3  320.97   20.40
   1  -4   3  331.77   20.40
   1   4   3  344.17   21.60
  -1   4  -3  334.17   22.00
   1   4   3  307.57   21.00
  -1   4  -3  311.07   21.40
   1   4   3  339.57   21.20
  -1   4  -3  320.47   20.80
  -1   4  -3  321.77   20.50
  -2  -4  -3  728.43   42.30
   2  -4   3  701.73   44.00
   2  -4   3  700.43   42.10
  -2  -4  -3  706.73   45.90
   2  -4   3  720.53   41.70
  -2   4  -3  659.73   42.00
   2   4   3  665.53   42.30
  -2   4  -3  695.73   45.00
  -2   4  -3  667.13   43.10
   2   4   3  672.33   42.20
  -2   4  -3  660.83   43.00
   2   4   3  674.73   42.80
  -3  -4  -3  293.97   24.90
   3  -4   3  361.86   20.60
  -3  -4  -3  334.97   21.80
   3  -4   3  339.97   23.10
   3  -4   3  343.47   21.30
  -3   4  -3  297.27   22.40
   3   4   3  293.67   21.20
   3   4   3  303.67   21.80
  -3   4  -3  299.07   20.90
  -4  -4  -3  570.24   39.10
   4  -4   3  552.04   35.70
   4  -4   3  595.64   37.00
  -4  -4  -3  540.65   36.30
  -4   4  -3  558.74   37.40
  -4   4  -3  557.04   35.30
   4   4   3  543.35   36.40
   4   4   3  552.04   35.60
   5  -4   3  316.67   21.20
  -5  -4  -3  266.57   24.40
  -5  -4  -3  262.47   21.60
   5  -4   3  270.97   20.60
  -5   4  -3  276.07   20.20
   5   4   3  269.47   21.50
  -5   4  -3  271.27   23.40
   5   4   3  280.17   20.50
   6  -4   3    8.60    5.20
   6  -4   3    6.40    5.40
  -6  -4  -3   20.10    8.00
  -6  -4  -3   13.20    9.30
   6   4   3   12.40    7.50
  -6   4  -3   18.00    7.40
  -6   4  -3   17.00   10.50
   6   4   3   15.50    6.80
   7  -4   3  160.78   15.40
  -7  -4  -3  159.98   17.80
   7  -4   3  160.78   14.10
  -7  -4  -3  184.28   18.90
  -7   4  -3  116.29   19.60
  -7   4  -3  133.29   16.10
   7   4   3  142.09   16.70
   7   4   3  140.89   18.50
   8  -4   3   52.89    8.20
  -8  -4  -3   55.29   12.30
  -8  -4  -3   61.79   11.80
   8  -4   3   54.09    9.60
   8   4   3   45.70   14.40
  -8   4  -3   23.60   18.90
  -7  -5   3  131.29   15.10
   7  -5  -3  136.49   15.20
  -7  -5   3  126.09   17.20
   7  -5  -3  144.49   14.50
   7  -5  -3  138.09   14.20
  -7   5   3   97.69   14.90
   7   5  -3   86.99   16.40
  -7   5   3   66.09   17.90
   6  -5  -3   30.30    6.70
  -6  -5   3   26.20   10.50
   6  -5  -3   40.10    8.60
   6  -5  -3   27.90    6.70
  -6  -5   3   36.40    8.60
  -6   5   3   32.90   12.00
  -6   5   3   15.90    8.90
   6   5  -3   33.80    9.80
   5  -5  -3  101.19   10.80
  -5  -5   3   81.19   13.20
   5  -5  -3   91.89   10.30
  -5  -5   3   96.99   10.90
  -5   5   3  126.19   14.60
   5   5  -3  100.89   12.70
  -5   5   3  101.09   13.20
   5   5  -3  105.69   12.30
   4  -5  -3   62.99    7.30
   4  -5  -3   55.89    6.80
  -4  -5   3   56.29   10.50
  -4  -5   3   51.79    7.40
  -4   5   3   41.00    8.60
   4   5  -3   40.60    8.60
   4   5  -3   50.49    7.70
  -3  -5   3  479.15   33.30
  -3  -5   3  498.65   30.90
  -3  -5   3  491.25   30.60
   3  -5  -3  479.95   30.40
   3   5  -3  462.15   32.70
  -3   5   3  483.15   32.50
  -3   5   3  454.45   31.20
  -3   5   3  460.55   30.80
  -3   5   3  473.45   31.10
   3   5  -3  462.55   31.00
  -2  -5   3  299.37   21.50
  -2  -5   3  279.17   18.70
   2  -5  -3  278.87   18.80
  -2  -5   3  300.67   18.90
   2   5  -3  267.17   18.90
   2   5  -3  260.77   20.90
  -2   5   3  251.37   18.80
  -2   5   3  271.97   19.20
  -2   5   3  259.07   20.20
  -2   5   3  245.98   18.50
   1  -5  -3  701.23   42.70
   1  -5  -3  570.04   44.70
  -1  -5   3  701.73   42.70
  -1  -5   3  734.23   42.50
   1   5  -3  683.93   42.20
  -1   5   3  668.83   42.90
   1   5  -3  682.73   42.40
   1   5  -3  661.23   44.30
  -1   5   3  692.73   42.90
   1   5  -3  691.53   42.50
  -1   5   3  711.73   43.70
   0  -5  -3  198.58   20.20
   0  -5   3  256.07   17.80
   0  -5   3  215.88   18.00
   0   5  -3  242.08   16.90
   0   5  -3  274.87   19.40
   0   5   3  254.77   17.50
   0   5  -3  234.58   19.20
   0   5  -3  251.67   16.60
   0   5   3  266.87   18.30
   0   5  -3  256.27   16.90
   0   5   3  245.28   17.80
   1  -5   3  997.90   56.89
   1  -5   3  970.60   55.59
  -1  -5  -3  922.51   59.89
   1  -5   3 1012.40   55.69
  -1  -5  -3  981.10   55.59
   1  -5   3  863.91   57.49
  -1   5  -3  902.71   55.79
   1   5   3  916.81   56.29
  -1   5  -3  858.21   55.59
   1   5   3  933.11   56.69
   1   5   3  842.02   56.49
  -1   5  -3  798.52   58.29
  -1   5  -3  874.01   57.69
  -1   5  -3  899.91   56.59
   2  -5   3   69.49    7.40
  -2  -5  -3   84.59   12.60
   2  -5   3   76.79    9.80
  -2  -5  -3   73.09    7.80
  -2   5  -3   69.89    9.20
   2   5   3   68.79    7.60
   2   5   3   63.89    8.20
  -2   5  -3   80.89    9.30
  -3  -5  -3  127.69   11.60
   3  -5   3  134.69   11.00
   3  -5   3  137.29   13.20
  -3  -5  -3  123.69   15.80
   3   5   3  110.79   12.00
  -3   5  -3  115.89   12.50
  -4  -5  -3   53.09    8.40
  -4  -5  -3   65.59   12.80
   4  -5   3   68.79    9.60
   4  -5   3   68.89    8.00
  -4   5  -3   48.20    6.90
   4   5   3   68.39    9.20
  -4   5  -3   70.99   10.20
  -5  -5  -3   70.99   13.40
   5  -5   3   94.69   11.10
   5  -5   3   78.89    9.80
  -5  -5  -3   78.29   10.90
  -5   5  -3   78.69   12.60
  -5   5  -3   68.69    9.10
   5   5   3   65.29   10.80
  -6  -5  -3  402.56   32.40
  -6  -5  -3  511.15   36.20
   6  -5   3  490.85   31.50
   6  -5   3  414.06   31.30
   6   5   3  443.26   33.90
  -6   5  -3  406.16   35.30
   7  -5   3  112.39   13.60
   7  -5   3  130.09   13.60
  -7  -5  -3  121.59   15.10
  -7  -5  -3  114.89   16.60
  -7   5  -3  114.99   19.40
   7   5   3  135.49   18.50
   6  -6  -3   36.10    7.50
   6  -6  -3   34.90    7.80
  -6  -6   3   43.90   12.80
  -6  -6   3   32.10    9.30
   6  -6  -3   25.50    8.30
  -6   6   3   22.20   10.10
  -6   6   3   43.50   12.80
   6   6  -3   40.80   10.60
   5  -6  -3   98.19   10.50
   5  -6  -3  112.19   13.50
   5  -6  -3   77.69    9.50
  -5  -6   3   86.49   15.00
  -5  -6   3   84.59   10.90
   5   6  -3   73.99   11.10
  -5   6   3   69.59   12.70
  -5   6   3   80.19   12.50
   4  -6  -3  517.55   34.00
  -4  -6   3  530.65   38.70
   4  -6  -3  577.94   34.80
  -4  -6   3  533.15   34.90
   4   6  -3  494.35   35.30
   4   6  -3  517.85   37.70
  -4   6   3  482.55   37.30
   3  -6  -3  312.97   21.80
  -3  -6   3  299.37   25.50
   3  -6  -3  309.77   21.60
  -3  -6   3  306.77   21.90
  -3   6   3  320.57   24.70
  -3   6   3  325.97   22.60
  -3   6   3  323.87   22.20
   3   6  -3  234.78   21.10
   3   6  -3  322.87   25.10
  -2  -6   3   48.50   10.10
   2  -6  -3   64.49    8.00
  -2  -6   3   59.39    7.70
  -2   6   3   69.69   10.50
  -2   6   3   61.49    8.20
   2   6  -3   55.59   10.10
  -2   6   3   60.29    8.20
   2   6  -3   63.59    8.00
  -1  -6   3   19.00    7.60
  -1  -6   3   23.20    5.40
   1  -6  -3   23.40    5.90
  -1  -6   3   21.10    5.40
  -1   6   3   17.90    5.50
   1   6  -3   15.40    5.20
  -1   6   3   19.20    5.90
   1   6  -3   20.10    7.80
   0  -6  -3  102.29   15.00
   0  -6   3   98.99   11.30
   0  -6   3  128.19   14.40
   0  -6   3  143.59   12.40
   0   6  -3  128.39   14.80
   0   6   3  125.89   11.80
   0   6   3  133.19   12.60
   0   6  -3  124.19   11.00
   0   6  -3  113.49   11.60
  -1  -6  -3  191.48   20.50
   1  -6   3  197.48   15.80
   1  -6   3  158.28   16.10
   1   6   3  209.78   16.40
   1   6   3  191.48   15.30
  -1   6  -3  189.78   18.50
  -1   6  -3  192.58   15.40
  -2  -6  -3  402.26   34.70
   2  -6   3  406.96   29.70
   2  -6   3  472.95   28.90
   2  -6   3  421.26   31.10
  -2   6  -3  464.95   30.20
  -2   6  -3  437.56   28.80
   2   6   3  456.65   30.40
   3  -6   3   59.29    7.50
   3  -6   3   63.19   10.00
  -3  -6  -3   52.79   12.90
  -3  -6  -3   57.59    8.10
   3   6   3   44.50    7.30
  -3   6  -3   50.09    7.90
  -3   6  -3   53.09    9.00
   3   6   3   52.39    8.80
  -4  -6  -3   47.80    8.60
   4  -6   3   50.69    9.30
   4  -6   3   52.09    7.80
  -4  -6  -3   42.80   13.30
   4   6   3   51.09    9.60
  -4   6  -3   47.30    9.70
   5  -6   3  278.37   22.80
  -5  -6  -3  279.27   24.30
  -5  -6  -3  311.47   28.70
   5  -6   3  312.57   24.00
  -5   6  -3  293.37   26.20
   5   6   3  336.27   25.80
   4  -7  -3    3.60    5.60
   4  -7  -3    3.00    5.80
  -4  -7   3    1.80   10.60
   4  -7  -3    9.30    7.10
  -4  -7   3    4.20    6.60
   4   7  -3    1.20    8.00
  -4   7   3    9.20    8.80
   4   7  -3    2.80    7.30
  -3  -7   3  223.58   25.40
  -3  -7   3  251.77   19.90
   3  -7  -3  255.27   19.70
   3  -7  -3  242.08   19.60
   3   7  -3  252.67   24.80
  -3   7   3  253.37   23.80
  -3   7   3  256.57   20.30
  -2  -7   3  168.18   19.20
   2  -7  -3  160.28   15.00
  -2  -7   3  164.38   15.20
   2   7  -3  180.18   20.00
  -2   7   3  139.89   17.40
  -2   7   3  123.69   14.80
  -2   7   3  176.68   15.70
  -1  -7   3    9.80    5.70
  -1  -7   3   12.30    9.30
   1  -7  -3   12.70    6.60
  -1   7   3   31.80    7.50
  -1   7   3   20.40    6.50
   1   7  -3   24.50    9.80
   0  -7  -3  242.18   18.80
   0  -7   3  232.68   17.40
   0  -7   3  218.58   21.50
   0   7   3  183.18   17.30
   0   7   3  215.38   18.70
   0   7  -3  210.18   22.50
  -1  -7  -3  226.88   24.90
   1   7   3  256.37   20.50
  -2  -7  -3    1.20   10.40
   2  -7   3    1.20    5.40
   2   7   3   -0.40    6.30
  -2   7  -3    6.10    6.20
   3  -7   3   49.20    8.60
   3  -7   3   40.20    9.40
  -3  -7  -3   47.10   13.30
   3   7   3   44.00    9.20
  -3   7  -3   44.10    9.30
   4  -7   3   -3.10    6.90
  -4  -7  -3   -0.30   15.40
   4   7   3    1.10    7.40
  -4   7  -3    5.90    8.00
  10   0  -4  285.97   24.80
 -10   0   4  276.27   28.10
 -10   0   4  300.47   26.00
  -9   0   4   53.59   10.00
   9   0  -4   51.99    8.00
   9   0  -4   54.09    9.50
  -9   0   4   45.50   12.90
   8   0  -4   39.60    8.00
  -8   0   4   43.30   11.30
  -8   0   4   54.39    8.90
  -7   0   4   36.50    7.30
   7   0  -4   39.70    7.40
  -7   0   4   40.60    9.80
  -6   0   4  139.89   15.50
   6   0  -4  142.09   12.30
   6   0  -4  151.28   13.30
   6   0  -4  150.98   10.80
   6   0  -4  122.89   11.20
  -6   0   4  154.28   11.60
   5   0  -4 1300.37   83.19
   5   0  -4 1355.06   82.29
  -5   0   4 1421.46   81.69
  -5   0   4 1311.27   84.49
   5   0  -4 1324.77   82.79
  -5   0   4 1451.25   81.79
   4   0  -4 3651.73  217.58
  -4   0   4 3859.01  218.98
   4   0  -4 3755.62  216.98
  -4   0   4 3702.13  216.38
  -4   0   4 3565.14  217.08
  -4   0   4 3624.84  216.48
   4   0  -4 3856.71  216.48
   4   0  -4 3344.57  217.88
   3   0  -4   32.50    3.10
  -3   0   4   28.70    4.40
   3   0  -4   34.80    4.30
  -3   0   4   31.80    3.50
  -3   0   4   29.80    3.10
   3   0  -4   30.70    2.90
   3   0  -4   29.00    4.10
  -2   0   4  144.49   10.30
   2   0  -4  158.58   10.10
  -2   0   4  147.19    9.70
  -2   0   4  158.98    9.60
   2   0  -4  157.98    9.60
   2   0  -4  158.98   10.50
   2   0  -4  151.48    9.60
   1   0  -4 2104.39  121.09
   1   0  -4 2071.39  120.99
   1   0  -4 2102.89  120.89
  -1   0   4 1994.30  120.99
   1   0  -4 2038.30  121.49
  -1   0   4 2023.70  121.09
   0   0  -4 1038.30   59.49
   0   0  -4 1011.90   59.59
   0   0   4 1017.20   59.29
   0   0   4  988.30   59.49
   0   0   4  987.70   59.39
   0   0  -4 1019.30   59.39
   0   0   4  974.60   59.49
   1   0   4 4629.24  275.37
   1   0   4 4632.74  275.17
  -1   0  -4 4568.94  275.67
   1   0   4 4771.82  275.47
  -1   0  -4 4758.92  275.47
  -1   0  -4 4742.13  275.37
  -2   0  -4  435.06   29.30
   2   0   4  477.45   29.00
   2   0   4  479.65   28.80
  -2   0  -4  494.05   29.20
   2   0   4  482.65   29.30
  -2   0  -4  480.75   29.20
   3   0   4  271.47   17.80
  -3   0  -4  267.37   18.30
   3   0   4  278.77   17.90
   3   0   4  254.87   18.20
  -3   0  -4  293.17   18.60
  -4   0  -4  618.84   40.80
  -4   0  -4  726.13   41.70
  -4   0  -4  616.64   40.60
   4   0   4  666.13   40.60
   4   0   4  611.54   40.80
  -5   0  -4 1007.80   59.49
  -5   0  -4  997.00   58.99
   5   0   4  825.42   57.89
   5   0   4 1039.80   59.49
   5   0   4  954.90   58.99
  -5   0  -4  894.11   60.09
  -6   0  -4   -7.60    6.70
   6   0   4   -0.70    3.40
   6   0   4   -0.30    4.40
  -6   0  -4   -3.30    5.40
  -6   0  -4    0.70    7.10
   6   0   4   -1.00    4.30
  -7   0  -4   52.19   10.50
   7   0   4   52.59    8.60
   7   0   4   43.80    8.20
  -7   0  -4   41.30   11.00
   7   0   4   46.40    6.80
  -8   0  -4   13.70   10.80
   8   0   4   14.90    6.90
   8   0   4   18.60    7.00
  -8   0  -4   19.00    9.90
  -9   0  -4   33.30   11.50
   9   0   4   45.10    9.00
   9   0   4   36.30    8.50
   9  -1  -4  298.57   24.00
   9  -1  -4  298.37   22.60
  -9  -1   4  321.37   25.10
  -9  -1   4  315.47   28.50
   9   1  -4  298.67   24.40
  -9   1   4  321.27   29.30
  -8  -1   4  262.57   22.00
   8  -1  -4  237.58   21.20
  -8  -1   4  243.68   24.60
   8  -1  -4  261.07   20.30
  -8   1   4  312.57   22.00
   8   1  -4  281.07   22.20
  -8   1   4  302.47   26.20
   7  -1  -4  180.98   14.90
  -7  -1   4  168.78   18.20
   7  -1  -4  176.28   16.00
  -7  -1   4  191.58   16.70
   7  -1  -4  194.68   14.00
  -7   1   4  168.38   19.40
   7   1  -4  178.98   14.60
   7   1  -4  186.58   16.70
  -7   1   4  149.09   14.70
  -7   1   4  180.48   16.20
  -6  -1   4  441.06   38.40
  -6  -1   4  493.95   36.60
  -6  -1   4  454.55   37.00
  -6   1   4  653.93   37.30
   6   1  -4  657.63   38.70
  -6   1   4  641.84   40.70
  -6   1   4  616.94   37.00
   6   1  -4  608.04   38.50
   6   1  -4  661.83   37.00
   5  -1  -4 1678.83  104.59
  -5  -1   4 1716.93  104.89
  -5  -1   4 1683.33  106.29
   5  -1  -4 1669.03  104.49
   5  -1  -4 1658.93  105.19
  -5  -1   4 1643.14  104.79
   5   1  -4 1904.11  104.99
   5   1  -4 1736.53  104.79
  -5   1   4 1846.32  108.09
   5   1  -4 1894.61  106.49
   5   1  -4 1796.22  106.79
  -5   1   4 1834.42  105.09
  -5   1   4 1714.13  104.79
  -4  -1   4  167.28   12.80
   4  -1  -4  179.68   12.90
   4  -1  -4  168.58   12.30
   4  -1  -4  185.68   12.70
  -4  -1   4  173.68   13.70
  -4  -1   4  169.48   12.70
  -4  -1   4  176.38   11.80
   4   1  -4  199.28   14.70
   4   1  -4  200.18   13.00
   4   1  -4  204.38   12.80
   4   1  -4  196.08   14.90
  -4   1   4  181.58   13.10
  -4   1   4  203.28   12.90
  -4   1   4  217.98   16.70
  -3  -1   4  987.20   59.49
  -3  -1   4  947.21   58.19
   3  -1  -4 1016.00   58.99
   3  -1  -4  957.60   58.89
   3  -1  -4  939.61   58.69
  -3  -1   4  953.70   58.89
  -3   1   4 1150.68   59.29
  -3   1   4 1083.19   62.09
   3   1  -4 1032.30   61.19
   3   1  -4 1122.39   59.19
   3   1  -4  835.92   58.79
  -3   1   4  836.62   58.89
  -2  -1   4  448.26   26.60
   2  -1  -4  429.26   26.50
   2  -1  -4  415.86   27.10
  -2  -1   4  426.76   27.00
  -2  -1   4  434.46   27.40
  -2   1   4  459.75   27.20
   2   1  -4  481.65   29.20
  -2   1   4  472.85   27.20
   2   1  -4  469.35   27.30
  -1  -1   4 1069.49   61.29
   1  -1  -4 1079.79   60.89
   1  -1  -4 1069.39   60.99
  -1  -1   4 1076.29   60.69
  -1   1   4  972.70   60.99
  -1   1   4  998.00   60.99
   1   1  -4  975.10   61.09
   1   1  -4 1010.50   60.99
   1   1  -4 1009.30   60.89
  -1   1   4  986.20   61.89
   1   1  -4 1042.70   62.59
  -1   1   4 1042.40   61.19
   0  -1  -4 8983.60  521.95
   0  -1  -4 8842.12  522.35
   0  -1   4 8431.46  522.15
   0  -1   4 8913.61  522.95
   0  -1   4 8095.09  522.55
   0   1   4 9409.56  521.95
   0   1  -4 8900.81  522.65
   0   1  -4 8458.95  522.95
   0   1   4 9120.69  522.05
   0   1  -4 9000.50  521.95
   0   1  -4 9118.89  522.25
   0   1   4 9374.06  522.05
   1  -1   4  701.53   36.80
  -1  -1  -4  636.24   37.30
  -1  -1  -4  603.84   36.60
   1  -1   4  563.14   36.70
  -1   1  -4  607.84   36.50
   1   1   4  616.04   36.30
  -1   1  -4  509.15   36.60
   1   1   4  591.04   36.30
   1   1   4  602.74   36.40
  -1   1  -4  628.24   36.70
  -1   1  -4  614.64   36.30
   2  -1   4   56.19    4.60
   2  -1   4   63.49    5.50
  -2  -1  -4   54.99    6.20
   2  -1   4   65.79    5.10
  -2  -1  -4   50.59    5.20
  -2   1  -4   44.50    4.30
  -2   1  -4   38.30    4.20
  -2   1  -4   43.40    4.80
   2   1   4   40.70    4.10
   2   1   4   46.30    4.20
   2   1   4   35.50    3.80
  -3  -1  -4  115.49   10.70
   3  -1   4  110.29    9.30
  -3  -1  -4  118.09   10.10
  -3  -1  -4  126.99    9.70
   3  -1   4  135.39   10.10
   3  -1   4  133.99    9.50
  -3   1  -4  118.29    9.20
   3   1   4  121.49    9.10
   3   1   4  121.99    8.70
  -3   1  -4  121.69   10.10
   3   1   4  125.09    9.30
  -3   1  -4  119.09    9.20
  -4  -1  -4  106.59   10.10
   4  -1   4  103.29    9.00
  -4  -1  -4   99.29    9.70
   4  -1   4   97.89    8.30
  -4  -1  -4   86.29    9.30
   4  -1   4  103.59    8.50
   4   1   4   86.89    8.30
  -4   1  -4   81.69    9.80
  -4   1  -4   87.49    9.20
  -4   1  -4   63.39    8.00
   4   1   4   78.89    7.40
   4   1   4   82.19    8.50
   5  -1   4  345.67   22.50
  -5  -1  -4  367.16   23.50
  -5  -1  -4  340.67   24.10
   5  -1   4  374.66   22.80
   5  -1   4  379.06   23.20
   5   1   4  308.07   21.90
   5   1   4  302.37   23.10
  -5   1  -4  314.97   25.00
   5   1   4  301.47   23.30
  -5   1  -4  285.97   23.60
  -6  -1  -4  877.51   52.89
  -6  -1  -4  893.31   53.09
   6  -1   4  829.72   51.89
   6  -1   4  861.21   52.49
  -6  -1  -4  884.81   54.39
   6  -1   4  911.91   52.89
   6   1   4  752.52   53.29
  -6   1  -4  674.93   54.59
   7  -1   4  143.69   13.70
  -7  -1  -4  148.99   18.60
   7  -1   4  130.89   12.30
  -7  -1  -4  159.18   16.40
   7  -1   4  141.69   13.40
   7   1   4  163.48   15.90
  -7   1  -4  147.89   16.70
   7   1   4  133.19   15.00
  -7   1  -4  128.59   17.30
  -8  -1  -4   80.79   12.20
   8  -1   4   79.59   10.10
   8  -1   4   81.19   10.30
  -8   1  -4   86.89   14.10
   8   1   4   73.79   11.40
  -8   1  -4   65.09   15.00
   8   1   4   74.49   11.60
   9  -1   4   99.89   11.80
  -9  -1  -4  115.39   14.30
  -9   1  -4   78.19   16.90
   9   1   4   96.49   12.80
   9   1   4   89.19   13.00
  -9   1  -4   96.69   15.50
   9  -2  -4  148.29   15.00
  -9  -2   4  128.39   15.70
   9  -2  -4  146.69   16.20
  -9  -2   4  131.59   18.00
   9   2  -4  153.48   17.90
  -9   2   4  168.88   21.20
  -8  -2   4   45.80   10.20
   8  -2  -4   38.10    7.80
  -8  -2   4   31.10   10.70
   8  -2  -4   38.10    8.50
  -8   2   4   38.50    8.80
  -8   2   4   53.19   14.00
   8   2  -4   45.30   10.30
   7  -2  -4    2.50    4.60
  -7  -2   4    4.80    7.60
   7  -2  -4    4.20    4.10
   7  -2  -4    3.30    5.70
  -7  -2   4    7.00    7.10
   7   2  -4   -2.20    6.60
  -7   2   4    1.70    9.60
  -7   2   4    0.40    5.70
  -6  -2   4  109.39   11.90
  -6  -2   4  127.69   13.40
   6  -2  -4  109.89   11.30
  -6  -2   4  120.09   12.20
   6  -2  -4  110.89   10.20
   6   2  -4  128.69   13.90
  -6   2   4  138.89   17.10
  -6   2   4   74.49   10.40
  -6   2   4  125.89   11.70
   5  -2  -4  516.55   32.10
  -5  -2   4  531.45   32.60
  -5  -2   4  528.65   33.50
   5  -2  -4  548.15   31.90
   5  -2  -4  545.85   32.50
   5   2  -4  421.26   33.80
   5   2  -4  507.65   32.80
  -5   2   4  513.75   36.60
   5   2  -4  503.15   32.00
  -5   2   4  446.46   32.00
  -5   2   4  533.55   33.00
   4  -2  -4 1351.66   79.09
  -4  -2   4 1372.26   79.79
  -4  -2   4 1308.47   79.09
   4  -2  -4 1305.87   78.89
  -4  -2   4 1310.67   79.79
   4  -2  -4 1384.26   78.79
   4   2  -4 1400.26   82.79
  -4   2   4 1270.77   79.49
  -4   2   4 1310.17   78.59
   4   2  -4 1211.98   80.29
   4   2  -4 1320.67   78.49
   4   2  -4 1282.67   79.59
   3  -2  -4  490.85   33.70
  -3  -2   4  501.75   33.80
  -3  -2   4  493.35   34.20
  -3   2   4  600.74   34.20
   3   2  -4  578.44   34.40
  -3   2   4  590.24   34.30
   3   2  -4  587.54   33.10
   3   2  -4  612.74   34.70
  -3   2   4  589.54   33.10
   3   2  -4  565.94   37.40
  -3   2   4  477.85   35.90
   2  -2  -4 1100.79   64.59
  -2  -2   4 1087.29   64.59
  -2  -2   4 1107.99   64.89
   2  -2  -4 1074.99   64.09
  -2  -2   4 1114.49   63.69
   2   2  -4  915.21   67.19
  -2   2   4 1102.99   64.89
  -2   2   4 1066.39   63.69
   2   2  -4 1060.89   64.99
   2   2  -4 1126.69   64.69
  -2   2   4 1094.79   65.79
  -2   2   4 1123.59   64.79
  -2   2   4 1072.39   64.89
  -1  -2   4 1849.21  109.69
   1  -2  -4 1766.02  109.49
   1  -2  -4 1862.11  109.89
  -1  -2   4 1884.31  108.99
   1  -2  -4 1873.81  108.69
   1   2  -4 1896.31  109.19
   1   2  -4 1803.92  109.79
  -1   2   4 1829.22  109.69
  -1   2   4 1775.12  109.59
   1   2  -4 1836.02  109.69
   1   2  -4 1840.62  109.39
  -1   2   4 1851.01  109.59
  -1   2   4 1965.10  109.59
   0  -2  -4  130.39   11.10
   0  -2   4  150.38   10.40
   0  -2  -4  159.18    9.90
   0  -2   4  149.88   10.10
   0  -2   4  151.48    9.80
   0   2  -4  162.68   10.40
   0   2  -4  154.28   10.50
   0   2  -4  153.58   12.00
   0   2  -4  150.38    9.50
   0   2   4  152.88   10.20
   0   2   4  157.88   10.10
   0   2  -4  153.68   10.10
   0   2   4  160.08   10.40
   1  -2   4 2252.77  128.79
  -1  -2  -4 2096.29  128.89
   1  -2   4 2003.60  128.99
   1  -2   4 2293.97  127.89
   1   2   4 2168.58  128.59
   1   2   4 2154.88  128.39
  -1   2  -4 2191.58  128.49
   1   2   4 2212.98  128.79
  -1   2  -4 2171.98  128.99
  -2  -2  -4  483.45   35.40
   2  -2   4  498.35   35.40
   2  -2   4  611.24   34.30
   2  -2   4  551.14   35.50
  -2  -2  -4  543.55   36.70
  -2  -2  -4  545.75   34.40
  -2   2  -4  592.04   35.50
   2   2   4  594.94   34.90
  -2   2  -4  597.64   35.00
   2   2   4  598.94   35.10
   2   2   4  609.84   34.60
  -2   2  -4  594.74   34.80
   3  -2   4  391.66   27.10
   3  -2   4  396.56   26.30
  -3  -2  -4  391.76   27.50
  -3  -2  -4  405.06   28.50
  -3  -2  -4  398.26   26.60
   3  -2   4  366.96   27.20
  -3   2  -4  462.25   26.60
   3   2   4  455.95   26.60
   3   2   4  452.05   26.10
   3   2   4  457.05   27.00
  -3   2  -4  454.45   27.70
  -3   2  -4  408.46   26.50
   4  -2   4  617.34   37.80
   4  -2   4  553.74   37.20
  -4  -2  -4  620.94   38.40
  -4  -2  -4  632.34   39.20
   4  -2   4  646.34   38.30
  -4  -2  -4  653.23   38.10
   4   2   4  607.24   37.90
  -4   2  -4  524.15   37.00
  -4   2  -4  581.74   37.30
  -4   2  -4  575.64   38.70
   4   2   4  575.64   36.60
   4   2   4  592.44   37.50
   5  -2   4 1099.39   66.29
   5  -2   4 1111.49   65.69
   5  -2   4 1086.89   65.79
  -5  -2  -4 1105.49   66.39
  -5  -2  -4 1142.09   67.19
  -5   2  -4  983.40   67.69
   5   2   4 1052.39   66.69
  -5   2  -4 1032.10   66.19
   5   2   4 1040.50   66.29
  -6  -2  -4   51.29    8.80
   6  -2   4   45.80    6.40
   6  -2   4   37.20    6.10
   6  -2   4   41.60    6.60
  -6  -2  -4   47.10    7.90
   6   2   4   19.00    6.90
  -6   2  -4   13.90    8.10
   6   2   4   16.10    7.00
  -6   2  -4   16.90    9.30
   7  -2   4   35.90    6.30
   7  -2   4   36.00    6.80
  -7  -2  -4   12.00    6.40
  -7  -2  -4   33.50    8.20
   7   2   4   32.20    8.80
  -7   2  -4   22.10   10.40
   8  -2   4   19.30    5.60
  -8  -2  -4   31.00    9.20
   8  -2   4   31.40    7.20
   8   2   4   16.00    8.70
   8   2   4   25.90    9.40
  -8   2  -4   17.00   13.00
  -8   2  -4   10.00   11.70
   9  -3  -4  192.68   16.50
   9  -3  -4  186.38   18.00
   9  -3  -4  172.88   18.40
  -9  -3   4  201.58   21.30
   9   3  -4  176.08   20.90
  -9   3   4  164.38   23.80
  -8  -3   4  185.28   20.70
   8  -3  -4  174.28   16.80
   8  -3  -4  189.28   17.80
  -8  -3   4  165.88   20.90
   8  -3  -4  179.68   18.50
  -8   3   4  284.37   28.70
  -8   3   4  231.78   19.80
   8   3  -4  237.48   22.80
   7  -3  -4  211.38   16.80
   7  -3  -4  201.58   16.90
  -7  -3   4  207.48   19.10
  -7  -3   4  200.58   20.20
   7   3  -4  173.58   20.10
  -7   3   4  205.78   25.50
  -7   3   4  200.98   18.50
   6  -3  -4  344.37   22.20
  -6  -3   4  324.77   23.70
   6  -3  -4  351.36   21.90
  -6  -3   4  347.47   23.20
  -6  -3   4  349.57   24.20
  -6   3   4  287.87   23.10
   6   3  -4  284.77   22.60
   6   3  -4  243.98   24.00
  -6   3   4  253.07   27.30
  -5  -3   4  607.44   37.70
  -5  -3   4  619.14   38.40
   5  -3  -4  597.74   36.50
  -5  -3   4  593.24   37.00
   5  -3  -4  596.44   36.60
   5   3  -4  556.84   37.70
  -5   3   4  580.64   37.80
   5   3  -4  607.44   38.80
  -5   3   4  457.25   40.20
   4  -3  -4  312.07   19.70
  -4  -3   4  301.37   20.00
   4  -3  -4  306.27   19.60
  -4  -3   4  303.97   21.30
  -4  -3   4  304.07   20.30
  -4   3   4  275.07   20.50
   4   3  -4  298.57   20.70
  -4   3   4  268.67   22.50
   4   3  -4  293.47   20.60
  -3  -3   4  233.88   16.80
  -3  -3   4  235.88   16.60
   3  -3  -4  227.18   16.40
   3   3  -4  247.38   15.50
  -3   3   4  273.27   15.80
   3   3  -4  262.97   17.50
  -3   3   4  246.28   18.00
  -3   3   4  270.97   17.00
  -3   3   4  256.47   17.20
  -2  -3   4  749.23   43.60
   2  -3  -4  756.32   44.60
   2  -3  -4  814.32   45.20
  -2  -3   4  788.22   44.70
  -2  -3   4  769.22   44.90
  -2   3   4  733.13   44.90
  -2   3   4  672.03   43.60
   2   3  -4  689.13   43.70
  -2   3   4  686.63   44.80
  -2   3   4  715.73   45.00
  -2   3   4  762.02   45.20
   2   3  -4  726.03   45.30
   2   3  -4  703.63   44.50
  -1  -3   4 1588.04   90.19
   1  -3  -4 1538.65   90.59
   1  -3  -4 1451.85   89.59
   1  -3  -4 1365.36   91.59
  -1  -3   4 1508.65   90.69
  -1   3   4 1502.35   90.69
  -1   3   4 1574.64   90.69
   1   3  -4 1431.26   90.99
  -1   3   4 1547.25   90.79
   1   3  -4 1488.95   89.79
   1   3  -4 1578.84   90.19
   1   3  -4 1538.85   90.39
   1   3  -4 1548.15   90.69
  -1   3   4 1590.14   90.29
   0  -3   4 2284.07  135.19
   0  -3  -4 2318.47  134.19
   0  -3   4 2382.96  135.19
   0  -3   4 2253.47  134.19
   0   3  -4 2254.27  135.29
   0   3   4 2380.56  133.99
   0   3  -4 2265.67  135.09
   0   3   4 2260.37  135.09
   0   3   4 2304.77  134.99
   0   3   4 2057.09  134.69
   0   3  -4 2231.38  134.29
   0   3  -4 2289.67  134.69
   1  -3   4  401.86   24.50
   1  -3   4  356.26   26.00
   1  -3   4  411.96   25.00
  -1  -3  -4  345.27   27.40
  -1  -3  -4  401.36   25.10
  -1   3  -4  425.06   25.20
  -1   3  -4  411.36   24.60
  -1   3  -4  417.46   25.90
   1   3   4  416.66   25.20
   1   3   4  417.76   25.40
   1   3   4  417.96   25.70
   2  -3   4  622.24   36.30
  -2  -3  -4  543.95   39.60
  -2  -3  -4  607.64   37.50
   2  -3   4  548.85   38.10
   2  -3   4  586.34   37.20
   2   3   4  610.24   37.20
   2   3   4  599.24   37.50
  -2   3  -4  609.84   37.90
  -2   3  -4  606.44   37.00
  -2   3  -4  633.04   37.60
   2   3   4  649.74   36.90
   3  -3   4  135.69   11.50
   3  -3   4  117.69   10.60
  -3  -3  -4  122.79   11.40
   3  -3   4  130.19    9.40
  -3  -3  -4  123.69   13.70
  -3   3  -4  134.59   10.30
   3   3   4  146.89    9.80
  -3   3  -4  132.19   11.50
   3   3   4  139.19   10.80
  -3   3  -4  129.19   10.70
   3   3   4  145.09   10.50
   4  -3   4   27.60    5.80
  -4  -3  -4   28.90    6.60
   4  -3   4   50.09    6.70
   4  -3   4   41.50    5.20
  -4  -3  -4   41.40    8.60
   4   3   4   48.30    6.10
  -4   3  -4   42.80    6.00
   4   3   4   39.50    6.20
  -4   3  -4   39.30    7.20
   5  -3   4  302.67   20.10
   5  -3   4  264.17   20.20
  -5  -3  -4  320.27   23.00
  -5  -3  -4  275.67   21.10
  -5   3  -4  268.37   20.50
   5   3   4  272.77   20.30
   5   3   4  259.97   20.80
  -5   3  -4  247.38   22.30
   6  -3   4  326.07   21.70
   6  -3   4  310.07   22.10
  -6  -3  -4  333.37   23.40
  -6  -3  -4  339.97   24.40
   6   3   4  255.97   23.40
  -6   3  -4  290.27   23.80
   6   3   4  286.07   23.20
  -6   3  -4  244.88   25.50
   7  -3   4  229.98   16.40
   7  -3   4  211.78   16.80
  -7  -3  -4  238.58   19.60
  -7  -3  -4  240.78   19.20
  -7   3  -4  154.58   21.50
   7   3   4  168.38   19.10
  -7   3  -4  151.08   18.90
   7   3   4  154.98   19.60
   8  -3   4   56.89    8.30
  -8  -3  -4   59.79   11.50
  -8  -3  -4   58.49   10.70
   8  -3   4   58.79    8.70
  -8   3  -4   11.60   12.90
   8   3   4   37.50   11.60
   8   3   4   36.40   11.20
  -8   3  -4   35.70   14.70
  -8  -4   4   78.29   14.00
   8  -4  -4   77.69   11.60
   8  -4  -4   63.59   10.30
   8  -4  -4   78.09   11.10
  -8  -4   4   75.99   13.00
   8   4  -4   46.60   13.90
  -8   4   4   48.70   18.10
  -8   4   4   69.09   12.50
  -7  -4   4   16.90    9.60
   7  -4  -4   11.60    6.40
  -7  -4   4   20.80    8.90
   7  -4  -4    3.30    5.90
   7  -4  -4   18.10    6.40
  -7   4   4   -3.40   12.80
  -7   4   4    8.50    8.10
   7   4  -4   -2.20    8.10
   6  -4  -4  193.58   16.00
  -6  -4   4  223.58   19.90
  -6  -4   4  219.48   17.70
   6  -4  -4  198.88   16.10
  -6  -4   4  202.98   17.60
   6   4  -4  203.38   19.60
  -6   4   4  187.48   17.90
   6   4  -4  198.28   17.60
  -6   4   4  167.98   21.80
   5  -4  -4  198.18   14.90
  -5  -4   4  195.48   15.80
   5  -4  -4  184.08   14.70
  -5  -4   4  191.28   18.00
  -5  -4   4  190.88   15.80
   5   4  -4  197.68   16.80
   5   4  -4  220.88   17.30
  -5   4   4  212.98   20.00
  -5   4   4  193.28   17.00
  -4  -4   4  481.05   29.80
  -4  -4   4  471.15   31.40
   4  -4  -4  484.85   29.30
   4  -4  -4  468.55   29.00
  -4  -4   4  476.45   29.60
   4   4  -4  399.16   30.30
  -4   4   4  421.46   30.30
   4   4  -4  418.76   29.80
  -3  -4   4  746.93   46.50
  -3  -4   4  776.42   46.50
   3  -4  -4  743.73   46.20
  -3   4   4  764.02   47.30
  -3   4   4  730.13   47.20
  -3   4   4  742.33   46.60
   3   4  -4  742.03   47.60
  -3   4   4  780.12   46.80
   2  -4  -4  782.52   55.79
   2  -4  -4  835.42   54.79
  -2  -4   4  840.32   54.89
  -2  -4   4  849.02   54.79
  -2   4   4  958.60   55.89
  -2   4   4  959.70   55.29
   2   4  -4  949.11   56.29
  -2   4   4  982.90   55.49
  -2   4   4  947.61   55.19
   2   4  -4  946.01   54.99
   1  -4  -4  261.67   20.00
  -1  -4   4  309.97   20.40
   1  -4  -4  298.17   20.70
  -1  -4   4  285.77   20.80
   1  -4  -4  247.78   22.30
   1   4  -4  348.97   20.70
   1   4  -4  338.47   20.90
   1   4  -4  326.47   19.90
   1   4  -4  343.07   20.50
  -1   4   4  320.47   21.00
   1   4  -4  339.37   21.90
  -1   4   4  345.87   21.10
  -1   4   4  351.86   20.40
  -1   4   4  324.27   21.20
   0  -4  -4    5.60    4.90
   0  -4   4    8.00    2.10
   0  -4   4    7.60    3.20
   0  -4   4    5.30    3.10
   0  -4  -4    9.40    2.30
   0   4   4    6.20    3.20
   0   4   4    1.50    1.30
   0   4  -4    4.10    2.30
   0   4  -4    1.70    3.00
   0   4  -4    6.90    2.80
   0   4   4    3.00    2.80
   0   4  -4    4.90    3.60
   1  -4   4  358.16   22.00
  -1  -4  -4  349.96   20.80
   1  -4   4  350.56   20.70
  -1  -4  -4  313.57   24.50
   1  -4   4  301.17   22.20
   1  -4   4  343.47   20.40
  -1   4  -4  316.07   21.00
  -1   4  -4  306.47   21.60
   1   4   4  320.67   21.20
  -1   4  -4  305.37   20.40
   1   4   4  301.57   21.20
   1   4   4  311.17   21.60
   2  -4   4  530.85   33.50
   2  -4   4  518.85   34.40
  -2  -4  -4  516.85   36.60
   2  -4   4  551.54   32.80
  -2  -4  -4  542.65   33.10
  -2   4  -4  517.75   33.80
   2   4   4  512.25   33.10
   2   4   4  495.55   33.40
  -2   4  -4  501.45   33.70
  -2   4  -4  518.65   32.80
   2   4   4  566.44   33.00
  -3  -4  -4  594.74   38.10
   3  -4   4  647.24   39.30
  -3  -4  -4  614.34   41.30
   3  -4   4  604.74   37.70
   3   4   4  585.64   37.60
  -3   4  -4  601.74   38.80
  -3   4  -4  571.84   38.60
   3   4   4  595.44   38.20
  -3   4  -4  581.94   37.40
  -4  -4  -4  232.38   19.60
   4  -4   4  258.67   19.60
   4  -4   4  247.18   18.80
  -4  -4  -4  238.48   22.40
   4   4   4  279.17   19.70
  -4   4  -4  255.77   20.70
   4   4   4  269.57   18.80
  -4   4  -4  278.37   18.70
   5  -4   4  331.27   24.60
  -5  -4  -4  402.26   28.50
  -5  -4  -4  303.07   25.30
   5  -4   4  375.36   24.70
  -5   4  -4  347.87   24.70
  -5   4  -4  338.27   27.10
   5   4   4  333.47   25.50
   5   4   4  338.97   24.60
   6  -4   4   89.89   11.20
  -6  -4  -4  113.09   14.60
   6  -4   4  112.69   11.60
  -6  -4  -4   82.29   11.80
   6   4   4   93.79   12.00
   6   4   4   78.69   12.20
  -6   4  -4   99.19   15.50
  -6   4  -4  107.29   12.50
  -7  -4  -4   93.39   13.20
   7  -4   4   73.59   10.10
   7  -4   4   76.69    9.60
  -7  -4  -4   77.69   11.50
   7   4   4   47.00   12.10
  -7   4  -4   58.99   15.50
  -7   4  -4   61.89   12.20
   7   4   4   49.30   11.30
   7  -5  -4  401.46   27.40
  -7  -5   4  362.56   28.80
   7  -5  -4  415.06   28.90
  -7  -5   4  388.36   31.70
   7  -5  -4  399.46   27.10
  -7   5   4  261.37   33.30
  -7   5   4  364.16   29.80
   7   5  -4  335.37   31.60
   6  -5  -4  173.58   15.50
  -6  -5   4  192.68   20.70
  -6  -5   4  174.38   17.40
   6  -5  -4  185.88   15.80
  -6   5   4  170.88   18.80
   6   5  -4  198.78   20.10
   6   5  -4  182.78   17.90
  -6   5   4  177.68   22.60
  -5  -5   4   75.59    9.70
   5  -5  -4   86.19    9.30
   5  -5  -4   94.39   10.00
  -5  -5   4   96.79   13.10
   5   5  -4   70.89   10.30
   5   5  -4   66.69   10.90
  -5   5   4   64.49   11.00
  -5   5   4   79.99   12.40
  -4  -5   4   70.99   10.80
   4  -5  -4   69.29    7.60
  -4  -5   4   73.79    9.10
  -4  -5   4   70.39    8.30
   4  -5  -4   78.79    8.20
   4   5  -4   45.90    8.80
  -4   5   4   61.79    9.30
   4   5  -4   56.29    8.20
  -4   5   4   38.30    8.60
  -3  -5   4  109.89   10.20
  -3  -5   4  111.59   13.00
   3  -5  -4  100.59    9.60
  -3  -5   4  100.19    9.60
  -3   5   4   97.99   10.30
   3   5  -4   93.39   11.60
  -3   5   4   91.59    9.90
  -3   5   4   97.39   11.20
   3   5  -4   68.19    8.90
  -3   5   4   96.09   10.10
  -2  -5   4  514.55   31.00
  -2  -5   4  525.25   31.00
   2  -5  -4  509.25   31.00
  -2   5   4  448.76   31.00
   2   5  -4  433.36   32.30
  -2   5   4  463.15   31.90
   2   5  -4  470.55   30.70
  -2   5   4  458.65   31.20
  -1  -5   4  323.97   21.70
   1  -5  -4  325.47   21.90
   1  -5  -4  262.67   23.90
  -1  -5   4  321.07   21.90
   1   5  -4  331.87   23.40
   1   5  -4  317.47   21.20
   1   5  -4  339.67   21.40
  -1   5   4  318.37   22.10
  -1   5   4  341.27   22.70
  -1   5   4  326.17   22.00
   0  -5   4  297.87   20.70
   0  -5  -4  261.67   23.40
   0  -5   4  326.57   20.80
   0   5  -4  291.97   20.30
   0   5   4  293.17   20.70
   0   5  -4  295.07   21.70
   0   5  -4  290.77   19.60
   0   5   4  277.57   20.50
   0   5   4  286.07   20.20
   1  -5   4  492.75   37.40
   1  -5   4  596.74   37.20
  -1  -5  -4  528.65   40.20
   1  -5   4  606.14   35.80
  -1   5  -4  594.74   36.30
  -1   5  -4  591.44   37.10
   1   5   4  593.24   37.10
   1   5   4  596.44   37.20
  -1   5  -4  551.14   37.90
   1   5   4  598.54   36.90
   2  -5   4  276.47   23.30
  -2  -5  -4  281.27   26.60
  -2  -5  -4  312.67   21.90
   2  -5   4  301.47   21.50
   2   5   4  357.06   23.20
  -2   5  -4  337.87   23.30
  -2   5  -4  362.36   24.40
   2   5   4  338.37   22.40
  -2   5  -4  355.96   22.10
  -3  -5  -4    5.00    4.80
   3  -5   4    6.10    4.00
   3  -5   4    2.90    5.10
  -3  -5  -4    5.20    8.60
  -3   5  -4    7.60    4.40
  -3   5  -4    9.10    5.70
   3   5   4    7.50    4.40
   3   5   4    6.80    4.90
   4  -5   4  162.18   14.90
   4  -5   4  144.99   13.40
  -4  -5  -4  157.68   19.00
  -4  -5  -4  148.29   14.70
  -4   5  -4  155.88   13.60
   4   5   4  149.29   13.70
  -4   5  -4  140.09   15.60
   4   5   4  154.98   14.70
  -5  -5  -4   64.39   10.40
   5  -5   4   83.49   10.80
  -5  -5  -4   77.89   14.00
   5  -5   4   68.59    9.60
   5   5   4   80.19   10.20
  -5   5  -4   79.19   12.80
  -5   5  -4   74.89    9.60
   5   5   4   79.09   11.30
   6  -5   4   76.19   10.40
  -6  -5  -4   62.19   11.20
   6  -5   4   61.69   10.00
  -6  -5  -4   73.49   14.20
   6   5   4   86.49   13.00
   6   5   4   81.99   11.50
  -6   5  -4   74.49   10.90
  -6   5  -4   88.89   15.40
   7  -5   4  166.78   16.50
  -7  -5  -4  164.08   20.60
  -7  -5  -4  178.58   19.70
  -6  -6   4  126.59   17.90
   6  -6  -4  145.29   14.40
   6  -6  -4  141.29   14.90
   6  -6  -4  150.88   16.70
  -6  -6   4  162.98   17.00
   6   6  -4  160.08   18.60
  -6   6   4  123.79   16.70
  -6   6   4  167.48   21.00
  -5  -6   4   97.39   15.00
   5  -6  -4   94.69   10.40
   5  -6  -4   87.29   10.60
  -5  -6   4   85.49   11.40
  -5   6   4   98.09   14.10
   5   6  -4   97.99   12.20
   5   6  -4  101.29   13.70
   4  -6  -4   61.49    8.50
  -4  -6   4   60.39    8.80
  -4  -6   4   51.89   11.70
   4  -6  -4   57.59    8.00
   4   6  -4   63.19   11.20
  -4   6   4   59.79   11.10
   4   6  -4   68.89    9.20
   3  -6  -4  500.95   31.90
  -3  -6   4  499.75   35.80
  -3  -6   4  543.75   32.40
  -3   6   4  500.55   32.70
  -3   6   4  465.25   34.00
   3   6  -4  445.56   31.90
  -3   6   4  439.16   31.90
   3   6  -4  463.05   34.80
  -2  -6   4  382.26   25.50
  -2  -6   4  393.76   28.70
  -2  -6   4  382.26   25.50
   2  -6  -4  382.36   25.50
  -2   6   4  347.37   25.80
   2   6  -4  366.36   28.30
  -2   6   4  345.27   27.40
  -2   6   4  364.76   25.90
  -1  -6   4   83.39    9.80
  -1  -6   4   74.29    8.30
   1  -6  -4   87.59    9.30
   1   6  -4   69.09   11.00
  -1   6   4   58.79    8.50
  -1   6   4   47.70    8.80
  -1   6   4   55.69    8.10
   0  -6  -4   11.40    8.30
   0  -6   4   16.60    5.70
   0   6  -4    4.90    4.40
   0   6   4   19.80    7.50
   0   6   4   15.50    5.30
   0   6  -4   14.30    7.20
   0   6   4   11.40    5.50
   0   6  -4   14.50    4.60
   1  -6   4   12.00    5.20
   1  -6   4    7.30    5.20
  -1  -6  -4   15.50    9.30
  -1   6  -4    2.80    6.30
   1   6   4    7.20    5.40
  -1   6  -4    6.80    5.30
   1   6   4    3.20    4.60
  -1   6  -4    5.20    4.30
   2  -6   4  222.18   19.30
   2  -6   4  211.98   20.10
  -2  -6  -4  225.78   24.40
  -2   6  -4  275.17   20.20
   2   6   4  268.07   19.20
  -2   6  -4  284.57   18.70
   2   6   4  272.17   20.10
   3  -6   4  552.44   36.50
   3  -6   4  541.55   34.40
  -3  -6  -4  543.75   40.10
  -3   6  -4  492.85   35.60
   3   6   4  492.45   35.40
  -4  -6  -4   44.80   13.20
  -4  -6  -4   28.90   10.80
   4  -6   4   45.90    9.20
   4  -6   4   45.30    7.60
   4   6   4   48.10    9.30
  -4   6  -4   50.79   10.20
  -5  -6  -4   44.50    9.60
   5  -6   4   47.50    8.40
  -5  -6  -4   46.20   13.60
   5  -6   4   41.00    9.00
  -5   6  -4   40.70   11.10
   5   6   4   42.30   10.00
   4  -7  -4  137.19   14.00
  -4  -7   4  136.99   18.00
  -4  -7   4  143.79   14.90
   4  -7  -4  144.09   14.00
   4   7  -4   97.79   15.40
  -4   7   4  101.49   15.40
  -3  -7   4   24.20   11.20
   3  -7  -4   20.70    6.70
  -3  -7   4   18.50    7.00
   3  -7  -4   19.00    6.90
  -3   7   4   20.50    7.70
  -3   7   4   15.60    9.00
   3   7  -4   20.60    9.70
  -2  -7   4  392.26   30.40
  -2  -7   4  388.06   25.90
   2  -7  -4  427.66   26.60
   2   7  -4  338.87   29.70
  -2   7   4  304.87   28.20
  -2   7   4  317.17   26.00
  -2   7   4  332.37   26.10
   1  -7  -4  154.18   15.30
  -1  -7   4  165.38   18.70
  -1  -7   4  134.19   14.20
  -1   7   4  166.18   15.20
  -1   7   4  155.68   15.60
   1   7  -4  172.68   19.50
   0  -7  -4   39.60    8.20
   0  -7   4   29.20   10.30
   0  -7   4   34.50    7.00
   0   7  -4   35.00    6.60
   0   7   4   36.20    8.20
   0   7   4   41.90    7.80
   0   7  -4   25.50   10.20
  -1  -7  -4  152.78   19.80
   1  -7   4  150.98   15.00
  -1   7  -4  135.99   14.40
   1   7   4  170.58   15.80
   1   7   4  167.98   14.70
  -1   7  -4  130.99   12.80
   2  -7   4  270.07   20.80
  -2  -7  -4  266.97   28.10
  -2   7  -4  248.28   20.90
   2   7   4  267.87   21.70
   3  -7   4    0.30    5.80
   3  -7   4    5.20    7.00
  -3  -7  -4    5.90   11.70
  -3   7  -4   -1.10    6.60
   3   7   4    1.60    6.60
 -10   0   5  131.89   19.40
  10   0  -5  113.99   17.60
  -9   0   5  273.67   26.00
   9   0  -5  271.27   21.30
  -9   0   5  223.28   20.20
   8   0  -5  500.85   34.60
   8   0  -5  517.35   33.40
  -8   0   5  512.25   38.10
  -7   0   5   31.30    9.60
   7   0  -5   28.50    6.70
   7   0  -5   22.70    5.20
  -6   0   5   14.50    4.30
   6   0  -5    7.30    3.60
   6   0  -5    3.90    3.70
  -6   0   5    1.10    6.20
  -6   0   5    8.00    4.70
   6   0  -5    7.20    4.80
  -5   0   5   17.10    3.80
   5   0  -5   26.10    3.40
   5   0  -5   20.40    4.70
   5   0  -5   14.50    4.70
  -5   0   5   20.10    4.60
   5   0  -5   18.70    3.90
  -5   0   5   24.30    3.70
  -5   0   5   18.70    6.30
  -4   0   5 1029.60   62.99
   4   0  -5 1044.30   60.99
  -4   0   5  997.60   61.19
   4   0  -5  926.81   62.19
   4   0  -5 1040.40   60.69
   4   0  -5 1048.20   62.19
  -4   0   5 1021.10   60.79
  -3   0   5 3396.76  203.18
   3   0  -5 3310.47  203.08
   3   0  -5 3533.25  203.08
  -3   0   5 3351.36  203.18
   3   0  -5 3486.15  204.08
   3   0  -5 3688.43  204.28
  -3   0   5 3386.46  204.28
  -2   0   5  147.89    9.20
  -2   0   5  140.69    9.10
   2   0  -5  144.19    9.20
  -2   0   5  143.59    9.30
  -2   0   5  138.49    9.90
   2   0  -5  155.78   10.20
   1   0  -5  172.98   11.40
  -1   0   5  176.58   10.90
   1   0  -5  175.48   10.80
   1   0  -5  176.78   10.90
  -1   0   5  170.98   10.70
   1   0  -5  173.18   10.70
   0   0   5 5175.28  298.27
   0   0   5 5043.50  298.47
   0   0   5 4998.60  298.37
   0   0  -5 4790.32  298.17
   0   0  -5 5303.17  298.47
   0   0   5 4853.01  298.47
   0   0  -5 5317.97  298.37
   0   0  -5 5142.39  298.57
  -1   0  -5  115.09    8.10
  -1   0  -5  114.19    7.80
   1   0   5  114.69    7.70
   1   0   5  118.19    7.40
   1   0   5  115.99    7.70
  -1   0  -5  118.29    7.70
  -2   0  -5 2092.29  123.99
   2   0   5 2126.39  124.19
   2   0   5 2080.29  123.99
   2   0   5 2080.09  123.69
  -2   0  -5 2173.38  124.09
  -2   0  -5 2010.00  124.29
   3   0   5 1527.15   88.49
  -3   0  -5 1521.75   88.89
  -3   0  -5 1262.87   88.79
  -3   0  -5 1603.34   89.09
   3   0   5 1486.05   89.09
   3   0   5 1488.95   88.69
   4   0   5   52.49    6.80
   4   0   5   51.79    6.10
  -4   0  -5   57.39    7.50
  -4   0  -5   45.90    6.90
   4   0   5   54.69    6.30
  -5   0  -5  727.13   47.10
   5   0   5  679.53   45.50
  -5   0  -5  772.22   46.10
   5   0   5  759.82   46.20
  -5   0  -5  678.53   46.00
  -6   0  -5 1036.60   60.39
  -6   0  -5  869.11   61.89
  -6   0  -5  986.00   61.19
   6   0   5  895.31   59.99
   6   0   5 1026.60   60.79
   6   0   5  968.30   59.49
   7   0   5   11.80    6.20
   7   0   5    8.00    4.80
  -7   0  -5   16.10    9.50
   7   0   5    9.40    6.00
  -7   0  -5   10.60    9.40
  -8   0  -5   21.40   10.80
   8   0   5   22.50    7.50
   8   0   5   21.10    7.10
  -8   0  -5   17.90   11.50
   9   0   5    4.10    6.90
  -9   0  -5    5.10   10.90
  -9  -1   5   24.10    8.80
  -9  -1   5   28.90   11.70
   9  -1  -5   21.70    6.60
   9  -1  -5   20.70    7.40
  -9   1   5   25.20   12.30
   9   1  -5   21.50    8.00
  -8  -1   5  561.04   43.10
  -8  -1   5  620.24   40.50
   8  -1  -5  575.94   39.20
   8  -1  -5  561.04   40.10
   8   1  -5  665.33   41.10
  -8   1   5  620.64   43.80
   7  -1  -5  582.84   42.10
  -7  -1   5  541.75   44.80
   7  -1  -5  536.05   42.80
  -7  -1   5  588.94   42.90
   7  -1  -5  669.73   41.80
  -7   1   5  777.72   42.90
  -7   1   5  715.93   46.50
   7   1  -5  757.52   44.00
   7   1  -5  804.32   43.70
   7   1  -5  661.93   43.80
  -7   1   5  672.73   42.40
  -6  -1   5   53.29    9.90
  -6  -1   5   47.90    9.30
   6  -1  -5   52.99    6.80
   6  -1  -5   41.60    7.40
   6  -1  -5   44.40    6.40
  -6  -1   5   46.70    7.40
   6   1  -5   55.19    8.40
  -6   1   5   55.49    7.00
   6   1  -5   54.19    6.40
  -6   1   5   60.29    7.50
  -6   1   5   52.49   10.30
   6   1  -5   59.59    8.80
   6   1  -5   63.69    7.00
  -5  -1   5  810.82   51.19
  -5  -1   5  832.12   52.69
   5  -1  -5  798.92   50.79
   5  -1  -5  792.42   51.59
  -5  -1   5  824.32   51.19
   5  -1  -5  805.92   51.19
  -5   1   5  815.12   51.09
   5   1  -5  915.81   51.29
   5   1  -5  785.22   52.99
   5   1  -5  830.72   51.09
  -5   1   5  858.01   54.69
  -5   1   5  904.01   51.59
   5   1  -5  907.81   52.99
   4  -1  -5  833.02   59.19
  -4  -1   5  972.60   60.59
   4  -1  -5  965.80   59.89
  -4  -1   5  944.51   59.59
  -4  -1   5  980.60   58.89
   4  -1  -5  990.00   59.89
   4  -1  -5  914.21   58.59
   4   1  -5 1091.19   59.99
  -4   1   5 1058.09   60.09
   4   1  -5 1081.99   61.59
   4   1  -5 1004.40   61.99
   4   1  -5 1039.80   59.79
  -4   1   5 1038.80   59.79
  -4   1   5 1001.80   62.99
  -3  -1   5  225.28   16.10
   3  -1  -5  238.78   15.40
  -3  -1   5  240.58   16.80
   3  -1  -5  226.78   16.20
  -3  -1   5  244.98   15.60
   3  -1  -5  244.58   16.50
  -3   1   5  273.47   16.50
   3   1  -5  278.07   16.30
  -3   1   5  267.97   16.50
   3   1  -5  289.17   18.70
   3   1  -5  286.77   16.50
   3   1  -5  216.18   17.40
  -3   1   5  298.07   16.50
  -3   1   5  286.27   19.50
  -2  -1   5 1797.02  104.29
   2  -1  -5 1815.72  103.39
   2  -1  -5 1790.52  103.89
  -2  -1   5 1874.31  103.49
  -2  -1   5 1556.74  103.69
   2   1  -5 1794.22  103.79
   2   1  -5 1673.83  103.99
  -2   1   5 1684.53  103.89
   2   1  -5 1908.61  105.99
  -2   1   5 1667.23  103.99
   1  -1  -5  475.25   27.60
  -1  -1   5  476.05   27.90
   1  -1  -5  497.45   27.50
  -1  -1   5  481.55   27.30
  -1   1   5  443.16   27.70
  -1   1   5  421.86   27.60
   1   1  -5  472.75   29.20
   1   1  -5  438.06   27.50
   1   1  -5  397.96   27.60
   1   1  -5  441.46   27.70
  -1   1   5  448.26   27.70
  -1   1   5  488.25   28.20
   0  -1   5 1228.28   75.59
   0  -1  -5 1232.08   75.99
   0  -1   5 1266.17   75.39
   0  -1  -5 1233.98   75.29
   0  -1   5 1155.98   75.89
   0   1   5 1309.97   75.79
   0   1  -5 1366.56   76.99
   0   1  -5 1293.77   75.69
   0   1  -5 1323.87   76.09
   0   1   5 1258.37   75.79
   0   1  -5 1288.07   75.89
   0   1   5 1334.07   75.89
   0   1   5 1325.17   75.39
  -1  -1  -5 3462.45  197.48
  -1  -1  -5 3361.86  197.98
  -1  -1  -5 3328.97  198.78
   1  -1   5 3530.15  198.18
   1  -1   5 3194.78  198.18
   1   1   5 3337.47  197.88
  -1   1  -5 3188.88  198.08
  -1   1  -5 3536.35  198.38
   1   1   5 3359.66  197.38
   1   1   5 3476.35  198.08
   1   1   5 3369.86  197.98
  -1   1  -5 3100.09  198.48
  -1   1  -5 3432.06  197.98
  -2  -1  -5 1087.29   58.59
   2  -1   5 1054.19   58.69
   2  -1   5  912.91   59.39
   2  -1   5  991.50   59.29
  -2  -1  -5  927.41   59.19
  -2  -1  -5  922.81   59.89
  -2   1  -5 1025.40   58.79
  -2   1  -5  820.02   58.59
  -2   1  -5 1014.20   59.29
   2   1   5 1001.10   58.89
   2   1   5 1047.50   58.99
  -3  -1  -5  171.08   14.20
   3  -1   5  174.38   13.80
  -3  -1  -5  227.28   14.10
   3  -1   5  174.18   13.60
   3  -1   5  195.48   14.50
  -3  -1  -5  187.38   15.20
   3   1   5  219.38   13.80
   3   1   5  209.48   13.90
  -3   1  -5  215.18   14.60
  -3   1  -5  217.98   14.00
  -3   1  -5  203.48   14.10
   3   1   5  208.08   13.50
  -4  -1  -5   51.29    7.20
   4  -1   5   48.80    6.40
   4  -1   5   63.59    7.30
   4  -1   5   59.69    6.70
  -4  -1  -5   59.39    7.40
  -4  -1  -5   61.99    8.20
   4   1   5   55.19    6.60
  -4   1  -5   47.90    6.80
   4   1   5   58.49    6.80
  -4   1  -5   57.39    7.10
   4   1   5   64.29    6.30
  -4   1  -5   57.09    7.80
  -5  -1  -5  230.18   17.60
   5  -1   5  228.38   16.30
  -5  -1  -5  174.88   16.80
   5  -1   5  225.98   15.70
   5  -1   5  223.48   15.40
  -5  -1  -5  209.48   16.60
   5   1   5  200.48   15.90
   5   1   5  192.38   14.90
  -5   1  -5  204.68   18.20
  -5   1  -5  181.98   17.10
   5   1   5  177.88   16.20
   6  -1   5  308.17   20.30
  -6  -1  -5  310.17   21.30
   6  -1   5  288.67   19.30
   6  -1   5  307.17   19.80
  -6  -1  -5  297.77   24.20
   6   1   5  214.78   20.00
   6   1   5  242.88   21.10
  -6   1  -5  245.38   23.10
  -6   1  -5  192.58   21.80
   6   1   5  243.88   19.10
  -7  -1  -5  746.33   45.60
   7  -1   5  704.33   44.30
   7  -1   5  711.83   44.50
   7  -1   5  684.03   43.40
  -7  -1  -5  723.23   45.10
  -7   1  -5  577.64   47.40
   7   1   5  739.73   46.10
   7   1   5  614.34   45.10
  -7   1  -5  653.73   46.80
  -8  -1  -5  106.39   13.50
   8  -1   5  100.19   11.30
  -8   1  -5   61.89   14.60
  -8   1  -5   84.49   15.00
   8   1   5   76.29   12.00
   8   1   5   91.19   12.60
   9  -1   5   31.70    9.70
   9   1   5   36.60    9.40
  -9   1  -5   24.90   12.20
  -9   1  -5   21.40   12.80
   9   1   5   30.80    9.10
  -9  -2   5  365.56   29.60
   9  -2  -5  358.16   28.70
  -9  -2   5  347.97   31.80
   9  -2  -5  369.66   27.60
  -9   2   5  414.66   34.80
   9   2  -5  411.26   30.10
  -8  -2   5  108.09   16.10
  -8  -2   5  124.89   14.60
   8  -2  -5  122.59   14.70
   8  -2  -5  119.59   13.30
   8   2  -5  158.98   17.10
  -8   2   5  152.08   19.20
  -8   2   5  110.49   13.30
  -7  -2   5   93.39   11.90
   7  -2  -5   98.69   11.20
  -7  -2   5   86.59   13.40
   7  -2  -5   93.39   11.70
  -7   2   5  147.59   17.50
   7   2  -5  136.09   15.40
  -7   2   5  127.59   12.80
   6  -2  -5   25.70    5.80
  -6  -2   5   29.80    6.50
  -6  -2   5   25.20    6.20
  -6  -2   5   26.50    7.50
   6  -2  -5   22.70    4.80
  -6   2   5   21.90    5.90
   6   2  -5   21.70    5.20
   6   2  -5   12.30    6.80
  -6   2   5   35.00   10.60
  -5  -2   5  103.49   11.30
  -5  -2   5  133.09   11.20
  -5  -2   5  132.99   12.20
   5  -2  -5  133.39   10.90
   5  -2  -5  137.59   10.50
   5  -2  -5  135.29   10.40
  -5   2   5  175.88   11.90
   5   2  -5  121.89   13.20
  -5   2   5  185.98   17.30
   4  -2  -5  620.24   37.10
   4  -2  -5  635.94   37.30
  -4  -2   5  637.34   37.40
   4  -2  -5  666.13   37.30
  -4  -2   5  644.44   38.20
   4   2  -5  614.14   36.50
   4   2  -5  577.94   37.70
  -4   2   5  515.65   40.30
   4   2  -5  597.84   40.80
   4   2  -5  518.25   38.40
  -4   2   5  600.34   36.60
  -4   2   5  596.04   37.70
  -3  -2   5 2585.94  145.49
   3  -2  -5 2438.46  143.79
  -3  -2   5 2447.26  144.89
   3  -2  -5 2560.94  144.99
  -3   2   5 2439.06  145.09
   3   2  -5 2300.97  148.29
  -3   2   5 2469.95  143.99
  -3   2   5 2355.46  145.19
   3   2  -5 2411.66  145.39
  -2  -2   5  573.34   37.70
  -2  -2   5  573.14   37.40
   2  -2  -5  554.94   37.40
  -2  -2   5  596.54   36.60
   2  -2  -5  571.54   36.80
  -2   2   5  684.93   37.80
  -2   2   5  646.94   37.80
   2   2  -5  646.64   37.90
   2   2  -5  677.73   37.50
   2   2  -5  698.33   37.50
  -2   2   5  654.23   37.70
  -2   2   5  589.94   38.90
   2   2  -5  565.84   40.60
  -1  -2   5  200.58   11.20
   1  -2  -5  206.68   12.10
  -1  -2   5  204.28   12.20
   1  -2  -5  183.08   11.80
   1   2  -5  161.18   11.90
  -1   2   5  169.18   11.80
  -1   2   5  162.08   11.70
   1   2  -5  165.78   11.90
  -1   2   5  180.98   11.80
   1   2  -5  165.28   11.50
   1   2  -5  162.08   11.10
   0  -2   5  550.24   39.90
   0  -2   5  668.33   40.40
   0  -2   5  703.93   40.00
   0  -2  -5  632.04   40.90
   0   2   5  675.13   40.10
   0   2  -5  644.04   39.30
   0   2   5  707.13   40.20
   0   2   5  658.83   40.20
   0   2  -5  682.03   40.40
   0   2  -5  676.33   40.30
   0   2  -5  700.23   40.00
  -1  -2  -5  353.16   21.50
  -1  -2  -5  354.26   22.70
   1  -2   5  333.67   21.50
   1   2   5  328.97   21.10
   1   2   5  331.57   21.00
  -1   2  -5  320.67   22.00
  -1   2  -5  326.37   20.80
  -1   2  -5  339.07   21.20
  -1   2  -5  330.27   21.40
   2  -2   5 1439.66   79.19
   2  -2   5 1276.67   80.39
  -2  -2  -5 1321.27   80.29
  -2  -2  -5 1292.07   81.29
   2  -2   5 1294.67   80.19
  -2   2  -5 1321.87   79.39
   2   2   5 1370.36   79.39
  -2   2  -5 1363.76   79.79
  -2   2  -5 1333.27   80.19
   2   2   5 1324.57   79.69
   2   2   5 1295.77   79.49
  -3  -2  -5  756.32   44.40
  -3  -2  -5  772.42   45.60
   3  -2   5  767.22   44.50
  -3  -2  -5  820.02   44.00
   3  -2   5  664.03   43.20
   3  -2   5  669.63   43.90
  -3   2  -5  658.43   44.10
  -3   2  -5  690.73   43.50
   3   2   5  684.03   43.50
   3   2   5  690.43   43.00
   3   2   5  677.73   43.40
  -3   2  -5  664.73   43.20
   4  -2   5  519.15   31.30
   4  -2   5  496.25   30.90
   4  -2   5  490.95   30.20
  -4  -2  -5  537.65   32.60
  -4  -2  -5  515.15   31.50
  -4   2  -5  463.25   30.40
   4   2   5  430.46   29.70
   4   2   5  477.05   30.70
  -4   2  -5  396.26   30.20
   4   2   5  474.75   30.80
  -4   2  -5  456.75   31.70
  -5  -2  -5  626.84   40.30
   5  -2   5  609.24   38.80
  -5  -2  -5  605.34   39.50
   5  -2   5  610.14   38.70
   5  -2   5  609.14   39.10
  -5   2  -5  584.34   40.90
   5   2   5  617.74   39.60
  -5   2  -5  599.74   39.50
   5   2   5  614.34   39.70
  -6  -2  -5  578.64   37.00
   6  -2   5  566.44   35.80
   6  -2   5  562.74   35.40
  -6  -2  -5  578.74   36.50
   6   2   5  512.85   36.80
   6   2   5  527.15   37.00
  -6   2  -5  515.05   39.10
  -6   2  -5  492.95   37.30
  -7  -2  -5   83.59   10.90
   7  -2   5   90.29    9.20
   7  -2   5   74.59    9.20
  -7  -2  -5   88.39   11.20
  -7   2  -5   30.40   11.80
   7   2   5   43.90   10.20
  -7   2  -5   49.10   13.20
   7   2   5   46.60   10.20
   8  -2   5   33.50    6.70
  -8  -2  -5   27.60    9.60
   8  -2   5   41.30    7.70
  -8   2  -5   25.60   13.40
  -8   2  -5   11.30   12.20
   8   2   5   19.00    9.20
   8   2   5   16.80    9.10
   9  -3  -5   56.29    8.80
  -9  -3   5   55.79   12.50
   9  -3  -5   65.19   10.40
   9  -3  -5   51.39   10.70
  -9  -3   5   56.99   13.20
  -9   3   5   55.99   11.50
   9   3  -5   36.20   11.70
  -9   3   5   39.90   16.20
   8  -3  -5  161.48   16.90
   8  -3  -5  164.48   15.40
  -8  -3   5  160.38   17.40
   8  -3  -5  162.38   15.70
  -8  -3   5  137.19   18.40
   8   3  -5  154.98   18.60
  -8   3   5  197.68   23.60
  -8   3   5  146.99   16.30
   7  -3  -5  482.95   31.40
  -7  -3   5  484.25   33.10
   7  -3  -5  492.15   32.20
  -7  -3   5  468.35   34.50
   7   3  -5  368.16   33.90
  -7   3   5  506.85   38.90
  -7   3   5  466.95   33.00
  -6  -3   5  400.76   28.10
  -6  -3   5  410.66   27.10
   6  -3  -5  401.96   26.00
   6  -3  -5  392.26   26.30
  -6  -3   5  360.86   27.60
   6   3  -5  411.66   27.30
   6   3  -5  314.47   28.50
  -6   3   5  434.96   27.90
  -6   3   5  364.66   32.10
  -5  -3   5  388.76   27.60
  -5  -3   5  394.06   26.40
   5  -3  -5  388.76   25.90
  -5  -3   5  388.26   27.00
   5  -3  -5  396.56   25.80
  -5   3   5  420.66   27.30
   5   3  -5  404.46   27.00
   5   3  -5  413.26   28.20
   4  -3  -5  679.73   40.60
   4  -3  -5  686.23   40.60
  -4  -3   5  709.43   40.90
  -4  -3   5  690.63   41.30
   4   3  -5  629.44   41.40
   4   3  -5  662.93   41.50
  -4   3   5  625.14   41.20
  -4   3   5  548.65   43.00
   3  -3  -5   53.49    5.60
  -3  -3   5   51.79    6.10
  -3  -3   5   46.90    5.10
   3   3  -5   40.70    5.10
  -3   3   5   43.60    6.60
  -3   3   5   34.20    5.20
  -3   3   5   44.60    5.40
   3   3  -5   43.10    5.90
  -2  -3   5 1178.78   66.89
  -2  -3   5 1117.69   65.79
   2  -3  -5 1151.58   66.89
  -2  -3   5 1125.69   67.09
   2  -3  -5 1087.99   66.79
   2   3  -5 1099.19   66.79
   2   3  -5 1075.29   67.49
  -2   3   5 1063.99   67.09
  -2   3   5 1079.59   67.19
   2   3  -5 1085.39   66.59
  -2   3   5 1095.69   67.09
  -2   3   5 1195.68   67.39
  -1  -3   5  394.56   23.50
   1  -3  -5  393.76   25.60
  -1  -3   5  416.66   24.00
   1  -3  -5  410.06   24.60
   1  -3  -5  404.86   23.50
  -1  -3   5  415.36   24.90
  -1   3   5  394.16   24.00
  -1   3   5  375.36   24.70
   1   3  -5  389.86   24.00
  -1   3   5  362.16   24.60
  -1   3   5  373.06   24.60
   1   3  -5  357.46   24.20
   1   3  -5  378.56   25.00
   1   3  -5  387.26   24.80
   0  -3  -5  691.53   38.50
   0  -3  -5  573.94   40.50
   0  -3   5  690.43   38.50
   0  -3   5  703.23   39.20
   0  -3   5  666.83   39.40
   0   3  -5  591.34   38.10
   0   3   5  628.54   39.20
   0   3  -5  630.04   39.30
   0   3  -5  596.54   39.30
   0   3   5  605.34   38.90
   0   3   5  626.14   37.90
   0   3   5  645.14   39.10
   0   3  -5  635.44   38.80
   1  -3   5 1363.36   76.19
   1  -3   5 1354.76   77.09
   1  -3   5 1214.38   77.69
  -1  -3  -5 1359.66   77.29
  -1  -3  -5 1115.89   78.99
  -1   3  -5 1324.17   77.59
   1   3   5 1234.88   76.99
  -1   3  -5 1270.47   76.99
  -1   3  -5 1311.47   76.29
   1   3   5 1305.47   77.49
   1   3   5 1291.67   77.29
  -1   3  -5 1280.07   77.69
   2  -3   5  834.32   55.39
  -2  -3  -5  909.91   55.29
   2  -3   5  987.90   53.59
   2  -3   5  956.30   55.09
  -2  -3  -5  937.81   57.39
  -2   3  -5  904.11   55.09
   2   3   5  887.01   54.89
  -2   3  -5  850.71   55.09
   2   3   5  856.11   54.59
  -2   3  -5  869.21   54.39
   2   3   5  903.21   54.39
  -3  -3  -5  189.68   16.30
  -3  -3  -5  227.78   18.70
   3  -3   5  190.58   15.80
   3  -3   5  215.88   16.20
   3   3   5  221.28   14.80
   3   3   5  213.88   15.30
  -3   3  -5  226.88   15.90
  -3   3  -5  225.28   16.40
  -3   3  -5  225.18   15.30
   3   3   5  235.68   15.80
   4  -3   5   28.60    5.70
  -4  -3  -5   19.80    6.00
   4  -3   5   29.10    5.70
  -4  -3  -5   19.80    7.60
   4   3   5   25.50    5.30
   4   3   5   26.40    5.20
  -4   3  -5   21.60    6.30
  -4   3  -5   29.70    5.50
   5  -3   5  322.07   24.00
  -5  -3  -5  348.07   25.10
   5  -3   5  302.47   24.10
  -5  -3  -5  371.36   27.20
   5   3   5  377.46   25.10
  -5   3  -5  343.37   26.80
   5   3   5  364.96   25.30
  -5   3  -5  368.16   25.20
  -6  -3  -5   53.89   10.70
   6  -3   5   51.79    7.90
   6  -3   5   50.89    8.30
  -6  -3  -5   63.89    9.60
  -6   3  -5   91.39   11.90
   6   3   5   71.89   10.70
  -6   3  -5   83.09   13.50
   6   3   5   78.99   10.60
  -7  -3  -5  273.97   20.40
   7  -3   5  254.17   18.20
   7  -3   5  240.88   17.60
  -7  -3  -5  265.77   20.80
  -7   3  -5  167.48   22.20
  -7   3  -5  155.58   20.00
   7   3   5  173.48   20.60
   7   3   5  167.88   20.20
   8  -3   5  186.78   15.00
  -8  -3  -5  208.98   19.00
  -8  -3  -5  185.88   18.30
   8  -3   5  176.38   15.70
  -8   3  -5  142.09   21.30
   8   3   5  122.39   17.90
  -8   3  -5  102.89   18.90
   8   3   5  167.08   20.30
   8  -4  -5   62.09   10.80
   8  -4  -5   57.39    9.90
   8  -4  -5   73.49   10.40
  -8  -4   5   71.39   12.60
  -8  -4   5   67.79   13.40
   8   4  -5   33.80   12.70
  -8   4   5   61.09   12.30
  -8   4   5   53.89   17.90
   7  -4  -5  100.89   11.10
  -7  -4   5   81.99   12.60
  -7  -4   5   69.69   11.20
  -7  -4   5   89.59   13.50
   7  -4  -5   84.59   10.10
  -7   4   5   56.49   16.50
   7   4  -5   57.89   12.60
  -7   4   5   81.39   12.20
   6  -4  -5    3.50    4.40
  -6  -4   5    2.40    8.00
  -6  -4   5    1.60    6.10
  -6  -4   5    4.40    6.40
   6   4  -5    1.50    5.30
  -6   4   5    7.70    6.90
  -6   4   5   -7.10    9.50
   6   4  -5    1.20    6.60
   5  -4  -5  320.57   22.40
  -5  -4   5  328.17   23.00
  -5  -4   5  325.67   23.40
   5  -4  -5  332.57   22.40
  -5  -4   5  332.57   25.10
  -5   4   5  317.67   26.80
   5   4  -5  339.27   24.30
  -5   4   5  319.67   24.10
   5   4  -5  335.07   24.00
   4  -4  -5  418.16   26.00
  -4  -4   5  402.06   26.30
   4  -4  -5  397.46   25.80
  -4  -4   5  403.86   26.60
  -4  -4   5  453.25   28.40
  -4   4   5  352.36   27.00
   4   4  -5  355.46   27.00
  -4   4   5  394.56   28.40
  -3  -4   5  751.82   46.20
  -3  -4   5  736.43   46.40
   3  -4  -5  697.23   45.90
  -3   4   5  773.82   46.60
  -3   4   5  769.92   47.10
  -3   4   5  775.22   46.50
   3   4  -5  746.73   47.40
   3   4  -5  740.63   46.20
  -3   4   5  756.22   47.10
  -2  -4   5  582.84   39.00
  -2  -4   5  598.04   38.80
   2  -4  -5  566.64   38.70
   2  -4  -5  572.44   39.80
   2   4  -5  659.33   40.10
  -2   4   5  657.43   39.40
   2   4  -5  659.13   38.70
  -2   4   5  639.74   38.90
  -2   4   5  658.53   39.30
  -2   4   5  644.64   39.70
   2   4  -5  669.43   38.90
  -1  -4   5  742.73   40.80
   1  -4  -5  656.13   43.10
  -1  -4   5  702.23   41.60
   1  -4  -5  729.63   41.50
   1   4  -5  632.84   41.30
  -1   4   5  664.33   41.50
  -1   4   5  620.04   41.50
   1   4  -5  627.94   40.90
   1   4  -5  649.34   40.70
   1   4  -5  661.23   42.10
  -1   4   5  651.13   41.50
   0  -4  -5  222.78   15.40
   0  -4   5  260.07   16.40
   0  -4   5  254.67   15.20
   0  -4  -5  206.08   18.70
   0  -4   5  263.37   16.80
   0   4   5  232.28   16.50
   0   4  -5  233.38   17.00
   0   4  -5  224.78   15.20
   0   4   5  225.18   16.30
   0   4  -5  224.38   15.80
   0   4  -5  228.78   16.40
  -1  -4  -5   67.39   10.50
  -1  -4  -5   93.39    7.70
   1  -4   5   87.19    8.60
   1  -4   5   78.89    8.50
   1  -4   5   91.49    7.30
  -1   4  -5   87.79    8.80
   1   4   5   80.19    8.10
   1   4   5   86.19    8.50
  -1   4  -5   90.79    8.00
   1   4   5   85.79    7.80
  -2  -4  -5  396.46   25.30
  -2  -4  -5  382.06   28.70
   2  -4   5  352.56   25.80
   2  -4   5  425.46   25.00
   2   4   5  368.16   24.90
  -2   4  -5  358.66   25.60
   2   4   5  362.86   25.20
   2   4   5  397.56   24.90
  -2   4  -5  389.46   25.90
  -2   4  -5  389.46   24.70
  -3  -4  -5  275.97   22.00
   3  -4   5  254.67   17.80
  -3  -4  -5  262.07   18.70
   3  -4   5  257.37   18.70
   3   4   5  225.88   17.70
  -3   4  -5  233.58   17.20
  -3   4  -5  229.98   18.60
  -3   4  -5  252.67   18.50
   3   4   5  239.58   17.50
  -4  -4  -5  631.44   39.40
   4  -4   5  513.25   35.80
  -4  -4  -5  508.15   36.40
   4  -4   5  606.54   36.60
  -4   4  -5  533.15   37.10
   4   4   5  542.95   35.50
   4   4   5  544.05   36.20
  -4   4  -5  533.85   35.20
   5  -4   5  189.28   15.40
   5  -4   5  147.89   15.10
  -5  -4  -5  156.98   16.40
  -5  -4  -5  198.18   19.60
  -5   4  -5  167.18   18.20
  -5   4  -5  185.18   16.00
   5   4   5  181.48   15.90
   5   4   5  195.48   16.80
   6  -4   5  177.88   15.20
   6  -4   5  153.78   15.30
  -6  -4  -5  202.38   19.60
  -6  -4  -5  171.48   17.40
  -6   4  -5  169.58   18.00
   6   4   5  170.68   17.30
  -6   4  -5  164.58   20.50
   6   4   5  173.58   18.00
   7  -4   5   99.19   11.00
   7  -4   5   89.89   11.10
  -7  -4  -5  104.19   12.70
  -7  -4  -5   92.29   14.20
   7   4   5   80.29   13.90
  -7   4  -5   84.49   17.00
   7   4   5   79.69   13.70
  -7   4  -5   76.19   13.90
   7  -5  -5  146.89   16.40
   7  -5  -5  170.38   15.40
   7  -5  -5  170.78   15.40
  -7  -5   5  129.79   17.40
  -7  -5   5  163.38   17.70
  -7   5   5  110.79   20.60
   7   5  -5  112.59   17.40
  -7   5   5  122.39   16.30
   6  -5  -5  392.56   28.30
  -6  -5   5  418.66   29.80
  -6  -5   5  419.56   32.80
   6  -5  -5  420.46   28.80
   6   5  -5  457.05   32.20
   6   5  -5  429.06   31.10
  -6   5   5  415.16   34.80
  -6   5   5  386.06   31.10
  -5  -5   5  316.77   22.70
   5  -5  -5  300.47   21.50
  -5  -5   5  307.47   22.60
  -5  -5   5  309.87   25.60
   5  -5  -5  325.17   21.90
  -5   5   5  261.37   23.80
   5   5  -5  292.17   23.90
   5   5  -5  319.87   23.70
   4  -5  -5  136.79   12.60
  -4  -5   5  141.29   13.00
   4  -5  -5  148.99   12.70
  -4  -5   5  147.89   16.50
  -4  -5   5  156.18   13.60
  -4   5   5  162.18   14.90
  -4   5   5  154.88   14.70
   4   5  -5  162.78   15.10
   3  -5  -5  129.59   11.00
  -3  -5   5  136.99   11.60
  -3  -5   5  129.49   11.20
   3   5  -5  115.49   12.60
  -3   5   5  111.29   11.50
  -3   5   5  115.39   12.50
   3   5  -5  116.79   10.90
  -3   5   5  113.69   11.50
   2  -5  -5   78.79    8.30
  -2  -5   5   68.09    8.20
  -2  -5   5   68.39    7.50
  -2   5   5   69.09    8.80
   2   5  -5   70.79    9.30
   2   5  -5   59.79    7.00
  -2   5   5   64.49    7.70
  -2   5   5   61.09    7.80
  -1  -5   5  334.87   23.10
  -1  -5   5  351.86   23.00
   1  -5  -5  296.77   25.10
   1  -5  -5  356.56   23.30
  -1   5   5  343.27   23.60
   1   5  -5  336.97   24.30
  -1   5   5  360.66   23.40
   1   5  -5  341.67   22.90
   1   5  -5  330.37   22.40
  -1   5   5  333.17   23.30
   0  -5   5  593.44   35.30
   0  -5   5  563.64   34.90
   0  -5  -5  429.96   37.10
   0   5  -5  536.45   34.90
   0   5  -5  558.44   36.20
   0   5   5  529.55   35.10
   0   5  -5  546.25   34.30
   0   5   5  556.34   35.00
   0   5   5  550.04   35.20
   1  -5   5  204.78   18.20
   1  -5   5  256.67   18.40
  -1  -5  -5  205.58   21.50
  -1   5  -5  251.27   18.40
   1   5   5  271.67   18.70
   1   5   5  260.67   18.10
   1   5   5  259.57   18.30
  -1   5  -5  263.27   17.60
  -2  -5  -5  306.47   25.80
   2  -5   5  316.07   20.30
   2  -5   5  291.07   21.30
   2  -5   5  280.27   21.80
   2   5   5  277.57   21.10
  -2   5  -5  302.87   20.50
   2   5   5  302.87   20.80
  -2   5  -5  284.97   21.50
  -2   5  -5  314.27   22.70
  -3  -5  -5  344.37   27.80
   3  -5   5  336.67   22.50
   3  -5   5  358.56   24.30
  -3  -5  -5  333.37   23.20
   3   5   5  294.77   23.10
  -3   5  -5  315.17   22.20
  -3   5  -5  302.87   23.60
   3   5   5  313.67   22.60
  -4  -5  -5    3.50    6.00
   4  -5   5    4.30    5.60
  -4  -5  -5    6.30    9.50
   4  -5   5    7.30    4.90
   4   5   5    5.80    5.10
  -4   5  -5   13.00    5.60
   4   5   5   11.30    5.80
  -4   5  -5    6.20    6.90
  -5  -5  -5   87.99   11.70
   5  -5   5  103.39   11.80
  -5  -5  -5   81.89   14.60
   5  -5   5   76.39   10.50
  -5   5  -5  103.29   14.10
   5   5   5   93.19   12.10
  -5   5  -5   89.69   10.90
   5   5   5   83.39   10.90
  -6  -5  -5   27.10    9.10
   6  -5   5   29.00    7.50
   6  -5   5   24.80    6.80
  -6  -5  -5   34.10   12.00
   6   5   5   17.00    8.60
  -6   5  -5   14.90    8.40
  -6   5  -5   18.70   11.20
   6   5   5   15.30    7.70
   6  -6  -5    7.60    6.20
  -6  -6   5    9.20   11.00
  -6  -6   5    7.70    7.70
   6  -6  -5    7.90    6.00
   6   6  -5    7.20    8.20
  -6   6   5    5.00    8.40
   6   6  -5   11.00    7.90
   5  -6  -5  129.39   12.90
  -5  -6   5  124.19   16.30
  -5  -6   5   96.19   12.00
   5  -6  -5  108.99   12.30
   5   6  -5  100.09   12.60
   5   6  -5  103.19   14.30
  -5   6   5  105.29   14.40
  -4  -6   5  141.49   14.10
  -4  -6   5  147.09   17.10
   4  -6  -5  132.59   13.00
   4  -6  -5  149.09   13.60
  -4   6   5  112.29   14.40
   4   6  -5  132.09   16.20
   3  -6  -5  126.19   12.70
  -3  -6   5  129.89   15.70
  -3  -6   5  130.49   12.80
  -3  -6   5  130.79   13.20
   3   6  -5  142.59   15.60
  -3   6   5  145.19   14.00
  -3   6   5  146.79   15.20
  -3   6   5  125.39   13.10
  -2  -6   5  390.96   26.90
  -2  -6   5  383.76   26.80
   2  -6  -5  377.46   27.00
  -2   6   5  388.86   28.60
   2   6  -5  419.66   29.70
  -2   6   5  392.66   27.30
  -2   6   5  402.26   27.40
  -1  -6   5  547.65   34.30
  -1  -6   5  553.24   33.80
   1  -6  -5  546.45   34.20
  -1   6   5  498.75   34.30
  -1   6   5  489.55   34.00
  -1   6   5  520.05   35.30
   1   6  -5  458.65   33.00
   1   6  -5  504.65   36.50
   0  -6  -5   25.20    9.80
   0  -6  -5   39.90    7.60
   0  -6   5   40.30    7.40
   0   6   5   57.19    8.30
   0   6   5   57.09    8.80
   0   6  -5   48.00    9.70
   0   6  -5   51.79    7.70
   0   6   5   49.90    7.60
   0   6  -5   59.49    7.20
  -1  -6  -5  148.69   17.90
   1  -6   5  144.99   13.40
   1  -6   5  126.29   13.50
   1   6   5  140.09   13.10
  -1   6  -5  147.19   12.40
   1   6   5  126.49   13.40
  -1   6  -5  129.59   13.20
  -2  -6  -5  113.39   16.20
   2  -6   5  109.59   12.90
   2  -6   5  120.29   13.00
  -2   6  -5  125.79   11.70
   2   6   5  124.59   13.30
  -2   6  -5  123.29   13.20
   2   6   5  137.59   12.70
  -3  -6  -5   46.60   12.80
   3  -6   5   45.50    8.80
   3  -6   5   38.90    7.90
   3   6   5   45.90    7.80
   3   6   5   35.70    8.30
  -3   6  -5   41.50    7.10
  -3   6  -5   41.90    8.80
  -4  -6  -5  421.56   32.90
   4  -6   5  368.06   29.90
   4  -6   5  405.26   28.00
   4   6   5  367.06   26.70
  -4   6  -5  342.97   26.10
   4   6   5  347.87   27.70
  -4   6  -5  345.37   28.20
   5  -6   5  102.79   12.60
   5  -6   5  102.09   12.50
  -5  -6  -5  117.09   17.50
   5   6   5  107.29   14.20
  -5   6  -5  107.49   15.30
   4  -7  -5   20.60    6.90
  -4  -7   5   17.70   11.60
  -4  -7   5   16.20    7.40
   4  -7  -5   20.90    7.00
   4   7  -5   19.80    9.40
  -4   7   5   13.70    9.00
   3  -7  -5   10.20    6.30
  -3  -7   5   13.50    7.00
  -3  -7   5    8.40   10.30
  -3   7   5   12.20    8.40
  -3   7   5   10.90    7.00
  -3   7   5    9.50    7.30
   3   7  -5   10.20    8.80
   2  -7  -5    9.10    6.50
  -2  -7   5    3.50    9.30
  -2  -7   5    4.90    6.20
  -2   7   5    3.20    6.30
  -2   7   5    5.60    7.90
   2   7  -5    6.00    8.60
  -2   7   5    6.30    6.50
  -1  -7   5  166.48   21.40
  -1  -7   5  192.98   17.00
   1  -7  -5  221.28   18.30
   1   7  -5  212.98   22.40
  -1   7   5  216.48   18.10
  -1   7   5  209.08   18.40
   0  -7   5  344.17   29.30
   0  -7   5  357.26   25.70
   0  -7   5  366.86   26.40
   0  -7  -5  391.06   26.90
   0   7  -5  395.76   30.50
   0   7  -5  355.76   25.20
   0   7  -5  299.37   25.20
   0   7   5  372.06   26.50
   0   7   5  399.06   27.20
  -1  -7  -5    2.70   10.10
   1  -7   5    0.40    5.70
  -1   7  -5    1.90    6.00
   1   7   5    3.30    6.20
   1   7   5    1.50    5.60
  -1   7  -5    1.40    4.90
   2  -7   5   75.39    9.90
  -2  -7  -5   68.49   15.40
   2   7   5   50.09    9.60
  -2   7  -5   50.09    9.40
  -2   7  -5   52.99    8.40
   2   7   5   58.79    9.20
  -3  -7  -5  217.98   25.30
   3  -7   5  189.98   18.40
   3  -7   5  193.78   19.20
   3   7   5  225.08   19.30
  -3   7  -5  210.78   19.50
  10   0  -6  182.18   22.70
 -10   0   6  171.68   25.30
   9   0  -6   47.50    9.10
  -9   0   6   52.89   13.50
   8   0  -6  496.65   31.20
   8   0  -6  465.85   32.40
  -8   0   6  458.15   31.70
  -8   0   6  433.56   35.50
  -7   0   6  209.38   16.60
   7   0  -6  206.38   15.60
   7   0  -6  186.88   16.90
   7   0  -6  210.68   17.20
  -7   0   6  204.88   20.40
   6   0  -6   34.10    5.40
   6   0  -6   37.80    6.90
  -6   0   6   23.80    8.00
  -6   0   6   35.50    6.20
   6   0  -6   33.20    6.30
  -5   0   6  234.28   17.30
   5   0  -6  255.67   18.20
   5   0  -6  249.28   16.80
  -5   0   6  241.28   19.80
   5   0  -6  206.68   18.00
  -5   0   6  276.57   16.50
   5   0  -6  263.07   16.50
   4   0  -6   33.50    3.60
  -4   0   6   32.40    5.70
  -4   0   6   32.40    3.90
   4   0  -6   30.60    3.50
   4   0  -6   27.20    5.00
   4   0  -6   37.40    5.30
  -4   0   6   31.10    3.60
   3   0  -6 1221.78   72.99
   3   0  -6 1217.48   72.59
  -3   0   6 1169.38   72.89
   3   0  -6 1231.88   71.79
  -3   0   6 1209.28   71.89
  -3   0   6 1195.28   71.79
   3   0  -6 1220.58   71.69
  -2   0   6 3812.72  234.38
  -2   0   6 3990.40  233.68
   2   0  -6 3929.51  233.88
   2   0  -6 4079.89  234.68
   2   0  -6 4033.70  233.98
  -2   0   6 3921.21  233.68
  -2   0   6 4050.19  233.88
   1   0  -6  210.28   13.20
  -1   0   6  224.98   13.50
  -1   0   6  214.38   13.20
   1   0  -6  215.08   14.10
   1   0  -6  213.68   13.30
   1   0  -6  218.68   13.50
   0   0   6    5.70    1.30
   0   0  -6    7.50    1.20
   0   0  -6    5.90    1.70
   0   0   6    7.80    1.20
   0   0  -6    5.90    1.40
   0   0   6    5.70    1.40
   0   0   6    6.00    1.20
   0   0  -6    6.40    1.30
   1   0   6 1251.57   74.89
  -1   0  -6 1269.57   75.39
   1   0   6 1279.67   74.69
   1   0   6 1216.18   74.99
  -1   0  -6 1307.67   75.09
  -1   0  -6 1251.37   74.89
   2   0   6  452.05   28.50
  -2   0  -6  443.36   29.10
  -2   0  -6  480.35   28.60
   2   0   6  466.75   28.10
   2   0   6  476.65   28.70
  -2   0  -6  459.55   28.50
   3   0   6 2109.59  123.79
   3   0   6 2062.89  124.49
  -3   0  -6 2167.48  124.29
  -3   0  -6 1939.91  124.49
  -3   0  -6 2120.09  124.29
   3   0   6 2107.69  124.19
   4   0   6  620.74   41.30
   4   0   6  686.63   41.30
   4   0   6  631.44   41.80
  -4   0  -6  720.93   42.30
  -4   0  -6  648.74   41.90
   5   0   6    4.00    3.80
  -5   0  -6    4.60    5.90
  -5   0  -6    3.10    5.80
  -5   0  -6    7.00    6.10
   5   0   6    4.10    3.80
   5   0   6    5.40    4.50
  -6   0  -6  376.96   25.10
   6   0   6  320.67   23.80
  -6   0  -6  296.97   26.20
  -6   0  -6  323.77   25.40
   6   0   6  351.56   24.70
  -7   0  -6  416.26   30.70
  -7   0  -6  331.77   30.90
   7   0   6  427.86   29.00
   7   0   6  422.86   27.40
   7   0   6  382.96   28.10
  -8   0  -6   14.70   11.10
   8   0   6   14.70    7.40
  -9  -1   6   32.00    9.30
  -9  -1   6   24.40   11.90
   9  -1  -6   38.90    8.70
   9  -1  -6   25.90    6.60
   9   1  -6   24.60    8.20
  -9   1   6   22.70   12.20
   8  -1  -6    4.10    4.80
  -8  -1   6   16.40    9.70
   8  -1  -6    1.30    5.60
  -8  -1   6    2.80    7.20
   8   1  -6   15.40    7.00
  -8   1   6    9.80   10.00
  -7  -1   6  728.93   48.20
   7  -1  -6  741.13   47.50
  -7  -1   6  708.23   50.89
   7  -1  -6  622.74   48.10
  -7   1   6  833.12   51.89
  -7   1   6  771.22   47.50
   7   1  -6  833.32   49.00
   7   1  -6  773.32   49.40
  -6  -1   6  575.44   37.70
   6  -1  -6  534.75   38.20
  -6  -1   6  542.95   39.60
   6  -1  -6  593.94   37.60
   6   1  -6  613.64   38.90
  -6   1   6  615.74   41.40
  -6   1   6  572.94   37.20
   6   1  -6  659.93   37.80
  -6   1   6  642.14   37.70
   6   1  -6  527.55   38.90
  -5  -1   6   99.59   11.30
   5  -1  -6   98.09    9.70
  -5  -1   6   94.69    9.60
   5  -1  -6   88.29    9.90
   5   1  -6  129.59   11.70
  -5   1   6  117.59   13.80
   5   1  -6  131.39   12.10
  -5   1   6  123.49    9.80
  -5   1   6  139.89   10.50
   5   1  -6  139.29    9.70
   5   1  -6  136.39    9.50
   4  -1  -6  463.15   31.50
  -4  -1   6  489.95   32.40
  -4  -1   6  487.45   30.70
   4  -1  -6  487.55   31.80
  -4   1   6  502.55   34.80
   4   1  -6  539.05   33.50
  -4   1   6  560.74   32.00
   4   1  -6  493.75   33.70
   4   1  -6  512.35   31.50
  -4   1   6  502.05   31.60
   4   1  -6  576.94   31.70
   3  -1  -6 2170.98  126.39
  -3  -1   6 2254.17  126.59
   3  -1  -6 2193.08  127.49
  -3  -1   6 2217.38  127.79
   3  -1  -6 2161.28  127.09
  -3   1   6 2058.09  127.19
  -3   1   6 1920.01  126.99
  -3   1   6 2096.59  129.39
   3   1  -6 2264.27  129.39
   3   1  -6 2187.48  126.99
  -3   1   6 2134.69  127.09
   3   1  -6 2096.39  127.19
   2  -1  -6  123.09    8.30
   2  -1  -6  124.29    7.90
  -2  -1   6  117.39    8.80
  -2  -1   6  130.69    7.90
   2   1  -6  117.39    8.50
  -2   1   6  131.59    9.90
  -2   1   6  113.29    8.50
  -2   1   6  113.99    8.30
   2   1  -6  122.59    8.20
   2   1  -6  127.69   10.30
   1  -1  -6  917.21   56.49
   1  -1  -6  934.81   57.09
  -1  -1   6  897.81   57.49
  -1  -1   6  963.40   56.99
  -1   1   6  989.20   57.39
  -1   1   6  953.50   57.29
  -1   1   6  958.10   57.39
  -1   1   6 1014.70   57.49
   1   1  -6  963.80   57.39
   1   1  -6  932.11   57.09
   1   1  -6 1054.89   58.99
   0  -1  -6  629.24   37.00
   0  -1  -6  618.94   36.20
   0  -1   6  619.54   36.60
   0  -1   6  623.84   36.30
   0  -1   6  587.24   36.90
   0   1   6  592.44   36.30
   0   1   6  599.24   36.70
   0   1  -6  619.44   37.00
   0   1  -6  612.44   36.60
   0   1   6  583.84   36.70
   0   1  -6  637.34   37.90
   0   1   6  598.54   36.70
   0   1  -6  601.54   36.90
  -1  -1  -6   67.79    6.30
   1  -1   6   68.09    6.30
  -1  -1  -6   68.39    7.40
   1   1   6  101.09    6.60
   1   1   6   94.29    5.90
  -1   1  -6  108.19    7.20
  -1   1  -6   95.79    7.50
   1   1   6   94.69    6.60
  -1   1  -6   97.19    7.00
  -1   1  -6  102.69    6.70
   1   1   6   99.19    6.60
   2  -1   6 2515.35  161.88
   2  -1   6 2937.21  161.08
  -2  -1  -6 2654.33  161.78
  -2  -1  -6 2543.65  162.48
   2  -1   6 2686.83  161.88
  -2  -1  -6 2842.42  161.18
  -2   1  -6 2804.12  161.58
  -2   1  -6 2832.02  161.88
   2   1   6 2745.93  161.58
  -2   1  -6 2851.11  162.08
   2   1   6 2877.11  161.68
  -2   1  -6 2333.37  161.58
   2   1   6 2893.41  161.58
  -3  -1  -6 1324.47   70.49
   3  -1   6 1168.78   70.89
   3  -1   6 1035.40   70.89
   3  -1   6 1229.08   70.19
  -3  -1  -6 1044.90   71.39
  -3  -1  -6 1042.20   70.79
  -3   1  -6 1195.58   71.09
   3   1   6 1202.88   70.49
   3   1   6 1244.18   70.69
  -3   1  -6 1197.58   70.49
  -4  -1  -6  135.69   12.70
  -4  -1  -6  159.78   12.30
   4  -1   6  123.59   11.30
   4  -1   6  143.09   12.10
  -4  -1  -6  138.19   13.40
   4  -1   6  122.89   10.90
   4   1   6  158.88   11.50
  -4   1  -6  155.68   12.60
   4   1   6  149.29   11.10
  -4   1  -6  125.09   12.10
  -4   1  -6  159.58   12.90
   4   1   6  150.08   12.00
   5  -1   6   10.10    4.60
   5  -1   6    7.90    4.20
  -5  -1  -6    8.80    6.30
  -5  -1  -6   13.60    7.00
   5  -1   6   14.40    4.50
   5   1   6    2.30    4.60
  -5   1  -6    7.80    6.20
  -5   1  -6   -3.60    5.10
   5   1   6    5.30    3.70
  -5   1  -6   11.70    6.60
   5   1   6    5.80    4.00
   6  -1   6  151.48   12.40
  -6  -1  -6  184.38   16.00
   6  -1   6  143.69   13.20
   6   1   6  116.89   12.10
  -6   1  -6   99.09   13.90
   6   1   6  119.49   13.00
  -6   1  -6  123.49   15.30
   6   1   6  132.19   14.30
   7  -1   6  178.68   14.20
   7  -1   6  165.08   15.10
  -7  -1  -6  157.58   15.60
  -7  -1  -6  169.38   18.30
  -7   1  -6  147.19   18.50
   7   1   6  161.28   17.20
   7   1   6  136.79   15.60
  -7   1  -6  149.09   17.70
   8  -1   6  475.25   32.20
   8  -1   6  474.85   30.90
  -8  -1  -6  498.95   34.20
  -8   1  -6  470.15   35.70
   8   1   6  411.56   32.90
   8   1   6  473.35   33.80
  -8   1  -6  390.16   36.40
  -9  -2   6   65.59   12.20
   9  -2  -6   69.99   10.50
   9  -2  -6   65.99   11.50
  -9  -2   6   82.69   15.40
  -9   2   6   84.79   16.90
   9   2  -6   83.69   12.80
  -8  -2   6  376.36   32.20
   8  -2  -6  361.86   27.90
   8  -2  -6  411.76   27.60
   8  -2  -6  329.87   28.70
  -8  -2   6  383.46   29.80
  -8   2   6  449.06   34.80
  -8   2   6  408.86   28.80
   8   2  -6  469.45   31.10
   7  -2  -6  327.57   24.40
   7  -2  -6  330.27   23.20
  -7  -2   6  335.67   27.00
  -7  -2   6  337.97   24.90
  -7   2   6  358.76   29.70
  -7   2   6  312.97   23.90
   7   2  -6  311.77   25.80
  -6  -2   6  104.69   11.30
   6  -2  -6  106.89    9.60
  -6  -2   6  111.39   11.30
   6  -2  -6   90.99   10.40
  -6  -2   6  109.99   12.80
   6   2  -6  102.19   12.90
   6   2  -6  104.29   10.10
  -6   2   6  111.79   15.30
   6   2  -6  102.99   12.70
  -6   2   6  104.09   10.70
  -5  -2   6   80.49    9.50
   5  -2  -6   86.09    8.30
  -5  -2   6   84.59    8.40
   5  -2  -6   86.39    8.10
   5  -2  -6   77.89    7.50
   5   2  -6   55.69    9.30
   5   2  -6   83.39   11.20
  -5   2   6   94.49    8.90
  -5   2   6   91.09   13.00
   5   2  -6   83.69    8.30
  -4  -2   6  261.77   16.90
   4  -2  -6  250.67   15.60
  -4  -2   6  240.68   15.90
   4  -2  -6  249.78   15.90
   4  -2  -6  237.78   15.80
  -4   2   6  226.38   16.10
   4   2  -6  226.48   19.20
  -4   2   6  210.68   19.50
   4   2  -6  227.18   16.10
   4   2  -6  186.48   16.80
   3  -2  -6  765.62   46.50
  -3  -2   6  794.62   45.40
   3  -2  -6  757.62   45.40
  -3  -2   6  795.62   47.10
  -3  -2   6  762.22   46.40
  -3   2   6  766.22   46.80
   3   2  -6  733.93   46.80
   3   2  -6  798.62   47.20
  -3   2   6  745.43   46.60
   3   2  -6  743.23   50.09
  -2  -2   6 3035.70  177.18
  -2  -2   6 3017.30  177.88
   2  -2  -6 2945.71  177.88
   2  -2  -6 2972.60  177.38
  -2  -2   6 3077.79  178.38
   2   2  -6 3084.29  177.88
   2   2  -6 2978.00  178.28
  -2   2   6 3049.09  178.08
  -2   2   6 3018.00  178.18
   2   2  -6 3211.28  177.88
  -2   2   6 3072.99  178.18
   2   2  -6 2664.83  181.08
   1  -2  -6  781.12   49.60
  -1  -2   6  859.61   49.99
  -1  -2   6  830.12   49.10
   1  -2  -6  857.11   49.70
  -1   2   6  848.72   49.99
  -1   2   6  803.12   49.70
   1   2  -6  832.92   49.90
  -1   2   6  800.32   49.80
   1   2  -6  793.12   49.40
   1   2  -6  848.92   49.00
  -1   2   6  792.52   49.70
   1   2  -6  840.72   49.90
   0  -2  -6  208.28   12.40
   0  -2   6  195.08   11.70
   0  -2   6  177.88   10.90
   0   2   6  150.98   11.10
   0   2   6  154.78   11.00
   0   2  -6  145.89   11.20
   0   2   6  150.48   11.20
   0   2  -6  155.28   11.00
   0   2  -6  155.38   11.40
  -1  -2  -6  656.53   47.20
   1  -2   6  842.92   47.60
  -1  -2  -6  763.92   48.60
  -1   2  -6  771.02   47.50
   1   2   6  827.02   47.50
  -1   2  -6  813.12   47.80
   1   2   6  800.22   47.20
  -1   2  -6  699.03   48.60
  -1   2  -6  823.72   47.30
   1   2   6  830.32   47.40
  -2  -2  -6  212.38   14.80
   2  -2   6  219.88   13.60
  -2  -2  -6  217.38   16.30
   2  -2   6  229.48   14.80
   2  -2   6  221.08   14.90
   2   2   6  217.58   14.20
  -2   2  -6  193.38   13.90
   2   2   6  208.38   14.10
  -2   2  -6  212.08   14.80
  -2   2  -6  213.18   14.20
   2   2   6  169.88   13.60
   3  -2   6  824.62   60.39
  -3  -2  -6  917.61   61.69
   3  -2   6  947.31   59.99
  -3  -2  -6  931.91   60.69
   3  -2   6  952.30   60.79
  -3   2  -6 1043.90   61.09
   3   2   6 1033.80   60.29
   3   2   6 1069.09   59.99
  -3   2  -6 1054.19   60.19
   3   2   6 1048.20   60.39
  -3   2  -6 1071.59   60.69
  -4  -2  -6 1185.88   69.39
   4  -2   6 1228.88   69.49
   4  -2   6 1134.49   69.19
  -4  -2  -6 1235.78   70.59
   4   2   6 1099.89   68.99
   4   2   6 1087.89   68.99
  -4   2  -6 1101.99   68.79
  -4   2  -6 1064.29   69.79
   4   2   6 1040.70   68.29
   5  -2   6  432.36   27.30
  -5  -2  -6  454.55   28.10
  -5  -2  -6  449.76   29.00
   5  -2   6  404.96   26.90
   5   2   6  362.36   27.40
   5   2   6  370.96   27.40
  -5   2  -6  363.76   28.90
  -5   2  -6  362.56   27.60
  -6  -2  -6  166.08   16.20
   6  -2   6  149.88   13.40
  -6  -2  -6  160.68   15.40
   6  -2   6  172.08   14.00
   6   2   6  161.68   15.50
   6   2   6  127.99   14.80
  -6   2  -6  140.69   18.00
  -6   2  -6  141.79   15.70
  -7  -2  -6  324.37   23.00
   7  -2   6  294.87   20.00
  -7  -2  -6  331.67   22.60
   7  -2   6  296.27   20.70
  -7   2  -6  191.28   22.60
   7   2   6  226.88   22.40
   7   2   6  219.38   22.70
  -7   2  -6  206.68   25.00
  -8  -2  -6   10.00    9.30
   8  -2   6   12.30    6.20
   8  -2   6   10.30    5.40
   8   2   6   -5.80    7.20
  -8   2  -6   -8.60   11.40
  -8   2  -6   -6.80   11.60
   8   2   6   -2.40    8.20
   9  -3  -6   27.40    9.00
  -9  -3   6   33.00   11.90
   9  -3  -6   34.60    8.40
  -9  -3   6   33.10   11.00
   9  -3  -6   25.80    7.00
  -9   3   6   36.50   10.10
   9   3  -6   29.80   11.00
  -9   3   6   39.80   15.90
  -8  -3   6   26.80   11.20
  -8  -3   6   27.00   10.10
   8  -3  -6   17.50    8.10
   8  -3  -6   22.10    7.00
   8  -3  -6   16.70    6.60
  -8   3   6   10.00   13.70
   8   3  -6   21.40   10.20
  -8   3   6   31.10    8.70
   7  -3  -6  459.55   30.70
  -7  -3   6  472.25   34.10
  -7  -3   6  475.45   32.40
   7  -3  -6  494.35   31.80
  -7   3   6  446.96   32.20
   7   3  -6  457.95   32.00
   7   3  -6  360.96   33.50
  -7   3   6  489.85   38.40
  -6  -3   6  482.15   30.80
   6  -3  -6  464.65   30.20
   6  -3  -6  467.85   29.80
  -6  -3   6  468.05   32.10
  -6  -3   6  472.05   31.80
   6   3  -6  430.26   30.90
  -6   3   6  411.26   35.90
  -6   3   6  434.76   31.20
  -5  -3   6  359.06   24.40
   5  -3  -6  359.36   23.30
   5  -3  -6  355.06   23.00
   5  -3  -6  362.76   23.30
  -5  -3   6  373.26   25.10
  -5  -3   6  353.06   23.50
   5   3  -6  309.77   23.80
  -5   3   6  331.17   24.00
   5   3  -6  328.47   25.10
   4  -3  -6  435.96   27.80
  -4  -3   6  445.26   27.90
  -4  -3   6  435.16   28.50
   4   3  -6  420.56   28.50
   4   3  -6  452.95   33.20
  -4   3   6  443.16   28.10
  -4   3   6  416.76   28.30
  -3  -3   6  849.72   49.40
   3  -3  -6  842.32   48.90
  -3  -3   6  828.92   48.80
   3   3  -6  787.62   48.80
  -3   3   6  786.22   49.30
   3   3  -6  727.63   53.49
   3   3  -6  756.32   49.40
  -3   3   6  803.32   50.69
  -3   3   6  802.42   49.10
  -2  -3   6  114.19    9.00
  -2  -3   6  111.69    7.20
   2  -3  -6  109.69    8.70
  -2  -3   6  111.69    8.80
   2  -3  -6  115.69    8.30
  -2   3   6  115.69    9.10
  -2   3   6  107.89    8.80
  -2   3   6  104.39    9.00
   2   3  -6  113.99    9.30
  -2   3   6  121.69    9.20
   2   3  -6   72.59   11.80
   2   3  -6  108.59    8.50
   2   3  -6  114.89    8.20
   1  -3  -6  538.05   31.90
  -1  -3   6  557.74   30.60
  -1  -3   6  557.34   31.70
   1  -3  -6  543.75   31.40
   1   3  -6  457.55   31.50
   1   3  -6  457.85   30.90
  -1   3   6  514.35   30.60
  -1   3   6  455.45   31.20
   1   3  -6  480.75   31.40
  -1   3   6  486.95   31.40
   1   3  -6  487.45   30.40
  -1   3   6  489.45   31.30
   0  -3   6  708.63   41.80
   0  -3   6  673.93   41.60
   0  -3  -6  575.34   41.50
   0  -3  -6  643.84   43.30
   0  -3   6  698.03   42.40
   0   3   6  736.63   42.30
   0   3  -6  695.03   42.40
   0   3   6  710.13   42.00
   0   3  -6  682.33   40.90
   0   3   6  692.83   42.10
   0   3  -6  714.83   41.80
   0   3  -6  700.63   42.40
  -1  -3  -6  462.35   33.70
   1  -3   6  541.55   33.90
  -1  -3  -6  494.55   35.50
   1  -3   6  570.54   34.20
   1  -3   6  584.24   34.10
   1   3   6  545.95   33.70
  -1   3  -6  548.25   34.10
   1   3   6  555.44   33.90
  -1   3  -6  554.24   33.50
  -1   3  -6  548.65   34.10
   2  -3   6  687.63   47.00
  -2  -3  -6  817.12   49.20
   2  -3   6  728.33   47.20
  -2  -3  -6  721.33   47.20
  -2   3  -6  761.82   47.10
  -2   3  -6  793.62   47.10
  -2   3  -6  730.13   46.20
   2   3   6  795.72   46.90
   2   3   6  805.42   46.40
   2   3   6  746.93   46.50
  -3  -3  -6  959.80   60.29
   3  -3   6  882.31   59.99
  -3  -3  -6  980.10   61.89
   3  -3   6  887.31   59.99
  -3   3  -6  992.00   60.39
  -3   3  -6 1008.50   60.09
   3   3   6 1013.50   59.19
  -3   3  -6 1017.80   59.39
   3   3   6 1009.10   59.59
   3   3   6  978.80   59.79
   4  -3   6  560.94   37.60
  -4  -3  -6  570.04   38.00
   4  -3   6  546.95   37.60
  -4  -3  -6  630.44   39.90
   4   3   6  595.84   37.50
   4   3   6  568.64   37.60
  -4   3  -6  580.14   38.10
  -4   3  -6  575.74   38.60
  -4   3  -6  625.94   37.40
  -5  -3  -6  153.28   15.70
   5  -3   6  125.99   11.70
  -5  -3  -6  128.59   13.20
   5  -3   6  115.69   11.30
   5   3   6   98.99   11.50
   5   3   6   94.49   11.80
  -5   3  -6   98.09   13.20
  -5   3  -6  107.39   12.00
  -6  -3  -6   86.49   12.60
   6  -3   6   82.19    9.90
   6  -3   6   77.39    9.60
  -6   3  -6   87.09   14.00
   6   3   6   75.19   11.10
  -6   3  -6   93.89   12.60
   7  -3   6   94.59   10.40
  -7  -3  -6   76.99   11.10
   7  -3   6   90.69   10.00
  -7  -3  -6   83.99   12.40
  -7   3  -6   37.50   12.80
   7   3   6   53.69   11.90
  -7   3  -6   52.49   14.40
   7   3   6   48.50   11.40
  -8  -3  -6  123.69   14.20
  -8  -3  -6  113.19   14.50
   8  -3   6  120.69   12.40
   8  -3   6  138.79   13.50
   8   3   6   88.39   15.60
  -8   3  -6  112.39   19.40
  -8   3  -6   61.89   16.50
   8   3   6  119.09   16.90
  -8  -4   6  198.88   22.00
  -8  -4   6  197.58   20.90
  -8  -4   6  207.38   25.40
   8  -4  -6  192.18   17.30
   8  -4  -6  208.28   18.60
   8  -4  -6  190.78   18.20
  -8   4   6  168.58   25.20
   8   4  -6  123.19   20.30
  -8   4   6  189.58   20.20
  -7  -4   6   80.69   12.40
  -7  -4   6   76.29   11.20
   7  -4  -6   86.49   10.60
   7  -4  -6   87.49   10.10
  -7  -4   6   89.79   13.60
  -7   4   6   46.00   16.30
   7   4  -6   62.19   13.00
   7   4  -6   88.69   11.90
  -7   4   6   81.29   12.30
   6  -4  -6  256.67   18.10
   6  -4  -6  250.97   18.30
  -6  -4   6  247.98   19.40
  -6  -4   6  252.87   21.50
  -6  -4   6  240.28   19.80
   6   4  -6  207.18   20.80
   6   4  -6  224.38   19.40
  -6   4   6  200.98   19.80
  -5  -4   6   80.29   10.90
   5  -4  -6   73.29    8.00
   5  -4  -6   75.49    8.30
  -5  -4   6   77.99    9.40
  -5  -4   6   75.59    8.60
   5   4  -6   68.29    9.40
  -5   4   6   66.89   12.00
   5   4  -6   77.79    9.80
  -5   4   6   59.69    9.30
   4  -4  -6  519.55   29.00
  -4  -4   6  500.05   29.20
  -4  -4   6  501.65   29.70
   4   4  -6  390.96   29.60
  -4   4   6  386.86   29.50
  -4   4   6  385.96   28.90
   4   4  -6  420.96   29.20
  -4   4   6  424.86   31.30
  -3  -4   6  433.56   26.70
  -3  -4   6  430.76   26.90
   3  -4  -6  417.86   26.40
  -3   4   6  385.26   26.70
   3   4  -6  399.96   26.30
  -3   4   6  402.46   26.80
  -3   4   6  406.86   27.30
   3   4  -6  371.06   27.40
  -3   4   6  433.26   27.60
  -2  -4   6 1092.49   63.69
   2  -4  -6 1013.30   63.59
  -2  -4   6 1025.50   63.89
   2   4  -6 1024.60   63.39
  -2   4   6 1043.20   63.99
   2   4  -6 1074.39   64.79
   2   4  -6 1070.59   63.29
  -2   4   6 1031.30   63.99
  -2   4   6 1062.89   64.29
  -1  -4   6  818.52   50.79
  -1  -4   6  833.62   51.89
   1  -4  -6  837.12   51.69
   1  -4  -6  804.82   52.89
   1   4  -6  829.52   51.89
  -1   4   6  865.21   51.99
   1   4  -6  857.21   51.39
  -1   4   6  871.51   51.89
  -1   4   6  859.81   51.99
   1   4  -6  872.81   51.89
   1   4  -6  819.02   52.39
   0  -4   6  696.43   40.20
   0  -4  -6  573.04   41.50
   0  -4   6  670.23   39.50
   0   4  -6  641.24   39.30
   0   4   6  629.14   39.80
   0   4   6  625.64   39.60
   0   4  -6  630.04   39.90
   0   4   6  621.24   39.90
   0   4  -6  625.44   40.40
   1  -4   6   89.19    8.90
   1  -4   6   77.09    8.60
  -1  -4  -6   96.09    8.50
   1  -4   6   92.89    7.90
  -1  -4  -6   81.29   11.10
   1   4   6   92.09    8.80
  -1   4  -6   85.39    9.10
  -1   4  -6   88.09    8.30
   1   4   6   85.69    8.20
  -1   4  -6   84.39    9.00
   1   4   6   86.19    8.30
   2  -4   6  232.88   16.70
  -2  -4  -6  237.58   20.50
  -2  -4  -6  218.48   17.10
   2  -4   6  203.08   17.20
   2   4   6  234.68   17.00
   2   4   6  239.08   16.70
  -2   4  -6  243.18   17.60
  -2   4  -6  231.98   16.50
   2   4   6  252.97   16.60
  -2   4  -6  239.38   17.50
   3  -4   6  217.88   16.90
  -3  -4  -6  193.78   17.00
   3  -4   6  197.28   16.30
  -3  -4  -6  231.98   20.20
   3   4   6  214.98   16.00
  -3   4  -6  219.78   17.30
  -3   4  -6  241.28   17.40
  -3   4  -6  220.28   16.00
   3   4   6  207.08   16.30
  -4  -4  -6  203.68   20.00
   4  -4   6  182.38   15.80
  -4  -4  -6  189.08   16.80
   4  -4   6  210.98   16.50
  -4   4  -6  199.58   15.90
  -4   4  -6  192.18   17.60
   4   4   6  195.58   16.30
   4   4   6  197.58   15.90
   5  -4   6  426.36   30.30
  -5  -4  -6  452.25   31.30
  -5  -4  -6  479.25   33.60
   5  -4   6  441.26   30.50
  -5   4  -6  457.25   30.90
   5   4   6  442.46   30.90
   5   4   6  424.66   31.30
  -5   4  -6  429.46   32.80
  -6  -4  -6  130.69   14.10
  -6  -4  -6  153.38   18.40
   6  -4   6  136.39   13.70
   6  -4   6  122.59   13.30
  -6   4  -6  124.19   17.40
   6   4   6  128.99   15.00
   6   4   6  133.09   16.00
  -6   4  -6  140.89   15.50
   7  -4   6   77.89    9.90
  -7  -4  -6   78.19   11.40
   7  -4   6   84.89   10.30
  -7  -4  -6   88.09   13.80
  -7   4  -6   63.59   13.40
   7   4   6   69.59   13.10
   7   4   6   54.49   12.50
  -7   4  -6   47.60   14.70
   7  -5  -6   95.99   12.00
  -7  -5   6  101.19   13.60
  -7  -5   6  111.49   16.70
   7  -5  -6  123.89   13.90
  -7   5   6   88.09   19.10
  -7   5   6  144.49   16.50
   7   5  -6  144.89   15.80
   7   5  -6  132.99   17.50
  -6  -5   6   94.69   15.00
   6  -5  -6  110.49   12.20
   6  -5  -6   98.29   11.10
  -6  -5   6  116.69   13.80
  -6  -5   6   98.59   11.90
  -6   5   6   98.69   13.50
   6   5  -6  107.89   14.00
   6   5  -6  124.89   14.50
  -6   5   6   99.29   16.50
   5  -5  -6  875.61   53.99
  -5  -5   6  923.31   57.59
  -5  -5   6  904.41   54.99
  -5  -5   6  920.11   54.69
   5  -5  -6  920.21   54.29
   5   5  -6  778.92   55.99
  -5   5   6  820.22   57.19
  -5   5   6  767.52   55.69
  -4  -5   6  263.97   20.50
  -4  -5   6  270.07   23.10
  -4  -5   6  276.47   20.50
   4  -5  -6  266.87   19.90
  -4   5   6  283.77   21.80
  -4   5   6  324.97   21.40
   4   5  -6  273.27   21.90
   4   5  -6  296.17   20.70
   3  -5  -6   76.19    9.30
  -3  -5   6   78.29    8.70
  -3  -5   6   70.59    9.10
  -3   5   6   84.49    9.90
   3   5  -6   88.59   10.10
  -3   5   6   90.99    9.60
   3   5  -6   84.69   10.50
  -3   5   6   86.29    9.80
   2  -5  -6    3.40    4.10
  -2  -5   6    1.40    4.20
  -2  -5   6    3.20    4.10
  -2   5   6    6.20    5.00
   2   5  -6    8.70    3.90
  -2   5   6   10.70    4.60
   2   5  -6    9.00    5.30
  -2   5   6    2.90    4.30
   1  -5  -6  185.88   17.10
   1  -5  -6  183.88   15.10
  -1  -5   6  173.88   15.20
   1   5  -6  195.58   15.30
   1   5  -6  208.08   16.60
   1   5  -6  207.18   14.60
  -1   5   6  198.78   15.60
  -1   5   6  207.18   15.50
  -1   5   6  206.48   15.40
   0  -5   6  395.16   26.90
   0  -5   6  408.56   26.20
   0  -5  -6  341.67   29.00
   0   5  -6  399.16   27.90
   0   5  -6  404.96   26.80
   0   5   6  405.06   26.70
   0   5  -6  406.16   26.10
   0   5   6  408.86   27.00
   1  -5   6  615.64   41.10
   1  -5   6  573.34   41.00
  -1  -5  -6  573.24   44.10
  -1   5  -6  663.73   41.30
   1   5   6  705.43   41.40
  -1   5  -6  655.83   40.50
   1   5   6  650.63   41.00
  -1   5  -6  671.13   42.40
   1   5   6  674.93   41.40
  -2  -5  -6  203.58   20.40
   2  -5   6  201.58   15.40
   2  -5   6  175.88   15.50
  -2   5  -6  168.38   15.40
  -2   5  -6  192.08   16.70
  -2   5  -6  184.58   14.50
   2   5   6  177.98   15.10
   2   5   6  167.38   14.50
   3  -5   6  138.59   14.40
  -3  -5  -6  156.38   19.10
   3  -5   6  140.39   13.20
  -3   5  -6  151.68   14.90
  -3   5  -6  158.58   13.40
   3   5   6  152.58   13.90
   3   5   6  155.78   13.60
  -4  -5  -6  279.97   24.40
  -4  -5  -6  222.38   19.90
   4  -5   6  242.78   19.90
   4  -5   6  204.68   18.80
  -4   5  -6  244.58   21.20
  -4   5  -6  253.37   19.10
   4   5   6  255.37   20.00
   4   5   6  261.77   19.50
   5  -5   6   55.19    8.90
  -5  -5  -6   48.40    9.40
  -5  -5  -6   61.09   13.10
   5  -5   6   52.19    8.60
  -5   5  -6   49.50    9.00
   5   5   6   43.70    9.60
   5   5   6   46.60    9.10
  -5   5  -6   38.40   10.90
  -6  -5  -6  117.39   16.40
   6  -5   6  110.49   12.50
  -6  -5  -6  117.09   13.70
   6  -5   6  109.09   12.60
   6   5   6  110.59   15.40
  -6   5  -6   86.19   15.70
   6   5   6  106.49   14.30
  -6   5  -6  113.89   14.10
  -6  -6   6   88.79   15.70
  -6  -6   6   88.29   12.30
   6  -6  -6  103.99   11.70
   6  -6  -6  114.89   12.70
   6   6  -6   91.99   13.90
  -6   6   6   85.59   13.80
   5  -6  -6    0.90    5.30
  -5  -6   6    1.30   10.10
  -5  -6   6    3.20    6.70
   5  -6  -6    1.90    5.60
   5   6  -6    3.10    7.20
  -5   6   6   -5.20    7.50
  -4  -6   6  260.67   20.80
  -4  -6   6  253.37   25.00
   4  -6  -6  252.27   20.00
   4  -6  -6  246.48   20.30
   4   6  -6  290.77   23.30
  -4   6   6  280.87   22.90
  -4   6   6  297.87   21.70
  -3  -6   6  118.59   12.60
  -3  -6   6  120.99   12.50
   3  -6  -6  127.89   12.50
  -3  -6   6  116.49   14.90
  -3   6   6  115.49   12.90
   3   6  -6  113.39   14.30
  -3   6   6  107.89   12.20
  -3   6   6  140.19   14.70
  -2  -6   6   31.20    6.50
  -2  -6   6   27.30    6.50
   2  -6  -6   28.30    6.50
  -2   6   6   18.00    7.30
  -2   6   6   25.90    6.60
   2   6  -6   23.00    8.10
  -2   6   6   27.50    6.70
   1  -6  -6  412.36   28.80
  -1  -6   6  401.56   28.80
   1   6  -6  402.96   27.90
  -1   6   6  437.56   30.00
  -1   6   6  429.66   29.20
   1   6  -6  442.76   31.40
  -1   6   6  424.56   29.00
   0  -6   6  396.16   27.60
   0  -6  -6  331.27   30.50
   0  -6  -6  397.06   27.50
   0   6  -6  390.86   29.80
   0   6   6  413.36   28.40
   0   6  -6  387.26   27.20
   0   6   6  408.26   27.90
   0   6   6  389.76   27.20
   0   6  -6  405.36   26.40
  -1  -6  -6   21.30   10.40
   1  -6   6   17.80    6.00
  -1   6  -6   10.30    5.00
  -1   6  -6   13.90    6.10
   1   6   6   13.60    6.10
   1   6   6   13.30    5.60
   2  -6   6   99.59   13.00
  -2  -6  -6  122.39   17.70
   2  -6   6  123.59   13.40
   2   6   6  150.98   14.20
  -2   6  -6  145.79   14.20
  -2   6  -6  152.18   12.80
   2   6   6  142.79   13.60
   3  -6   6    3.30    5.60
   3  -6   6    5.70    6.40
  -3  -6  -6    5.60   11.00
   3   6   6    6.50    6.20
  -3   6  -6    1.30    5.20
   3   6   6   10.00    5.60
  -3   6  -6    3.70    6.70
  -4  -6  -6   65.89   14.10
   4  -6   6   69.19   10.70
  -4   6  -6   79.39   10.20
  -4   6  -6   66.29   11.70
   4   6   6   74.49   10.50
   4   6   6   70.99   11.00
  -5  -6  -6  261.57   26.30
   5  -6   6  251.07   20.60
  -5   6  -6  221.88   23.80
   5   6   6  233.28   22.50
  -5   6  -6  237.58   20.90
   5   6   6  232.58   21.10
  -4  -7   6   43.30    9.10
   4  -7  -6   54.29    9.10
  -4  -7   6   35.80   19.10
   4  -7  -6   50.49    8.80
   4   7  -6   50.59   13.40
  -4   7   6   45.80   11.20
   3  -7  -6    3.00    6.50
  -3  -7   6    8.10    6.80
  -3  -7   6    5.70   10.30
  -3   7   6    6.10    6.90
   3   7  -6    5.30    8.50
  -3   7   6    1.90    6.70
  -3   7   6    8.60    8.10
  -2  -7   6    9.00    6.40
  -2  -7   6    9.10    9.70
   2  -7  -6   10.60    6.70
  -2   7   6    6.10    6.70
   2   7  -6    2.10    8.40
  -2   7   6   13.40    7.20
  -2   7   6   19.00    8.70
   1  -7  -6    1.20    6.20
  -1  -7   6    2.20    6.10
  -1  -7   6    2.10    6.00
  -1   7   6    8.80    6.50
   1   7  -6    7.50    8.70
  -1   7   6    6.10    6.50
   0  -7   6   70.39   10.20
   0  -7   6  103.49   12.90
   0  -7  -6  100.49   11.80
   0   7  -6   89.69   11.10
   0   7  -6   86.09   10.00
   0   7   6   84.99   11.60
   0   7   6   85.79   11.20
   0   7  -6   87.39   14.30
   1  -7   6  252.27   21.80
  -1  -7  -6  216.68   27.30
  -1   7  -6  280.07   21.80
   1   7   6  302.67   22.10
   1   7   6  280.57   22.40
  -1   7  -6  294.17   20.70
   2  -7   6  101.49   13.00
  -2  -7  -6  113.09   18.00
   2   7   6  109.89   13.10
  -2   7  -6  111.09   12.60
   2   7   6  112.49   12.80
  -2   7  -6  105.79   13.70
   3  -7   6   17.50    7.50
   3  -7   6   10.90    6.80
  -3  -7  -6   14.40   11.90
  -3   7  -6   14.90    7.90
   3   7   6   16.30    7.20
  -9   0   7  202.38   23.40
   9   0  -7  178.38   17.90
  -8   0   7  120.09   16.70
   8   0  -7  112.19   13.50
  -8   0   7  113.09   16.20
   7   0  -7  236.88   17.50
   7   0  -7  235.18   19.20
  -7   0   7  219.78   22.20
   7   0  -7  232.28   19.00
  -7   0   7  270.77   19.10
   6   0  -7 1337.67   83.59
  -6   0   7 1322.77   83.99
  -6   0   7 1406.76   87.19
   6   0  -7 1338.67   85.09
   6   0  -7 1504.75   85.39
   5   0  -7  160.08   13.00
   5   0  -7  135.09   12.80
  -5   0   7  163.48   11.00
   5   0  -7  147.59   11.00
  -5   0   7  152.78   14.60
  -5   0   7  146.79   11.70
   4   0  -7  416.26   25.20
   4   0  -7  397.26   26.60
  -4   0   7  403.56   25.40
   4   0  -7  414.96   26.90
   4   0  -7  410.26   25.20
  -4   0   7  415.16   25.40
  -4   0   7  409.86   27.30
  -3   0   7   21.90    3.80
  -3   0   7   27.50    3.20
   3   0  -7   28.00    3.10
   3   0  -7   32.70    4.70
  -3   0   7   30.20    3.20
   3   0  -7   17.00    3.00
   3   0  -7   35.10    2.90
   2   0  -7  988.20   54.39
   2   0  -7  938.81   54.59
  -2   0   7  840.32   54.99
   2   0  -7  904.51   54.59
  -2   0   7  914.81   54.59
  -2   0   7  838.02   54.29
   2   0  -7  963.90   55.59
  -2   0   7  929.81   54.39
  -1   0   7 6589.44  395.76
   1   0  -7 6720.03  395.66
   1   0  -7 6823.32  395.66
  -1   0   7 6568.94  395.96
   1   0  -7 6939.51  396.06
  -1   0   7 6622.14  396.16
   1   0  -7 6891.31  396.66
   0   0   7   80.59    5.50
   0   0  -7   83.09    5.90
   0   0   7   84.99    5.70
   0   0   7   84.19    5.90
   0   0  -7   82.49    6.10
   0   0  -7   82.89    5.70
   0   0   7   73.59    5.70
   0   0  -7   73.29    5.30
   1   0   7  217.28   14.40
  -1   0  -7  229.98   14.40
   1   0   7  228.08   14.00
   1   0   7  215.38   14.30
   1   0   7  225.98   14.20
  -1   0  -7  220.68   14.20
  -1   0  -7  238.28   15.00
  -2   0  -7  674.93   41.90
   2   0   7  689.73   41.50
  -2   0  -7  680.83   42.60
   2   0   7  681.83   42.00
  -2   0  -7  697.43   41.90
   2   0   7  722.83   42.10
  -3   0  -7  231.88   15.60
  -3   0  -7  229.38   15.30
   3   0   7  221.68   14.40
   3   0   7  217.48   15.30
   3   0   7  211.78   15.00
  -3   0  -7  195.88   16.00
  -4   0  -7  844.02   50.09
  -4   0  -7  775.92   49.90
   4   0   7  750.62   49.40
   4   0   7  842.02   49.20
   4   0   7  775.22   49.99
  -5   0  -7  674.33   40.30
   5   0   7  588.64   39.40
   5   0   7  564.94   38.60
  -5   0  -7  563.84   39.70
   5   0   7  620.14   38.70
   6   0   7   84.69    9.60
  -6   0  -7   65.49   11.40
  -6   0  -7   67.39   11.20
   6   0   7   73.39    9.50
   6   0   7   70.99    9.80
  -6   0  -7   86.09   11.30
  -7   0  -7   18.40   10.40
   7   0   7   28.40    8.10
   8   0   7  228.48   20.70
  -8   0  -7  235.08   24.30
  -9  -1   7   34.40   13.10
  -9  -1   7   29.00    9.20
   9  -1  -7   22.30    8.00
   9   1  -7   53.89   10.00
  -9   1   7   40.10   13.10
   8  -1  -7   -0.50    6.20
  -8  -1   7    0.90    9.20
  -8  -1   7   11.90    7.40
   8   1  -7    5.20    6.40
  -8   1   7    5.70   10.00
   7  -1  -7    9.60    2.60
   7  -1  -7    9.40    5.90
  -7  -1   7   10.80    6.40
  -7  -1   7   16.80    8.90
  -7   1   7   24.80   10.00
   7   1  -7   28.00    6.90
   7   1  -7   19.90    6.50
  -7   1   7   24.30    6.10
   6  -1  -7  668.13   48.90
   6  -1  -7  826.42   50.79
  -6  -1   7  834.92   52.29
   6  -1  -7  843.62   50.29
   6   1  -7  706.63   51.49
  -6   1   7  821.52   53.89
   6   1  -7  878.41   51.49
  -6   1   7  842.42   49.70
  -5  -1   7 1445.86   91.49
   5  -1  -7 1418.06   90.49
   5  -1  -7 1417.26   90.49
   5  -1  -7 1430.96   89.69
  -5   1   7 1703.53   90.59
   5   1  -7 1634.24   92.19
  -5   1   7 1576.54   90.29
  -5   1   7 1526.95   93.99
   5   1  -7 1382.76   92.29
   5   1  -7 1513.35   90.19
  -4  -1   7  118.89    7.60
   4  -1  -7  107.79    8.00
   4  -1  -7  108.29    8.70
   4  -1  -7  114.69    9.20
  -4  -1   7  111.59    9.80
   4   1  -7  112.99   10.50
   4   1  -7  102.59   10.70
  -4   1   7  107.29    8.80
   4   1  -7   99.89    8.20
  -4   1   7  105.19    8.60
  -4   1   7   95.69   11.80
   4   1  -7  116.69    8.30
  -3  -1   7  320.97   22.30
   3  -1  -7  333.17   21.10
   3  -1  -7  329.07   22.20
   3  -1  -7  313.47   21.70
  -3  -1   7  337.67   21.20
   3   1  -7  344.57   23.40
   3   1  -7  350.86   24.00
  -3   1   7  340.37   23.80
   3   1  -7  371.16   22.00
  -3   1   7  380.56   22.00
  -3   1   7  384.96   21.50
  -3   1   7  367.16   21.80
   2  -1  -7 2051.19  124.19
  -2  -1   7 2118.79  123.89
  -2  -1   7 2113.29  124.79
   2  -1  -7 2105.09  123.89
  -2   1   7 2195.78  125.29
  -2   1   7 2062.99  124.39
   2   1  -7 2049.09  124.39
  -2   1   7 2121.09  123.49
   2   1  -7 2053.49  124.09
  -2   1   7 2036.90  124.19
   2   1  -7 2200.28  126.29
  -1  -1   7  225.28   13.20
   1  -1  -7  226.68   12.70
   1  -1  -7  225.18   13.50
  -1  -1   7  218.08   13.80
  -1  -1   7  226.98   12.80
  -1   1   7  186.78   13.40
   1   1  -7  197.08   13.60
   1   1  -7  217.58   15.20
   1   1  -7  192.08   13.30
  -1   1   7  197.28   13.50
  -1   1   7  201.98   13.60
  -1   1   7  203.98   13.60
   0  -1  -7 2682.43  150.08
   0  -1   7 2568.74  149.69
   0  -1   7 2540.45  150.08
   0  -1  -7 2657.83  149.29
   0  -1   7 2551.54  149.29
   0   1   7 2494.95  149.79
   0   1  -7 2529.55  150.98
   0   1   7 2419.56  149.79
   0   1  -7 2470.15  149.69
   0   1  -7 2575.44  150.08
   0   1  -7 2503.25  149.99
   0   1   7 2502.25  149.79
   0   1   7 2468.15  149.39
  -1  -1  -7  804.92   48.10
  -1  -1  -7  871.31   48.50
   1  -1   7  856.61   48.60
   1  -1   7  787.62   48.90
  -1  -1  -7  824.22   49.40
   1  -1   7  840.02   48.80
   1   1   7  790.52   48.60
  -1   1  -7  764.32   48.90
  -1   1  -7  823.62   49.00
   1   1   7  811.52   48.70
  -1   1  -7  786.62   49.50
  -1   1  -7  786.42   48.60
   1   1   7  786.42   48.10
   1   1   7  804.12   48.70
  -2  -1  -7  249.97   18.40
   2  -1   7  289.37   16.40
  -2  -1  -7  282.57   17.60
   2  -1   7  275.67   17.70
   2  -1   7  282.87   17.70
  -2  -1  -7  278.27   16.70
  -2   1  -7  252.97   17.20
   2   1   7  262.27   17.30
   2   1   7  253.97   17.10
  -2   1  -7  256.97   17.70
  -2   1  -7  254.27   17.70
   2   1   7  265.07   17.30
  -3  -1  -7  942.11   62.99
   3  -1   7  916.91   63.09
   3  -1   7  949.31   62.99
  -3  -1  -7  853.91   63.59
  -3  -1  -7 1067.49   62.39
   3  -1   7 1054.59   62.09
  -3   1  -7 1099.09   63.39
   3   1   7 1179.58   62.99
  -3   1  -7 1041.80   63.19
   3   1   7 1085.19   62.69
  -3   1  -7 1110.69   62.79
   3   1   7 1127.59   63.09
   4  -1   7 1019.70   67.69
   4  -1   7 1050.09   68.09
  -4  -1  -7  994.10   67.89
  -4  -1  -7 1114.59   68.79
   4  -1   7 1082.29   67.09
  -4  -1  -7 1229.78   68.49
   4   1   7 1170.38   67.69
   4   1   7 1141.59   68.09
  -4   1  -7 1158.48   68.49
  -4   1  -7 1119.49   67.89
  -5  -1  -7   22.70    7.20
   5  -1   7   22.60    5.40
  -5  -1  -7   18.80    7.50
   5  -1   7   18.90    5.50
  -5   1  -7   10.30    6.20
   5   1   7   20.10    5.20
  -5   1  -7   19.00    7.20
   5   1   7   23.40    6.10
   5   1   7   23.00    5.40
  -5   1  -7   21.10    7.20
  -6  -1  -7   41.60    9.40
   6  -1   7   46.10    7.30
   6  -1   7   37.60    7.20
  -6  -1  -7   52.49    9.70
  -6   1  -7   25.50    9.40
  -6   1  -7   18.70    9.30
   6   1   7   25.50    7.90
   6   1   7   35.40    7.40
   6   1   7   32.30    6.70
  -7  -1  -7   32.60   10.10
   7  -1   7   38.40    7.70
   7  -1   7   30.80    6.60
  -7   1  -7   10.40   10.30
   7   1   7   16.10    8.10
  -7   1  -7    2.00   10.50
   7   1   7   14.40    7.00
   8  -1   7   38.20    7.80
   8  -1   7   34.40    7.00
  -8  -1  -7   34.70   10.80
  -8   1  -7   10.70   11.40
   8   1   7   26.80    9.10
  -8   1  -7   18.20   11.90
   8   1   7   19.70    9.60
  -9  -2   7   97.09   14.20
   9  -2  -7   85.89   13.20
  -9  -2   7   88.19   16.50
   9  -2  -7   93.59   12.00
  -9   2   7  132.69   19.00
   9   2  -7  113.09   14.40
   8  -2  -7  138.99   17.20
  -8  -2   7  142.69   19.50
   8  -2  -7  162.08   15.50
  -8  -2   7  161.88   18.20
  -8   2   7  196.78   17.10
  -8   2   7  225.38   24.20
   8   2  -7  204.88   18.80
   7  -2  -7  454.95   32.00
   7  -2  -7  452.75   30.60
  -7  -2   7  478.55   32.10
  -7  -2   7  426.06   34.00
  -7   2   7  531.55   37.30
  -7   2   7  456.65   31.50
   7   2  -7  469.35   33.50
   7   2  -7  448.56   33.80
  -6  -2   7  640.84   41.00
   6  -2  -7  603.34   40.40
  -6  -2   7  630.14   42.00
  -6  -2   7  645.04   40.40
   6  -2  -7  631.34   39.70
   6  -2  -7  593.24   42.80
   6   2  -7  624.54   40.40
   6   2  -7  615.64   42.40
  -6   2   7  704.33   45.60
   6   2  -7  651.93   43.60
  -6   2   7  642.54   40.60
  -5  -2   7  191.88   13.80
   5  -2  -7  184.58   13.60
   5  -2  -7  183.78   13.00
   5  -2  -7  185.48   13.80
  -5  -2   7  187.28   15.00
  -5   2   7  182.38   13.90
  -5   2   7  213.08   19.70
   5   2  -7  128.19   15.20
   5   2  -7  186.58   13.80
   5   2  -7  171.88   16.70
   4  -2  -7  411.36   27.40
  -4  -2   7  440.86   28.50
  -4  -2   7  416.16   27.50
   4  -2  -7  459.15   27.80
  -4   2   7  439.86   31.60
   4   2  -7  444.06   28.00
  -4   2   7  444.16   28.00
  -4   2   7  452.65   27.80
   4   2  -7  415.36   31.10
   3  -2  -7  702.63   39.70
   3  -2  -7  692.73   40.80
  -3  -2   7  667.33   40.60
  -3  -2   7  700.83   41.40
  -3  -2   7  703.53   39.70
  -3   2   7  575.04   43.50
  -3   2   7  660.63   40.80
   3   2  -7  658.53   41.10
  -3   2   7  662.73   41.10
   3   2  -7  656.43   41.30
   3   2  -7  618.14   44.20
  -2  -2   7  429.46   28.90
   2  -2  -7  416.96   28.50
   2  -2  -7  425.66   27.90
  -2  -2   7  433.46   27.70
  -2   2   7  507.25   29.00
   2   2  -7  512.65   28.40
   2   2  -7  470.05   29.00
   2   2  -7  486.45   28.50
  -2   2   7  471.95   28.70
   2   2  -7  458.95   32.30
  -2   2   7  490.05   28.90
  -1  -2   7 3687.23  221.88
  -1  -2   7 3675.43  220.98
   1  -2  -7 3678.03  221.48
   1  -2  -7 3846.12  221.48
   1   2  -7 3879.31  221.88
  -1   2   7 3786.62  221.78
   1   2  -7 3751.12  221.88
   1   2  -7 3907.01  220.78
  -1   2   7 3732.03  221.68
   1   2  -7 3626.44  221.38
  -1   2   7 3730.73  221.68
   0  -2  -7  385.96   23.80
   0  -2   7  364.26   22.90
   0  -2   7  362.56   22.50
   0  -2  -7  375.56   22.40
   0  -2   7  355.66   23.50
   0   2   7  381.26   23.30
   0   2   7  362.16   23.30
   0   2  -7  365.46   23.40
   0   2  -7  392.26   23.70
   0   2  -7  375.56   23.10
   0   2   7  347.57   23.10
   1  -2   7  605.04   41.60
  -1  -2  -7  663.03   41.50
   1  -2   7  704.73   41.80
   1  -2   7  658.23   42.00
  -1  -2  -7  670.53   42.90
  -1   2  -7  708.13   42.10
   1   2   7  695.43   41.60
   1   2   7  717.93   41.80
  -1   2  -7  704.83   41.60
  -1   2  -7  724.53   42.30
   1   2   7  713.73   41.90
  -1   2  -7  647.94   43.50
   2  -2   7   97.09    8.60
  -2  -2  -7   84.19   10.40
  -2  -2  -7   86.69    8.70
   2  -2   7   80.09    8.40
  -2   2  -7  103.09    9.00
  -2   2  -7  108.49    8.30
  -2   2  -7  119.79    8.80
  -2   2  -7  108.09    8.90
   2   2   7  115.59    8.40
   2   2   7  111.69    8.40
   3  -2   7  371.56   24.30
  -3  -2  -7  364.76   25.90
  -3  -2  -7  356.46   24.30
   3  -2   7  348.47   24.10
  -3   2  -7  337.57   24.00
  -3   2  -7  381.46   23.80
   3   2   7  373.96   23.80
  -3   2  -7  370.16   24.60
   3   2   7  369.56   23.50
   3   2   7  359.96   23.70
   4  -2   7  557.04   33.10
   4  -2   7  505.15   32.80
  -4  -2  -7  571.04   34.70
  -4  -2  -7  531.95   33.30
   4   2   7  507.55   32.70
   4   2   7  486.25   32.10
  -4   2  -7  425.56   32.70
  -4   2  -7  492.15   33.60
  -4   2  -7  505.45   32.70
   4   2   7  476.15   32.40
   5  -2   7  341.27   24.40
   5  -2   7  365.56   24.80
  -5  -2  -7  364.76   25.60
  -5  -2  -7  370.66   26.60
   5   2   7  366.26   25.50
   5   2   7  351.16   25.00
  -5   2  -7  355.26   25.70
  -5   2  -7  342.17   26.80
   5   2   7  334.87   24.10
   6  -2   7  143.99   13.50
  -6  -2  -7  175.88   17.10
  -6  -2  -7  169.88   16.60
   6  -2   7  157.68   14.30
  -6   2  -7  142.09   16.10
   6   2   7  139.89   15.50
   6   2   7  165.38   15.80
  -6   2  -7  153.08   18.20
   7  -2   7   68.29    8.60
  -7  -2  -7   64.69   10.90
  -7  -2  -7   71.59   11.20
   7  -2   7   67.29    9.00
   7   2   7   33.00    9.40
  -7   2  -7   14.20   11.80
   7   2   7   25.30    9.80
  -7   2  -7   29.40   12.40
   8  -2   7  276.67   19.70
   8  -2   7  229.68   18.50
  -8  -2  -7  268.97   22.70
  -8   2  -7  200.58   24.50
   8   2   7  217.18   22.50
   8   2   7  207.98   21.90
  -8   2  -7  193.48   23.00
  -9  -3   7   20.40   10.70
  -9  -3   7   49.99   13.40
   9  -3  -7   29.40    8.00
   9  -3  -7   25.70    9.30
   9  -3  -7   28.70    9.00
  -9   3   7   22.10   14.70
  -9   3   7   39.50   12.30
   9   3  -7   28.00   10.80
  -8  -3   7    3.70    9.00
   8  -3  -7   25.90    7.10
  -8  -3   7   26.40   11.40
   8  -3  -7   17.80    7.70
  -8   3   7   16.10   13.40
   8   3  -7    9.60    9.40
  -8   3   7   23.90    8.80
   7  -3  -7  113.89   12.70
  -7  -3   7  107.09   14.20
   7  -3  -7  120.49   11.60
  -7  -3   7  102.59   13.30
  -7  -3   7  104.59   12.30
  -7   3   7  119.79   18.70
  -7   3   7  112.09   12.90
   7   3  -7  109.79   12.50
   7   3  -7   87.79   14.30
  -6  -3   7  465.15   32.10
   6  -3  -7  470.05   30.30
   6  -3  -7  455.15   29.70
  -6  -3   7  455.95   31.90
  -6  -3   7  477.45   30.80
   6   3  -7  359.06   32.10
  -6   3   7  472.45   37.40
  -6   3   7  474.35   31.40
   6   3  -7  479.45   31.20
  -5  -3   7  696.33   44.90
   5  -3  -7  724.23   43.80
   5  -3  -7  694.73   43.60
   5  -3  -7  691.63   43.80
  -5  -3   7  685.83   44.00
   5   3  -7  689.53   44.70
   5   3  -7  671.53   45.50
  -5   3   7  717.23   44.80
   5   3  -7  779.82   49.70
  -4  -3   7  866.61   53.19
  -4  -3   7  862.71   52.39
   4  -3  -7  857.01   52.39
  -4   3   7  822.02   52.59
   4   3  -7  845.92   53.19
   4   3  -7  861.71   53.19
   4   3  -7  896.21   58.19
  -4   3   7  846.22   53.09
  -3  -3   7  204.88   14.90
  -3  -3   7  210.18   15.50
   3  -3  -7  203.48   15.00
  -3   3   7  225.88   17.20
  -3   3   7  214.48   15.50
   3   3  -7  206.28   20.10
  -3   3   7  224.28   15.30
   3   3  -7  228.98   15.80
   3   3  -7  231.28   14.90
   2  -3  -7  580.64   34.30
  -2  -3   7  566.34   33.60
  -2  -3   7  557.54   35.10
   2  -3  -7  568.94   34.80
  -2   3   7  605.94   35.30
   2   3  -7  553.84   35.30
  -2   3   7  548.05   35.10
   2   3  -7  543.95   34.50
   2   3  -7  554.74   34.10
  -2   3   7  537.35   34.90
  -2   3   7  544.15   35.00
   1  -3  -7   16.80    3.60
   1  -3  -7   10.30    3.10
  -1  -3   7   10.10    3.20
  -1  -3   7   14.20    2.20
  -1   3   7    7.50    2.90
   1   3  -7    6.70    3.00
  -1   3   7    9.30    3.00
   1   3  -7    7.20    2.60
   1   3  -7    5.30    3.00
   1   3  -7    8.30    1.90
  -1   3   7    6.50    2.80
   1   3  -7    7.60    4.80
   0  -3   7 1015.50   57.69
   0  -3  -7  974.10   59.09
   0  -3   7  978.10   58.39
   0   3  -7  962.50   58.29
   0   3   7  881.61   57.79
   0   3   7  978.00   58.19
   0   3   7  979.70   58.09
   0   3  -7  941.91   58.39
   0   3  -7  934.21   57.69
   0   3  -7  911.61   60.89
   1  -3   7  349.47   23.80
  -1  -3  -7  376.36   25.60
  -1  -3  -7  327.37   23.50
   1  -3   7  423.86   24.00
   1  -3   7  406.66   24.20
  -1   3  -7  344.97   23.30
   1   3   7  354.46   23.60
   1   3   7  349.96   23.30
  -1   3  -7  369.06   24.10
   1   3   7  357.56   23.70
  -1   3  -7  371.06   24.00
   2  -3   7  699.63   42.00
  -2  -3  -7  655.33   41.70
  -2  -3  -7  667.13   43.50
   2  -3   7  675.23   41.90
   2   3   7  688.13   41.10
  -2   3  -7  658.93   41.00
   2   3   7  650.13   41.40
   2   3   7  646.34   41.20
  -2   3  -7  652.33   41.80
   3  -3   7  572.74   37.30
  -3  -3  -7  579.04   37.30
  -3  -3  -7  596.74   39.30
   3  -3   7  519.65   37.20
  -3   3  -7  597.34   37.50
  -3   3  -7  556.04   37.50
   3   3   7  600.84   36.50
   3   3   7  606.24   36.90
   3   3   7  580.84   37.00
  -3   3  -7  598.34   36.60
   4  -3   7  580.14   35.90
   4  -3   7  550.34   35.90
  -4  -3  -7  595.64   38.10
  -4  -3  -7  561.44   36.00
  -4   3  -7  552.44   35.50
  -4   3  -7  484.95   35.80
   4   3   7  539.25   35.70
  -4   3  -7  533.55   36.70
   4   3   7  547.05   35.70
  -5  -3  -7   78.69   10.00
   5  -3   7   82.19    9.20
  -5  -3  -7   97.09   12.80
   5  -3   7   79.09    9.50
  -5   3  -7   64.59   11.20
  -5   3  -7   77.39   10.30
   5   3   7   70.79    9.90
   5   3   7   59.59    9.40
  -6  -3  -7   92.59   12.80
   6  -3   7   91.99   10.50
   6  -3   7   80.59   10.40
  -6  -3  -7   85.89   11.40
  -6   3  -7   97.89   13.40
  -6   3  -7   90.89   14.20
   6   3   7   96.89   12.70
   6   3   7   88.99   12.40
  -7  -3  -7  103.29   12.70
   7  -3   7  110.79   11.40
   7  -3   7   94.89   10.80
  -7  -3  -7  112.09   14.00
   7   3   7   84.79   14.10
  -7   3  -7   68.79   14.70
  -7   3  -7   73.19   15.60
   7   3   7   65.19   12.90
   8  -4  -7  236.88   20.60
  -8  -4   7  221.18   23.80
  -8  -4   7  263.67   22.70
   8  -4  -7  229.88   19.30
  -8   4   7  233.08   30.00
   8   4  -7  163.38   22.00
  -8   4   7  232.98   22.10
  -7  -4   7  137.69   16.60
  -7  -4   7  146.79   17.40
   7  -4  -7  139.79   14.70
   7  -4  -7  146.89   13.80
  -7  -4   7  150.98   16.40
   7   4  -7  154.88   15.20
  -7   4   7  112.89   20.70
  -7   4   7  156.88   16.20
   7   4  -7  102.59   16.20
  -6  -4   7  220.48   18.90
  -6  -4   7  230.08   18.10
  -6  -4   7  232.18   20.40
   6  -4  -7  218.98   17.10
   6  -4  -7  217.18   16.60
   6   4  -7  215.88   18.10
  -6   4   7  142.79   21.70
  -6   4   7  194.78   18.60
   6   4  -7  218.78   19.90
   5  -4  -7  133.39   11.40
  -5  -4   7  133.89   12.60
  -5  -4   7  120.79   13.00
   5  -4  -7  138.89   11.70
   5   4  -7  125.99   12.70
  -5   4   7  123.89   13.00
   4  -4  -7  187.18   14.50
  -4  -4   7  190.88   15.00
  -4  -4   7  186.38   15.30
  -4   4   7  221.88   17.90
  -4   4   7  182.18   15.70
   4   4  -7  204.08   15.10
   4   4  -7  186.28   15.70
  -4   4   7  198.88   15.20
   3  -4  -7  858.71   53.39
  -3  -4   7  874.41   53.39
  -3  -4   7  835.82   53.69
  -3   4   7  902.01   53.89
   3   4  -7  891.11   53.19
  -3   4   7  875.61   53.79
  -3   4   7  873.81   56.69
  -3   4   7  862.01   54.19
   3   4  -7  862.71   54.49
   2  -4  -7  182.98   13.10
  -2  -4   7  175.48   13.30
  -2  -4   7  175.48   13.00
   2   4  -7  165.98   12.60
  -2   4   7  171.98   13.40
  -2   4   7  169.78   13.20
   2   4  -7  156.68   13.70
  -2   4   7  169.68   13.30
  -1  -4   7 1178.78   69.99
  -1  -4   7 1118.59   68.59
   1  -4  -7 1154.28   70.49
   1  -4  -7 1156.08   69.69
  -1   4   7 1156.08   69.79
  -1   4   7 1144.29   69.89
   1   4  -7 1122.49   70.29
  -1   4   7 1140.79   69.79
   1   4  -7 1163.28   69.89
   1   4  -7 1135.49   69.29
   0  -4   7  421.06   26.20
   0  -4   7  413.06   25.30
   0  -4  -7  408.56   27.90
   0   4   7  377.36   25.70
   0   4  -7  396.16   26.40
   0   4   7  381.46   25.80
   0   4  -7  374.16   25.90
   0   4  -7  388.56   25.30
   0   4   7  376.26   25.60
  -1  -4  -7  626.94   45.00
   1  -4   7  722.43   43.20
   1  -4   7  741.13   43.20
  -1   4  -7  689.13   42.40
   1   4   7  687.83   42.80
  -1   4  -7  715.83   43.70
  -1   4  -7  691.53   43.20
   1   4   7  603.34   42.40
   1   4   7  679.43   43.00
   2  -4   7  113.29   11.10
   2  -4   7  117.59   11.70
  -2  -4  -7  116.99   11.80
  -2  -4  -7  126.29   15.20
   2   4   7  138.09   11.40
  -2   4  -7  118.09   11.80
   2   4   7  147.29   11.20
   2   4   7  135.79   11.20
  -2   4  -7  146.89   12.10
  -2   4  -7  139.59   11.30
  -3  -4  -7  126.59   15.90
   3  -4   7  133.79   12.30
  -3  -4  -7  126.39   13.00
   3  -4   7  121.59   12.60
  -3   4  -7  146.69   13.70
   3   4   7  140.19   12.20
  -3   4  -7  137.09   13.30
  -3   4  -7  149.88   12.30
   3   4   7  134.69   12.00
  -4  -4  -7   71.59   12.90
  -4  -4  -7   79.59   10.20
   4  -4   7   85.19   10.60
   4  -4   7   78.99    9.70
  -4   4  -7   91.69   11.40
  -4   4  -7   99.19   10.20
   4   4   7   94.79   10.90
   4   4   7   96.49   10.30
  -5  -4  -7  149.79   15.50
  -5  -4  -7  162.78   18.70
   5  -4   7  145.09   14.50
   5  -4   7  147.49   13.90
   5   4   7  142.59   15.10
   5   4   7  143.29   15.10
  -5   4  -7  157.68   16.40
  -5   4  -7  149.59   17.60
  -6  -4  -7  247.78   20.70
  -6  -4  -7  252.97   23.10
   6  -4   7  223.38   18.50
   6  -4   7  242.88   19.00
  -6   4  -7  209.58   23.80
   6   4   7  223.38   21.20
   6   4   7  213.88   21.20
  -6   4  -7  229.78   22.10
  -7  -4  -7  121.39   14.00
   7  -4   7  138.69   13.60
  -7  -4  -7  120.69   15.50
   7  -4   7  120.59   13.20
  -7   4  -7  117.79   16.70
  -7   4  -7  102.29   18.30
   7   4   7  105.09   16.20
   7   4   7  130.99   17.40
  -7  -5   7   48.90   13.40
   7  -5  -7   50.29    8.60
   7  -5  -7   55.69    9.20
  -7  -5   7   54.19   10.40
   7   5  -7   42.10   12.10
  -7   5   7   21.50   14.50
  -7   5   7   54.29   11.70
   7   5  -7   53.69   10.40
  -6  -5   7  109.99   12.50
   6  -5  -7  115.59   12.60
  -6  -5   7  125.69   14.70
   6  -5  -7  124.99   12.60
  -6  -5   7  128.09   16.40
   6   5  -7  114.19   14.30
   6   5  -7   98.09   13.50
  -6   5   7   98.59   13.80
  -5  -5   7  147.19   17.90
   5  -5  -7  165.78   13.70
   5  -5  -7  138.19   13.30
  -5  -5   7  144.49   14.70
  -5  -5   7  137.19   14.10
  -5   5   7  150.88   15.60
   5   5  -7  156.58   15.60
   5   5  -7  166.48   15.40
  -4  -5   7  759.72   48.10
  -4  -5   7  703.13   48.20
   4  -5  -7  729.03   47.70
   4   5  -7  840.72   50.19
  -4   5   7  806.82   49.60
   3  -5  -7  395.16   25.70
  -3  -5   7  399.96   26.20
  -3  -5   7  417.66   26.00
  -3   5   7  367.26   26.00
   3   5  -7  347.07   27.00
  -3   5   7  346.97   26.60
  -3   5   7  383.26   26.30
   2  -5  -7   83.89   10.30
  -2  -5   7   88.59   10.60
  -2  -5   7   83.79   10.40
  -2   5   7  117.39   11.20
   2   5  -7  134.19   12.40
  -2   5   7  121.29   11.70
   2   5  -7  119.89   10.30
  -2   5   7  125.19   11.20
   1  -5  -7    3.80    4.40
   1  -5  -7    4.20    5.20
  -1  -5   7    3.60    4.40
  -1   5   7    4.50    4.50
   1   5  -7    2.30    3.70
   1   5  -7    3.00    5.00
  -1   5   7    3.10    4.60
   1   5  -7    4.00    4.40
  -1   5   7    4.60    4.30
   0  -5   7  116.79   10.90
   0  -5  -7  115.89   14.90
   0  -5   7  133.09   12.50
   0   5   7  133.79   12.50
   0   5  -7  143.09   13.50
   0   5   7  129.19   11.90
   0   5   7  137.39   12.00
   0   5  -7  141.89   12.50
   0   5  -7  141.59   11.70
   1  -5   7  228.08   17.90
  -1  -5  -7  192.98   20.80
   1  -5   7  240.68   17.70
  -1   5  -7  239.88   17.20
   1   5   7  243.78   17.90
   1   5   7  227.78   17.80
   1   5   7  238.98   17.70
  -1   5  -7  267.67   19.60
  -1   5  -7  230.78   18.10
  -2  -5  -7  793.32   50.89
   2  -5   7  724.43   47.10
   2  -5   7  748.83   47.50
   2   5   7  707.83   47.00
  -2   5  -7  741.73   46.40
   2   5   7  742.63   46.90
  -2   5  -7  690.43   47.20
  -2   5  -7  786.32   48.80
  -3  -5  -7   35.00   11.30
   3  -5   7   54.69    9.00
  -3   5  -7   71.39    8.50
   3   5   7   60.49    8.30
  -3   5  -7   57.39    9.50
   3   5   7   58.29    8.50
   4  -5   7  175.68   16.40
   4  -5   7  174.38   15.70
  -4  -5  -7  196.78   21.30
  -4   5  -7  173.88   16.00
  -4   5  -7  180.48   18.10
   4   5   7  163.28   16.50
   4   5   7  184.68   16.40
  -5  -5  -7  181.98   17.90
   5  -5   7  164.28   16.30
   5  -5   7  184.28   16.20
  -5  -5  -7  188.08   21.70
   5   5   7  174.88   17.60
  -5   5  -7  195.98   17.70
   5   5   7  173.78   17.80
  -5   5  -7  171.88   20.00
   6  -5   7   18.60    6.60
  -6  -5  -7   21.70    8.80
   6  -5   7   29.70    7.80
  -6  -5  -7   18.90   11.50
   6   5   7   26.00    8.90
  -6   5  -7   21.20   11.10
   6   5   7   26.10    9.60
  -6   5  -7   23.30    9.20
   6  -6  -7    4.60    6.10
   6  -6  -7    6.00    6.40
  -6  -6   7    0.60   11.00
  -6  -6   7    6.40    7.70
   6   6  -7    6.20    8.10
  -6   6   7    4.40    9.90
  -5  -6   7   18.60   11.10
   5  -6  -7   19.90    6.80
  -5  -6   7   27.00    7.80
   5  -6  -7   27.90    7.10
  -5   6   7   40.70   10.40
   5   6  -7   31.30    9.00
  -4  -6   7   49.60    8.50
  -4  -6   7   43.50   11.70
   4  -6  -7   52.49    8.10
  -4  -6   7   55.59    8.80
  -4   6   7   45.10   10.00
  -4   6   7   48.50    9.00
   4   6  -7   49.90   10.00
  -3  -6   7  261.47   20.90
   3  -6  -7  274.27   21.00
  -3  -6   7  267.57   21.10
  -3   6   7  283.37   21.40
  -3   6   7  298.47   22.00
  -3   6   7  295.37   23.00
   3   6  -7  297.57   23.70
  -2  -6   7  261.97   20.10
   2  -6  -7  272.37   20.30
  -2  -6   7  256.67   20.30
  -2   6   7  272.17   20.60
  -2   6   7  256.07   21.30
   2   6  -7  266.97   22.30
  -2   6   7  261.57   20.50
   1  -6  -7   60.79    8.70
  -1  -6   7   65.99    8.90
  -1  -6   7   41.20    7.70
   1   6  -7   53.59   10.10
  -1   6   7   50.19    8.10
   1   6  -7   48.00    7.10
  -1   6   7   46.70    8.40
  -1   6   7   53.49    9.10
   0  -6   7  238.58   18.30
   0  -6  -7  195.58   22.10
   0  -6  -7  229.98   18.00
   0   6  -7  225.78   19.80
   0   6   7  193.68   17.60
   0   6   7  205.08   17.80
   0   6   7  210.48   17.40
   0   6  -7  205.08   17.70
   0   6  -7  206.28   16.50
  -1  -6  -7  309.77   29.40
   1  -6   7  365.66   26.00
   1   6   7  378.86   26.20
  -1   6  -7  390.86   28.80
  -1   6  -7  348.67   25.90
   1   6   7  356.06   25.70
  -1   6  -7  368.16   25.00
   2  -6   7   34.70    7.80
   2  -6   7   29.40    7.20
  -2   6  -7   34.50    8.00
   2   6   7   34.80    7.60
  -2   6  -7   33.00    6.70
   2   6   7   33.60    7.20
   3  -6   7   38.70    8.30
  -3  -6  -7   39.40   12.20
   3  -6   7   43.20    9.00
  -3   6  -7   45.20    7.80
  -3   6  -7   43.80    9.20
   3   6   7   44.80    8.30
   3   6   7   50.59    9.10
  -4  -6  -7   -4.10   10.70
   4  -6   7    5.00    6.70
   4   6   7    1.60    6.40
  -4   6  -7    2.70    8.10
  -4   6  -7    4.70    6.50
   4   6   7    8.90    6.70
   3  -7  -7  179.88   16.40
  -3  -7   7  192.88   16.70
  -3  -7   7  156.78   19.00
  -3   7   7  159.58   16.70
  -3   7   7  154.98   17.70
   3   7  -7  132.39   17.60
  -3   7   7  142.99   16.50
  -2  -7   7   10.30    6.80
  -2  -7   7   11.30   10.30
   2  -7  -7   11.50    6.90
  -2  -7   7   10.40    7.00
  -2   7   7    5.80    8.10
  -2   7   7    8.80    6.70
   2   7  -7   12.40    8.80
  -2   7   7    7.80    6.90
  -1  -7   7   31.80    7.90
  -1  -7   7   29.50    7.80
   1  -7  -7   36.00    8.30
   1   7  -7   29.20   10.50
   1   7  -7   34.90    7.20
  -1   7   7   25.70    7.60
  -1   7   7   22.70    7.80
   0  -7   7   28.90    7.60
   0  -7   7   27.40    7.70
   0  -7  -7   24.70    7.80
   0   7   7   19.60    7.30
   0   7   7   20.40    7.80
   0   7  -7   26.70   10.40
   0   7  -7   12.70    6.10
   0   7  -7   12.70    6.90
   1  -7   7  106.09   13.60
  -1  -7  -7   79.89   15.60
   1   7   7  116.09   13.40
  -1   7  -7  105.29   13.60
  -1   7  -7  114.49   12.20
   1   7   7  111.39   12.60
  -2  -7  -7  156.88   20.70
   2  -7   7  164.18   16.60
   2   7   7  181.18   17.50
  -2   7  -7  176.68   17.10
  -2   7  -7  177.78   16.00
   2   7   7  183.78   17.10
  -9   0   8  452.05   37.40
   9   0  -8  457.25   32.70
   8   0  -8  190.78   17.60
  -8   0   8  192.08   22.20
   7   0  -8    4.30    5.50
  -7   0   8    0.50    8.10
  -7   0   8    4.80    6.70
   7   0  -8    3.10    4.80
   6   0  -8  783.02   53.79
   6   0  -8  885.91   52.29
  -6   0   8  867.51   55.99
  -6   0   8  848.12   52.69
   6   0  -8  852.61   53.99
   5   0  -8 1326.67   79.79
   5   0  -8 1282.07   77.89
   5   0  -8 1213.48   79.59
  -5   0   8 1334.77   77.99
  -5   0   8 1314.67   80.69
  -5   0   8 1332.57   78.29
   4   0  -8  131.39   10.80
   4   0  -8  122.69    8.70
  -4   0   8  121.89    8.90
   4   0  -8  115.19   10.10
   4   0  -8  124.89    8.50
  -4   0   8  127.39    9.00
  -4   0   8  120.59   11.00
   3   0  -8 1899.01  117.59
   3   0  -8 1959.80  116.39
  -3   0   8 1892.01  117.29
  -3   0   8 1927.91  116.39
  -3   0   8 2085.59  116.29
  -3   0   8 2022.00  116.19
   2   0  -8   67.29    4.70
   2   0  -8   68.39    5.20
  -2   0   8   66.09    4.80
  -2   0   8   63.09    5.20
   2   0  -8   66.89    6.30
   2   0  -8   59.99    5.00
  -2   0   8   49.60    5.40
  -1   0   8  104.89    7.20
   1   0  -8  105.89    8.20
   1   0  -8  103.79    7.30
  -1   0   8   98.19    6.80
  -1   0   8   97.59    7.30
   1   0  -8  102.29    6.80
   1   0  -8   97.49    6.80
   0   0   8 3845.52  228.78
   0   0  -8 3948.20  228.98
   0   0   8 3912.91  228.78
   0   0  -8 3920.31  228.58
   0   0   8 3942.01  228.58
   0   0  -8 3667.43  228.28
   0   0   8 3924.51  228.38
   0   0  -8 3904.91  229.48
   1   0   8 2174.68  133.19
   1   0   8 2267.77  133.39
  -1   0  -8 2247.28  133.09
   1   0   8 2238.78  133.09
  -1   0  -8 2305.67  133.69
   1   0   8 2282.47  132.79
  -1   0  -8 2244.88  133.19
  -2   0  -8  183.48   13.20
   2   0   8  174.78   11.90
  -2   0  -8  182.48   12.20
  -2   0  -8  172.28   12.00
   2   0   8  165.38   12.00
   2   0   8  168.88   11.30
  -3   0  -8   74.69    8.70
  -3   0  -8   84.59    8.40
   3   0   8   81.49    6.60
   3   0   8   79.09    7.50
   3   0   8   75.59    7.60
  -3   0  -8   81.59    7.90
  -4   0  -8  137.39   12.80
   4   0   8  132.39   11.80
  -4   0  -8  168.98   12.90
   4   0   8  154.48   11.20
   4   0   8  144.29   12.50
  -4   0  -8  119.09   13.70
  -5   0  -8  386.86   26.80
   5   0   8  344.27   24.80
  -5   0  -8  404.76   26.40
   5   0   8  314.97   25.40
  -5   0  -8  341.97   26.30
   5   0   8  355.16   24.40
  -6   0  -8  617.94   44.10
   6   0   8  707.23   43.90
   6   0   8  732.83   45.10
  -6   0  -8  664.73   45.60
   7   0   8    5.50    3.50
  -7   0  -8   16.30   10.40
   7   0   8   29.50    8.30
   8   0   8   23.50    8.90
  -8   0  -8   18.90   11.70
  -9  -1   8  134.19   18.10
  -9  -1   8  137.79   19.40
   9  -1  -8  151.98   16.50
  -9   1   8  137.09   19.00
   9   1  -8  134.09   15.30
  -8  -1   8   16.20   10.50
   8  -1  -8   19.20    5.90
   8  -1  -8   16.70    7.30
   8   1  -8   23.30    7.60
  -8   1   8   24.00   11.30
   8   1  -8   28.90    7.80
   7  -1  -8    6.30    5.90
  -7  -1   8    9.20    8.70
   7  -1  -8    4.10    4.10
   7   1  -8   11.30    6.00
  -7   1   8    3.50    9.00
   7   1  -8    3.00    5.20
   6  -1  -8  134.19   12.80
  -6  -1   8  129.49   15.10
   6  -1  -8  129.19   13.40
   6  -1  -8  134.89   11.30
   6   1  -8  189.08   14.70
  -6   1   8  163.18   17.70
  -6   1   8  185.28   12.60
   6   1  -8  147.09   14.60
   5  -1  -8  835.02   52.89
  -5  -1   8  833.22   53.89
  -5  -1   8  755.62   52.09
   5  -1  -8  831.12   53.09
   5  -1  -8  834.22   51.89
   5   1  -8  863.81   55.09
  -5   1   8  882.01   56.59
  -5   1   8  921.01   52.59
   5   1  -8  912.01   52.49
   5   1  -8  935.21   54.59
  -4  -1   8 1872.41  110.29
  -4  -1   8 1797.02  111.39
   4  -1  -8 1772.12  110.49
  -4  -1   8 1907.51  109.79
   4  -1  -8 1824.92  110.09
   4  -1  -8 1805.82  110.99
   4   1  -8 1927.71  110.59
   4   1  -8 1940.61  112.99
  -4   1   8 1947.01  110.59
  -4   1   8 1945.81  113.49
  -4   1   8 1668.83  110.99
   3  -1  -8  138.89   11.10
   3  -1  -8  145.89    9.80
  -3  -1   8  145.09   11.30
   3  -1  -8  143.49   10.40
  -3  -1   8  137.09   10.20
  -3  -1   8  149.99    9.90
  -3   1   8  158.08    9.70
   3   1  -8  159.18   10.70
  -3   1   8  155.58   10.70
   3   1  -8  149.88   12.20
   3   1  -8  160.28   12.90
  -3   1   8  160.58   10.50
  -2  -1   8  497.55   31.00
  -2  -1   8  530.65   30.20
   2  -1  -8  520.45   30.10
  -2   1   8  475.25   30.40
   2   1  -8  514.35   32.50
  -2   1   8  483.65   29.60
  -2   1   8  492.75   30.60
   2   1  -8  493.75   30.70
  -2   1   8  490.55   31.20
   2   1  -8  480.45   30.20
  -1  -1   8 1082.79   64.79
  -1  -1   8 1084.49   64.29
   1  -1  -8 1113.79   64.99
   1  -1  -8 1086.39   64.29
  -1  -1   8 1040.90   65.29
   1  -1  -8 1062.49   64.89
  -1   1   8 1081.39   65.19
   1   1  -8 1067.89   64.79
   1   1  -8 1154.58   66.89
  -1   1   8 1055.89   64.99
  -1   1   8 1115.49   65.09
   1   1  -8 1108.09   65.29
  -1   1   8 1107.29   65.09
   0  -1   8 1623.44  100.29
   0  -1  -8 1705.83  100.69
   0  -1   8 1640.74  100.69
   0  -1  -8 1688.03   99.89
   0  -1   8 1608.34   99.89
   0   1   8 1720.83  100.49
   0   1   8 1690.83  100.49
   0   1  -8 1739.73  100.79
   0   1  -8 1685.43  100.29
   0   1   8 1681.23  100.09
   0   1  -8 1760.32  100.79
   0   1  -8 1781.22  101.99
   0   1   8 1683.13  100.49
   1  -1   8 2631.54  157.58
   1  -1   8 2641.94  157.28
  -1  -1  -8 2493.95  156.78
  -1  -1  -8 2627.84  157.08
  -1  -1  -8 2700.33  158.18
   1   1   8 2680.13  157.58
  -1   1  -8 2638.54  158.58
  -1   1  -8 2730.83  157.38
   1   1   8 2665.93  156.88
   1   1   8 2703.13  157.38
   1   1   8 2736.43  157.58
  -1   1  -8 2666.83  157.78
  -1   1  -8 2705.73  157.78
   2  -1   8  874.51   50.69
  -2  -1  -8  781.22   51.29
  -2  -1  -8  820.02   49.60
   2  -1   8  762.22   49.60
  -2  -1  -8  880.21   50.39
   2  -1   8  851.61   50.49
   2   1   8  842.82   50.29
  -2   1  -8  836.52   50.69
   2   1   8  823.22   50.09
  -2   1  -8  798.02   50.19
  -2   1  -8  840.32   50.79
   2   1   8  856.61   50.39
  -3  -1  -8   97.69    9.60
   3  -1   8   99.99    9.10
  -3  -1  -8   81.89   10.70
  -3  -1  -8  105.99    9.10
   3  -1   8   95.59    8.90
  -3   1  -8   94.99    9.00
  -3   1  -8  101.39   10.10
  -3   1  -8  102.29    9.60
   3   1   8  114.89    8.90
   3   1   8  105.09    8.30
   3   1   8  104.29    8.70
  -4  -1  -8  442.16   30.50
   4  -1   8  434.46   29.20
  -4  -1  -8  402.26   29.50
   4  -1   8  397.06   29.20
  -4   1  -8  448.76   29.30
   4   1   8  464.95   28.70
  -4   1  -8  455.95   29.80
   4   1   8  456.65   28.90
   4   1   8  467.35   29.40
   5  -1   8 1055.29   63.09
   5  -1   8 1027.60   62.59
  -5  -1  -8 1100.99   63.89
  -5  -1  -8  989.80   63.09
   5   1   8  974.10   62.39
   5   1   8  943.11   62.89
  -5   1  -8  918.11   62.69
  -5   1  -8 1035.60   63.79
   6  -1   8   23.70    6.80
   6  -1   8   28.50    6.40
  -6  -1  -8   32.70    9.10
  -6  -1  -8   18.00    8.80
  -6   1  -8   17.90    9.00
   6   1   8   12.80    7.10
   6   1   8   10.60    5.70
  -6   1  -8    7.80    9.20
   6   1   8    8.50    5.60
  -7  -1  -8   75.69   12.10
   7  -1   8   75.19    9.20
  -7  -1  -8   31.90    7.90
   7  -1   8   76.39   10.20
   7   1   8   51.99   10.50
  -7   1  -8   45.50   12.20
  -7   1  -8   36.20   12.50
   7   1   8   54.19   14.50
   8  -1   8   33.70    8.20
   8  -1   8   23.30    6.80
  -8  -1  -8   23.00   10.80
  -8   1  -8   13.60   12.20
   8   1   8   25.90    9.60
  -9  -2   8  200.88   25.20
  -9  -2   8  233.08   22.50
   9  -2  -8  201.08   21.30
   9  -2  -8  220.68   19.70
   9   2  -8  277.07   22.60
  -9   2   8  283.47   29.10
   8  -2  -8  317.17   26.20
  -8  -2   8  325.87   26.50
   8  -2  -8  336.97   24.40
  -8  -2   8  296.87   29.30
   8   2  -8  347.87   26.70
  -8   2   8  380.46   31.60
   8   2  -8  316.17   26.90
  -8   2   8  338.87   28.90
   7  -2  -8  198.58   17.70
  -7  -2   8  198.58   20.30
  -7  -2   8  220.78   18.30
   7  -2  -8  186.18   15.50
   7   2  -8  209.68   19.40
   7   2  -8  204.58   19.20
  -7   2   8  206.28   22.70
  -7   2   8  189.98   16.90
  -6  -2   8  429.46   31.70
   6  -2  -8  428.96   29.30
  -6  -2   8  454.45   30.20
   6  -2  -8  441.96   30.10
   6  -2  -8  434.86   30.30
  -6   2   8  533.35   36.10
  -6   2   8  468.85   30.50
   6   2  -8  476.45   30.30
   6   2  -8  457.75   32.60
   6   2  -8  484.05   33.80
   5  -2  -8  662.43   41.80
  -5  -2   8  653.43   43.40
   5  -2  -8  659.43   42.30
  -5  -2   8  682.03   42.30
   5  -2  -8  692.43   42.60
  -5   2   8  799.92   47.90
   5   2  -8  664.43   42.60
   5   2  -8  635.94   45.80
  -5   2   8  705.93   42.80
   4  -2  -8  216.48   14.80
   4  -2  -8  216.58   14.50
  -4  -2   8  219.18   15.60
  -4  -2   8  204.78   14.30
   4   2  -8  205.38   14.70
   4   2  -8  166.68   15.50
  -4   2   8  211.98   14.90
  -4   2   8  211.38   14.50
   4   2  -8  188.28   17.90
  -3  -2   8  257.27   17.30
   3  -2  -8  256.47   17.30
  -3  -2   8  265.57   18.20
  -3  -2   8  284.67   16.40
   3  -2  -8  274.07   16.40
   3   2  -8  283.77   18.10
  -3   2   8  267.87   17.80
  -3   2   8  225.38   20.60
   3   2  -8  250.27   21.00
   3   2  -8  262.27   17.90
  -3   2   8  264.27   17.50
   2  -2  -8  212.88   15.00
  -2  -2   8  226.38   14.20
  -2  -2   8  211.38   15.50
   2  -2  -8  215.18   14.40
   2   2  -8  257.17   14.80
  -2   2   8  244.88   15.50
   2   2  -8  243.28   19.20
  -2   2   8  239.08   15.20
   2   2  -8  244.68   15.60
   2   2  -8  234.18   14.90
  -2   2   8  172.28   17.00
  -2   2   8  240.18   15.50
  -1  -2   8  791.62   47.60
   1  -2  -8  845.32   48.10
   1  -2  -8  803.32   48.20
  -1  -2   8  798.52   48.60
  -1   2   8  820.72   48.40
   1   2  -8  706.03   51.29
   1   2  -8  777.82   48.50
  -1   2   8  793.42   48.30
  -1   2   8  813.72   48.30
   1   2  -8  794.62   48.00
   0  -2   8 2257.67  139.79
   0  -2  -8 2259.07  139.79
   0  -2   8 2269.07  138.69
   0  -2  -8 2354.36  138.59
   0  -2   8 2255.97  139.19
   0   2  -8 2453.45  139.39
   0   2  -8 2323.17  139.79
   0   2   8 2471.85  139.69
   0   2  -8 2490.35  139.99
   0   2   8 2311.17  139.49
   0   2   8 2434.26  139.69
  -1  -2  -8  675.63   45.20
  -1  -2  -8  712.63   43.80
   1  -2   8  676.33   44.00
   1  -2   8  700.73   44.30
   1  -2   8  676.53   44.60
  -1   2  -8  720.23   46.50
   1   2   8  777.42   44.50
   1   2   8  749.82   44.40
  -1   2  -8  771.62   44.80
   1   2   8  739.73   44.30
  -1   2  -8  759.22   44.80
  -1   2  -8  756.32   44.20
  -2  -2  -8  416.26   26.60
   2  -2   8  376.96   26.60
  -2  -2  -8  382.36   28.10
   2  -2   8  408.46   26.90
  -2   2  -8  443.56   27.20
  -2   2  -8  409.96   27.00
  -2   2  -8  412.86   26.40
   2   2   8  429.86   26.60
   2   2   8  445.86   26.70
   2   2   8  440.76   26.50
  -3  -2  -8  112.59   10.70
   3  -2   8  115.39   10.20
  -3  -2  -8  110.89   12.70
   3  -2   8  106.69   10.00
   3   2   8  119.89    9.90
  -3   2  -8  119.19   10.00
  -3   2  -8  104.59   10.60
   3   2   8  116.69    9.60
  -4  -2  -8  142.89   15.40
   4  -2   8  129.99   12.30
   4  -2   8  128.29   12.50
  -4  -2  -8  127.99   13.50
   4   2   8  164.68   13.00
   4   2   8  162.38   12.50
  -4   2  -8  161.98   13.40
  -4   2  -8  145.29   14.10
  -4   2  -8  150.68   14.10
   4   2   8  153.48   12.30
  -5  -2  -8  182.78   15.10
   5  -2   8  155.88   12.60
   5   2   8  128.19   13.40
  -5   2  -8   85.29   12.60
  -5   2  -8  135.99   14.70
  -5   2  -8  129.29   15.50
   5   2   8  112.29   11.80
   5   2   8  131.59   12.60
   6  -2   8  845.72   49.80
  -6  -2  -8  901.31   51.39
   6  -2   8  886.31   50.19
  -6   2  -8  713.93   52.39
   6   2   8  689.73   50.89
   6   2   8  689.03   50.29
  -6   2  -8  694.53   51.29
  -7  -2  -8   56.19   11.20
  -7  -2  -8   55.19   11.20
   7  -2   8   57.99    8.70
   7  -2   8   60.49    9.00
   7   2   8   42.80   10.00
   7   2   8   38.50   10.70
  -7   2  -8   32.20   12.30
  -7   2  -8   22.10   12.60
  -8  -2  -8   14.50   11.00
   8  -2   8   27.70    7.70
   8  -2   8   25.20    6.60
  -8   2  -8    1.10   11.70
  -8   2  -8   -2.40   12.50
   8   2   8    7.40    8.30
   8   2   8    7.30    9.30
   9  -3  -8  142.19   17.60
  -9  -3   8  132.69   19.60
   9  -3  -8  148.39   15.30
  -9  -3   8  136.79   16.80
  -9   3   8  115.09   20.80
   9   3  -8  136.39   17.90
   8  -3  -8  115.89   12.40
  -8  -3   8  120.59   16.80
  -8  -3   8   98.19   13.90
   8  -3  -8  108.99   13.70
   8   3  -8   99.99   15.60
  -8   3   8  117.19   14.30
  -8   3   8  132.99   20.30
   7  -3  -8    9.50    6.10
  -7  -3   8    7.90    7.90
  -7  -3   8    3.20    8.20
   7  -3  -8    8.80    4.90
  -7  -3   8   10.10    7.30
  -7   3   8    9.10    7.20
   7   3  -8    0.30    7.80
   7   3  -8    8.50    5.50
  -7   3   8    3.20   11.50
  -6  -3   8  262.17   19.60
   6  -3  -8  241.88   18.30
  -6  -3   8  256.77   20.90
   6  -3  -8  252.07   19.20
  -6  -3   8  254.47   20.80
  -6   3   8  298.77   27.00
   6   3  -8  182.68   20.90
   6   3  -8  298.37   24.50
   6   3  -8  279.37   19.70
  -6   3   8  292.57   20.60
  -5  -3   8  253.67   19.30
   5  -3  -8  260.27   17.70
  -5  -3   8  260.67   18.40
   5  -3  -8  254.07   18.00
   5  -3  -8  263.17   18.10
  -5   3   8  191.78   22.60
   5   3  -8  255.67   18.80
  -5   3   8  249.38   18.90
   5   3  -8  282.37   23.80
  -4  -3   8  852.11   52.49
   4  -3  -8  858.21   51.59
  -4  -3   8  862.81   51.69
   4   3  -8  880.51   57.59
  -4   3   8  801.32   51.79
   4   3  -8  862.81   52.29
   4   3  -8  802.92   52.29
  -4   3   8  814.42   52.19
  -3  -3   8  371.36   25.60
   3  -3  -8  376.56   25.60
  -3  -3   8  367.16   26.20
  -3   3   8  414.56   28.10
   3   3  -8  424.86   26.60
  -3   3   8  409.56   26.20
   3   3  -8  432.36   25.60
  -3   3   8  412.96   26.00
   3   3  -8  415.66   31.70
  -2  -3   8  558.24   36.90
   2  -3  -8  543.45   36.50
   2  -3  -8  589.34   36.00
  -2  -3   8  562.54   35.40
   2   3  -8  610.34   35.90
   2   3  -8  603.64   37.30
  -2   3   8  607.54   37.00
  -2   3   8  665.23   37.40
  -2   3   8  611.84   36.90
   2   3  -8  479.55   41.00
  -2   3   8  622.94   37.00
   2   3  -8  609.24   36.40
   1  -3  -8  467.35   31.20
  -1  -3   8  500.65   31.70
   1  -3  -8  508.15   31.40
  -1  -3   8  498.55   30.30
   1   3  -8  490.75   31.70
   1   3  -8  503.05   31.60
   1   3  -8  503.15   31.00
  -1   3   8  463.95   31.30
  -1   3   8  523.55   31.60
  -1   3   8  517.05   31.50
   0  -3  -8   48.50    6.60
   0  -3   8   52.79    6.30
   0  -3   8   58.89    5.30
   0   3  -8   50.99    5.50
   0   3   8   47.40    5.70
   0   3  -8   43.70    5.90
   0   3  -8   46.50    6.00
   0   3   8   41.90    5.30
   0   3   8   49.20    5.70
   0   3  -8   46.20    8.30
  -1  -3  -8  750.12   49.70
  -1  -3  -8  776.82   51.59
   1  -3   8  808.82   50.59
   1  -3   8  805.02   50.09
   1   3   8  802.72   49.99
   1   3   8  834.12   50.19
  -1   3  -8  846.72   50.69
  -1   3  -8  820.32   50.59
  -1   3  -8  893.41   52.49
   1   3   8  839.12   50.39
  -1   3  -8  827.82   49.90
   2  -3   8  302.07   19.80
  -2  -3  -8  274.97   19.40
  -2  -3  -8  270.77   21.60
   2  -3   8  275.67   19.40
  -2   3  -8  273.57   19.80
  -2   3  -8  283.87   19.00
   2   3   8  284.17   19.20
  -2   3  -8  289.37   19.90
   2   3   8  278.57   19.20
   3  -3   8  654.03   44.40
   3  -3   8  772.42   44.60
  -3  -3  -8  761.32   46.60
  -3  -3  -8  736.03   44.50
   3   3   8  688.03   43.80
  -3   3  -8  695.03   44.80
   3   3   8  698.33   44.10
  -3   3  -8  689.53   43.80
   3   3   8  696.83   44.10
  -3   3  -8  647.64   44.50
   4  -3   8  460.25   32.10
  -4  -3  -8  518.35   34.60
   4  -3   8  484.65   31.90
  -4  -3  -8  485.95   32.40
  -4   3  -8  504.05   32.10
   4   3   8  486.85   32.10
   4   3   8  497.95   32.30
   4   3   8  455.55   32.30
  -4   3  -8  457.55   32.80
  -4   3  -8  473.65   33.10
   5  -3   8  568.74   36.90
   5  -3   8  574.84   37.20
  -5  -3  -8  605.94   39.40
  -5  -3  -8  592.54   37.90
  -5   3  -8  532.15   37.70
   5   3   8  528.85   37.50
  -5   3  -8  513.65   39.00
   5   3   8  573.04   38.10
   6  -3   8   94.39   10.40
  -6  -3  -8   92.19   11.40
  -6  -3  -8   82.39   12.90
   6  -3   8   85.29   10.10
  -6   3  -8   52.79   12.70
  -6   3  -8   50.59   11.80
   6   3   8   45.30   10.40
  -7  -3  -8   59.29   10.90
  -7  -3  -8   55.79   11.70
   7  -3   8   61.69    8.90
   7  -3   8   65.19    9.00
   7   3   8   25.60   10.50
  -7   3  -8   25.70   12.60
  -7   3  -8   38.60   13.50
   7   3   8   42.90   10.90
   8  -4  -8  165.88   16.00
  -8  -4   8  174.98   21.00
   8  -4  -8  176.48   17.50
  -8  -4   8  144.99   16.70
   8   4  -8  128.19   19.50
  -8   4   8  162.88   24.60
  -8   4   8  191.38   19.40
   7  -4  -8  364.26   25.60
   7  -4  -8  375.96   26.50
  -7  -4   8  373.46   27.40
  -7  -4   8  397.86   30.00
  -7  -4   8  359.36   28.40
  -7   4   8  382.36   28.40
   7   4  -8  283.07   28.80
   7   4  -8  391.66   27.60
  -7   4   8  319.77   34.90
  -6  -4   8  189.18   17.90
   6  -4  -8  192.18   15.20
  -6  -4   8  200.48   19.10
  -6  -4   8  190.38   16.60
   6  -4  -8  189.88   15.60
   6   4  -8  177.98   16.50
   6   4  -8  160.48   17.50
  -6   4   8  185.38   17.70
   5  -4  -8   69.49    8.10
  -5  -4   8   63.89    9.00
   5  -4  -8   70.59    7.90
  -5  -4   8   69.89    8.40
   5   4  -8   66.29    9.00
  -5   4   8   59.59   12.00
   5   4  -8   65.79    9.10
  -5   4   8   59.39    9.00
  -4  -4   8   86.69    9.30
   4  -4  -8   78.79    9.10
  -4  -4   8   80.29    9.80
  -4   4   8   73.99    9.20
   4   4  -8   79.29    9.70
   4   4  -8   87.39    9.30
  -4   4   8   90.99   12.10
  -4   4   8   86.29    9.50
   3  -4  -8   80.39    8.10
  -3  -4   8   77.99    8.40
  -3  -4   8   86.59    8.70
   3   4  -8   51.49    7.70
  -3   4   8   50.29    7.20
  -3   4   8   54.69    7.30
  -3   4   8   68.09    8.30
  -2  -4   8  272.27   17.60
   2  -4  -8  279.37   17.20
  -2   4   8  224.08   17.00
  -2   4   8  223.28   17.20
  -2   4   8  217.98   17.10
   2   4  -8  214.48   16.40
   2   4  -8  232.58   17.70
   1  -4  -8  717.73   47.10
  -1  -4   8  740.03   47.50
  -1  -4   8  730.63   46.10
   1  -4  -8  727.23   47.60
   1   4  -8  783.42   47.00
   1   4  -8  807.32   47.70
   1   4  -8  769.62   48.10
  -1   4   8  789.02   47.50
  -1   4   8  787.92   47.60
  -1   4   8  769.62   47.40
   0  -4   8  569.74   37.00
   0  -4  -8  532.95   38.90
   0  -4   8  549.45   38.10
   0   4   8  643.34   38.10
   0   4   8  617.24   38.10
   0   4  -8  614.94   38.60
   0   4  -8  631.44   37.50
   0   4   8  605.04   37.90
   0   4  -8  621.44   38.30
   1  -4   8  528.55   33.20
   1  -4   8  536.75   33.60
  -1  -4  -8  508.15   35.50
  -1   4  -8  505.25   33.60
   1   4   8  493.35   33.10
  -1   4  -8  516.95   32.80
  -1   4  -8  532.35   34.20
   1   4   8  513.05   33.40
  -2  -4  -8  717.43   49.30
   2  -4   8  751.72   47.20
   2  -4   8  688.23   48.90
   2  -4   8  718.63   47.00
  -2   4  -8  795.02   46.50
  -2   4  -8  728.93   47.20
   2   4   8  759.22   47.00
   2   4   8  752.52   46.70
   2   4   8  783.32   46.80
  -3  -4  -8    7.60    8.50
   3  -4   8   14.90    5.60
  -3  -4  -8    8.80    5.60
   3  -4   8   13.00    4.70
  -3   4  -8   11.70    5.00
  -3   4  -8   12.40    6.20
  -3   4  -8   14.20    6.00
   3   4   8   13.80    5.00
   3   4   8   12.80    4.90
  -4  -4  -8  346.07   27.70
   4  -4   8  358.46   24.20
   4  -4   8  329.47   24.50
  -4  -4  -8  345.77   24.80
   4   4   8  333.57   24.40
  -4   4  -8  337.67   24.30
   4   4   8  345.87   24.60
  -4   4  -8  318.07   25.50
   5  -4   8   44.40    8.20
   5  -4   8   41.10    7.40
  -5  -4  -8   47.70    9.10
  -5  -4  -8   40.60   11.40
   5   4   8   51.49    9.30
  -5   4  -8   47.70    9.50
   5   4   8   46.10    8.90
  -5   4  -8   47.70   10.80
  -6  -4  -8   95.79   12.30
   6  -4   8   94.29   11.20
   6  -4   8   95.99   11.50
  -6  -4  -8  111.29   15.00
   6   4   8   90.59   13.60
  -6   4  -8  111.49   14.30
   6   4   8   98.09   13.80
  -6   4  -8   89.29   15.50
  -7  -5   8    4.90    8.30
  -7  -5   8    4.60   10.70
  -7  -5   8    6.30    8.10
   7  -5  -8    3.40    5.60
   7  -5  -8    4.30    6.50
   7   5  -8    4.90    6.90
  -7   5   8    8.50    8.90
  -7   5   8   -4.70   17.10
   7   5  -8    6.60    9.40
   6  -5  -8  121.89   12.90
   6  -5  -8  123.69   13.20
  -6  -5   8  120.29   16.20
  -6  -5   8  124.09   15.10
  -6  -5   8  110.89   12.60
  -6   5   8  114.79   14.70
   6   5  -8  124.29   14.60
  -5  -5   8   72.99   10.10
  -5  -5   8   90.49   13.70
   5  -5  -8   84.69    9.50
   5  -5  -8   78.49    9.50
  -5  -5   8   74.89    9.80
  -5   5   8   78.99   11.50
   5   5  -8   86.49   11.60
   4  -5  -8  330.87   21.20
  -4  -5   8  333.17   21.60
  -4  -5   8  298.47   21.80
  -4   5   8  258.17   22.00
  -4   5   8  256.87   21.20
   4   5  -8  258.67   22.20
   3  -5  -8  318.17   22.70
  -3  -5   8  320.87   22.90
  -3  -5   8  314.27   23.20
  -3   5   8  344.27   23.50
   3   5  -8  321.27   24.30
  -3   5   8  342.07   23.50
  -3   5   8  344.87   24.10
  -2  -5   8  354.56   23.80
   2  -5  -8  317.87   23.30
  -2  -5   8  334.07   23.90
   2   5  -8  341.57   24.90
  -2   5   8  328.57   24.20
   2   5  -8  346.57   23.10
  -2   5   8  352.46   24.10
  -2   5   8  350.46   24.00
  -1  -5   8   45.90    7.40
   1  -5  -8   47.60    7.40
   1  -5  -8   61.99   10.70
   1   5  -8   56.59    8.90
  -1   5   8   59.29    7.90
  -1   5   8   60.99    8.20
   1   5  -8   52.79    7.70
   1   5  -8   68.09    7.40
  -1   5   8   61.69    8.30
   0  -5  -8   35.70    8.60
   0  -5   8   46.30    7.40
   0   5  -8   38.80    7.20
   0   5   8   48.10    7.30
   0   5   8   44.10    7.20
   0   5  -8   41.00    6.30
   0   5  -8   45.10    8.30
   0   5   8   41.90    6.70
   1  -5   8  102.69   12.00
   1  -5   8  114.09   11.60
  -1  -5  -8   93.19   14.40
   1   5   8  139.59   12.50
  -1   5  -8  144.09   13.00
  -1   5  -8  166.28   14.60
   1   5   8  142.29   12.50
   1   5   8  142.49   12.70
  -1   5  -8  138.09   12.00
  -2  -5  -8  228.88   22.70
   2  -5   8  239.28   18.80
   2  -5   8  234.88   19.00
  -2   5  -8  261.87   18.50
  -2   5  -8  254.27   19.50
   2   5   8  275.87   19.20
   2   5   8  263.67   18.90
  -2   5  -8  185.98   18.90
   3  -5   8  728.63   49.70
   3  -5   8  707.93   49.30
  -3  -5  -8  820.02   52.99
   3   5   8  800.12   49.70
   3   5   8  792.02   49.40
  -3   5  -8  751.62   49.99
  -3   5  -8  800.42   48.80
   4  -5   8  105.59   12.00
  -4  -5  -8  127.69   16.30
   4   5   8   78.09   10.80
  -4   5  -8   86.69   10.70
   4   5   8   74.69   10.80
  -4   5  -8   71.59   12.10
   5  -5   8   41.40    8.70
   5  -5   8   39.40    7.80
  -5  -5  -8   52.69   13.50
  -5   5  -8   49.20    9.80
   5   5   8   41.50    9.60
   5   5   8   57.89   10.40
  -5   5  -8   52.29   11.70
   6  -6  -8   31.70    8.40
  -6  -6   8   40.50   19.70
   6   6  -8   39.30   11.50
   5  -6  -8   54.79    8.70
  -5  -6   8   53.49    9.40
  -5  -6   8   52.19    9.50
   5  -6  -8   57.59    9.00
  -5  -6   8   61.59   13.50
  -5   6   8   57.99   11.20
   5   6  -8   58.09   10.90
  -4  -6   8   60.59    9.40
  -4  -6   8   67.89   13.40
  -4  -6   8   67.19    9.70
   4  -6  -8   73.29    9.20
  -4   6   8   31.00    8.50
   4   6  -8   60.39   10.60
  -4   6   8   53.29   10.50
   3  -6  -8   23.60    6.70
  -3  -6   8   23.90    6.80
  -3  -6   8   21.80    6.70
  -3   6   8   19.90    7.60
  -3   6   8   24.40    7.00
   3   6  -8   24.20    8.10
  -3   6   8   24.30    7.30
  -2  -6   8  237.98   19.00
   2  -6  -8  244.78   18.60
  -2  -6   8  219.98   18.50
  -2   6   8  222.28   19.00
  -2   6   8  229.28   19.00
   2   6  -8  216.28   20.70
  -2   6   8  222.58   19.50
   1  -6  -8  256.87   21.10
  -1  -6   8  254.27   21.00
  -1  -6   8  278.47   21.00
  -1   6   8  287.27   21.30
  -1   6   8  262.17   21.40
   1   6  -8  284.87   20.20
  -1   6   8  278.67   21.90
   1   6  -8  290.07   23.10
   0  -6  -8   66.99   11.90
   0  -6   8   80.79   10.30
   0  -6  -8   82.79   10.10
   0   6  -8   76.19    9.00
   0   6  -8   69.99   11.80
   0   6  -8   78.49   10.10
   0   6   8   77.39   10.40
   0   6   8   68.99    9.60
   1  -6   8  125.29   13.90
  -1  -6  -8   98.19   15.40
   1   6   8  118.39   13.30
  -1   6  -8  133.59   12.70
  -1   6  -8  140.39   14.40
  -1   6  -8  148.89   16.20
   1   6   8  118.69   13.40
  -2  -6  -8  205.08   23.70
   2  -6   8  186.88   18.40
   2  -6   8  201.88   18.80
  -2   6  -8  242.28   19.70
   2   6   8  260.57   19.50
  -2   6  -8  268.17   18.60
   2   6   8  248.28   19.50
   3  -6   8   26.80    7.40
  -3  -6  -8   30.90   12.60
   3  -6   8   20.20    7.50
   3   6   8   17.00    6.70
  -3   6  -8   27.40    7.00
  -3   6  -8   21.10    8.40
   3   6   8   19.00    7.10
   4  -6   8  107.49   14.20
  -4  -6  -8  131.49   18.60
   4  -6   8  142.09   15.20
  -4   6  -8  175.48   16.30
   4   6   8  130.79   15.20
   4   6   8  156.58   16.10
  -4   6  -8  135.89   17.30
  -3  -7   8  216.08   24.60
  -3  -7   8  229.88   20.20
   3  -7  -8  225.28   20.20
  -3   7   8  252.47   21.00
  -3   7   8  250.47   21.10
   3   7  -8  253.17   23.30
  -3   7   8  246.28   22.50
  -2  -7   8  279.37   21.00
  -2  -7   8  261.67   20.90
   2  -7  -8  273.27   21.00
  -2   7   8  217.38   20.80
  -2   7   8  224.48   20.80
   2   7  -8  232.38   23.90
  -2   7   8  234.48   22.10
   1  -7  -8    2.70    6.60
  -1  -7   8    2.60    6.50
  -1  -7   8    0.80    6.50
  -1   7   8    1.90    6.60
   1   7  -8    5.90    8.60
  -1   7   8    6.60    6.50
  -1   7   8    4.90   10.90
   1   7  -8    2.60    5.50
   0  -7   8    8.00    6.70
   0  -7  -8    7.50    7.00
   0   7   8   12.60    6.60
   0   7  -8    9.90    9.40
   0   7   8    7.90    6.90
   0   7  -8   11.40    7.00
   0   7  -8    8.10    5.70
  -1  -7  -8   -1.10   10.50
   1  -7   8    2.20    6.40
  -1  -7  -8    8.20    6.80
  -1   7  -8    3.40    6.70
  -1   7  -8    4.50    5.60
   1   7   8   13.30    6.80
   1   7   8    7.90    7.10
  -2  -7  -8   24.40   12.70
   2  -7   8   39.00    8.90
  -2   7  -8   68.39   10.90
  -2   7  -8   66.29    9.20
   2   7   8   70.09   10.30
  -9   0   9    6.60   11.50
   9   0  -9   15.40    7.30
   8   0  -9  455.35   32.80
  -8   0   9  475.25   37.30
   7   0  -9  595.44   41.30
   7   0  -9  647.64   41.90
  -7   0   9  616.64   44.70
  -6   0   9   16.10    8.10
  -6   0   9   21.10    6.10
   6   0  -9   14.70    5.60
   6   0  -9   14.70    5.70
  -5   0   9  600.74   39.90
   5   0  -9  563.14   38.80
  -5   0   9  634.94   37.20
   5   0  -9  608.24   36.90
   5   0  -9  580.44   39.00
  -5   0   9  619.14   37.30
   4   0  -9 2291.67  129.99
  -4   0   9 2141.09  131.79
  -4   0   9 2269.57  130.19
  -4   0   9 2238.18  130.39
   4   0  -9 2125.19  131.79
   4   0  -9 2181.98  130.29
   4   0  -9 2135.49  131.29
  -3   0   9    2.50    1.70
   3   0  -9    3.40    3.10
  -3   0   9    2.60    2.70
   3   0  -9    4.70    2.40
  -3   0   9    1.90    1.70
  -3   0   9    2.50    2.10
   3   0  -9    3.20    1.90
   2   0  -9 2029.10  121.89
  -2   0   9 2114.59  122.19
  -2   0   9 1971.00  121.79
   2   0  -9 2107.49  121.69
   2   0  -9 2021.70  123.09
   2   0  -9 2126.29  122.19
  -1   0   9  204.28   13.00
   1   0  -9  185.08   12.50
  -1   0   9  199.18   12.60
   1   0  -9  203.98   14.00
   1   0  -9  196.88   12.50
   1   0  -9  209.68   13.20
  -1   0   9  195.88   13.10
   0   0   9   65.79    5.50
   0   0  -9   65.09    6.10
   0   0  -9   61.69    4.80
   0   0   9   65.29    4.90
   0   0  -9   72.39    6.70
   0   0   9   71.09    5.60
   0   0  -9   68.49    5.40
   0   0   9   70.49    5.30
  -1   0  -9 1868.01  112.69
   1   0   9 1906.71  112.39
  -1   0  -9 1892.41  112.79
  -1   0  -9 1959.00  113.49
   1   0   9 1950.80  113.09
   1   0   9 1878.21  112.69
   1   0   9 1860.91  112.79
  -2   0  -9  920.51   55.49
  -2   0  -9  923.21   55.49
   2   0   9  900.21   55.69
   2   0   9  916.61   54.99
   2   0   9  911.11   55.49
  -2   0  -9  942.71   56.49
   3   0   9   61.69    6.90
  -3   0  -9   63.79    7.10
  -3   0  -9   51.79    8.00
   3   0   9   61.19    5.70
   3   0   9   59.49    6.70
  -3   0  -9   67.49    7.10
   4   0   9   53.69    7.50
  -4   0  -9   52.89    7.80
   4   0   9   49.99    7.00
  -4   0  -9   55.09    7.30
  -4   0  -9   53.99    9.10
  -5   0  -9  367.56   26.20
   5   0   9  347.77   25.10
   5   0   9  319.47   24.10
  -5   0  -9  343.07   25.80
   6   0   9   33.60    7.30
  -6   0  -9   18.90    9.70
   6   0   9   30.40    7.90
   7   0   9  952.60   57.79
  -7   0  -9  862.01   59.89
   7   0   9  903.91   58.99
  -8   0  -9   58.89   13.90
   8   0   9   50.69   10.70
  -9  -1   9  298.77   30.90
   9  -1  -9  282.07   25.20
  -9   1   9  344.57   30.90
   9   1  -9  353.96   25.90
  -8  -1   9  347.57   31.60
  -8  -1   9  300.97   26.00
   8  -1  -9  295.27   26.60
  -8   1   9  418.66   32.00
   8   1  -9  377.86   27.90
   8   1  -9  384.96   26.90
  -7  -1   9  123.09   15.90
   7  -1  -9  125.09   11.40
   7  -1  -9  111.69   13.70
  -7  -1   9  121.29   13.70
   7  -1  -9  126.19   13.10
   7   1  -9  123.99   14.40
   7   1  -9  154.98   14.30
  -7   1   9  149.49   18.70
   6  -1  -9   80.09    9.70
  -6  -1   9   82.19    8.80
   6  -1  -9   85.49    8.10
   6  -1  -9   90.39   10.00
  -6  -1   9   81.19   11.20
   6   1  -9   83.29   11.60
   6   1  -9   91.19   10.70
  -6   1   9   72.59   12.60
  -6   1   9   84.09    9.10
  -5  -1   9  207.28   16.20
   5  -1  -9  209.08   13.40
   5  -1  -9  207.38   15.20
  -5  -1   9  211.58   14.00
   5  -1  -9  190.58   14.60
   5   1  -9  188.08   13.80
  -5   1   9  186.88   18.40
   5   1  -9  166.28   16.20
  -5   1   9  181.98   14.00
   5   1  -9  180.98   15.90
   4  -1  -9  839.22   49.40
  -4  -1   9  831.32   48.40
   4  -1  -9  781.22   48.60
  -4  -1   9  810.72   48.00
  -4  -1   9  799.82   49.70
  -4   1   9  804.02   48.70
  -4   1   9  751.62   51.19
   4   1  -9  776.72   50.99
  -4   1   9  801.82   48.50
   4   1  -9  750.52   48.50
   4   1  -9  821.32   50.59
  -3  -1   9 3560.34  216.38
   3  -1  -9 3426.36  216.18
  -3  -1   9 3536.85  215.38
   3  -1  -9 3531.05  215.48
  -3  -1   9 3595.14  215.18
   3  -1  -9 3685.53  215.18
   3   1  -9 4038.50  218.18
   3   1  -9 3552.94  217.18
  -3   1   9 3718.13  215.88
  -3   1   9 3768.22  215.58
   3   1  -9 3767.72  215.88
   2  -1  -9  362.76   20.40
   2  -1  -9  331.37   22.00
  -2  -1   9  333.17   21.90
   2  -1  -9  330.17   21.00
  -2  -1   9  330.57   21.00
  -2   1   9  343.27   22.00
   2   1  -9  326.37   21.00
  -2   1   9  339.87   20.40
   2   1  -9  359.26   23.50
   2   1  -9  334.67   21.50
  -2   1   9  330.57   21.20
  -2   1   9  342.17   21.50
  -1  -1   9  238.58   14.40
   1  -1  -9  224.78   14.90
  -1  -1   9  240.88   14.90
   1  -1  -9  245.08   15.20
  -1  -1   9  229.28   15.50
   1  -1  -9  238.78   14.30
   1   1  -9  223.68   14.90
  -1   1   9  232.48   15.10
  -1   1   9  231.38   15.30
   1   1  -9  229.68   15.50
   1   1  -9  252.67   17.30
  -1   1   9  226.58   15.10
  -1   1   9  227.48   15.10
   0  -1   9 1387.76   83.49
   0  -1  -9 1322.07   83.79
   0  -1  -9 1504.65   84.39
   0  -1   9 1379.06   84.39
   0  -1  -9 1440.96   83.49
   0  -1   9 1429.26   83.99
   0   1  -9 1435.26   84.39
   0   1   9 1427.76   84.09
   0   1   9 1346.47   84.19
   0   1   9 1369.56   83.69
   0   1  -9 1413.36   84.39
   0   1   9 1426.36   84.09
   0   1  -9 1472.65   85.79
   0   1  -9 1404.66   83.89
   1  -1   9   27.40    4.20
  -1  -1  -9   25.70    5.20
   1   1   9   50.59    4.60
  -1   1  -9   45.30    5.00
  -1   1  -9   50.19    5.50
   1   1   9   44.80    4.80
  -1   1  -9   45.50    6.30
  -1   1  -9   50.49    5.50
   1   1   9   46.50    4.70
   1   1   9   44.60    3.70
  -2  -1  -9  986.40   61.39
  -2  -1  -9 1109.39   60.39
  -2  -1  -9  931.21   60.29
   2  -1   9 1070.49   60.79
   2  -1   9 1075.69   60.59
  -2   1  -9  951.10   60.19
  -2   1  -9  987.00   60.69
   2   1   9  980.80   60.39
   2   1   9  966.70   60.39
  -2   1  -9  959.90   60.89
   2   1   9  982.10   60.09
   3  -1   9  729.93   47.50
   3  -1   9  730.83   47.60
  -3  -1  -9  766.42   47.60
  -3  -1  -9  641.24   48.10
   3   1   9  808.12   47.50
   3   1   9  839.82   47.60
   3   1   9  803.02   47.00
  -3   1  -9  756.32   48.10
  -3   1  -9  799.12   47.40
  -3   1  -9  791.52   47.80
  -4  -1  -9  166.98   16.10
  -4  -1  -9  172.68   14.90
   4  -1   9  176.28   14.00
   4  -1   9  177.98   14.10
   4   1   9  174.68   13.00
  -4   1  -9  166.58   14.70
  -4   1  -9  168.78   14.40
   4   1   9  160.58   13.50
  -4   1  -9  144.39   14.90
   4   1   9  170.98   13.80
  -5  -1  -9  124.59   13.10
   5  -1   9  115.69   11.70
   5  -1   9  108.49   12.40
  -5  -1  -9  119.19   13.50
   5   1   9  112.69   12.70
  -5   1  -9  129.19   14.40
   5   1   9  132.59   11.60
  -5   1  -9  125.39   13.10
   5   1   9   93.09   11.20
  -6  -1  -9  576.04   39.50
  -6  -1  -9  608.94   39.30
   6  -1   9  578.34   38.30
   6  -1   9  596.84   37.90
   6   1   9  525.85   38.90
  -6   1  -9  624.04   40.90
   6   1   9  523.25   37.80
  -6   1  -9  519.35   39.70
   7  -1   9   79.19   10.50
   7  -1   9   87.19   11.30
  -7  -1  -9   93.19   12.70
  -7  -1  -9  102.09   14.00
   7   1   9   62.19   11.60
  -7   1  -9   58.89   13.90
   8  -1   9   67.59    9.60
   9  -2  -9   60.79   11.20
   9  -2  -9   55.39   11.10
  -9  -2   9   74.99   12.50
  -9  -2   9   68.49   15.70
  -9   2   9   59.39   15.60
   9   2  -9   63.19   11.70
  -8  -2   9  339.77   26.50
   8  -2  -9  292.57   24.10
   8  -2  -9  287.67   26.40
  -8  -2   9  316.67   30.50
   8   2  -9  398.36   28.80
   8   2  -9  416.86   28.10
  -7  -2   9  374.16   32.10
  -7  -2   9  412.56   30.00
   7  -2  -9  385.36   30.00
   7  -2  -9  417.76   28.60
   7   2  -9  473.95   32.20
  -7   2   9  463.95   30.00
  -7   2   9  531.35   36.10
   7   2  -9  430.86   32.70
   6  -2  -9  377.36   25.60
  -6  -2   9  411.76   25.70
   6  -2  -9  378.16   24.50
   6  -2  -9  370.46   25.70
  -6  -2   9  384.26   27.30
   6   2  -9  343.37   28.50
  -6   2   9  398.36   31.30
   6   2  -9  354.26   27.60
   6   2  -9  351.16   25.10
  -6   2   9  360.76   25.50
   5  -2  -9  549.65   36.30
   5  -2  -9  547.75   35.50
   5  -2  -9  573.74   36.10
  -5  -2   9  551.14   37.30
  -5  -2   9  567.54   36.00
   5   2  -9  526.65   39.60
  -5   2   9  593.64   36.50
  -5   2   9  655.63   41.90
   5   2  -9  601.44   36.50
  -4  -2   9 1016.70   61.89
   4  -2  -9 1013.70   62.49
   4  -2  -9 1053.69   62.19
  -4  -2   9 1058.49   63.19
   4   2  -9  997.90   65.99
  -4   2   9 1062.79   62.19
  -4   2   9  890.81   65.59
  -4   2   9 1072.99   62.59
   4   2  -9 1033.70   62.59
  -3  -2   9  120.99    7.90
  -3  -2   9  115.19    9.90
   3  -2  -9  111.59    9.10
   3  -2  -9  122.79    8.00
  -3  -2   9  108.99    8.90
   3   2  -9  108.49    9.40
  -3   2   9  112.69    9.50
   3   2  -9  114.49    9.60
   3   2  -9  118.09    8.80
   3   2  -9  114.79   12.90
  -3   2   9  120.69    9.20
  -3   2   9  112.89   13.00
  -2  -2   9 1286.37   76.29
   2  -2  -9 1284.57   75.19
  -2  -2   9 1314.07   75.09
   2  -2  -9 1241.88   75.69
   2   2  -9 1264.87   76.19
   2   2  -9 1317.17   75.29
   2   2  -9 1245.68   79.69
  -2   2   9 1217.18   75.99
  -2   2   9 1214.68   75.79
   2   2  -9 1215.88   75.49
  -2   2   9 1293.27   75.99
  -1  -2   9  553.24   31.70
   1  -2  -9  576.74   32.20
   1  -2  -9  539.85   32.20
  -1  -2   9  547.45   32.80
  -1   2   9  472.95   32.30
   1   2  -9  493.45   32.00
   1   2  -9  500.25   32.60
  -1   2   9  523.95   32.40
  -1   2   9  498.05   32.30
   1   2  -9  487.15   35.70
   0  -2  -9  339.77   23.50
   0  -2   9  340.17   22.10
   0  -2  -9  341.37   22.00
   0  -2   9  322.17   23.40
   0  -2   9  314.87   22.60
   0   2  -9  397.26   23.70
   0   2  -9  318.97   25.90
   0   2   9  382.76   23.30
   0   2  -9  379.26   23.10
   0   2   9  409.86   23.40
   0   2   9  408.66   23.40
   0   2  -9  426.96   23.90
   1  -2   9 1181.78   69.79
  -1  -2  -9 1237.78   69.59
   1  -2   9 1168.78   70.19
  -1  -2  -9 1167.38   71.09
   1  -2   9 1039.60   70.29
  -1   2  -9 1031.50   72.29
  -1   2  -9 1193.38   70.69
   1   2   9 1205.58   70.29
  -1   2  -9 1163.68   69.99
  -1   2  -9 1207.08   70.69
   1   2   9 1200.78   70.29
   1   2   9 1177.98   70.19
   2  -2   9  702.63   43.60
  -2  -2  -9  756.12   43.50
  -2  -2  -9  669.13   44.90
   2  -2   9  727.93   43.90
  -2   2  -9  699.93   44.00
  -2   2  -9  677.53   43.30
  -2   2  -9  686.13   44.10
   2   2   9  718.73   43.60
   2   2   9  713.23   43.50
   2   2   9  698.03   43.40
  -3  -2  -9  106.99   11.20
   3  -2   9  106.89   10.50
  -3  -2  -9  107.99   13.20
   3  -2   9   80.59    9.90
   3   2   9  122.19   10.30
  -3   2  -9  128.79   11.90
   3   2   9  139.79   10.50
   3   2   9  129.69   10.00
  -3   2  -9  118.59   11.40
  -3   2  -9  123.69   10.60
  -4  -2  -9   45.40    8.50
  -4  -2  -9   71.09   10.50
   4  -2   9   60.99    8.30
   4  -2   9   67.69    8.50
   4   2   9   70.89    8.20
   4   2   9   65.99    8.40
   4   2   9   68.49    8.20
  -4   2  -9   69.99    9.20
  -4   2  -9   72.49    8.60
  -4   2  -9   55.09    9.10
   5  -2   9  142.49   13.70
  -5  -2  -9  151.38   16.40
   5  -2   9  148.79   13.90
  -5  -2  -9  153.58   17.00
  -5   2  -9  156.18   16.80
   5   2   9  153.18   13.70
  -5   2  -9  154.28   15.50
   5   2   9  169.58   15.30
  -5   2  -9  109.79   14.70
   5   2   9  147.29   13.80
  -6  -2  -9   62.29   11.20
   6  -2   9   61.39    9.10
   6  -2   9   70.29    9.30
  -6  -2  -9   62.79   10.90
  -6   2  -9   38.90   11.00
  -6   2  -9   32.30   10.60
   6   2   9   33.40    8.10
   6   2   9   25.50    8.90
   7  -2   9  188.68   16.40
  -7  -2  -9  181.28   20.20
   7  -2   9  174.08   16.50
  -7  -2  -9  188.08   18.80
   7   2   9  176.18   19.60
   7   2   9  162.58   18.10
  -7   2  -9  176.68   21.10
  -7   2  -9  145.19   19.40
  -9  -3   9  131.09   19.70
  -9  -3   9  136.49   16.50
   9  -3  -9  152.88   15.20
  -9   3   9  109.19   20.90
   9   3  -9  106.09   16.50
  -8  -3   9  100.99   16.10
  -8  -3   9   85.49   13.10
   8  -3  -9   85.99   12.40
   8  -3  -9   91.49   11.30
   8   3  -9  113.99   15.70
  -8   3   9  112.59   13.70
  -8   3   9  147.29   20.90
   7  -3  -9  143.19   13.90
  -7  -3   9  135.29   17.90
  -7  -3   9  147.39   17.90
   7  -3  -9  144.79   15.60
  -7  -3   9  157.68   16.60
  -7   3   9  203.08   17.10
  -7   3   9  214.08   24.60
   7   3  -9  205.58   15.60
   7   3  -9  192.08   19.90
   7   3  -9  143.59   17.90
  -6  -3   9   46.00    7.60
   6  -3  -9   52.59    6.60
   6  -3  -9   48.00    7.40
  -6  -3   9   47.40    9.00
  -6   3   9   46.90    8.30
   6   3  -9   35.00    8.50
  -6   3   9   45.20   13.30
   6   3  -9   47.20   10.90
   6   3  -9   45.60    7.60
   5  -3  -9  360.26   24.40
   5  -3  -9  364.86   24.00
  -5  -3   9  365.76   24.60
  -5  -3   9  352.36   25.70
   5  -3  -9  381.06   24.70
  -5   3   9  351.16   25.30
   5   3  -9  370.96   25.20
   5   3  -9  418.76   30.80
   5   3  -9  334.27   25.90
   4  -3  -9  313.97   21.80
  -4  -3   9  310.07   21.70
  -4  -3   9  305.17   22.60
  -4   3   9  358.36   22.80
  -4   3   9  321.87   22.00
   4   3  -9  321.57   27.60
   4   3  -9  331.67   22.60
   4   3  -9  356.86   22.50
  -3  -3   9 1472.85   88.39
   3  -3  -9 1452.65   87.69
  -3  -3   9 1406.76   87.49
  -3   3   9 1484.15   87.99
   3   3  -9 1455.65   88.39
  -3   3   9 1492.55   88.29
  -3   3   9 1330.37   89.79
   3   3  -9 1522.45   87.49
   3   3  -9 1527.05   94.19
   2  -3  -9  938.71   54.69
  -2  -3   9  916.51   55.89
   2  -3  -9  939.21   55.39
  -2  -3   9  944.91   54.29
  -2   3   9  945.81   55.79
   2   3  -9  734.13   59.99
   2   3  -9  921.81   55.09
  -2   3   9  894.01   55.69
  -2   3   9  897.71   55.49
   2   3  -9  912.11   55.99
  -1  -3   9  775.52   43.10
   1  -3  -9  740.43   44.00
   1  -3  -9  799.92   44.20
  -1  -3   9  761.42   44.60
  -1   3   9  660.83   44.00
   1   3  -9  674.93   43.60
  -1   3   9  675.23   44.00
   1   3  -9  697.63   44.30
   1   3  -9  665.33   44.40
  -1   3   9  671.23   44.10
   0  -3  -9  285.77   20.80
   0  -3   9  293.27   20.70
   0  -3   9  293.97   19.50
   0   3  -9  269.87   23.50
   0   3  -9  309.77   20.70
   0   3  -9  312.97   19.90
   0   3   9  324.67   20.50
   0   3  -9  312.47   20.70
   0   3   9  297.27   20.10
   0   3   9  318.47   20.30
   1  -3   9  325.97   20.20
   1  -3   9  290.07   20.00
  -1  -3  -9  280.47   21.70
   1  -3   9  295.47   20.50
  -1   3  -9  303.17   20.70
  -1   3  -9  302.47   20.80
   1   3   9  313.47   20.30
  -1   3  -9  324.17   22.80
   1   3   9  278.37   19.90
   1   3   9  293.07   20.10
  -1   3  -9  288.67   19.90
   2  -3   9  330.57   24.40
   2  -3   9  381.96   25.00
  -2  -3  -9  360.06   24.60
  -2  -3  -9  383.06   27.10
   2  -3   9  360.26   25.00
   2   3   9  396.16   24.90
  -2   3  -9  362.46   25.30
  -2   3  -9  392.56   24.60
   2   3   9  377.56   24.70
  -2   3  -9  416.96   25.80
   2   3   9  352.76   24.40
  -3  -3  -9  343.07   24.30
   3  -3   9  328.37   24.30
  -3  -3  -9  367.76   26.90
   3  -3   9  341.67   24.00
  -3   3  -9  339.07   24.70
   3   3   9  367.36   24.20
  -3   3  -9  354.26   23.80
   3   3   9  358.96   24.00
   3   3   9  373.36   24.00
  -4  -3  -9  131.49   14.20
   4  -3   9  113.09   12.40
  -4  -3  -9  141.29   15.60
   4  -3   9  123.79   12.30
   4   3   9  141.39   12.50
   4   3   9  152.28   13.40
  -4   3  -9  141.99   14.50
   4   3   9  137.39   12.50
  -4   3  -9  125.39   14.50
  -4   3  -9  145.89   13.60
  -5  -3  -9  277.47   21.60
  -5  -3  -9  290.77   23.80
   5  -3   9  279.27   20.70
   5  -3   9  276.97   20.20
   5   3   9  258.87   21.60
   5   3   9  243.68   20.50
  -5   3  -9  223.98   21.60
  -6  -3  -9  158.48   17.70
  -6  -3  -9  173.28   20.10
   6  -3   9  157.18   14.90
   6  -3   9  158.48   15.10
   6   3   9  138.09   16.70
  -6   3  -9  152.58   17.30
  -6   3  -9  156.68   18.90
   6   3   9  154.68   16.60
  -7  -3  -9   40.30   10.70
   7  -3   9   38.10    7.70
  -7  -3  -9   33.50   10.90
   7  -3   9   30.20    7.40
  -7   3  -9   25.50   13.00
   7   3   9    8.40    9.30
  -7   3  -9    1.00   11.30
   7   3   9   22.40    9.30
   8  -4  -9   75.49   10.20
   8  -4  -9   80.69   11.60
  -8  -4   9   68.29   12.00
  -8  -4   9   73.39   13.90
  -8   4   9   78.29   12.60
  -8   4   9   74.49   19.40
   8   4  -9   45.20   13.30
  -7  -4   9  191.88   19.90
  -7  -4   9  205.08   20.90
   7  -4  -9  191.78   16.60
  -7  -4   9  207.08   18.70
   7  -4  -9  203.08   17.80
  -7   4   9  179.68   25.00
   7   4  -9  209.68   18.40
  -7   4   9  200.88   19.60
  -6  -4   9  396.36   29.90
   6  -4  -9  420.06   28.00
  -6  -4   9  423.26   29.00
   6  -4  -9  403.46   28.30
  -6  -4   9  433.06   31.50
   6   4  -9  430.16   29.80
  -6   4   9  455.25   30.30
   6   4  -9  382.06   30.20
   5  -4  -9  269.47   18.80
  -5  -4   9  260.27   20.30
  -5  -4   9  259.77   19.50
   5  -4  -9  262.77   18.90
  -5   4   9  220.78   24.00
   5   4  -9  260.77   20.10
  -5   4   9  263.27   19.50
  -5   4   9  267.87   20.30
  -4  -4   9  150.68   13.80
   4  -4  -9  162.08   12.90
  -4  -4   9  155.98   13.10
   4   4  -9  152.18   13.80
  -4   4   9  149.09   13.70
  -4   4   9  149.09   13.20
  -3  -4   9   49.10    6.90
   3  -4  -9   47.10    6.40
  -3  -4   9   50.19    6.50
  -3   4   9   38.70    6.40
  -3   4   9   53.89    7.00
   3   4  -9   38.40   11.60
   3   4  -9   49.30    7.70
  -3   4   9   46.20    7.10
  -2  -4   9  194.98   16.00
   2  -4  -9  191.78   15.60
  -2   4   9  226.88   16.30
   2   4  -9  229.38   15.40
  -2   4   9  241.28   16.20
  -2   4   9  229.68   16.30
   2   4  -9  158.18   21.10
   2   4  -9  226.48   16.70
   1  -4  -9  636.54   39.90
   1  -4  -9  643.24   40.20
  -1  -4   9  623.14   40.30
  -1  -4   9  571.04   40.50
  -1   4   9  637.34   40.10
   1   4  -9  656.43   40.30
  -1   4   9  643.24   40.20
  -1   4   9  618.14   40.00
   1   4  -9  636.24   39.50
   1   4  -9  648.04   40.70
   0  -4   9  826.22   49.00
   0  -4  -9  782.82   49.60
   0  -4   9  766.92   47.60
   0   4  -9  752.22   48.60
   0   4  -9  795.12   49.20
   0   4   9  744.93   48.30
   0   4  -9  772.12   48.00
   0   4   9  765.22   48.40
   0   4   9  777.52   48.60
  -1  -4  -9  301.07   23.30
   1  -4   9  312.87   20.80
   1  -4   9  279.17   21.10
   1   4   9  288.37   20.80
   1   4   9  304.27   21.10
  -1   4  -9  309.17   20.70
   1   4   9  306.87   21.00
  -1   4  -9  309.47   21.60
  -1   4  -9  298.17   21.90
   2  -4   9  211.08   18.20
  -2  -4  -9  217.38   21.30
   2  -4   9  221.38   18.50
   2   4   9  253.17   18.50
  -2   4  -9  269.47   18.30
  -2   4  -9  278.97   20.00
   2   4   9  262.57   18.50
  -2   4  -9  262.57   19.20
   2   4   9  270.07   18.50
   3  -4   9  122.59   13.00
   3  -4   9  139.99   13.00
  -3  -4  -9  125.59   15.40
  -3   4  -9  138.09   14.20
  -3   4  -9  147.79   13.10
   3   4   9  148.09   13.00
   3   4   9  142.79   12.90
  -3   4  -9  141.09   14.90
   4  -4   9   82.59    9.90
  -4  -4  -9   81.09   13.50
  -4  -4  -9   79.09   10.90
   4  -4   9   90.19   11.10
  -4   4  -9   94.79   10.60
  -4   4  -9   78.69   11.40
   4   4   9   83.69   10.60
  -5  -4  -9   81.49   11.70
   5  -4   9   99.89   12.00
  -5  -4  -9   92.69   14.50
   5  -4   9   89.49   10.70
   5   4   9  130.19   14.00
   5   4   9   87.69   11.90
  -5   4  -9  118.49   13.10
  -5   4  -9  107.19   14.30
   6  -4   9   24.70    7.20
  -6  -4  -9   22.90   10.90
   6  -4   9   25.10    6.70
  -6  -4  -9   20.00    9.00
   6   4   9   21.10    9.10
  -6   4  -9    9.30   10.40
   6   4   9   20.00    8.40
  -6   4  -9   13.50    9.70
  -7  -5   9  111.19   14.30
  -7  -5   9  110.89   16.60
   7  -5  -9  112.79   12.20
   7  -5  -9  102.39   12.40
  -7  -5   9  106.19   13.30
   7   5  -9  120.39   15.00
  -7   5   9  129.69   16.00
  -6  -5   9   13.20    7.30
  -6  -5   9    0.80   10.20
  -6  -5   9    9.00    7.60
   6  -5  -9   12.30    5.70
   6  -5  -9    9.30    6.00
   6   5  -9   12.80    7.10
  -6   5   9    1.50    7.80
  -5  -5   9  158.28   14.90
   5  -5  -9  146.29   13.80
  -5  -5   9  142.29   15.30
   5  -5  -9  144.29   14.00
  -5   5   9  143.09   15.60
   5   5  -9  152.68   15.40
  -4  -5   9  231.68   18.80
  -4  -5   9  259.07   18.40
   4  -5  -9  246.08   18.00
  -4   5   9  226.58   18.30
   4   5  -9  203.38   18.90
  -4   5   9  210.68   18.80
   3  -5  -9  256.27   19.50
  -3  -5   9  264.67   19.70
  -3  -5   9  242.08   19.90
   3   5  -9  283.37   21.10
  -3   5   9  285.47   20.20
  -3   5   9  265.37   19.90
  -3   5   9  260.97   20.40
  -2  -5   9  612.14   38.10
   2  -5  -9  606.64   37.60
  -2   5   9  551.34   38.10
  -2   5   9  587.84   38.00
  -2   5   9  571.94   37.90
   2   5  -9  578.34   38.90
   2   5  -9  551.94   37.00
  -1  -5   9  386.26   26.00
   1  -5  -9  387.86   25.70
   1   5  -9  355.56   24.80
  -1   5   9  354.16   25.60
  -1   5   9  361.46   25.60
   1   5  -9  372.76   26.80
  -1   5   9  366.66   25.80
   0  -5   9   40.50    7.30
   0  -5  -9   41.90    9.00
   0  -5  -9   39.90    7.10
   0   5  -9   50.79    6.90
   0   5   9   42.50    7.30
   0   5   9   53.89    8.00
   0   5  -9   47.60    7.70
   0   5   9   39.20    6.80
   0   5  -9   45.70    8.50
   1  -5   9  105.59   10.30
   1  -5   9   94.19   11.10
  -1  -5  -9   94.19   13.30
   1   5   9  105.09   11.20
   1   5   9  104.59   11.00
  -1   5  -9  110.59   12.80
   1   5   9   61.19    9.10
  -1   5  -9  116.59   10.90
  -1   5  -9  102.79   11.70
  -2  -5  -9   56.49   12.30
   2  -5   9   61.59    8.50
   2  -5   9   67.69    8.90
   2   5   9   48.40    8.00
  -2   5  -9   58.39    9.20
  -2   5  -9   69.09    8.40
   2   5   9   58.49    8.30
   3  -5   9   21.80    6.60
  -3  -5  -9   20.90   10.90
   3  -5   9   23.20    6.90
   3   5   9   14.60    6.10
   3   5   9   19.20    6.30
  -3   5  -9   19.40    6.50
  -3   5  -9   21.10    7.70
  -4  -5  -9  192.98   22.30
   4  -5   9  184.18   17.90
   4   5   9  200.48   18.20
  -4   5  -9  194.28   19.80
   4   5   9  217.78   18.50
  -4   5  -9  216.08   18.40
  -5  -5  -9  191.08   22.70
   5  -5   9  185.18   18.10
   5   5   9  216.18   19.90
  -5   5  -9  204.88   19.60
  -5   5  -9  203.18   21.70
   5   5   9  215.68   19.80
  -5  -6   9  154.68   16.10
  -5  -6   9  158.28   16.10
   5  -6  -9  153.88   15.10
  -5  -6   9  145.69   18.40
   5  -6  -9  158.58   15.40
  -5   6   9  137.39   16.90
   5   6  -9  144.49   17.10
   4  -6  -9   26.80    7.10
  -4  -6   9   27.00    7.70
  -4  -6   9   27.30    7.50
  -4   6   9   37.40    9.20
   4   6  -9   31.50    9.00
  -4   6   9   37.90    8.40
   3  -6  -9   22.00    6.90
  -3  -6   9   24.50    7.00
  -3  -6   9   19.10    6.80
  -3   6   9   26.80    8.30
  -3   6   9   25.70    7.40
   3   6  -9   24.10    8.20
  -3   6   9   20.40    7.10
  -2  -6   9   17.60    6.80
   2  -6  -9   22.00    6.80
  -2  -6   9   20.00    6.80
   2   6  -9   20.40    6.00
  -2   6   9   26.00    7.90
  -2   6   9   16.60    7.00
  -2   6   9   13.60    6.70
   2   6  -9   14.60    7.80
   1  -6  -9  216.58   18.40
  -1  -6   9  211.98   18.40
  -1   6   9  221.88   18.20
   1   6  -9  206.58   17.10
   1   6  -9  223.78   20.10
  -1   6   9  203.88   18.80
  -1   6   9  217.28   18.50
   0  -6  -9  367.86   35.00
   0  -6  -9  372.46   26.70
   0  -6   9  375.26   27.00
   0   6   9  367.26   26.70
   0   6  -9  365.56   26.80
   0   6  -9  399.06   29.20
   0   6   9  364.26   26.80
   0   6   9  355.16   27.00
   0   6  -9  357.16   25.60
   1  -6   9   37.80    8.10
  -1  -6  -9   25.10   10.80
  -1   6  -9   37.50   10.00
  -1   6  -9   40.30    7.40
   1   6   9   34.40    8.00
   1   6   9   47.60    8.30
  -1   6  -9   38.00    8.40
   2  -6   9   91.49   11.10
   2  -6   9   80.79   10.80
  -2  -6  -9   91.49   15.50
   2   6   9   80.99   11.00
  -2   6  -9   80.19   11.30
   2   6   9   71.59   10.30
  -2   6  -9   78.39   10.10
  -3  -6  -9   96.09   16.20
   3  -6   9   86.99   11.30
   3  -6   9   93.89   12.00
   3   6   9   78.39   11.20
   3   6   9   77.49   11.30
  -3   6  -9   74.89   11.70
  -3   6  -9   85.09   10.60
   4  -6   9   -0.20    7.00
   4  -6   9   -2.60    6.40
  -4  -6  -9    0.90   12.70
  -4   6  -9   10.20    7.10
   4   6   9    8.20    8.00
  -4   6  -9    8.00   13.70
   4   6   9    1.50    6.60
   2  -7  -9  168.28   16.90
  -2  -7   9  179.18   17.20
  -2  -7   9  175.98   16.70
  -2   7   9  151.18   16.50
  -2   7   9  143.49   16.40
   2   7  -9  129.79   17.50
  -2   7   9  156.58   17.30
  -1  -7   9  154.18   16.10
   1  -7  -9  156.08   16.60
  -1  -7   9  149.69   16.40
  -1   7   9  154.98   16.40
   1   7  -9  174.78   19.40
  -1   7   9  160.28   16.90
   1   7  -9  159.78   15.00
  -1   7   9  137.49   18.60
   0  -7  -9    4.40    6.90
   0  -7   9    7.20    6.80
   0   7  -9    7.40    8.90
   0   7  -9    6.60    6.90
   0   7   9    5.70    7.00
   0   7   9    7.40    6.50
   0   7  -9    5.40    5.80
   1  -7   9   68.19   10.40
   1   7   9   53.29    9.60
  -1   7  -9   45.30    8.30
  -1   7  -9   43.90    9.60
  -9   0  10   -1.40   11.40
   9   0 -10    7.70    6.80
   8   0 -10   20.00    7.30
  -8   0  10   10.40   10.80
  -7   0  10  678.83   49.20
   7   0 -10  704.53   46.20
   7   0 -10  709.23   46.60
   6   0 -10  205.68   18.10
  -6   0  10  251.57   21.30
   6   0 -10  228.28   18.70
   5   0 -10  376.16   25.60
  -5   0  10  384.86   23.40
  -5   0  10  358.76   26.20
   5   0 -10  328.47   24.90
   4   0 -10  105.19   10.30
   4   0 -10  104.59    8.20
  -4   0  10  104.19   10.20
  -4   0  10  106.39    8.00
  -4   0  10  105.69    8.50
   4   0 -10  111.09    7.70
   3   0 -10  877.41   55.49
  -3   0  10  897.01   53.59
  -3   0  10  909.21   54.09
   3   0 -10  888.51   54.29
  -3   0  10  860.41   54.89
  -3   0  10  944.41   53.79
   3   0 -10  900.51   54.09
  -2   0  10    2.70    1.40
   2   0 -10    7.70    1.80
   2   0 -10    5.70    3.30
   2   0 -10    8.70    2.20
  -2   0  10    8.20    1.80
   2   0 -10   12.50    2.80
  -2   0  10    5.80    2.30
  -1   0  10 1323.87   76.89
   1   0 -10 1270.07   76.29
   1   0 -10 1291.77   76.89
   1   0 -10 1348.97   77.99
  -1   0  10 1316.97   76.49
   1   0 -10 1219.28   76.19
  -1   0  10 1241.58   76.89
   0   0  10  187.18   13.00
   0   0 -10  199.78   13.50
   0   0  10  203.58   12.90
   0   0 -10  215.28   14.40
   0   0 -10  174.18   12.30
   0   0  10  195.48   12.40
   0   0  10  207.18   13.20
   0   0 -10  201.08   12.80
   1   0  10   77.09    6.50
   1   0  10   75.69    6.30
  -1   0 -10   76.69    6.70
  -1   0 -10   78.59    6.60
   1   0  10   78.69    5.80
  -1   0 -10   88.39    8.00
   1   0  10   79.69    6.80
   2   0  10 1148.09   72.59
  -2   0 -10 1233.38   72.69
  -2   0 -10 1183.38   72.69
   2   0  10 1230.58   72.79
   2   0  10 1207.48   73.09
  -2   0 -10 1269.47   73.89
   3   0  10 2419.56  142.79
  -3   0 -10 2382.76  142.39
   3   0  10 2414.46  142.69
  -3   0 -10 2376.16  143.59
  -3   0 -10 2362.36  142.39
  -4   0 -10   30.80    6.90
   4   0  10   24.10    5.60
   4   0  10   36.20    6.30
  -4   0 -10   24.10    8.00
   5   0  10  139.79   14.40
  -5   0 -10  149.79   16.20
  -5   0 -10  168.48   17.90
   5   0  10  155.48   14.10
  -6   0 -10   -6.50    8.80
   6   0  10   14.70    6.30
  -6   0 -10   18.40   10.10
   6   0  10    9.80    6.80
   7   0  10   47.60    8.70
  -7   0 -10   33.70   11.90
   7   0  10   43.10    9.90
   9  -1 -10   47.70   10.40
  -9  -1  10   46.50   14.40
   9   1 -10   75.09   11.00
  -9   1  10   71.49   15.70
   8  -1 -10  390.06   33.40
  -8  -1  10  477.95   38.40
   8   1 -10  473.35   34.90
   8   1 -10  522.25   33.80
  -8   1  10  514.55   38.50
  -7  -1  10  425.66   32.10
  -7  -1  10  468.45   28.70
   7  -1 -10  452.45   29.40
   7  -1 -10  393.46   29.30
   7   1 -10  340.37   29.70
  -7   1  10  383.06   32.90
   7   1 -10  378.36   29.00
  -6  -1  10   51.39    9.30
   6  -1 -10   53.59    5.80
   6  -1 -10   48.30    7.50
  -6  -1  10   50.49    6.80
   6  -1 -10   46.10    7.40
  -6   1  10   25.10    5.90
   6   1 -10   30.60    8.00
  -6   1  10   27.80    9.80
   6   1 -10   28.00    7.20
   5  -1 -10  435.56   26.00
  -5  -1  10  444.46   26.50
   5  -1 -10  418.96   27.00
   5  -1 -10  434.96   27.80
  -5  -1  10  446.36   28.70
  -5   1  10  390.36   26.60
  -5   1  10  375.26   30.40
   5   1 -10  393.96   26.40
   5   1 -10  352.46   28.80
  -4  -1  10   17.60    3.00
  -4  -1  10   15.40    3.30
  -4  -1  10   16.90    4.70
   4  -1 -10   15.30    3.60
   4  -1 -10   19.30    4.60
  -4   1  10   16.00    3.80
   4   1 -10   13.00    5.00
  -4   1  10   23.70    3.70
   4   1 -10   16.70    3.60
  -4   1  10   17.60    5.80
   4   1 -10   17.80    5.10
  -3  -1  10   42.30    4.40
  -3  -1  10   43.00    5.80
   3  -1 -10   44.80    4.60
  -3  -1  10   40.30    4.30
   3  -1 -10   41.70    5.50
   3  -1 -10   29.10    4.00
   2  -1 -10 2955.00  172.18
  -2  -1  10 2980.80  172.98
  -2  -1  10 2981.30  172.18
   2  -1 -10 2903.81  172.08
   2  -1 -10 3088.39  173.28
   2   1 -10 2953.60  172.68
  -2   1  10 2952.30  172.58
  -2   1  10 2979.50  173.08
  -2   1  10 2860.11  172.28
   2   1 -10 2971.20  174.58
   2   1 -10 2438.76  172.98
   2   1 -10 2910.11  172.08
  -1  -1  10  376.46   23.20
   1  -1 -10  382.26   23.40
   1  -1 -10  355.66   23.10
  -1  -1  10  354.26   23.70
   1  -1 -10  379.36   22.60
  -1  -1  10  384.46   22.70
  -1   1  10  368.86   23.30
  -1   1  10  365.06   23.50
   1   1 -10  366.66   23.70
  -1   1  10  367.06   23.40
   1   1 -10  391.06   25.60
  -1   1  10  380.36   23.40
   1   1 -10  379.66   23.20
   0  -1 -10  258.47   18.60
   0  -1  10  283.47   18.30
   0  -1  10  282.47   18.80
   0  -1 -10  295.87   18.40
   0  -1 -10  286.57   19.40
   0   1  10  310.17   18.90
   0   1  10  298.37   18.60
   0   1  10  299.07   19.20
   0   1 -10  319.97   19.50
   0   1  10  314.97   19.10
   0   1 -10  303.97   21.10
   0   1 -10  302.97   18.90
   0   1 -10  309.37   19.70
   1  -1  10  574.34   33.90
   1  -1  10  561.64   33.40
  -1  -1 -10  566.04   33.30
  -1  -1 -10  617.64   34.90
   1   1  10  536.55   33.90
   1   1  10  539.45   33.60
   1   1  10  552.74   33.80
  -1   1 -10  531.95   33.70
   1   1  10  459.15   34.20
  -1   1 -10  543.85   34.10
  -1   1 -10  528.95   35.40
  -1   1 -10  562.44   34.40
   2  -1  10  574.24   39.80
   2  -1  10  669.93   39.80
   2  -1  10  645.24   40.10
  -2  -1 -10  632.84   41.10
  -2  -1 -10  662.63   39.70
  -2   1 -10  660.23   40.20
   2   1  10  686.43   39.90
  -2   1 -10  663.63   40.70
   2   1  10  651.13   39.50
  -2   1 -10  675.23   39.80
  -2   1 -10  546.25   40.60
   2   1  10  681.73   40.10
  -3  -1 -10 1179.28   68.69
  -3  -1 -10 1064.79   69.69
   3  -1  10 1145.69   68.79
   3  -1  10 1080.39   68.79
  -3   1 -10 1137.49   68.89
   3   1  10 1147.99   68.69
   3   1  10 1102.99   68.09
  -3   1 -10 1122.09   69.59
   3   1  10 1166.28   68.79
  -3   1 -10 1120.09   68.49
  -4  -1 -10  661.33   47.40
  -4  -1 -10  721.83   46.70
   4  -1  10  668.03   46.30
   4  -1  10  667.53   46.20
  -4   1 -10  782.72   46.90
  -4   1 -10  702.63   47.50
   4   1  10  782.62   45.80
   4   1  10  786.52   46.70
   4   1  10  773.72   46.50
  -4   1 -10  754.62   46.30
   5  -1  10   36.00    7.50
   5  -1  10   43.30    7.50
  -5  -1 -10   32.60    9.00
  -5  -1 -10   39.90   10.30
  -5   1 -10   39.40    8.60
  -5   1 -10   48.10    9.00
   5   1  10   39.20    7.70
  -5   1 -10   11.60    7.10
   5   1  10   40.60    7.90
   6  -1  10  125.89   13.00
   6  -1  10  102.79   11.60
  -6  -1 -10  120.09   14.20
  -6  -1 -10   89.29   13.30
  -6   1 -10   76.49   19.40
   6   1  10   70.79   11.50
  -6   1 -10   73.09   12.90
  -6   1 -10   69.69   13.00
   7  -1  10  122.49   13.60
  -7  -1 -10  129.79   16.10
  -7  -1 -10  133.79   15.40
   7  -1  10  122.59   13.00
   7   1  10   97.29   14.20
  -7   1 -10   76.49   15.10
  -9  -2  10   28.20   13.40
   9  -2 -10   35.20    9.80
  -9  -2  10   46.00   11.50
   9   2 -10   38.30   10.00
  -9   2  10   37.30   14.20
   9   2 -10   46.60   11.10
   8  -2 -10   22.50    8.50
  -8  -2  10   38.90    9.50
  -8  -2  10   23.80   11.80
  -8   2  10   44.40   13.50
   8   2 -10   40.60    9.60
   8   2 -10   35.30    9.50
   7  -2 -10  589.84   40.50
  -7  -2  10  561.64   42.50
  -7  -2  10  637.94   40.20
   7   2 -10  561.94   43.00
  -7   2  10  708.13   46.40
   7   2 -10  662.33   42.40
  -7   2  10  578.94   39.90
  -6  -2  10  762.72   49.90
  -6  -2  10  786.92   48.10
   6  -2 -10  761.02   48.40
   6  -2 -10  744.23   48.50
  -6   2  10  777.02   48.50
   6   2 -10  754.42   48.20
   6   2 -10  750.32   50.29
   6   2 -10  723.73   51.79
  -6   2  10  860.71   53.99
   5  -2 -10  130.19   12.00
   5  -2 -10  134.19   11.20
  -5  -2  10  130.99   11.20
  -5  -2  10  129.89   13.00
  -5   2  10  162.28   18.10
   5   2 -10  112.79   13.20
   5   2 -10  129.49   14.80
   5   2 -10  140.69   11.40
  -5   2  10  125.69   11.70
   4   2 -10   81.29    7.70
  -4   2  10   79.69    8.00
   4   2 -10   52.09    8.00
  -4   2  10   74.99   11.80
  -4   2  10   78.59    7.50
   4   2 -10   57.69    9.90
  -3  -2  10 1077.79   64.39
  -3  -2  10 1026.80   63.29
   3  -2 -10 1027.60   63.39
  -3  -2  10 1085.49   62.69
   3  -2 -10 1099.99   62.79
  -3   2  10 1062.49   63.59
  -3   2  10 1064.39   63.89
  -3   2  10  952.50   66.79
   3   2 -10 1009.30   63.89
   3   2 -10 1025.60   63.19
   3   2 -10 1090.99   67.89
   3   2 -10 1068.09   63.99
  -2  -2  10   80.29    6.10
   2  -2 -10   85.69    6.80
  -2  -2  10   74.09    7.80
   2  -2 -10   75.39    7.10
   2   2 -10   86.19   11.30
   2   2 -10   80.09    7.00
  -2   2  10   80.79   10.10
   2   2 -10   76.49    7.50
  -2   2  10   71.49    7.00
  -2   2  10   83.99    7.50
  -2   2  10   85.29    7.60
  -1  -2  10  862.81   56.99
  -1  -2  10  888.61   56.09
   1  -2 -10  915.61   56.49
   1  -2 -10  807.12   56.39
   1   2 -10  938.51   60.69
  -1   2  10  962.20   56.89
   1   2 -10  980.60   56.59
   1   2 -10 1010.00   57.29
  -1   2  10 1020.50   56.99
  -1   2  10  997.30   56.99
   0  -2  10  683.63   42.00
   0  -2  10  651.33   40.60
   0  -2  10  686.73   41.10
   0  -2 -10  702.63   41.80
   0   2 -10  648.04   41.80
   0   2 -10  570.04   44.30
   0   2  10  714.33   41.60
   0   2  10  654.13   41.50
   0   2  10  703.03   41.60
   0   2 -10  700.73   42.00
   0   2 -10  692.83   41.30
   1  -2  10  367.56   23.70
   1  -2  10  392.76   23.30
   1  -2  10  393.16   22.70
  -1  -2 -10  412.96   22.60
  -1  -2 -10  397.16   24.60
   1   2  10  329.57   23.10
   1   2  10  331.97   23.20
  -1   2 -10  300.07   25.40
  -1   2 -10  347.77   23.10
  -1   2 -10  347.07   23.90
  -1   2 -10  348.87   23.80
   1   2  10  335.47   23.10
   2  -2  10 1059.79   66.19
   2  -2  10 1084.09   65.79
  -2  -2 -10 1018.50   67.19
  -2  -2 -10 1156.38   65.69
   2  -2  10 1020.10   66.19
  -2   2 -10 1132.79   66.89
   2   2  10 1134.69   66.19
   2   2  10 1074.99   65.79
  -2   2 -10 1080.79   66.39
   2   2  10 1094.59   65.99
  -2   2 -10 1085.59   65.69
  -3  -2 -10  682.43   49.80
  -3  -2 -10  782.62   48.50
   3  -2  10  724.23   48.40
   3  -2  10  738.23   48.70
  -3   2 -10  807.42   48.30
   3   2  10  839.02   48.60
   3   2  10  845.82   48.70
   3   2  10  769.02   48.10
  -3   2 -10  801.22   49.00
  -3   2 -10  771.52   49.50
  -4  -2 -10  265.67   21.90
   4  -2  10  277.47   21.20
  -4  -2 -10  327.27   24.30
   4  -2  10  269.67   21.10
  -4   2 -10  300.47   22.30
   4   2  10  293.57   20.80
  -4   2 -10  303.77   21.80
   4   2  10  319.07   21.70
  -5  -2 -10   21.10    9.50
   5  -2  10   19.80    6.20
   5  -2  10   16.40    6.20
  -5  -2 -10   18.20    8.30
  -5   2 -10    1.30    8.20
   5   2  10   16.90    5.70
  -5   2 -10   16.10    8.10
   5   2  10   17.50    6.80
  -5   2 -10   18.60    8.10
   5   2  10    6.30    5.60
  -6  -2 -10   62.99   11.90
   6  -2  10   64.69    9.80
   6  -2  10   65.99    9.50
  -6  -2 -10   54.99   11.20
   6   2  10   70.09   10.50
  -6   2 -10   60.69   12.30
   6   2  10   55.09   10.80
  -6   2 -10   54.99   12.50
  -7  -2 -10   75.29   12.90
   7  -2  10   76.19   10.20
   7  -2  10   81.29   10.70
  -7  -2 -10   79.49   12.60
  -7   2 -10   44.90   14.10
   7   2  10   43.20   11.70
  -7   2 -10   54.49   13.90
   8  -3 -10  243.18   19.50
  -8  -3  10  250.37   22.70
  -8  -3  10  229.48   24.80
   8  -3 -10  218.18   21.40
  -8   3  10  307.27   30.00
  -8   3  10  257.77   22.00
   8   3 -10  235.58   23.80
   7  -3 -10  202.38   17.60
  -7  -3  10  204.98   20.40
  -7  -3  10  192.18   17.50
   7  -3 -10  201.08   15.60
   7   3 -10  180.88   20.80
  -7   3  10  179.48   18.10
   7   3 -10  176.78   16.90
  -7   3  10  202.98   25.30
   6  -3 -10  101.39   11.00
   6  -3 -10  104.49    9.70
  -6  -3  10   92.49    9.90
   6  -3 -10  107.69   11.20
  -6  -3  10   94.89   11.60
   6   3 -10   85.49   10.40
   6   3 -10   72.39   13.50
   6   3 -10   60.29   11.30
  -6   3  10   84.89   16.20
  -6   3  10   86.39   10.80
   5  -3 -10  133.69   11.80
   5  -3 -10  124.99   10.80
   5  -3 -10  135.79   12.10
  -5  -3  10  137.09   12.00
  -5  -3  10  141.79   13.40
  -5   3  10  126.29   12.20
  -5   3  10  120.19   11.80
  -5   3  10  115.39   17.10
   5   3 -10  121.69   16.70
   5   3 -10  126.89   13.00
   5   3 -10  126.19   11.80
  -4  -3  10  268.77   18.80
  -4  -3  10  273.57   20.00
   4  -3 -10  291.67   19.10
   4   3 -10  262.57   19.50
  -4   3  10  255.97   18.90
   4   3 -10  272.07   24.80
  -4   3  10  279.37   19.60
  -3  -3  10  459.05   26.40
  -3  -3  10  434.46   25.40
   3  -3 -10  447.26   25.40
   3   3 -10  318.47   30.30
  -3   3  10  349.37   25.40
   3   3 -10  361.86   25.70
   3   3 -10  360.56   24.70
  -3   3  10  337.47   25.00
  -2  -3  10 1232.68   80.99
   2  -3 -10 1262.47   80.89
  -2  -3  10 1317.77   82.19
   2  -3 -10 1290.07   81.59
   2   3 -10 1104.29   86.59
   2   3 -10 1461.15   81.59
  -2   3  10 1480.85   82.19
  -2   3  10 1472.65   82.29
   2   3 -10 1462.15   82.59
  -2   3  10 1467.55   82.09
   1  -3 -10  623.14   39.50
  -1  -3  10  592.64   38.60
   1  -3 -10  607.74   39.50
  -1  -3  10  608.84   40.10
  -1   3  10  650.83   39.80
  -1   3  10  682.23   40.10
  -1   3  10  647.74   39.90
   1   3 -10  666.13   39.40
   1   3 -10  658.73   40.30
   0  -3  10  850.91   52.59
   0  -3  10  817.32   51.39
   0  -3 -10  843.22   52.59
   0   3  10  868.31   52.19
   0   3 -10  843.42   51.79
   0   3 -10  846.52   52.59
   0   3  10  852.91   52.19
   0   3  10  834.12   52.09
   0   3 -10  866.81   52.49
   1  -3  10   29.60    5.10
   1  -3  10   31.90    4.60
  -1  -3 -10   26.10    6.50
   1   3  10   14.60    4.00
  -1   3 -10   19.70    5.20
   1   3  10   19.90    4.20
  -1   3 -10   16.30    5.20
  -1   3 -10   15.10    4.20
   1   3  10   15.30    4.20
   2  -3  10  207.88   15.50
  -2  -3 -10  208.18   18.70
   2  -3  10  229.08   16.40
   2  -3  10  199.88   16.30
  -2   3 -10  237.38   17.50
  -2   3 -10  219.08   16.00
   2   3  10  215.98   15.90
   2   3  10  216.58   16.00
  -2   3 -10  217.88   16.90
   2   3  10  235.48   16.30
  -3  -3 -10  128.89   12.30
   3  -3  10  111.59   10.90
   3  -3  10  124.89   11.90
  -3  -3 -10  125.89   15.50
  -3   3 -10  121.69   12.70
   3   3  10  122.79   11.40
  -3   3 -10  120.29   11.40
   3   3  10  116.79   11.10
  -3   3 -10  122.79   13.80
   4  -3  10  307.17   22.80
  -4  -3 -10  318.77   23.30
   4  -3  10  354.36   22.80
  -4  -3 -10  352.26   26.20
   4   3  10  308.57   22.80
  -4   3 -10  285.77   23.70
   4   3  10  310.17   22.50
  -4   3 -10  258.77   23.60
  -4   3 -10  304.97   22.70
   4   3  10  326.57   23.20
   5  -3  10  410.86   27.60
   5  -3  10  364.26   27.60
  -5  -3 -10  386.06   28.60
  -5  -3 -10  432.26   31.40
  -5   3 -10  372.26   29.60
   5   3  10  379.76   28.00
  -5   3 -10  390.66   29.10
   5   3  10  380.56   28.70
  -6  -3 -10   28.50   11.50
  -6  -3 -10   22.20    9.70
   6  -3  10   30.40    7.40
   6  -3  10   35.20    8.20
   6   3  10   43.40    9.30
  -6   3 -10   45.50   12.10
  -6   3 -10   44.10   11.60
   6   3  10   38.80   10.30
   7  -3  10  130.59   13.80
  -7  -3 -10  127.29   14.90
   7  -3  10  127.79   17.40
  -7  -3 -10  109.29   14.80
  -7   3 -10   75.79   16.20
  -8  -4  10   40.50   11.90
   8  -4 -10   25.50    8.80
   8  -4 -10   35.00    7.60
  -8  -4  10   34.40    9.90
  -8   4  10   18.00   15.50
  -8   4  10   35.00   10.30
   8   4 -10    1.70    9.80
  -7  -4  10  225.08   22.50
  -7  -4  10  243.08   22.50
   7  -4 -10  234.28   18.40
  -7  -4  10  240.98   20.50
   7  -4 -10  223.78   19.60
  -7   4  10  219.38   28.00
   7   4 -10  240.58   20.20
  -7   4  10  251.27   21.80
  -6  -4  10  210.18   17.50
   6  -4 -10  215.88   16.00
   6  -4 -10  207.28   16.70
  -6  -4  10  215.68   18.90
   6   4 -10  223.98   18.30
  -6   4  10  180.78   18.30
  -6   4  10  119.29   23.10
  -5  -4  10  393.76   28.30
   5  -4 -10  413.96   27.20
  -5  -4  10  407.06   27.30
   5   4 -10  402.66   28.30
  -5   4  10  394.96   27.40
  -5   4  10  378.86   28.30
   4  -4 -10  322.17   21.80
  -4  -4  10  305.07   21.80
  -4  -4  10  311.17   22.70
   4   4 -10  314.17   30.10
   4   4 -10  307.87   22.80
  -4   4  10  314.87   22.60
  -4   4  10  304.37   22.10
  -3  -4  10  123.69   12.20
  -3  -4  10  134.29   11.80
   3  -4 -10  132.39   11.60
  -3   4  10  135.59   12.00
   3   4 -10  124.59   10.80
   3   4 -10   92.89   16.90
  -3   4  10  140.79   12.20
   3   4 -10  119.09   12.10
  -3   4  10  129.59   11.80
  -2  -4  10   96.49   10.50
   2  -4 -10  106.69   10.30
  -2   4  10  102.79   10.20
  -2   4  10   98.49   10.20
  -2   4  10  108.49   10.60
   2   4 -10  108.79    9.50
   2   4 -10  115.69   11.10
   2   4 -10   74.99   15.40
   1  -4 -10  225.48   18.30
  -1  -4  10  236.38   18.90
   1  -4 -10  238.78   18.50
   1   4 -10  289.87   18.40
   1   4 -10  281.27   19.60
  -1   4  10  275.57   18.90
  -1   4  10  270.57   19.00
  -1   4  10  285.27   19.10
   0  -4 -10   96.69   12.40
   0  -4  10   92.59   11.40
   0  -4  10   99.89    9.90
   0   4  10  147.19   11.70
   0   4 -10  148.99   13.00
   0   4 -10  144.49   12.10
   0   4  10  144.39   11.60
   0   4 -10  150.78   11.40
   0   4  10  146.99   11.80
  -1  -4 -10  609.94   43.60
   1  -4  10  633.24   41.60
   1  -4  10  612.64   42.20
   1   4  10  689.23   42.20
  -1   4 -10  661.53   41.60
   1   4  10  667.43   42.20
   1   4  10  667.83   42.10
  -1   4 -10  717.23   43.50
  -1   4 -10  697.93   42.60
  -2  -4 -10  344.77   27.10
   2  -4  10  380.96   24.60
   2  -4  10  404.26   24.40
   2   4  10  326.77   23.80
  -2   4 -10  320.57   24.30
   2   4  10  327.57   23.80
  -2   4 -10  329.17   25.20
  -2   4 -10  319.77   23.30
   3  -4  10  208.48   18.40
  -3  -4 -10  228.38   22.20
   3  -4  10  218.98   18.40
   3   4  10  246.58   18.50
   3   4  10  250.97   19.50
  -3   4 -10  248.38   19.60
   3   4  10  250.77   18.70
  -3   4 -10  238.48   18.40
  -4  -4 -10  190.48   20.10
   4  -4  10  151.18   15.30
   4  -4  10  165.68   17.50
  -4   4 -10  170.88   17.50
  -4   4 -10  149.99   15.90
   4   4  10  174.28   15.60
   4   4  10  168.88   15.80
   5  -4  10   39.40    8.20
   5  -4  10   40.70    7.50
  -5  -4 -10   38.70   12.20
   5   4  10   24.60    8.30
   5   4  10   28.10    7.90
  -5   4 -10   24.80   10.00
  -5   4 -10   32.70    9.30
  -6  -4 -10  107.79   13.60
   6  -4  10  103.89   12.20
   6  -4  10  119.69   12.50
  -6  -4 -10  125.39   16.20
   6   4  10   78.19   13.60
  -6   4 -10   92.29   14.50
   6   4  10   86.89   13.20
  -6   4 -10   81.29   15.50
   7  -5 -10   22.20    8.70
  -7  -5  10   27.50    9.60
  -7  -5  10   33.20    9.80
  -7  -5  10   20.90   11.80
   7  -5 -10   33.80    7.50
  -7   5  10   50.19   13.20
   7   5 -10   37.10    9.50
  -6  -5  10   65.69   13.60
  -6  -5  10   49.80    9.20
   6  -5 -10   60.89    9.10
  -6  -5  10   56.89   10.30
   6  -5 -10   58.49    8.60
  -6   5  10   65.69   11.30
   6   5 -10   63.79   10.60
  -5  -5  10   34.30    8.40
   5  -5 -10   39.50    7.60
  -5  -5  10   31.60    7.70
  -5   5  10   52.29    8.60
  -5   5  10   49.10    9.40
   5   5 -10   45.60    8.90
   4  -5 -10  349.57   23.90
  -4  -5  10  355.76   24.00
  -4  -5  10  340.77   24.80
  -4   5  10  304.47   24.00
  -4   5  10  327.07   25.20
   4   5 -10  316.67   25.10
   3  -5 -10  385.86   27.80
  -3  -5  10  365.96   28.30
  -3  -5  10  399.16   28.00
  -3   5  10  433.26   28.60
  -3   5  10  450.95   28.70
  -3   5  10  432.06   29.20
   3   5 -10  424.86   29.50
   2  -5 -10  216.88   17.00
  -2  -5  10  214.68   17.40
  -2  -5  10  218.68   17.30
  -2   5  10  202.88   17.00
  -2   5  10  218.58   17.50
   2   5 -10  205.68   16.30
   2   5 -10  207.38   18.00
  -2   5  10  215.78   17.50
   1  -5 -10  101.09   11.60
  -1  -5  10  106.99   11.70
   1   5 -10   98.99   12.20
  -1   5  10   98.89   11.20
  -1   5  10  104.79   11.40
   1   5 -10   95.49   10.40
  -1   5  10   84.49   10.30
   0  -5 -10  559.94   36.90
   0  -5  10  572.94   35.90
   0  -5 -10  570.84   35.40
   0   5 -10  515.45   34.60
   0   5 -10  516.25   35.50
   0   5 -10  512.65   36.70
   0   5  10  517.75   35.30
   0   5  10  523.75   35.40
   0   5  10  514.35   35.30
   1  -5  10   84.19   10.20
  -1  -5 -10   76.49   12.10
   1  -5  10   80.29    8.90
  -1   5 -10   72.09    9.00
   1   5  10   71.29    9.40
  -1   5 -10   65.59    9.60
  -1   5 -10   77.79   11.30
   1   5  10   72.49    9.30
  -2  -5 -10   65.59   12.80
   2  -5  10   78.79   10.30
   2  -5  10   93.89   10.80
   2   5  10   97.89   10.70
  -2   5 -10  100.59   10.50
  -2   5 -10   89.69   11.30
  -2   5 -10   91.59   12.40
   2   5  10   93.69   10.90
  -3  -5 -10   46.20   12.60
   3  -5  10   52.89    9.10
   3  -5  10   60.19    9.40
  -3   5 -10   60.99    9.00
   3   5  10   61.39    9.30
   3   5  10   55.69    9.10
  -3   5 -10   52.79   10.00
   4  -5  10   78.59   10.70
  -4  -5 -10   87.89   14.80
   4  -5  10   67.39   10.40
  -4   5 -10   56.59    9.80
  -4   5 -10   47.50   10.90
   4   5  10   56.59    9.90
   4   5  10   47.90    9.60
  -5  -5 -10  319.87   30.10
   5  -5  10  278.97   23.10
   5   5  10  291.77   24.50
  -5   5 -10  263.97   26.10
  -5   5 -10  281.17   24.10
   5   5  10  276.27   24.00
   5  -6 -10  251.07   19.80
  -5  -6  10  230.98   20.90
   5  -6 -10  239.48   19.50
  -5  -6  10  240.98   20.50
  -5  -6  10  242.08   25.10
   5   6 -10  237.28   21.90
  -5   6  10  207.08   21.40
  -4  -6  10  166.08   17.30
   4  -6 -10  174.98   17.00
  -4  -6  10  155.88   17.40
  -4   6  10  204.38   19.10
  -4   6  10  248.68   18.80
   4   6 -10  236.88   19.80
  -3  -6  10    2.10    6.10
   3  -6 -10    0.70    6.00
  -3  -6  10    1.90    6.30
  -3   6  10    6.50    6.60
   3   6 -10    5.40    7.00
  -3   6  10    8.70    7.60
  -3   6  10    4.20    6.50
  -2  -6  10   11.90    6.80
   2  -6 -10   11.90    6.40
  -2  -6  10    7.20    6.30
  -2   6  10   12.30    7.30
  -2   6  10    8.60    6.60
   2   6 -10    7.70    7.40
   2   6 -10    7.30    5.40
  -2   6  10    9.40    6.60
   1  -6 -10  104.39   12.40
  -1  -6  10  110.89   13.80
   1   6 -10  119.89   12.60
  -1   6  10  130.79   14.10
  -1   6  10  122.29   13.70
   1   6 -10  131.69   15.60
  -1   6  10  121.49   12.90
   0  -6 -10  172.28   16.30
   0  -6  10  174.58   16.50
   0   6 -10  166.58   16.40
   0   6  10  159.38   16.40
   0   6 -10  164.78   15.20
   0   6  10  177.08   16.40
   0   6 -10  167.28   18.10
   0   6  10  166.28   16.00
  -1  -6 -10  419.16   34.40
   1  -6  10  465.55   32.10
  -1   6 -10  490.95   35.00
   1   6  10  448.56   31.70
  -1   6 -10  465.25   30.90
  -1   6 -10  436.66   31.80
   1   6  10  422.76   31.50
   2  -6  10   68.59    9.90
   2  -6  10   63.79   10.00
  -2  -6 -10   69.59   14.50
  -2   6 -10   75.99    9.80
   2   6  10   68.39   10.20
  -2   6 -10   68.69   10.80
   2   6  10   64.29   10.10
   3  -6  10   10.10    6.60
   3  -6  10   10.20    6.90
  -3  -6 -10   18.30   12.00
  -3   6 -10   13.30    8.20
   3   6  10   27.80    8.00
  -3   6 -10   16.80    6.90
   3   6  10   17.70    7.10
  -1  -7  10  137.59   15.50
  -1  -7  10  152.38   16.10
   1   7 -10  134.69   15.20
   1   7 -10  131.69   17.60
  -1   7  10  117.19   16.40
  -1   7  10  119.79   16.10
   9   0 -11   22.00    7.90
  -9   0  11   14.40   12.80
   8   0 -11    8.40    6.30
   8   0 -11    7.90    6.50
  -8   0  11   11.40   11.20
  -7   0  11    5.10    9.40
   7   0 -11    8.70    6.20
   7   0 -11    7.30    6.00
  -6   0  11  377.26   27.70
   6   0 -11  358.46   25.70
   6   0 -11  303.67   24.80
   5   0 -11 1953.00  123.09
   5   0 -11 1952.70  122.59
  -5   0  11 2130.09  123.79
  -5   0  11 2098.69  121.19
   4   0 -11    7.80    2.90
  -4   0  11    7.10    4.40
   4   0 -11    7.00    3.50
   4   0 -11    6.70    4.20
  -4   0  11    5.50    3.00
  -3   0  11  267.97   19.20
   3   0 -11  272.67   18.40
  -3   0  11  295.97   18.50
   3   0 -11  280.97   20.00
  -3   0  11  292.47   17.90
  -3   0  11  273.87   17.70
   3   0 -11  291.97   18.40
   2   0 -11  773.92   48.60
   2   0 -11  811.92   46.80
  -2   0  11  791.82   47.40
   2   0 -11  843.22   47.50
  -2   0  11  794.02   46.90
   2   0 -11  772.52   46.90
  -2   0  11  671.23   47.60
  -1   0  11   19.10    3.30
   1   0 -11   21.30    2.90
   1   0 -11   22.90    2.70
  -1   0  11   19.70    3.30
   1   0 -11   23.60    3.90
  -1   0  11   20.90    2.90
   1   0 -11   19.90    4.50
   0   0  11  941.51   59.19
   0   0 -11 1035.50   59.59
   0   0 -11 1101.89   61.39
   0   0  11  950.50   59.89
   0   0  11 1017.30   59.99
   0   0  11 1039.30   59.69
   0   0 -11  894.41   59.09
   0   0 -11  996.30   60.19
  -1   0 -11  815.62   50.19
   1   0  11  843.62   50.49
   1   0  11  817.32   50.09
  -1   0 -11  847.52   50.99
  -1   0 -11  844.12   51.59
   1   0  11  798.12   50.19
  -1   0 -11  840.12   50.09
  -2   0 -11    4.70    5.10
   2   0  11    2.20    2.40
  -2   0 -11    1.90    2.80
   2   0  11    4.10    2.30
   2   0  11    2.10    2.90
  -2   0 -11    3.30    3.20
   3   0  11  126.99   10.60
  -3   0 -11  123.09   11.20
  -3   0 -11  118.69   12.10
  -3   0 -11  123.59   13.50
   3   0  11  122.39   10.80
  -4   0 -11  517.25   32.90
  -4   0 -11  456.95   34.10
   4   0  11  491.95   32.60
   4   0  11  497.65   32.60
  -5   0 -11   57.39   11.50
   5   0  11   46.30    8.30
  -5   0 -11   50.89    9.60
   5   0  11   41.40    8.00
   6   0  11   -2.20    5.70
   6   0  11    4.80    6.50
  -6   0 -11   -2.90    9.20
  -6   0 -11    2.70   10.10
  -7   0 -11  -15.60   10.00
   7   0  11   -4.00    6.60
   7   0  11    0.70    6.00
   9  -1 -11  125.69   15.90
  -9  -1  11  120.59   19.50
  -9   1  11  166.68   20.90
   9   1 -11  173.68   16.80
   8  -1 -11   60.49   10.60
  -8  -1  11   45.20   13.80
   8   1 -11   63.69   10.30
   8   1 -11   48.50   10.40
  -8   1  11   63.89   14.70
   7  -1 -11  228.38   20.80
   7  -1 -11  253.37   21.00
  -7  -1  11  249.58   24.20
   7   1 -11  258.87   22.60
   7   1 -11  295.27   21.70
  -7   1  11  292.67   26.40
   6  -1 -11 1346.67   80.99
  -6  -1  11 1349.66   82.09
  -6  -1  11 1374.46   79.49
   6  -1 -11 1214.58   80.29
  -6   1  11 1377.86   79.69
   6   1 -11 1414.46   81.69
   6   1 -11 1183.58   82.19
  -6   1  11 1207.08   83.79
   5  -1 -11  127.99   11.70
  -5  -1  11  130.19   11.10
   5  -1 -11  134.19   10.30
  -5  -1  11  144.39   13.80
   5  -1 -11  133.09   12.80
   5   1 -11  151.48   11.20
  -5   1  11  148.39   11.60
   5   1 -11  167.28   14.20
   5   1 -11  137.89   14.10
  -5   1  11  155.18   16.50
  -4  -1  11  612.04   39.20
  -4  -1  11  612.84   37.60
   4  -1 -11  607.84   39.00
  -4  -1  11  610.24   37.40
   4  -1 -11  584.94   37.90
   4   1 -11  631.34   40.80
   4   1 -11  600.84   39.90
   4   1 -11  609.14   38.10
  -4   1  11  620.14   37.80
  -4   1  11  630.94   38.20
  -3  -1  11  183.08   11.70
  -3  -1  11  162.88   13.00
  -3  -1  11  162.68   11.70
   3  -1 -11  181.98   13.30
   3  -1 -11  174.18   11.70
  -3   1  11  159.28   11.70
   3   1 -11  166.08   12.20
   3   1 -11  154.28   13.30
   3   1 -11  167.58   11.60
  -3   1  11  161.78   12.30
  -3   1  11  175.18   13.70
   3   1 -11  173.78   14.80
   2  -1 -11  240.08   16.70
  -2  -1  11  244.58   17.60
   2  -1 -11  247.58   16.70
  -2  -1  11  253.57   16.80
   2  -1 -11  259.07   18.00
  -2   1  11  279.07   17.90
   2   1 -11  297.47   19.90
  -2   1  11  271.87   17.40
   2   1 -11  273.77   17.50
  -2   1  11  272.07   17.00
   2   1 -11  267.97   16.70
   2   1 -11  222.18   18.70
   1  -1 -11 2251.17  127.89
   1  -1 -11 2066.09  127.49
  -1  -1  11 2130.59  127.69
   1  -1 -11 2271.07  127.09
  -1  -1  11 2065.09  128.19
  -1  -1  11 2236.48  127.19
  -1   1  11 2148.78  128.09
  -1   1  11 2145.99  127.79
  -1   1  11 2090.09  127.79
  -1   1  11 2125.69  127.89
   1   1 -11 2162.28  127.59
   1   1 -11 2171.88  130.09
   1   1 -11 2128.69  128.19
   0  -1  11  670.53   40.50
   0  -1 -11  685.53   41.00
   0  -1 -11  680.03   40.00
   0  -1  11  662.83   40.00
   0  -1 -11  601.74   40.10
   0   1 -11  656.73   42.80
   0   1  11  679.53   40.50
   0   1  11  639.84   40.20
   0   1 -11  683.13   41.00
   0   1 -11  675.13   41.20
   0   1 -11  671.63   40.50
   0   1  11  668.03   40.90
   0   1  11  661.83   40.60
  -1  -1 -11   37.30    5.40
   1   1  11   17.60    3.40
   1   1  11   18.20    3.20
   1   1  11   19.10    3.80
  -1   1 -11   20.00    4.20
  -1   1 -11   20.40    3.70
  -1   1 -11   22.60    5.80
  -1   1 -11   18.30    4.60
   2  -1  11   36.00    4.40
  -2  -1 -11   40.40    6.80
   2  -1  11   37.00    4.90
   2  -1  11   35.50    4.90
  -2  -1 -11   38.40    4.70
   2   1  11   18.30    4.00
   2   1  11   21.70    4.40
  -2   1 -11   26.10    4.60
  -2   1 -11   22.10    4.90
   2   1  11   24.50    3.90
  -2   1 -11   19.70    5.80
  -3  -1 -11  143.59   11.40
  -3  -1 -11  135.19   13.80
   3  -1  11  135.29   11.00
   3  -1  11  141.39   10.60
  -3   1 -11  101.09   10.90
   3   1  11  110.79   10.60
  -3   1 -11  102.59   10.80
   3   1  11  101.09   10.30
   3   1  11  105.49   10.20
  -3   1 -11  109.29   12.70
   4  -1  11  140.49   12.40
  -4  -1 -11  138.99   15.60
   4  -1  11  158.08   12.70
  -4  -1 -11  157.28   13.80
   4   1  11  107.19   11.90
  -4   1 -11  101.19   13.50
  -4   1 -11  125.09   13.30
  -4   1 -11  106.99   12.50
   4   1  11  107.29   12.00
  -5  -1 -11  333.67   25.60
   5  -1  11  330.97   24.70
  -5  -1 -11  397.36   27.20
   5  -1  11  327.07   24.20
  -5   1 -11  327.87   25.60
  -5   1 -11  349.37   25.50
   5   1  11  303.57   24.30
  -5   1 -11  288.67   26.00
   5   1  11  326.87   24.80
  -6  -1 -11   34.20   11.30
  -6  -1 -11   29.10   10.50
   6  -1  11   41.30    8.20
   6  -1  11   34.00    8.20
  -6   1 -11   21.00    8.30
  -6   1 -11   40.20   11.50
   6   1  11   32.10    8.80
   6   1  11   32.80    8.30
  -7  -1 -11   18.00   10.10
  -7  -1 -11   15.70   11.00
   7  -1  11   18.60    7.70
   7  -1  11   16.30    7.00
   7   1  11   17.30    8.80
  -7   1 -11   -0.20   11.00
   9  -2 -11   15.70    8.30
  -9  -2  11    4.70   12.30
  -9   2  11    4.00   12.40
   9   2 -11   10.20    8.10
   9   2 -11    6.60    8.00
  -8  -2  11   10.20    7.00
  -8  -2  11    8.30   11.00
   8  -2 -11    7.30    7.30
   8   2 -11    3.60    7.60
   8   2 -11    6.60    7.20
  -8   2  11   11.70   12.10
   7  -2 -11   86.59   10.90
  -7  -2  11   85.89   13.10
   7  -2 -11   87.39    9.00
  -7  -2  11   61.09    8.80
   7   2 -11   68.79   12.30
  -7   2  11   86.39   15.30
   7   2 -11   80.09   11.90
  -7   2  11   85.49   10.50
  -6  -2  11  240.48   20.20
   6  -2 -11  232.28   18.20
   6  -2 -11  240.78   18.70
   6   2 -11  210.08   21.20
   6   2 -11  237.78   17.60
  -6   2  11  286.97   24.90
  -6   2  11  225.18   18.20
  -5  -2  11 1177.48   74.39
   5  -2 -11 1173.88   73.59
   5  -2 -11 1199.28   73.09
   5   2 -11 1232.38   77.59
   5   2 -11 1005.70   74.39
   5   2 -11 1315.47   73.69
  -5   2  11 1307.77   73.69
   4  -2 -11  547.75   34.80
   4  -2 -11  542.75   35.50
  -4  -2  11  563.54   36.20
  -4  -2  11  483.75   34.50
  -4   2  11  582.64   35.50
  -4   2  11  567.64   39.70
   4   2 -11  562.54   39.30
   4   2 -11  582.74   35.50
  -4   2  11  575.94   34.90
   3  -2 -11  507.95   30.40
  -3  -2  11  494.65   31.30
  -3  -2  11  399.86   29.90
  -3  -2  11  491.55   29.60
   3  -2 -11  479.05   30.20
  -3   2  11  482.55   30.30
  -3   2  11  457.85   34.00
   3   2 -11  527.35   35.20
  -3   2  11  491.05   30.80
   3   2 -11  491.75   30.90
   3   2 -11  474.85   30.00
  -2  -2  11  544.95   35.90
  -2  -2  11  550.54   34.60
   2  -2 -11  578.14   34.80
   2  -2 -11  542.65   35.20
   2   2 -11  577.44   35.90
  -2   2  11  591.44   35.60
   2   2 -11  566.84   35.10
  -2   2  11  567.04   35.70
  -2   2  11  576.54   35.40
   2   2 -11  602.14   39.90
   1  -2 -11  128.49   10.20
  -1  -2  11  119.59    9.50
  -1  -2  11  120.79   10.70
   1   2 -11  144.49   10.20
   1   2 -11  138.99   10.90
  -1   2  11  140.39   10.40
   1   2 -11  140.49   14.60
  -1   2  11  138.59   10.60
  -1   2  11  149.39   10.50
   0  -2 -11 1501.25   80.99
   0  -2  11 1425.46   81.19
   0  -2 -11 1366.86   80.39
   0  -2  11 1383.96   80.19
   0   2  11 1232.58   80.49
   0   2 -11 1314.17   80.99
   0   2  11 1280.27   80.59
   0   2 -11 1325.27   80.99
   0   2  11 1296.67   80.59
   0   2 -11 1267.67   80.29
   1  -2  11  220.48   15.60
   1  -2  11  193.38   16.00
  -1  -2 -11  211.78   17.70
  -1  -2 -11  226.18   16.20
   1  -2  11  202.18   16.70
   1   2  11  260.67   16.70
   1   2  11  279.97   17.10
  -1   2 -11  272.87   17.50
  -1   2 -11  240.08   19.60
  -1   2 -11  271.67   17.80
   1   2  11  270.67   16.90
  -1   2 -11  268.07   16.70
   2  -2  11  200.28   14.60
   2  -2  11  213.28   14.60
  -2  -2 -11  200.38   16.60
   2  -2  11  212.68   13.90
  -2  -2 -11  233.68   14.40
   2   2  11  181.28   14.40
  -2   2 -11  168.48   14.10
   2   2  11  174.98   14.10
   2   2  11  173.38   13.80
  -2   2 -11  182.38   14.90
  -2   2 -11  182.68   15.60
   3  -2  11  220.08   16.30
  -3  -2 -11  223.68   16.90
  -3  -2 -11  196.88   19.00
   3  -2  11  214.48   16.70
  -3   2 -11  223.98   19.00
   3   2  11  212.88   15.90
   3   2  11  223.78   16.60
   3   2  11  243.08   17.00
  -3   2 -11  216.98   17.30
  -3   2 -11  224.08   16.60
   4  -2  11  807.82   53.29
  -4  -2 -11  867.71   53.59
   4  -2  11  842.12   53.59
  -4  -2 -11  914.21   55.39
  -4   2 -11  826.42   53.19
   4   2  11  876.61   53.69
   4   2  11  832.42   52.89
  -4   2 -11  854.11   54.19
   4   2  11  858.01   53.69
  -4   2 -11  782.52   54.79
   5  -2  11   46.90    8.20
  -5  -2 -11   29.70    8.90
  -5  -2 -11   43.30   11.10
   5  -2  11   37.70    7.80
   5   2  11   30.10    8.40
  -5   2 -11   35.20    9.20
   5   2  11   21.80    7.20
  -5   2 -11   34.80    9.10
  -6  -2 -11   40.90   11.20
  -6  -2 -11   33.20   10.70
   6  -2  11   46.70    8.70
   6  -2  11   40.60    8.20
  -6   2 -11   42.70   11.70
   6   2  11   31.90    9.60
  -6   2 -11   37.20   11.20
  -7  -2 -11   43.20   11.90
   7  -2  11   49.20    8.90
   7  -2  11   46.70    8.90
  -7  -2 -11   55.79   11.90
  -7   2 -11   12.00   15.10
  -7   2 -11   36.60   15.70
   7   2  11   24.10   12.40
   8  -3 -11  182.88   18.30
  -8  -3  11  201.78   23.00
  -8  -3  11  174.18   18.60
   8  -3 -11  181.18   15.70
   8   3 -11  160.18   20.40
  -8   3  11  150.78   17.30
   8   3 -11  145.89   18.70
  -8   3  11  174.58   23.80
   7  -3 -11  316.67   23.90
  -7  -3  11  313.57   26.10
  -7  -3  11  316.77   23.60
   7  -3 -11  308.67   22.00
  -7   3  11  283.57   24.00
  -7   3  11  328.17   31.40
   7   3 -11  308.67   27.90
   6  -3 -11  364.76   24.80
   6  -3 -11  386.16   26.10
  -6  -3  11  367.56   25.90
   6  -3 -11  385.86   25.90
  -6  -3  11  368.06   27.60
   6   3 -11  383.06   26.30
   6   3 -11  403.66   31.60
  -6   3  11  365.86   26.70
   6   3 -11  282.77   29.00
  -5  -3  11   71.39    8.20
   5  -3 -11   81.99    9.30
  -5  -3  11   59.09    9.10
   5  -3 -11   80.79    9.80
   5   3 -11   82.09    9.60
   5   3 -11   78.69   14.10
  -5   3  11   64.39   13.60
  -5   3  11   63.69    8.20
  -5   3  11   73.29    9.40
   4  -3 -11  160.78   14.10
  -4  -3  11  159.18   14.00
  -4  -3  11  168.98   15.10
   4   3 -11  205.28   20.80
  -4   3  11  210.88   15.30
  -4   3  11  202.18   14.50
   4   3 -11  216.08   15.30
   3  -3 -11  529.55   34.40
  -3  -3  11  583.04   35.50
  -3  -3  11  565.94   34.50
  -3   3  11  513.75   34.60
   3   3 -11  548.05   35.30
   3   3 -11  544.45   34.10
  -3   3  11  548.85   35.10
   3   3 -11  516.65   40.80
  -2  -3  11  480.25   34.20
   2  -3 -11  468.35   33.50
   2  -3 -11  472.25   32.90
  -2   3  11  580.14   34.20
   2   3 -11  617.34   34.90
  -2   3  11  601.84   34.40
   2   3 -11  563.64   33.60
  -2   3  11  599.44   34.50
   2   3 -11  432.76   39.10
  -1  -3  11 1134.19   66.09
   1  -3 -11 1150.58   65.19
   1  -3 -11 1120.49   65.29
  -1  -3  11 1092.59   64.39
  -1   3  11 1041.10   65.49
   1   3 -11 1021.30   64.99
  -1   3  11 1021.30   65.49
   1   3 -11 1018.70   65.79
  -1   3  11 1052.19   65.49
   0  -3  11  110.29    8.90
   0  -3  11  113.39   10.50
   0  -3 -11  108.69    9.80
   0  -3 -11  119.59   11.00
   0   3 -11   96.09   13.30
   0   3 -11  107.99   10.60
   0   3 -11  118.79    9.90
   0   3  11  117.69   10.10
   0   3  11  115.19   10.20
   0   3 -11  104.69   10.60
   0   3  11  113.59    9.90
   1  -3  11  328.27   22.70
  -1  -3 -11  350.16   24.00
   1  -3  11  333.77   21.90
  -1   3 -11  329.67   22.00
   1   3  11  311.37   22.20
  -1   3 -11  328.17   23.10
   1   3  11  323.87   22.20
   1   3  11  333.07   22.40
  -1   3 -11  320.67   22.80
   2  -3  11   15.70    4.70
  -2  -3 -11   14.00    7.70
   2  -3  11   14.20    4.60
   2   3  11   11.70    4.70
   2   3  11   14.80    4.30
  -2   3 -11   11.90    4.70
  -2   3 -11   23.20    6.70
   2   3  11   16.80    4.50
  -2   3 -11   18.80    5.60
   3  -3  11  195.28   16.50
   3  -3  11  223.58   17.00
  -3  -3 -11  213.48   20.10
   3  -3  11  193.48   15.90
  -3   3 -11  221.58   16.70
   3   3  11  214.88   16.20
  -3   3 -11  212.98   17.60
  -3   3 -11  213.78   18.50
   3   3  11  217.58   16.70
   3   3  11  202.88   16.40
  -4  -3 -11   42.90   11.50
   4  -3  11   34.30    7.40
   4  -3  11   44.90    7.50
  -4  -3 -11   31.70    8.20
   4   3  11   37.60    7.60
   4   3  11   44.60    8.20
  -4   3 -11   51.09    8.50
  -4   3 -11   39.80    8.90
   4   3  11   36.60    7.20
   5  -3  11  308.07   23.40
   5  -3  11  325.37   23.10
  -5  -3 -11  282.47   24.60
  -5  -3 -11  319.17   27.40
   5   3  11  291.37   24.60
   5   3  11  315.47   23.60
  -5   3 -11  306.57   24.60
  -5   3 -11  288.97   25.40
  -6  -3 -11  109.09   15.40
   6  -3  11  112.99   12.60
  -6  -3 -11  107.09   14.20
   6  -3  11  112.09   13.20
   6   3  11  113.69   14.40
  -6   3 -11  131.09   16.80
  -6   3 -11  121.89   16.00
   6   3  11   98.89   14.50
  -7  -4  11  172.68   17.40
   7  -4 -11  163.38   16.60
  -7  -4  11  154.68   18.50
   7  -4 -11  172.98   15.00
  -7  -4  11  175.18   19.50
   7   4 -11  177.28   17.10
  -7   4  11  177.98   18.40
   6  -4 -11  165.28   15.40
  -6  -4  11  163.08   15.80
   6  -4 -11  165.58   14.20
  -6  -4  11  150.98   16.90
   6   4 -11  181.98   16.10
  -6   4  11  192.28   17.30
   5  -4 -11  354.06   24.20
  -5  -4  11  337.87   24.20
   5  -4 -11  353.76   24.50
  -5  -4  11  334.07   25.50
  -5   4  11  315.17   25.20
   5   4 -11  368.76   33.00
   5   4 -11  342.47   25.20
  -4  -4  11  552.64   36.20
  -4  -4  11  545.55   37.20
   4  -4 -11  561.54   36.30
   4   4 -11  608.34   45.70
  -4   4  11  554.34   36.60
  -4   4  11  570.34   37.40
   4   4 -11  569.74   37.60
   3  -4 -11  286.17   19.80
  -3  -4  11  287.37   20.60
  -3  -4  11  278.57   19.90
   3   4 -11  247.78   27.70
  -3   4  11  269.17   20.30
   3   4 -11  267.27   19.00
  -3   4  11  274.07   20.00
   3   4 -11  275.57   20.70
  -3   4  11  284.47   20.50
  -2  -4  11  164.18   14.50
   2  -4 -11  181.08   14.20
   2   4 -11  119.19   19.90
  -2   4  11  180.28   14.60
  -2   4  11  181.48   14.30
   2   4 -11  171.98   13.50
  -2   4  11  174.28   14.50
   2   4 -11  193.38   15.20
  -1  -4  11   27.10    5.70
   1  -4 -11   28.40    5.70
   1  -4 -11   31.70    5.90
   1   4 -11   13.50    5.70
  -1   4  11   11.80    4.60
  -1   4  11   15.70    5.20
   1   4 -11   14.80    8.00
  -1   4  11   15.40    5.10
   1   4 -11   14.80    4.50
   0  -4 -11  296.07   19.40
   0  -4  11  289.37   18.90
   0  -4 -11  281.57   18.20
   0   4 -11  231.48   18.70
   0   4  11  208.18   17.40
   0   4  11  210.88   17.60
   0   4  11  212.38   17.70
   0   4 -11  212.88   17.00
   0   4 -11  222.38   18.20
   1  -4  11  178.88   13.70
   1  -4  11  177.28   14.90
  -1  -4 -11  172.38   17.10
   1   4  11  160.78   14.30
   1   4  11  175.68   14.40
  -1   4 -11  179.18   15.90
  -1   4 -11  169.18   14.20
  -1   4 -11  173.08   15.10
   1   4  11  179.18   14.40
   2  -4  11  382.46   26.20
   2  -4  11  400.96   26.20
  -2  -4 -11  369.06   29.00
   2   4  11  360.36   25.80
  -2   4 -11  377.86   25.70
   2   4  11  359.66   25.80
  -2   4 -11  359.36   26.50
   2   4  11  375.56   26.00
  -2   4 -11  383.46   27.70
  -3  -4 -11  143.29   17.00
   3  -4  11  148.99   14.70
   3  -4  11  139.69   14.40
   3   4  11  174.68   15.00
   3   4  11  171.18   14.80
  -3   4 -11  155.18   16.50
  -3   4 -11  172.18   14.90
  -3   4 -11  158.48   16.10
   3   4  11  161.88   14.50
  -4  -4 -11  171.48   20.80
   4  -4  11  161.78   16.30
   4   4  11  170.88   16.00
   4   4  11  185.48   16.90
  -4   4 -11  171.48   18.10
  -4   4 -11  181.78   17.00
   5  -4  11   25.20    7.60
  -5  -4 -11   28.10   12.30
   5   4  11   22.10    8.30
  -5   4 -11   22.00    8.90
  -5   4 -11   20.10   10.00
   5   4  11   17.50    7.10
   6  -5 -11   14.30    6.70
  -6  -5  11   13.30    7.20
  -6  -5  11   10.20    7.90
   6  -5 -11   13.60    6.00
  -6   5  11   16.50    8.70
   6   5 -11   14.60    7.20
   5  -5 -11  100.29   11.20
  -5  -5  11  105.69   11.60
  -5  -5  11   95.59   12.30
  -5   5  11   90.39   11.30
   5   5 -11   98.29   12.60
  -5   5  11  107.89   13.10
   4  -5 -11   68.09    9.00
  -4  -5  11   64.49    9.80
  -4  -5  11   69.29    9.20
   4   5 -11   71.69   10.70
  -4   5  11   64.69   10.10
  -4   5  11   64.39    9.30
   3  -5 -11  448.86   29.10
  -3  -5  11  432.46   29.20
  -3  -5  11  417.86   29.60
   3   5 -11  413.06   30.20
  -3   5  11  406.16   29.80
  -3   5  11  417.66   29.30
  -3   5  11  419.56   29.40
  -2  -5  11  335.87   23.00
   2  -5 -11  351.96   22.60
   2   5 -11  287.07   21.30
   2   5 -11  275.27   22.90
  -2   5  11  278.77   22.00
  -2   5  11  273.87   22.20
  -2   5  11  306.07   22.60
   1  -5 -11  289.37   21.80
  -1  -5  11  292.77   22.20
  -1   5  11  282.87   21.60
  -1   5  11  296.87   21.90
   1   5 -11  297.27   21.10
  -1   5  11  281.97   22.00
   1   5 -11  306.97   23.10
   0  -5  11  157.58   15.00
   0  -5 -11  165.28   15.10
   0  -5 -11  178.08   16.70
   0   5 -11  169.38   14.40
   0   5 -11  153.78   15.20
   0   5  11  143.39   14.80
   0   5  11  163.58   14.70
   0   5 -11  163.98   16.30
   0   5  11  165.78   14.90
   1  -5  11  218.88   18.10
   1  -5  11  238.68   16.80
  -1  -5 -11  233.18   21.00
   1   5  11  208.38   17.50
  -1   5 -11  229.58   19.70
   1   5  11  202.18   17.70
  -1   5 -11  205.38   17.10
   1   5  11  200.98   17.30
  -1   5 -11  190.18   18.10
   2  -5  11    2.40    5.20
  -2  -5 -11   -2.40    8.90
   2  -5  11    3.10    5.00
   2   5  11    8.70    5.60
   2   5  11    3.80    5.30
  -2   5 -11    7.70    6.70
  -2   5 -11    6.90    7.30
  -2   5 -11    3.20    5.70
  -3  -5 -11   98.89   15.80
   3  -5  11   91.79   11.70
   3  -5  11   90.89   11.80
   3   5  11  113.19   12.70
  -3   5 -11  106.89   11.70
  -3   5 -11  101.59   12.80
   3   5  11  100.99   12.10
   4  -5  11   10.70    6.90
   4  -5  11   10.60    6.90
  -4  -5 -11   15.10   12.00
   4   5  11   22.30    7.80
  -4   5 -11   21.80    9.10
  -4   5 -11   21.80    7.90
   4   5  11   13.10    6.90
  -5  -6  11   52.89   10.10
   5  -6 -11   53.89   13.90
   5   6 -11   31.00   14.70
   4  -6 -11  310.07   23.80
  -4  -6  11  311.77   24.50
  -4  -6  11  300.87   25.00
   4   6 -11  345.27   26.60
  -4   6  11  322.37   24.90
  -4   6  11  318.07   25.80
  -3  -6  11  278.77   21.60
   3  -6 -11  267.17   20.80
  -3  -6  11  267.47   21.10
   3   6 -11  232.98   22.10
  -3   6  11  248.38   21.30
  -3   6  11  256.57   21.40
  -3   6  11  237.28   21.70
   2  -6 -11   28.50    7.80
  -2  -6  11   27.70    8.10
  -2  -6  11   30.80    8.10
   2   6 -11   31.80    8.90
  -2   6  11   37.20    8.40
  -2   6  11   30.10    8.70
  -2   6  11   30.00    8.00
   2   6 -11   36.00    7.20
  -1  -6  11   47.30    9.00
   1  -6 -11   40.80    8.40
   1   6 -11   30.70    9.60
  -1   6  11   36.30    8.10
  -1   6  11   33.40    8.00
  -1   6  11   29.30    8.20
   1   6 -11   23.40    6.70
   0  -6 -11   20.60    7.40
   0  -6  11   21.30    7.40
   0   6  11   25.40    7.40
   0   6 -11   21.80    6.60
   0   6 -11   22.50    8.00
   0   6  11   31.60    8.40
   0   6 -11   21.80    9.20
   0   6  11   29.50    7.80
  -1  -6 -11   43.10   11.90
   1  -6  11   39.40    8.70
   1   6  11   47.70    8.90
  -1   6 -11   50.29    9.50
  -1   6 -11   47.30    8.50
   1   6  11   49.00    9.10
  -1   6 -11   51.69   11.50
  -2  -6 -11  389.96   34.10
   2  -6  11  392.06   29.60
   2  -6  11  392.26   29.00
   2   6  11  426.96   30.00
  -2   6 -11  410.06   29.10
   2   6  11  433.96   29.90
  -2   6 -11  405.86   30.30
  -3  -6 -11   10.30   12.40
   3  -6  11   22.90    7.70
   3   6  11   35.40   11.50
   3   6  11   26.10    8.90
  -3   6 -11   22.60    7.80
  -9   0  12  268.17   29.10
   9   0 -12  254.77   22.00
   8   0 -12   58.99   10.90
   8   0 -12   55.19   10.00
  -8   0  12   46.50   13.90
   7   0 -12  228.58   20.30
  -7   0  12  247.28   25.00
   7   0 -12  253.57   21.30
   6   0 -12   56.19    8.80
  -6   0  12   50.89   10.50
   6   0 -12   49.70    9.00
  -5   0  12  115.19   13.10
  -5   0  12  126.89    9.90
   5   0 -12  102.89   12.20
  -4   0  12 1569.94   94.39
  -4   0  12 1569.74   92.99
   4   0 -12 1519.75   93.49
   4   0 -12 1540.65   94.69
   4   0 -12 1556.74   92.79
   3   0 -12  554.64   34.70
   3   0 -12  562.74   34.70
  -3   0  12  593.14   34.80
  -3   0  12  524.35   35.50
   3   0 -12  565.44   36.40
  -2   0  12   66.89    6.50
   2   0 -12   66.29    5.90
   2   0 -12   69.79    6.80
   2   0 -12   68.99    5.60
   2   0 -12   72.39    8.30
  -2   0  12   67.69    5.70
  -2   0  12   66.59    7.00
  -1   0  12  708.33   43.90
  -1   0  12  705.23   44.10
   1   0 -12  763.42   45.60
  -1   0  12  706.73   43.50
   1   0 -12  713.23   44.10
   1   0 -12  720.73   43.40
   0   0  12  275.37   18.90
   0   0 -12  291.17   19.40
   0   0  12  277.67   18.70
   0   0  12  276.77   18.50
   0   0 -12  298.07   18.50
   0   0 -12  317.57   20.70
   1   0  12 1286.47   78.19
  -1   0 -12 1249.57   77.79
   1   0  12 1232.38   77.89
  -1   0 -12 1293.07   77.69
  -1   0 -12 1347.77   78.79
   1   0  12 1311.27   77.89
  -1   0 -12 1379.46   79.69
  -2   0 -12  219.68   15.50
   2   0  12  230.88   15.90
  -2   0 -12  228.78   17.50
  -2   0 -12  215.58   15.60
   2   0  12  205.08   17.30
   2   0  12  221.18   15.30
  -2   0 -12  218.68   16.90
  -3   0 -12   12.30    5.00
   3   0  12   11.80    4.00
  -3   0 -12   13.50    7.40
   3   0  12   11.70    4.60
   4   0  12  499.35   32.50
  -4   0 -12  458.25   34.40
   4   0  12  482.15   32.60
  -4   0 -12  501.25   32.80
   5   0  12  293.47   22.30
  -5   0 -12  280.87   23.50
   5   0  12  269.47   22.10
  -5   0 -12  311.67   25.30
   6   0  12   -2.30    6.10
   6   0  12   -7.60    5.50
  -6   0 -12   -2.70   10.30
  -6   0 -12   -8.70    9.30
  -7   0 -12   17.20   12.30
   7   0  12   32.80    9.70
   7   0  12   25.40    8.00
   9  -1 -12  240.38   23.50
  -9  -1  12  221.48   29.10
  -9   1  12  347.97   30.70
   9   1 -12  318.27   23.60
   8  -1 -12  324.77   29.20
  -8  -1  12  397.66   35.20
   8   1 -12  438.96   29.60
   8   1 -12  365.76   30.70
  -8   1  12  467.75   35.60
   7  -1 -12  120.49   13.90
  -7  -1  12  115.79   15.70
   7  -1 -12  110.09   13.30
   7   1 -12   99.79   14.20
  -7   1  12  106.59   16.70
   7   1 -12  138.29   14.20
   6  -1 -12  280.17   20.30
  -6  -1  12  314.27   23.00
   6  -1 -12  314.07   21.50
  -6   1  12  241.08   19.10
  -6   1  12  240.18   24.40
   6   1 -12  219.38   21.80
  -5  -1  12  517.85   37.90
   5  -1 -12  490.05   36.30
  -5  -1  12  536.25   35.80
   5  -1 -12  481.05   37.20
   5   1 -12  583.64   39.40
   5   1 -12  667.53   39.00
  -5   1  12  640.34   40.70
   5   1 -12  641.54   36.50
  -5   1  12  671.83   36.90
   4  -1 -12   12.30    3.60
  -4  -1  12    9.90    4.70
  -4  -1  12   13.90    3.50
  -4  -1  12   13.40    3.20
   4  -1 -12   18.40    5.20
   4   1 -12   14.50    4.00
  -4   1  12   13.70    3.50
  -4   1  12    9.50    3.90
   4   1 -12   19.80    5.50
   4   1 -12   16.80    6.00
  -3  -1  12  733.23   45.90
   3  -1 -12  700.63   44.60
  -3  -1  12  738.43   44.60
   3  -1 -12  702.53   45.90
   3  -1 -12  767.72   44.60
  -3   1  12  724.73   46.20
   3   1 -12  727.33   47.60
   3   1 -12  747.33   44.50
   3   1 -12  741.23   45.20
  -3   1  12  710.13   44.60
  -3   1  12  762.72   45.20
   2  -1 -12   19.50    3.80
   2  -1 -12   19.10    3.50
  -2  -1  12   18.50    3.50
  -2  -1  12   19.10    4.30
   2  -1 -12   18.60    4.90
  -2   1  12   39.50    4.90
  -2   1  12   37.50    5.10
  -2   1  12   36.50    4.20
   2   1 -12   38.00    4.00
   2   1 -12   33.40    4.60
   2   1 -12   42.50    7.50
  -1  -1  12   20.70    3.80
   1  -1 -12   19.70    3.80
   1  -1 -12   18.60    3.10
  -1  -1  12   19.10    3.20
  -1   1  12   10.10    3.00
   1   1 -12   11.20    3.00
   1   1 -12   11.10    3.90
  -1   1  12    8.80    3.20
  -1   1  12   11.80    3.00
   1   1 -12   12.50    5.30
  -1   1  12   12.30    2.90
   0  -1  12 1227.58   71.19
   0  -1 -12 1265.77   71.69
   0  -1 -12 1131.19   70.69
   0  -1 -12 1257.07   70.59
   0  -1  12 1186.38   70.59
   0   1 -12 1175.08   71.79
   0   1 -12 1195.78   73.69
   0   1 -12 1170.08   70.99
   0   1  12 1121.79   70.89
   0   1  12 1159.78   71.19
   0   1  12 1129.49   71.39
  -1  -1 -12 1469.45   84.39
   1  -1  12 1431.86   83.69
  -1  -1 -12 1440.26   82.99
   1  -1  12 1427.96   83.09
   1  -1  12 1400.16   83.89
   1   1  12 1390.76   83.59
   1   1  12 1363.16   83.79
  -1   1 -12 1415.06   84.39
   1   1  12 1353.76   83.19
  -1   1 -12 1289.07   85.59
  -1   1 -12 1357.86   83.39
  -1   1 -12 1356.66   83.79
  -2  -1 -12   98.39   11.80
   2  -1  12   96.89    8.50
   2  -1  12   92.49    8.90
   2  -1  12   96.79    9.10
  -2  -1 -12  110.59    9.30
  -2   1 -12  107.99    9.80
  -2   1 -12  114.49   11.60
  -2   1 -12  109.49    9.60
   2   1  12  107.19    9.20
   2   1  12  114.79    9.80
  -3  -1 -12   45.10    9.00
   3  -1  12   44.10    6.20
   3  -1  12   46.10    6.40
  -3  -1 -12   50.19    6.90
   3  -1  12   48.10    6.90
  -3   1 -12   54.79    9.30
   3   1  12   44.10    6.90
   3   1  12   40.40    6.10
  -3   1 -12   41.80    6.70
  -3   1 -12   47.50    6.80
   4  -1  12   20.40    5.70
  -4  -1 -12   21.40    7.10
   4  -1  12   16.90    5.80
  -4  -1 -12   11.50    9.10
   4   1  12   26.30    6.30
   4   1  12   29.00    6.30
  -4   1 -12   26.10    7.20
  -4   1 -12   22.00    8.90
  -4   1 -12   30.60    7.00
  -5  -1 -12   80.19   11.90
   5  -1  12   88.99   11.50
  -5  -1 -12   98.89   14.00
   5  -1  12   87.69   11.00
   5   1  12   95.49   11.80
   5   1  12   92.19   11.40
  -5   1 -12   98.49   12.50
  -5   1 -12   80.89   13.50
   6  -1  12  372.66   25.40
   6  -1  12  396.56   26.30
  -6  -1 -12  326.87   27.50
   6   1  12  289.17   26.00
   6   1  12  279.27   25.10
  -6   1 -12  299.17   27.80
   7  -1  12   10.10    7.30
  -7  -1 -12    6.00   10.30
   7  -1  12    6.60    6.20
  -7  -1 -12   14.00   11.10
  -9   2  12   67.19   17.60
   9   2 -12   69.59   12.10
   9   2 -12   74.39   13.80
  -8  -2  12   13.40   11.40
   8  -2 -12    6.50    7.40
   8   2 -12   25.00    8.80
   8   2 -12   26.30    9.60
  -8   2  12   33.10   12.80
   7  -2 -12   15.70    6.90
  -7  -2  12   16.10    4.90
  -7  -2  12   21.00    9.40
   7  -2 -12   18.30    6.70
  -7   2  12   24.00   11.70
   7   2 -12   31.10    8.60
   7   2 -12   27.50    9.40
  -7   2  12   28.50    7.20
   6  -2 -12  119.89   11.60
   6  -2 -12  133.39   13.30
  -6  -2  12  130.69   15.80
   6  -2 -12  130.39   14.40
   6   2 -12  168.18   16.40
  -6   2  12  168.38   14.00
  -6   2  12  195.88   21.70
   6   2 -12  187.08   13.50
   6   2 -12  156.58   17.30
   5  -2 -12  291.47   19.10
   5  -2 -12  297.27   20.20
  -5  -2  12  282.97   20.90
  -5   2  12  255.67   18.70
   5   2 -12  221.18   22.40
  -5   2  12  252.27   19.30
   5   2 -12  249.68   19.00
   4  -2 -12 1033.90   63.59
  -4  -2  12 1021.20   64.89
   4  -2 -12 1016.50   64.39
  -4   2  12 1033.10   68.39
   4   2 -12 1024.80   68.09
  -4   2  12 1067.09   63.69
  -4   2  12 1076.19   64.29
   4   2 -12 1092.69   64.29
   3  -2 -12   79.79    7.60
  -3  -2  12   66.79    8.70
   3  -2 -12   73.69    8.40
  -3  -2  12   74.09    7.80
  -3  -2  12   61.29    7.30
  -2  -2  12  387.76   23.50
  -2  -2  12  396.16   25.00
   2  -2 -12  379.66   23.60
   2   2 -12  367.06   28.70
  -2   2  12  369.36   24.50
  -2   2  12  361.56   24.10
   2   2 -12  356.06   23.70
  -2   2  12  374.46   24.30
   2   2 -12  355.66   24.60
  -1  -2  12  587.44   32.30
   1  -2 -12  521.25   31.20
  -1  -2  12  570.64   30.90
  -1   2  12  480.95   31.30
  -1   2  12  454.65   31.40
  -1   2  12  469.95   31.30
   1   2 -12  437.66   35.20
   1   2 -12  469.15   31.00
   1   2 -12  463.75   31.70
   0  -2 -12  511.15   34.50
   0  -2  12  553.94   35.40
   0  -2  12  533.25   34.40
   0  -2 -12  584.14   35.40
   0   2 -12  574.14   35.60
   0   2 -12  571.24   35.50
   0   2  12  540.75   35.00
   0   2  12  551.04   35.00
   0   2 -12  562.54   34.70
   0   2  12  582.14   35.00
  -1  -2 -12  790.42   45.70
   1  -2  12  764.22   44.50
   1  -2  12  728.73   45.10
   1   2  12  709.33   44.60
  -1   2 -12  715.43   45.10
  -1   2 -12  713.33   45.40
   1   2  12  727.43   44.50
  -1   2 -12  686.13   44.30
   1   2  12  711.03   44.80
  -1   2 -12  624.24   50.19
   2  -2  12  607.54   40.10
  -2  -2 -12  698.23   39.70
  -2  -2 -12  649.14   41.60
   2  -2  12  657.73   40.20
   2  -2  12  667.13   39.50
  -2   2 -12  618.24   40.40
   2   2  12  638.24   40.30
  -2   2 -12  577.54   39.60
  -2   2 -12  646.24   41.30
   2   2  12  608.24   39.90
   2   2  12  615.54   39.60
   3  -2  12  141.39   12.40
  -3  -2 -12  127.29   15.70
   3  -2  12  156.58   12.20
  -3  -2 -12  163.38   13.20
   3  -2  12  152.98   12.70
  -3   2 -12  139.79   12.80
   3   2  12  138.19   12.50
   3   2  12  131.39   11.60
   3   2  12  129.09   12.50
  -3   2 -12  145.09   16.00
  -3   2 -12  127.89   13.30
  -4  -2 -12  233.08   22.40
   4  -2  12  235.78   19.30
   4  -2  12  221.28   18.80
  -4  -2 -12  244.68   20.30
  -4   2 -12  267.27   20.00
   4   2  12  277.77   20.20
  -4   2 -12  227.58   22.60
   4   2  12  263.77   19.70
  -4   2 -12  253.27   20.70
   5  -2  12  229.58   19.50
   5  -2  12  234.98   19.30
  -5  -2 -12  292.37   24.10
  -5  -2 -12  214.98   21.20
  -5   2 -12  235.48   21.50
   5   2  12  246.68   20.60
   5   2  12  175.08   18.90
  -5   2 -12  262.57   21.80
  -6  -2 -12   13.10   11.10
   6  -2  12   15.20    6.90
   6  -2  12   17.20    7.20
  -6  -2 -12    7.10    9.90
   6   2  12    2.60    7.70
  -6   2 -12    5.80   10.20
  -6   2 -12    7.80    9.40
   8  -3 -12  251.07   19.80
   8  -3 -12  244.68   22.10
  -8  -3  12  258.67   26.40
  -8  -3  12  250.27   22.60
  -8   3  12  269.37   30.50
   8   3 -12  261.77   25.60
  -8   3  12  230.88   22.00
   7  -3 -12  180.18   14.60
   7  -3 -12  153.98   16.40
  -7  -3  12  173.08   17.00
  -7  -3  12  157.28   19.50
   7   3 -12  185.18   21.00
  -7   3  12  200.48   24.10
  -7   3  12  169.68   17.10
  -6  -3  12  294.57   21.50
   6  -3 -12  305.57   22.10
  -6  -3  12  270.37   23.30
   6  -3 -12  288.37   20.40
   6  -3 -12  268.57   21.20
  -6   3  12  302.47   22.60
   6   3 -12  302.87   22.00
   6   3 -12  299.17   27.10
   5  -3 -12  217.68   16.60
  -5  -3  12  204.48   18.30
  -5  -3  12  212.18   16.60
   5  -3 -12  197.98   17.20
   5   3 -12  248.28   23.50
  -5   3  12  241.78   18.00
  -5   3  12  213.28   16.70
   5   3 -12  224.18   17.20
  -4  -3  12   56.59    8.00
   4  -3 -12   65.49    7.20
  -4  -3  12   54.89    6.80
  -4   3  12   38.40    7.20
   4   3 -12   39.90   10.90
   4   3 -12   47.40    7.50
  -4   3  12   35.80    6.20
   3  -3 -12  255.07   17.10
  -3  -3  12  265.27   18.40
   3   3 -12  224.28   16.40
   3   3 -12  199.48   22.80
  -3   3  12  230.98   17.10
   3   3 -12  236.08   17.80
  -3   3  12  234.68   17.60
  -2   3  12   14.90    4.60
  -2   3  12   13.90    4.20
   2   3 -12   13.00    3.90
   2   3 -12   14.20    8.60
  -2   3  12   16.00    4.60
   2   3 -12   14.50    4.70
   1  -3 -12  632.24   39.60
  -1  -3  12  610.74   38.80
   1  -3 -12  615.74   39.70
  -1  -3  12  642.34   40.60
   1   3 -12  675.23   39.80
   1   3 -12  625.64   40.60
  -1   3  12  639.04   40.10
  -1   3  12  630.24   40.10
  -1   3  12  650.23   40.20
   0  -3  12  995.20   59.99
   0  -3 -12  952.00   59.09
   0  -3 -12 1011.40   59.79
   0  -3  12  973.40   58.69
   0   3 -12  783.82   63.29
   0   3 -12  988.70   60.19
   0   3  12  958.80   59.49
   0   3  12  947.31   59.49
   0   3  12  990.30   59.59
   0   3 -12  984.90   59.09
   0   3 -12 1015.70   59.99
  -1  -3 -12  432.76   28.00
   1  -3  12  397.46   26.80
   1  -3  12  417.86   26.00
   1   3  12  387.66   26.40
  -1   3 -12  377.26   26.00
   1   3  12  382.76   26.20
  -1   3 -12  391.46   27.50
   1   3  12  382.66   26.30
  -1   3 -12  390.26   26.90
   2  -3  12  290.17   21.70
  -2  -3 -12  321.27   24.20
   2  -3  12  305.77   21.60
  -2   3 -12  306.97   21.30
   2   3  12  302.67   21.80
  -2   3 -12  306.27   22.40
   2   3  12  300.07   21.50
   2   3  12  320.17   21.50
  -2   3 -12  304.07   23.20
  -3  -3 -12    0.10    8.60
   3  -3  12    1.30    4.40
   3  -3  12    4.40    4.80
  -3   3 -12    7.10    5.40
   3   3  12    5.30    5.10
   3   3  12    4.80    4.60
  -3   3 -12   12.30    7.80
  -3   3 -12    2.10    6.00
   3   3  12    7.40    4.50
  -4  -3 -12  157.68   17.60
   4  -3  12  136.79   14.30
   4  -3  12  131.19   13.60
  -4   3 -12  156.78   15.50
  -4   3 -12  166.48   16.60
  -4   3 -12  127.79   16.40
   4   3  12  152.58   14.80
   4   3  12  163.38   14.20
  -5  -3 -12   39.40   10.30
   5  -3  12   38.30    7.70
   5  -3  12   36.70    8.40
  -5  -3 -12   49.20   12.30
  -5   3 -12   37.00   10.00
   5   3  12   37.60    9.10
   5   3  12   35.40    7.80
  -5   3 -12   28.30    9.80
  -6  -3 -12  157.08   16.80
  -6  -3 -12  179.48   21.20
   6  -3  12  185.88   16.30
   6  -3  12  160.28   16.10
  -6   3 -12  148.19   18.20
   6   3  12  134.79   17.60
  -6   3 -12  127.79   17.80
  -7  -4  12    5.70    8.60
   7  -4 -12   12.80    6.90
  -7  -4  12    2.90    7.10
  -7  -4  12    2.30    9.80
   7  -4 -12    6.40    5.20
  -7   4  12    0.30    7.60
   7   4 -12    2.90    5.90
   6  -4 -12  151.08   14.70
  -6  -4  12  136.19   16.70
   6  -4 -12  150.48   13.60
  -6  -4  12  149.09   15.10
  -6   4  12  170.48   16.90
   6   4 -12  172.78   15.50
   6   4 -12  170.78   22.60
   5  -4 -12  170.38   15.80
  -5  -4  12  174.28   15.80
   5  -4 -12  193.48   16.50
  -5  -4  12  177.08   17.30
   5   4 -12  207.18   16.90
  -5   4  12  203.58   17.50
  -5   4  12  192.28   16.20
   5   4 -12  203.28   24.70
  -4  -4  12  323.87   24.90
  -4  -4  12  312.67   23.70
   4  -4 -12  342.87   23.90
   4   4 -12  403.46   34.20
   4   4 -12  362.56   25.20
  -4   4  12  347.67   24.90
   3  -4 -12  351.66   23.60
  -3  -4  12  354.46   23.60
  -3  -4  12  355.26   24.40
  -3   4  12  318.77   23.90
   3   4 -12  317.07   24.20
   3   4 -12  304.17   31.70
  -3   4  12  332.77   23.50
  -3   4  12  335.37   23.90
   3   4 -12  334.77   22.80
  -2  -4  12  436.86   28.10
   2  -4 -12  439.16   27.30
  -2   4  12  386.66   27.20
  -2   4  12  379.66   27.50
   2   4 -12  392.66   26.60
   2   4 -12  387.36   27.90
  -2   4  12  394.26   27.50
   1  -4 -12  255.17   18.40
  -1  -4  12  267.27   19.20
   1  -4 -12  261.37   18.30
   1   4 -12  237.18   19.10
   1   4 -12  253.97   18.00
  -1   4  12  242.98   18.40
  -1   4  12  241.48   18.50
   1   4 -12  219.48   24.50
  -1   4  12  229.88   18.60
   0  -4  12   86.99    8.30
   0  -4  12   82.89   10.40
   0  -4 -12   86.29   10.40
   0  -4 -12   82.49    9.30
   0   4 -12   93.69   10.90
   0   4  12   83.19    9.40
   0   4 -12   85.79   10.90
   0   4  12   80.39    9.70
   0   4 -12   84.59    9.70
   0   4  12   81.79    9.40
  -1  -4 -12  305.77   25.10
   1  -4  12  301.87   21.80
   1  -4  12  301.47   23.00
   1   4  12  325.57   22.60
   1   4  12  331.57   22.90
   1   4  12  328.27   22.60
  -1   4 -12  307.87   22.00
  -1   4 -12  335.37   24.30
  -1   4 -12  317.57   23.30
   2  -4  12  214.98   16.90
   2  -4  12  241.88   17.00
  -2  -4 -12  234.08   20.80
  -2   4 -12  190.98   16.30
  -2   4 -12  206.08   18.90
  -2   4 -12  190.38   17.40
   2   4  12  185.08   16.30
   2   4  12  211.78   17.10
   2   4  12  172.38   16.10
   3  -4  12  388.06   27.40
  -3  -4 -12  409.56   31.00
   3  -4  12  383.96   27.40
  -3   4 -12  388.96   27.00
  -3   4 -12  369.66   29.70
  -3   4 -12  379.46   28.00
   3   4  12  392.76   27.30
   3   4  12  387.06   27.00
   3   4  12  321.87   26.70
   4  -4  12   58.89    9.70
   4  -4  12   80.19   11.10
  -4  -4 -12   63.59   13.70
  -4   4 -12   73.39   10.70
   4   4  12   73.09   10.20
   4   4  12   62.89   10.20
  -4   4 -12   72.79   11.80
   5  -4  12  130.59   14.20
  -5  -4 -12  134.99   17.60
  -5   4 -12  109.89   16.00
   5   4  12  128.89   15.30
  -5   4 -12  123.99   14.90
   5   4  12  117.29   15.10
  -6  -5  12   88.39   12.60
   6  -5 -12  100.29   11.50
   6  -5 -12   97.49   11.00
  -6  -5  12   94.89   11.70
   6   5 -12   85.39   12.60
  -6   5  12   79.29   12.60
   5  -5 -12   50.79    8.60
  -5  -5  12   50.49    8.90
  -5  -5  12   49.00    9.60
  -5   5  12   64.59   10.80
   5   5 -12   55.19    9.80
  -5   5  12   30.70    8.20
  -4  -5  12   43.20    8.20
  -4  -5  12   35.10    8.50
   4  -5 -12   42.30    7.90
  -4   5  12   44.80    8.50
  -4   5  12   51.79    9.60
   4   5 -12   53.09    9.50
  -3  -5  12   64.29    9.10
   3  -5 -12   58.39    8.70
  -3  -5  12   58.49    9.20
  -3   5  12   64.49    9.90
   3   5 -12   61.39    8.00
   3   5 -12   58.79    9.70
  -3   5  12   60.19    9.20
  -3   5  12   59.89    9.20
   2  -5 -12  177.88   15.60
  -2  -5  12  154.18   15.60
  -2   5  12  166.58   15.90
   2   5 -12  172.98   16.30
   2   5 -12  172.48   14.20
  -2   5  12  168.48   15.70
  -2   5  12  174.98   15.40
  -1  -5  12  458.65   33.50
   1  -5 -12  453.95   32.80
  -1   5  12  506.75   33.40
   1   5 -12  513.45   34.60
  -1   5  12  509.75   33.40
   1   5 -12  507.45   32.50
  -1   5  12  487.65   33.60
   0  -5 -12   37.00    7.60
   0  -5 -12   43.40    9.20
   0  -5  12   37.80    7.70
   0   5 -12   35.70    8.00
   0   5  12   44.50    7.80
   0   5  12   31.70    7.60
   0   5 -12   44.70    7.40
   0   5  12   36.50    7.40
   0   5 -12   36.50    8.90
   1  -5  12  122.09   13.00
   1  -5  12  111.39   10.80
  -1  -5 -12  100.39   13.60
  -1   5 -12   97.39   13.40
   1   5  12   99.59   11.60
   1   5  12   97.39   12.10
  -1   5 -12   98.09   12.00
  -1   5 -12   96.89   10.80
   1   5  12   86.99   10.90
  -2  -5 -12  266.97   26.10
   2  -5  12  272.87   22.50
   2  -5  12  303.17   22.10
  -2   5 -12  293.47   22.10
  -2   5 -12  286.97   23.10
  -2   5 -12  307.77   25.70
   2   5  12  295.57   22.50
   2   5  12  290.07   22.30
   3  -5  12   14.10    6.60
   3  -5  12   18.90    7.20
  -3  -5 -12   18.10   11.80
  -3   5 -12   16.60    7.10
   3   5  12   14.20    6.70
   3   5  12   15.90    6.50
  -3   5 -12   18.60    8.20
  -4  -5 -12  159.58   19.50
   4  -5  12  133.49   15.50
   4  -5  12  115.09   14.10
  -4   5 -12  138.19   14.80
  -4   5 -12  117.49   15.70
   4   5  12  138.49   15.50
   4   5  12  137.89   15.30
  -4  -6  12  112.69   12.90
  -4  -6  12   99.49   13.20
   4  -6 -12  107.79   12.50
   4   6 -12  127.49   15.40
  -4   6  12  109.79   14.40
  -4   6  12  102.69   12.90
  -3  -6  12   85.09   11.30
   3  -6 -12   83.19   11.00
  -3  -6  12   82.29   11.60
  -3   6  12   74.89   11.70
  -3   6  12   94.59   11.90
   3   6 -12   86.99   12.70
  -3   6  12   91.09   11.80
  -2  -6  12  234.98   20.60
   2  -6 -12  266.07   20.70
  -2  -6  12  239.08   21.00
  -2   6  12  248.78   21.40
  -2   6  12  223.78   20.10
   2   6 -12  249.68   22.00
  -2   6  12  242.68   20.70
   2   6 -12  227.98   19.00
  -1  -6  12    2.90    6.60
   1  -6 -12    9.60    6.80
  -1   6  12   -0.30    6.00
   1   6 -12    7.20    5.70
   1   6 -12   -2.30    7.00
  -1   6  12    3.10    6.20
  -1   6  12    1.40    6.50
   0  -6  12   12.60    7.00
   0  -6 -12   13.40    7.20
   0   6  12   17.40    7.60
   0   6 -12   27.60   10.10
   0   6 -12   26.00    8.20
   0   6  12   28.40    7.70
   0   6  12   19.90    7.20
   0   6 -12   19.60    6.70
  -1  -6 -12   28.10   11.30
   1  -6  12   24.20    7.80
  -1  -6 -12   23.30    7.70
  -1   6 -12   32.70    7.80
  -1   6 -12   33.70    8.80
   1   6  12   25.60    7.70
   1   6  12   38.70    8.40
  -1   6 -12   40.10   11.00
  -2  -6 -12   56.59   13.90
   2  -6  12   56.49   10.00
  -2   6 -12   55.49   11.90
   2   6  12   44.30    9.40
   2   6  12   57.69    9.80
  -2   6 -12   48.50    8.90
   9   0 -13  125.69   15.10
  -9   0  13  126.39   20.30
   8   0 -13  441.06   33.30
   8   0 -13  433.16   31.70
  -8   0  13  418.96   36.90
  -7   0  13    4.70    9.90
   7   0 -13   -0.70    6.00
   7   0 -13    0.40    5.80
   6   0 -13  121.59   13.50
  -6   0  13  127.79   16.40
   6   0 -13  126.49   14.30
   5   0 -13   55.69    8.80
   5   0 -13   44.20    7.40
  -5   0  13   53.19    9.10
  -5   0  13   53.99    6.40
  -4   0  13  338.97   23.90
   4   0 -13  351.46   22.20
  -4   0  13  350.96   22.30
   4   0 -13  311.87   24.10
   4   0 -13  334.87   22.80
  -3   0  13 2515.95  149.49
   3   0 -13 2451.45  151.18
   3   0 -13 2597.54  149.59
   3   0 -13 2495.95  149.39
   2   0 -13  240.38   17.60
  -2   0  13  216.48   16.00
   2   0 -13  219.08   15.30
  -2   0  13  226.68   15.60
   2   0 -13  240.18   16.00
  -1   0  13  143.29    9.90
   1   0 -13  135.79   10.90
  -1   0  13  127.09   10.40
   1   0 -13  155.98   12.80
   1   0 -13  135.09    9.80
  -1   0  13  129.99   10.30
   0   0 -13  397.26   24.80
   0   0  13  367.06   25.10
   0   0 -13  433.16   27.50
   0   0 -13  383.06   25.80
   0   0  13  382.36   25.30
   0   0  13  416.66   25.00
   1   0  13  106.09    9.60
   1   0  13  117.59    9.10
   1   0  13  108.49    9.20
  -1   0 -13  118.59    9.50
  -1   0 -13  122.99   11.90
  -1   0 -13  123.99   11.20
  -2   0 -13  557.34   36.30
   2   0  13  553.34   34.90
  -2   0 -13  543.15   34.30
   2   0  13  526.75   34.20
  -2   0 -13  545.75   36.00
   3   0  13  566.74   36.20
   3   0  13  538.45   35.60
  -3   0 -13  557.94   37.90
  -3   0 -13  559.94   35.90
   4   0  13   14.90    5.90
   4   0  13   14.40    5.30
  -4   0 -13   11.60    9.40
  -4   0 -13   20.00    7.10
   5   0  13   41.70    8.60
  -5   0 -13   41.40   12.00
   5   0  13   35.00    7.80
  -5   0 -13   34.30    9.60
  -6   0 -13  271.07   26.20
  -6   0 -13  359.66   28.10
   6   0  13  260.37   23.90
   6   0  13  304.77   24.00
   9  -1 -13   27.30    8.80
   9   1 -13   30.50    8.60
  -9   1  13   21.80   14.10
   9   1 -13   24.00    9.00
  -8  -1  13  255.27   26.50
   8  -1 -13  211.78   26.00
   8  -1 -13  183.68   19.70
   8   1 -13  226.28   19.80
  -8   1  13  235.88   26.40
   8   1 -13  225.18   21.90
  -7  -1  13  359.26   31.70
   7  -1 -13  372.16   29.10
   7  -1 -13  324.77   28.30
   7   1 -13  423.36   31.30
  -7   1  13  418.16   33.80
   7   1 -13  487.65   29.70
   6  -1 -13  142.29   13.90
  -6  -1  13  159.38   16.70
   6  -1 -13  150.38   15.10
  -6   1  13  159.28   19.60
  -6   1  13  161.78   13.20
   6   1 -13  159.18   15.20
   6   1 -13  137.99   16.00
   5  -1 -13  385.76   28.80
   5  -1 -13  392.66   27.60
  -5  -1  13  390.06   29.30
  -5   1  13  419.06   27.60
   5   1 -13  451.15   27.50
   5   1 -13  431.36   30.70
  -5   1  13  423.46   31.50
   5   1 -13  463.95   29.90
   4  -1 -13  628.44   41.70
  -4  -1  13  677.33   41.90
  -4  -1  13  644.24   40.10
  -4  -1  13  664.53   40.00
  -4   1  13  565.94   42.30
   4   1 -13  648.34   43.50
  -4   1  13  689.33   41.20
  -4   1  13  660.73   40.80
   4   1 -13  661.73   40.70
  -3  -1  13   15.40    4.70
   3  -1 -13   16.20    5.10
  -3  -1  13   18.50    3.60
   3  -1 -13   23.70    4.10
  -3  -1  13   16.80    3.60
   3  -1 -13   18.40    3.80
  -3   1  13   14.60    4.80
  -3   1  13   20.20    4.60
   3   1 -13   17.90    3.40
   3   1 -13   19.20    4.50
  -3   1  13   18.20    3.60
   3   1 -13   19.30    6.50
  -2  -1  13  737.83   45.10
   2  -1 -13  730.13   45.10
   2  -1 -13  667.53   44.70
   2  -1 -13  691.53   46.30
  -2  -1  13  715.03   45.90
   2   1 -13  746.23   45.70
  -2   1  13  761.72   45.60
  -2   1  13  751.52   45.20
   2   1 -13  765.92   44.90
   2   1 -13  802.32   48.50
  -2   1  13  763.62   46.00
  -1  -1  13  225.88   15.80
   1  -1 -13  244.78   17.40
   1  -1 -13  232.08   15.50
   1  -1 -13  242.18   16.20
   1   1 -13  224.78   16.60
   1   1 -13  256.97   19.40
  -1   1  13  225.38   16.20
   1   1 -13  233.98   15.70
  -1   1  13  234.48   15.60
  -1   1  13  234.38   15.90
   0  -1  13   91.39    8.70
   0  -1 -13  110.69    9.90
   0  -1  13  103.39    8.60
   0   1 -13  109.79   12.10
   0   1  13  105.49    8.90
   0   1  13  101.09    9.10
   0   1  13  111.79    8.90
   0   1 -13  103.99    8.80
   0   1 -13  108.39   10.10
  -1  -1 -13  712.33   45.50
   1  -1  13  660.83   46.20
   1  -1  13  706.93   45.50
   1  -1  13  680.63   46.10
  -1  -1 -13  719.23   47.00
   1   1  13  787.72   46.30
  -1   1 -13  784.82   49.10
  -1   1 -13  792.92   46.60
  -1   1 -13  779.32   46.10
   1   1  13  816.22   46.70
  -1   1 -13  830.12   47.50
  -2  -1 -13  624.24   40.30
   2  -1  13  612.24   38.90
   2  -1  13  613.14   38.30
  -2  -1 -13  613.64   38.30
   2  -1  13  614.94   38.90
  -2   1 -13  599.94   38.90
   2   1  13  641.24   39.30
   2   1  13  616.24   38.70
  -2   1 -13  583.44   38.40
  -2   1 -13  640.04   40.30
   3  -1  13   28.30    5.70
  -3  -1 -13   26.70    8.70
   3  -1  13   31.20    6.20
  -3  -1 -13   35.70    6.50
   3  -1  13   28.60    5.40
  -3   1 -13   44.90    7.00
  -3   1 -13   52.39    9.70
   3   1  13   53.79    7.60
   3   1  13   54.89    7.00
  -3   1 -13   48.70    7.20
  -4  -1 -13  132.69   16.00
   4  -1  13  123.19   13.40
  -4  -1 -13  138.89   14.30
   4  -1  13  137.49   13.00
   4   1  13  143.59   13.40
   4   1  13  137.69   13.80
  -4   1 -13  151.38   14.80
  -4   1 -13  147.69   16.30
   5  -1  13  125.49   13.90
   5  -1  13  117.19   13.30
  -5  -1 -13  130.19   14.50
  -5  -1 -13  151.78   17.10
  -5   1 -13  125.39   14.60
  -5   1 -13  102.79   16.10
   5   1  13  125.69   14.20
   5   1  13  139.09   15.00
   6  -1  13   17.30    7.40
  -6  -1 -13   -2.80    9.70
   6  -1  13    5.50    6.70
  -6  -1 -13    6.50   10.70
  -6   1 -13    5.70   11.40
   6   1  13   11.10    7.70
   6   1  13    5.00    7.00
  -6   1 -13    5.00   10.10
  -8  -2  13  223.98   25.60
   8  -2 -13  205.08   21.30
  -8   2  13  289.17   27.90
   8   2 -13  234.68   23.70
   8   2 -13  261.97   22.60
  -7  -2  13   64.49   12.40
   7  -2 -13   76.59   10.70
   7  -2 -13   67.09   10.00
  -7   2  13   74.29   10.20
   7   2 -13   69.59   12.60
   7   2 -13   64.39   12.60
  -7   2  13   78.09   15.40
   6  -2 -13   54.69    7.30
   6  -2 -13   52.69    7.90
  -6  -2  13   48.20    9.80
  -6  -2  13   49.90    7.50
   6  -2 -13   46.20    8.50
  -6   2  13   48.90   12.70
  -6   2  13   41.30    7.90
   6   2 -13   38.40   10.30
  -5  -2  13   85.79   10.50
   5  -2 -13   80.19    9.70
   5  -2 -13   82.69    9.10
  -5  -2  13   73.29    7.90
  -5   2  13   83.19   13.60
  -5   2  13   65.19    8.70
   5   2 -13   73.29   13.00
  -5   2  13   59.29    7.70
   5   2 -13   68.29    8.50
   4  -2 -13  314.07   24.80
  -4  -2  13  344.67   25.60
   4  -2 -13  341.57   23.90
  -4   2  13  400.66   29.90
   4   2 -13  393.46   29.50
  -4   2  13  387.46   24.20
  -4   2  13  388.06   24.90
   4   2 -13  379.36   24.80
   3  -2 -13 1050.09   61.69
  -3  -2  13 1077.89   63.09
   3  -2 -13 1011.70   62.79
  -3   2  13 1011.30   62.39
   3   2 -13  965.80   61.39
   3   2 -13 1003.60   62.49
  -3   2  13  963.70   61.79
   3   2 -13 1052.09   66.89
   2  -2 -13  693.73   42.40
  -2  -2  13  727.53   42.40
  -2  -2  13  701.03   43.70
   2   2 -13  696.93   47.80
  -2   2  13  676.93   43.30
   2   2 -13  673.73   42.50
  -2   2  13  693.93   43.00
  -2   2  13  678.03   42.90
   2   2 -13  685.93   43.50
  -1  -2  13  141.79   10.30
  -1  -2  13  137.69   11.60
   1  -2 -13  137.49   10.70
   1  -2 -13  149.39   11.20
   1   2 -13  127.69   15.70
   1   2 -13  133.49   11.60
  -1   2  13  139.19   11.00
  -1   2  13  132.89   11.20
  -1   2  13  131.69   11.00
   1   2 -13  140.79   10.80
   0  -2  13  116.99   10.00
   0  -2  13  121.09   11.10
   0  -2 -13  115.29   11.50
   0  -2 -13  109.49   10.30
   0   2 -13  105.09   14.40
   0   2  13  153.08   10.90
   0   2 -13  142.39   11.00
   0   2 -13  153.68   11.90
   0   2  13  153.98   11.20
   0   2  13  148.59   11.20
   0   2 -13  148.29   12.10
   1  -2  13   60.49    8.20
  -1  -2 -13   54.49    8.70
   1  -2  13   77.09    8.10
   1   2  13   80.19    7.70
  -1   2 -13   87.59    8.60
  -1   2 -13   88.29    9.40
  -1   2 -13   84.59   10.20
   1   2  13   87.59    8.80
   1   2  13   83.49    8.40
   2  -2  13  180.88   14.00
   2  -2  13  180.58   13.80
  -2  -2 -13  188.98   16.80
   2   2  13  154.88   13.60
   2   2  13  170.78   14.20
  -2   2 -13  166.78   13.80
  -2   2 -13  161.68   14.60
  -2   2 -13  186.48   16.20
   2   2  13  173.18   13.20
  -3  -2 -13  274.07   21.30
  -3  -2 -13  231.48   22.90
   3  -2  13  276.87   20.00
   3  -2  13  251.57   20.30
   3  -2  13  261.17   20.60
   3   2  13  290.87   20.60
  -3   2 -13  310.37   20.80
  -3   2 -13  303.37   21.60
   3   2  13  313.37   21.30
  -3   2 -13  307.77   23.40
   4  -2  13   45.70    8.20
   4  -2  13   44.80    8.50
   4  -2  13   51.39    8.10
  -4  -2 -13   48.10   11.60
  -4  -2 -13   40.10    8.90
   4   2  13   65.69    9.40
  -4   2 -13   68.29   10.20
  -4   2 -13   56.09   11.80
   4   2  13   62.99    9.40
  -4   2 -13   55.09    9.10
   5  -2  13  121.99   13.20
  -5  -2 -13  124.29   14.10
  -5  -2 -13  153.38   17.00
   5  -2  13  127.49   13.80
  -5   2 -13   76.99   15.30
   5   2  13   96.79   13.10
  -5   2 -13  114.09   14.00
  -5   2 -13  110.39   14.40
   5   2  13  113.29   13.80
   6  -2  13  263.37   21.30
  -6  -2 -13  225.48   23.80
   6  -2  13  251.97   20.90
  -6  -2 -13  281.27   25.30
  -6   2 -13  231.38   24.60
   6   2  13  214.18   22.60
  -8  -3  13  173.38   22.70
   8  -3 -13  171.38   19.30
  -8  -3  13  194.88   19.30
  -8   3  13  272.27   29.10
   8   3 -13  230.08   23.60
  -8   3  13  204.58   19.60
   7  -3 -13  213.58   17.40
  -7  -3  13  223.58   19.40
  -7  -3  13  211.98   22.00
   7  -3 -13  215.78   19.50
  -7   3  13  249.08   20.30
   7   3 -13  243.28   24.50
  -7   3  13  262.07   28.70
   6  -3 -13  364.46   25.90
  -6  -3  13  384.06   26.10
   6  -3 -13  378.76   26.90
   6  -3 -13  361.36   24.90
  -6  -3  13  379.46   28.30
   6   3 -13  354.56   31.60
  -6   3  13  370.86   27.10
   6   3 -13  364.66   26.30
  -5  -3  13  173.28   16.40
   5  -3 -13  175.28   15.60
   5  -3 -13  188.88   14.80
  -5  -3  13  177.18   14.60
   5   3 -13  161.88   20.50
   5   3 -13  168.38   14.90
  -5   3  13  162.68   14.30
  -5   3  13  162.58   15.30
  -4  -3  13  415.76   26.90
   4  -3 -13  426.46   28.00
   4  -3 -13  443.16   27.20
  -4  -3  13  425.36   28.60
   4   3 -13  391.36   27.80
  -4   3  13  396.26   27.90
   4   3 -13  345.57   33.00
  -4   3  13  380.86   27.00
   3  -3 -13   26.50    5.40
  -3  -3  13   24.60    5.60
  -3  -3  13   24.60    6.10
  -3   3  13   32.70    6.30
   3   3 -13   34.00    6.50
   3   3 -13   27.50   10.20
   3   3 -13   27.40    4.90
  -3   3  13   23.00    5.20
   2  -3 -13  371.16   22.40
   2  -3 -13  386.16   22.10
  -2  -3  13  378.06   23.40
  -2   3  13  307.37   22.20
  -2   3  13  303.87   22.20
  -2   3  13  298.87   22.40
   2   3 -13  291.97   21.60
   2   3 -13  243.28   27.70
   2   3 -13  309.67   22.80
   1  -3 -13  357.36   24.50
  -1  -3  13  343.57   25.20
  -1  -3  13  339.67   23.50
   1  -3 -13  367.26   24.60
   1   3 -13  399.46   25.70
  -1   3  13  374.86   24.90
  -1   3  13  402.86   25.20
  -1   3  13  374.46   25.10
   1   3 -13  380.16   24.50
   0  -3  13  109.29    9.80
   0  -3  13  118.89   11.60
   0  -3 -13  126.19   12.40
   0  -3 -13  106.69   10.80
   0   3 -13  134.49   11.20
   0   3  13  132.69   11.60
   0   3 -13  127.69   12.40
   0   3 -13  120.49   16.10
   0   3 -13  131.29   12.30
   0   3  13  136.79   11.50
   0   3  13  138.69   11.30
   1  -3  13  310.27   21.20
   1  -3  13  335.97   20.20
  -1  -3 -13  320.57   22.30
  -1   3 -13  285.47   20.20
  -1   3 -13  262.67   21.00
   1   3  13  267.27   20.10
   1   3  13  270.57   20.20
  -1   3 -13  269.57   21.50
   1   3  13  267.97   20.30
   2  -3  13  246.68   19.20
  -2  -3 -13  226.28   21.50
   2  -3  13  270.27   18.90
   2   3  13  247.98   19.00
   2   3  13  251.77   19.40
  -2   3 -13  254.97   18.90
  -2   3 -13  269.37   21.20
  -2   3 -13  261.57   20.00
   2   3  13  268.97   18.90
  -3  -3 -13  107.59   14.40
   3  -3  13  106.89   11.90
   3  -3  13  110.49   11.80
  -3   3 -13  106.69   13.10
  -3   3 -13  112.19   12.50
   3   3  13  107.99   12.50
   3   3  13  125.29   12.30
  -3   3 -13  105.59   14.20
   3   3  13  116.49   11.50
  -4  -3 -13   23.30   11.50
   4  -3  13   22.90    6.90
   4  -3  13   21.20    7.00
   4   3  13   20.40    7.10
  -4   3 -13   25.90    8.80
  -4   3 -13   40.40    8.50
   4   3  13   32.00    7.80
  -4   3 -13   15.20    9.90
   4   3  13   29.70    6.80
   5  -3  13  115.79   15.10
   5  -3  13  128.89   13.90
  -5  -3 -13  125.49   16.40
  -5   3 -13   96.59   13.50
   5   3  13   88.59   13.00
  -5   3 -13   84.79   14.10
  -7  -4  13  121.79   16.10
  -7  -4  13  130.49   14.20
   7  -4 -13  141.59   13.60
   7  -4 -13  137.49   15.30
   7   4 -13  159.38   15.60
  -7   4  13  158.88   16.50
  -6  -4  13   47.00    8.40
   6  -4 -13   40.50   10.00
   6  -4 -13   40.60    7.20
   6  -4 -13   38.20    8.00
  -6  -4  13   44.80    9.90
   6   4 -13   56.39   14.60
  -6   4  13   64.29   10.70
   6   4 -13   66.29   10.00
   5  -4 -13  214.28   18.20
   5  -4 -13  214.28   17.50
  -5  -4  13  212.88   19.30
  -5  -4  13  219.38   17.60
   5   4 -13  224.98   26.50
   5   4 -13  200.78   18.20
  -5   4  13  230.78   18.80
  -4  -4  13  348.07   24.00
   4  -4 -13  364.86   24.00
  -4  -4  13  349.57   25.30
  -4   4  13  324.57   24.80
   4   4 -13  324.77   24.90
  -4   4  13  312.07   24.00
   4   4 -13  351.76   33.60
   3  -4 -13  523.75   34.60
  -3  -4  13  579.84   35.00
  -3  -4  13  558.44   35.80
   3   4 -13  515.05   34.10
  -3   4  13  513.65   35.30
   3   4 -13  545.55   35.90
   3   4 -13  445.46   42.80
   2  -4 -13  187.18   14.70
  -2  -4  13  170.78   15.10
  -2   4  13  153.28   14.40
   2   4 -13  171.48   15.10
   2   4 -13  108.89   20.10
  -2   4  13  168.08   14.30
   2   4 -13  163.88   13.50
  -2   4  13  175.68   14.70
   1  -4 -13  268.37   19.00
   1  -4 -13  287.07   19.70
  -1  -4  13  277.07   20.40
  -1   4  13  261.17   19.80
   1   4 -13  261.47   18.90
  -1   4  13  263.77   19.60
  -1   4  13  255.87   19.60
   1   4 -13  254.17   20.40
   1   4 -13  212.58   25.30
   0  -4 -13   39.00    8.00
   0  -4 -13   32.70    6.80
   0  -4  13   45.30    5.80
   0  -4  13   34.20    6.90
   0   4 -13   47.70    7.00
   0   4  13   43.00    7.40
   0   4  13   41.30    6.80
   0   4  13   45.00    7.10
   0   4 -13   39.80    8.00
   0   4 -13   46.40    7.90
   1  -4  13  112.49   10.20
   1  -4  13  107.89   11.80
  -1  -4 -13  123.59   14.60
  -1   4 -13  102.09   11.10
   1   4  13   87.69   10.80
   1   4  13   88.19   10.40
  -1   4 -13   92.19   12.20
   1   4  13   93.99   11.00
  -1   4 -13  113.39   13.20
  -2  -4 -13   96.29   13.80
   2  -4  13  107.19   11.40
   2  -4  13  104.19   12.10
  -2   4 -13  105.79   13.30
   2   4  13  108.59   11.70
  -2   4 -13  104.79   12.00
  -2   4 -13  111.79   14.20
   2   4  13  105.99   12.10
   2   4  13  105.19   11.60
   3  -4  13  143.39   14.10
  -3  -4 -13  143.99   17.50
   3  -4  13  135.89   14.30
   3   4  13  126.89   13.40
  -3   4 -13  112.09   15.60
   3   4  13  125.39   14.10
  -3   4 -13  130.69   15.40
  -3   4 -13  140.79   14.40
  -4  -4 -13  147.09   18.50
   4  -4  13  149.19   16.20
   4  -4  13  148.99   15.90
   4   4  13  162.38   15.70
  -4   4 -13  155.98   18.00
  -4   4 -13  156.98   16.90
   4   4  13  175.68   16.90
  -6  -5  13  361.96   27.70
   6  -5 -13  339.77   25.00
   6  -5 -13  315.07   29.10
  -6  -5  13  336.67   26.00
   6   5 -13  365.76   27.60
  -6   5  13  342.27   32.80
   5  -5 -13  125.19   14.20
  -5  -5  13  112.19   13.10
  -5  -5  13  126.79   15.80
  -5   5  13  138.99   14.70
   5   5 -13  155.48   15.50
  -5   5  13  140.39   15.40
  -4  -5  13   28.60    8.00
   4  -5 -13   26.60    7.10
  -4  -5  13   25.40    7.40
   4   5 -13   12.50    7.00
  -4   5  13    9.40    6.70
  -4   5  13   11.60    7.90
  -3  -5  13    3.90    6.40
  -3  -5  13   -0.70    5.90
   3  -5 -13    0.70    5.70
   3   5 -13    2.60    5.90
   3   5 -13    1.90    4.60
  -3   5  13    1.40    6.30
  -3   5  13    2.10    5.80
  -3   5  13    2.80    5.90
   2  -5 -13   26.10    7.10
  -2  -5  13   26.10    7.30
   2   5 -13   25.30    7.50
   2   5 -13   27.00    6.20
  -2   5  13   18.30    7.00
  -2   5  13   19.50    6.60
  -2   5  13   21.80    6.80
   1  -5 -13  186.38   16.70
  -1  -5  13  185.08   17.20
  -1   5  13  187.18   16.80
   1   5 -13  194.08   17.80
   1   5 -13  190.58   15.80
  -1   5  13  181.88   16.60
  -1   5  13  183.18   16.40
   0  -5 -13  315.17   22.60
   0  -5 -13  304.77   24.10
   0  -5  13  304.57   23.10
   0   5 -13  274.57   23.90
   0   5  13  296.07   22.90
   0   5  13  300.47   22.60
   0   5  13  267.17   22.20
   0   5 -13  294.97   21.90
   0   5 -13  295.97   23.10
   1  -5  13   85.79   11.10
   1  -5  13   65.39    8.50
  -1  -5 -13   72.89   12.90
   1   5  13   71.29    9.70
  -1   5 -13   70.79    9.50
  -1   5 -13   71.89   12.10
   1   5  13   60.79    9.40
   1   5  13   64.49   10.50
  -1   5 -13   64.69   10.30
   2  -5  13  144.09   13.90
   2  -5  13  129.49   14.90
  -2  -5 -13  117.19   16.90
   2   5  13  156.88   14.50
  -2   5 -13  157.68   18.80
  -2   5 -13  148.69   14.60
  -2   5 -13  126.39   15.70
   2   5  13  136.49   14.80
   3  -5  13   56.49    9.50
  -3  -5 -13   61.99   14.10
   3  -5  13   54.19    9.40
   3   5  13   67.39   10.40
  -3   5 -13   38.50    8.90
  -3   5 -13   59.09   10.80
   3   5  13   53.89    9.50
   3  -6 -13   55.69    9.60
  -3  -6  13   68.49   10.80
  -3  -6  13   64.89   10.40
  -3   6  13   56.99   10.10
  -3   6  13   55.49   10.10
   3   6 -13   56.39   11.10
  -3   6  13   48.20   10.30
  -2  -6  13  192.58   17.90
   2  -6 -13  182.98   17.50
  -2  -6  13  201.08   18.30
  -2   6  13  157.68   16.90
  -2   6  13  120.99   16.00
   2   6 -13  166.88   18.20
  -2   6  13  175.08   17.10
   2   6 -13  170.18   15.60
  -1  -6  13  127.99   15.00
   1  -6 -13  116.49   12.90
  -1   6  13   87.19   12.60
  -1   6  13  109.89   13.00
   1   6 -13  109.39   12.00
  -1   6  13  120.89   14.10
   1   6 -13   93.89   14.10
   0  -6  13   12.30    7.00
   0  -6 -13   11.80    7.20
   0   6  13   16.20    7.20
   0   6 -13   10.50    8.40
   0   6  13   19.90    8.10
   0   6 -13   14.60    6.60
   0   6  13   13.90    7.00
  -1  -6 -13  101.89   12.20
  -1  -6 -13  100.19   15.00
   1  -6  13  103.69   14.00
  -1   6 -13   88.69   14.20
   1   6  13   90.89   12.00
  -1   6 -13   91.09   14.70
   1   6  13   81.99   13.00
  -1   6 -13   89.39   12.50
  -8   0  14  207.48   26.20
   8   0 -14  187.98   18.90
   8   0 -14  205.48   20.50
  -7   0  14  191.88   22.60
   7   0 -14  183.68   17.70
   7   0 -14  180.88   18.50
  -6   0  14   78.89   12.70
   6   0 -14   84.29   11.70
   5   0 -14  178.18   15.80
   5   0 -14  192.38   17.30
  -5   0  14  199.38   14.40
  -5   0  14  190.48   17.40
   4   0 -14   16.00    4.20
   4   0 -14   21.00    6.10
   4   0 -14   17.90    4.60
  -4   0  14   22.10    4.60
  -4   0  14   14.20    5.40
  -3   0  14    0.50    3.20
   3   0 -14    1.80    3.60
  -3   0  14    0.10    1.40
   3   0 -14    1.50    4.60
  -2   0  14 2076.99  125.39
  -2   0  14 2076.29  125.99
   2   0 -14 2191.78  127.39
   2   0 -14 2071.19  125.49
   1   0 -14  502.75   32.50
  -1   0  14  470.85   32.20
   1   0 -14  511.95   31.60
   1   0 -14  551.54   34.50
  -1   0  14  521.35   32.80
  -1   0  14  513.05   32.20
   0   0  14   50.19    6.20
   0   0 -14   55.79    8.50
   0   0 -14   53.39    5.60
   0   0  14   51.29    6.00
   0   0 -14   61.69    7.40
   0   0  14   46.30    5.40
   1   0  14   89.69    8.90
  -1   0 -14   90.49    8.50
  -1   0 -14   96.49   10.50
   1   0  14   89.39    8.10
  -1   0 -14  100.89   11.80
  -2   0 -14  180.18   13.90
  -2   0 -14  192.28   16.70
   2   0  14  176.48   13.50
   2   0  14  184.18   14.40
  -3   0 -14  433.16   31.40
   3   0  14  428.76   29.30
  -3   0 -14  427.56   28.80
   3   0  14  428.96   28.60
   4   0  14  365.66   25.50
   4   0  14  360.36   25.90
  -4   0 -14  332.27   28.40
  -4   0 -14  360.46   26.10
  -5   0 -14    0.30    8.50
   5   0  14   -2.70    6.00
   5   0  14    1.10    5.70
  -5   0 -14   -7.30   10.40
  -6   0 -14   -1.40   11.60
   6   0  14    7.40    7.20
  -6   0 -14    8.80   10.50
   6   0  14   -0.40    6.80
   8  -1 -14   17.30    8.00
  -8  -1  14   18.40   12.80
   8  -1 -14   14.60    7.80
  -8   1  14   19.10   12.50
   8   1 -14   18.90    7.90
   8   1 -14   23.30    9.10
  -7  -1  14  360.56   28.90
   7  -1 -14  311.37   24.90
   7  -1 -14  319.17   25.60
  -7   1  14  313.57   29.60
   7   1 -14  307.07   27.00
  -6  -1  14  481.05   32.20
   6  -1 -14  453.65   29.80
   6  -1 -14  462.75   31.10
   6   1 -14  430.16   32.30
   6   1 -14  361.46   31.60
  -6   1  14  412.66   28.80
  -6   1  14  407.76   34.00
  -5  -1  14   76.79   10.70
   5  -1 -14   76.09   10.30
   5  -1 -14   69.49    8.60
  -5   1  14   89.49   12.70
   5   1 -14   95.59   12.70
  -5   1  14   94.79    9.50
   5   1 -14   92.19    9.00
  -4  -1  14   88.99   10.30
   4  -1 -14   74.69   10.20
   4  -1 -14   82.19    8.10
   4   1 -14   75.79   11.40
   4   1 -14   65.19    8.40
  -4   1  14   74.09    8.30
  -4   1  14   74.49   10.20
   3  -1 -14  682.33   44.90
  -3  -1  14  716.93   45.10
   3  -1 -14  703.63   46.70
   3  -1 -14  720.03   45.10
  -3  -1  14  718.23   46.40
  -3   1  14  769.42   45.90
   3   1 -14  766.22   44.90
  -3   1  14  761.32   45.30
   3   1 -14  754.72   48.70
   3   1 -14  768.92   45.90
  -3   1  14  732.13   46.70
   2  -1 -14   49.90    6.00
   2  -1 -14   59.19    8.00
  -2  -1  14   52.29    6.80
   2  -1 -14   52.39    6.30
  -2  -1  14   57.79    6.20
   2   1 -14   64.29    6.30
   2   1 -14   66.29    7.30
  -2   1  14   58.99    6.90
  -2   1  14   63.79    6.50
   2   1 -14   77.89   10.60
   1  -1 -14  853.61   54.19
   1  -1 -14  810.72   52.69
  -1  -1  14  825.32   52.49
   1   1 -14  903.51   56.19
   1   1 -14  856.21   53.29
  -1   1  14  906.71   52.79
   1   1 -14  866.11   52.39
  -1   1  14  888.11   53.09
   0  -1 -14   95.39    9.80
   0  -1  14   85.19    8.50
   0  -1  14   92.89    8.20
   0   1  14   82.59    8.60
   0   1 -14   95.69    9.90
   0   1 -14   94.39    8.40
   0   1 -14   97.39   12.60
   0   1  14   91.49    8.30
   1  -1  14   72.59    8.00
  -1  -1 -14   89.29   10.90
   1  -1  14   79.09    8.20
  -1   1 -14   92.89   10.80
   1   1  14   81.19    8.60
   1   1  14   84.29    8.20
  -1   1 -14   75.89    8.50
  -1   1 -14   90.19   12.00
  -1   1 -14   83.99    8.90
  -2  -1 -14  607.14   37.60
   2  -1  14  608.44   37.60
   2  -1  14  589.74   38.20
   2  -1  14  617.44   38.50
  -2  -1 -14  608.64   39.90
  -2   1 -14  657.03   40.10
   2   1  14  609.34   38.70
  -2   1 -14  576.34   38.20
   2   1  14  592.74   38.10
  -2   1 -14  558.54   37.80
   3  -1  14  707.03   47.50
   3  -1  14  733.13   46.80
  -3  -1 -14  716.73   49.20
  -3  -1 -14  751.02   46.90
   3   1  14  774.82   48.00
  -3   1 -14  804.82   49.70
   3   1  14  749.62   47.30
  -3   1 -14  735.13   47.00
  -4  -1 -14   91.59   10.80
   4  -1  14   79.89    9.80
   4  -1  14   95.39   11.40
  -4  -1 -14   78.69   13.80
   4   1  14   79.79   10.30
   4   1  14   77.79   10.80
  -4   1 -14   77.89   13.70
  -4   1 -14   76.29   10.70
   5  -1  14   43.00    8.50
   5  -1  14   34.50    8.50
  -5  -1 -14   44.10   12.60
  -5  -1 -14   33.60    9.80
   5   1  14   20.20    7.70
   5   1  14   22.00    7.70
  -5   1 -14   17.20   12.40
  -5   1 -14   30.50    9.70
   6  -1  14   23.50    8.00
  -6  -1 -14    9.50   10.10
  -6  -1 -14    8.20   11.20
   6  -1  14   15.80    7.10
   6   1  14   15.70    8.40
   6   1  14   24.00    8.60
  -6   1 -14   17.80   12.80
  -6   1 -14   18.50   11.00
  -8  -2  14  140.89   19.50
   8  -2 -14  142.09   16.50
   8   2 -14  137.99   18.60
  -8   2  14  177.48   22.00
   7  -2 -14  293.67   23.10
  -7  -2  14  311.77   26.30
   7  -2 -14  290.97   22.20
  -7   2  14  250.37   21.60
   7   2 -14  222.38   24.60
  -7   2  14  308.97   29.00
   6  -2 -14   33.40    8.00
   6  -2 -14   32.10    6.80
  -6  -2  14   24.70    8.90
  -6   2  14   20.80    6.80
   6   2 -14   21.10    9.10
   5  -2 -14  177.88   14.00
  -5  -2  14  186.98   13.90
   5  -2 -14  169.78   15.60
  -5  -2  14  182.18   16.50
   5   2 -14  174.38   14.20
   5   2 -14  142.79   18.20
  -5   2  14  163.38   13.60
  -5   2  14  162.68   20.20
  -5   2  14  151.98   14.50
   4  -2 -14  100.19   11.10
  -4  -2  14   88.89    9.50
   4  -2 -14   96.99    9.50
  -4  -2  14  111.49   11.90
  -4   2  14   92.59   10.10
   4   2 -14   93.39   10.00
   4   2 -14   89.89   13.60
  -4   2  14   96.29    9.50
   3  -2 -14   44.80    7.30
  -3  -2  14   43.50    7.20
   3   2 -14   59.99    6.30
  -3   2  14   55.69    7.30
  -3   2  14   48.60    6.30
   3   2 -14   72.89   12.40
   3   2 -14   52.99    7.30
  -2  -2  14 1288.37   79.19
   2  -2 -14 1271.77   79.29
  -2  -2  14 1318.97   80.69
   2  -2 -14 1275.17   79.39
  -2   2  14 1348.86   80.39
   2   2 -14 1365.46   85.29
  -2   2  14 1370.36   79.99
   2   2 -14 1349.47   79.49
   2   2 -14 1314.77   80.39
   1   2 -14  170.78   13.80
  -1   2  14  180.58   13.20
   1   2 -14  167.88   12.70
  -1   2  14  171.18   12.80
  -1   2  14  160.38   13.30
   1   2 -14  151.48   17.90
   0  -2  14  255.97   20.40
   0  -2  14  266.37   19.70
   0  -2 -14  275.97   20.90
   0  -2 -14  266.67   19.70
   0   2  14  341.87   20.40
   0   2  14  323.27   20.90
   0   2  14  340.47   20.80
   0   2 -14  236.68   24.40
   0   2 -14  339.27   21.80
   0   2 -14  341.77   20.60
   1  -2  14   75.69    9.00
  -1  -2 -14   90.19   10.70
   1  -2  14   81.99    8.40
   1   2  14   92.69    9.50
  -1   2 -14   80.59   10.10
   1   2  14   73.39    8.40
  -1   2 -14   87.79    9.30
  -1   2 -14  102.79   11.10
   2  -2  14  168.88   13.30
   2  -2  14  158.88   13.30
  -2  -2 -14  167.58   16.30
  -2   2 -14  169.18   16.10
  -2   2 -14  139.09   13.80
   2   2  14  150.08   13.00
  -2   2 -14  150.28   13.20
   2   2  14  153.78   13.60
  -3  -2 -14  180.98   19.50
   3  -2  14  180.18   15.50
   3  -2  14  198.28   16.10
  -3   2 -14  177.98   16.00
   3   2  14  213.48   16.90
  -3   2 -14  196.58   17.00
   3   2  14  189.98   15.90
  -3   2 -14  207.08   19.70
   4  -2  14  281.37   20.70
  -4  -2 -14  268.07   24.90
   4  -2  14  288.57   21.50
  -4   2 -14  255.57   22.20
  -4   2 -14  254.57   24.90
   4   2  14  288.67   22.10
   4   2  14  269.67   21.60
  -4   2 -14  267.87   21.90
  -5  -2 -14   86.19   12.80
  -5  -2 -14  122.49   16.40
   5  -2  14   93.09   12.40
   5  -2  14  109.79   12.90
   5   2  14   88.69   13.30
  -5   2 -14  107.09   13.80
  -5   2 -14   93.09   16.30
   5   2  14  125.49   14.60
  -7  -3  14  107.89   14.80
   7  -3 -14  109.89   12.90
  -7  -3  14  115.79   12.30
   7   3 -14   88.59   16.10
  -7   3  14  106.49   13.30
  -6  -3  14  455.65   29.70
   6  -3 -14  418.16   30.60
   6  -3 -14  423.96   28.60
  -6  -3  14  430.26   32.10
   6  -3 -14  424.26   29.70
  -6   3  14  453.35   31.00
   6   3 -14  432.26   35.90
   6   3 -14  431.46   30.20
  -5  -3  14  195.08   18.60
   5  -3 -14  185.78   17.50
   5  -3 -14  193.28   16.50
  -5  -3  14  187.98   16.40
  -5   3  14  231.58   18.00
   5   3 -14  217.28   23.40
   5   3 -14  240.98   17.80
  -5   3  14  217.18   16.60
   4  -3 -14  101.79   10.30
  -4  -3  14   97.19   10.10
  -4  -3  14   98.29   12.10
   4  -3 -14   98.59   11.30
   4   3 -14   85.59   10.60
  -4   3  14   65.69    9.40
   4   3 -14   90.19   16.60
  -4   3  14   66.19    8.60
   3  -3 -14  158.58   13.00
  -3  -3  14  165.98   14.60
  -3  -3  14  162.28   13.40
   3   3 -14  155.98   21.30
   3   3 -14  142.59   12.20
  -3   3  14  149.59   12.90
   3   3 -14  154.58   14.10
  -3   3  14  147.29   13.70
  -2  -3  14  102.59   11.10
   2  -3 -14  108.09   10.10
  -2   3  14  110.19   10.60
  -2   3  14   96.39   10.10
   2   3 -14   72.89   15.10
   2   3 -14  100.19    9.60
   2   3 -14   86.59   10.60
  -2   3  14   99.89   10.20
   1  -3 -14  330.07   23.60
  -1  -3  14  338.17   22.70
  -1  -3  14  326.07   24.40
   1  -3 -14  336.17   23.80
   1   3 -14  371.66   25.00
  -1   3  14  371.86   24.20
  -1   3  14  358.16   24.20
   1   3 -14  380.06   23.80
  -1   3  14  361.86   24.30
   0  -3 -14  284.77   20.30
   0  -3  14  279.37   20.20
   0  -3  14  263.57   18.40
   0   3 -14  267.97   20.40
   0   3  14  277.07   19.90
   0   3 -14  270.67   20.70
   0   3  14  274.97   19.50
   0   3  14  256.17   19.60
   0   3 -14  270.77   19.30
  -1  -3 -14  358.06   24.70
   1  -3  14  329.07   22.20
   1  -3  14  333.07   23.40
  -1   3 -14  322.47   24.30
  -1   3 -14  315.07   23.50
   1   3  14  316.57   22.60
   1   3  14  320.67   23.10
   1   3  14  321.87   22.90
  -1   3 -14  315.67   22.60
   2  -3  14  211.78   16.20
   2  -3  14  194.58   16.60
  -2  -3 -14  201.88   19.40
   2   3  14  224.38   17.20
   2   3  14  207.58   16.10
   2   3  14  194.28   16.40
  -2   3 -14  206.48   19.00
  -2   3 -14  198.78   17.40
  -2   3 -14  192.48   16.30
  -3  -3 -14  288.97   25.80
   3  -3  14  317.37   22.90
   3  -3  14  320.67   23.00
   3   3  14  303.37   22.70
  -3   3 -14  300.57   23.80
   3   3  14  298.87   23.20
  -3   3 -14  302.67   22.60
  -3   3 -14  275.17   25.30
   4  -3  14   45.80    9.00
   4  -3  14   51.39    9.10
  -4  -3 -14   40.60   12.70
   4   3  14   41.10    8.90
   4   3  14   36.60    9.00
  -4   3 -14   27.30   11.50
  -4   3 -14   50.29   10.40
  -4   3 -14   50.79    9.50
   5  -3  14   43.30    9.50
  -5  -3 -14   26.90   12.20
   5  -3  14   33.50    8.60
  -5   3 -14   31.10   10.00
  -5   3 -14   33.00   10.70
   5   3  14   30.30    9.10
   7  -4 -14  216.18   25.50
   7  -4 -14  186.98   16.50
  -7  -4  14  197.38   18.30
  -7   4  14  199.68   19.80
   7   4 -14  203.98   18.70
  -6  -4  14   13.60    6.90
   6  -4 -14   17.70    7.50
   6  -4 -14   13.40    6.70
  -6  -4  14   15.70    8.30
   6  -4 -14   19.30    6.00
   6   4 -14   16.40   11.50
  -6   4  14    9.30    7.90
   6   4 -14    5.30    6.20
  -5  -4  14  161.18   17.00
   5  -4 -14  152.68   15.50
   5  -4 -14  155.28   14.80
  -5  -4  14  143.79   14.60
   5   4 -14  148.29   15.30
   5   4 -14  172.48   24.30
  -5   4  14  163.08   14.90
  -5   4  14  157.28   16.10
   4  -4 -14   69.49    8.70
  -4  -4  14   69.49   10.00
  -4  -4  14   63.79    8.40
  -4   4  14   50.89    8.90
   4   4 -14   45.50   14.20
  -4   4  14   55.79    8.30
   4   4 -14   62.79    9.70
  -3  -4  14  225.98   18.90
   3  -4 -14  230.38   17.70
  -3  -4  14  235.58   18.10
   3   4 -14  219.88   18.40
   3   4 -14  218.98   16.70
  -3   4  14  208.78   18.30
   3   4 -14  196.18   26.40
  -3   4  14  216.78   17.80
  -2  -4  14  258.97   19.70
   2  -4 -14  238.78   18.70
   2   4 -14  243.28   18.00
   2   4 -14  235.48   19.80
  -2   4  14  256.37   18.90
  -2   4  14  222.68   19.00
  -1  -4  14  197.38   16.50
   1  -4 -14  186.48   15.90
   1  -4 -14  196.38   15.70
  -1   4  14  188.08   15.80
   1   4 -14  179.78   14.90
  -1   4  14  176.08   15.60
   1   4 -14  167.38   22.40
   1   4 -14  175.78   16.40
  -1   4  14  186.08   15.60
   0  -4  14  430.26   27.20
   0  -4  14  405.96   29.10
   0  -4 -14  427.96   29.10
   0  -4 -14  426.06   28.50
   0   4  14  407.86   28.60
   0   4 -14  408.46   28.10
   0   4 -14  412.86   29.20
   0   4  14  409.96   28.80
   0   4  14  420.56   28.80
   0   4 -14  413.26   30.00
   1  -4  14   29.50    5.70
  -1  -4 -14   18.20    6.10
  -1  -4 -14   30.30    9.00
   1  -4  14   29.40    7.00
   1   4  14   13.10    6.20
  -1   4 -14   29.90    8.80
  -1   4 -14   29.50    7.60
   1   4  14   28.70    6.60
  -1   4 -14   36.70    6.90
   1   4  14   28.10    6.60
  -2  -4 -14   96.09   14.20
   2  -4  14  102.89   12.60
   2  -4  14  111.39   11.90
  -2   4 -14  115.99   11.90
   2   4  14  126.99   13.60
   2   4  14  111.79   12.00
   2   4  14  104.99   12.00
  -2   4 -14  123.19   15.20
  -2   4 -14  118.89   14.30
   3  -4  14   28.40    7.40
   3  -4  14   23.90    7.20
  -3  -4 -14   26.90   11.70
  -3   4 -14   20.40    8.40
   3   4  14   26.30    7.00
  -3   4 -14   29.00   10.10
  -3   4 -14   30.70    7.80
   3   4  14   23.00    7.80
   3   4  14   27.20    7.50
   4  -4  14   87.29   12.20
   4  -4  14   71.99   11.10
  -4  -4 -14   77.49   15.30
  -4   4 -14   84.29   12.90
   4   4  14   92.19   11.70
  -4   4 -14   90.29   12.00
   4   4  14   90.39   12.10
  -5  -5  14  100.89   13.00
   5  -5 -14   91.79   11.00
  -5  -5  14   83.89   10.60
  -5   5  14   68.49   11.60
  -5   5  14   60.49   10.40
   5   5 -14   63.79   11.40
  -4  -5  14  243.28   19.80
  -4  -5  14  236.98   20.90
   4  -5 -14  247.48   19.50
  -4   5  14  225.18   20.70
   4   5 -14  224.48   20.60
  -4   5  14  224.38   19.70
  -3  -5  14   77.99   10.30
  -3  -5  14   67.89   10.50
   3  -5 -14   66.39    9.50
   3   5 -14   71.69    9.00
  -3   5  14   64.09    9.80
   3   5 -14   53.99   10.10
  -3   5  14   61.99   10.30
  -3   5  14   67.59   10.40
  -2  -5  14    2.40    6.00
   2  -5 -14   -2.20    5.90
  -2   5  14    2.60    5.80
   2   5 -14   -3.10    4.80
   2   5 -14    1.10    6.30
  -2   5  14    1.70    5.70
  -2   5  14   -0.70    5.90
   1  -5 -14   97.39   11.40
  -1  -5  14   86.79   11.80
  -1   5  14  116.79   12.90
  -1   5  14  104.59   12.10
   1   5 -14  100.59   13.10
  -1   5  14   97.79   11.70
   1   5 -14  105.59   11.10
   0  -5 -14  132.49   15.50
   0  -5 -14  138.69   14.60
   0  -5  14  137.39   15.00
   0   5 -14  146.69   16.40
   0   5 -14  135.69   13.80
   0   5  14  132.99   14.20
   0   5  14  144.89   15.40
   0   5  14  141.89   14.40
   0   5 -14  128.29   15.00
   1  -5  14  311.37   24.20
  -1  -5 -14  294.07   23.30
   1  -5  14  296.87   24.00
  -1  -5 -14  332.57   27.00
   1   5  14  302.47   24.30
  -1   5 -14  301.77   26.40
  -1   5 -14  306.77   23.00
   1   5  14  312.87   23.70
   1   5  14  312.17   23.60
  -1   5 -14  296.97   24.30
   2  -5  14   37.00    7.70
   2  -5  14   36.30    8.40
  -2  -5 -14   42.10   12.70
  -2   5 -14   31.80    7.80
  -2   5 -14   31.40    8.90
  -2   5 -14   29.20   10.20
   2   5  14   27.00    7.60
   2   5  14   30.60   12.90
   2   5  14   29.20    7.60
   3  -5  14   35.50    8.20
  -3  -5 -14   35.40   15.40
   3  -5  14   40.80   13.70
   3   5  14   34.30    8.20
   2  -6 -14   25.20    9.40
  -2  -6  14   27.60   10.10
   2   6 -14   28.80   11.30
  -2   6  14   21.00    9.60
  -2   6  14   39.70    9.40
   1  -6 -14   34.00    9.30
  -1  -6  14   47.90   11.10
  -1   6  14   54.89   10.40
   1   6 -14   39.70   10.40
  -1   6  14   42.80    9.40
   0  -6 -14  204.88   21.00
   0   6  14  182.28   20.40
   0   6 -14  192.88   21.10
   0   6  14  179.58   18.90
   8   0 -15   36.00   10.20
   8   0 -15   33.90    8.90
  -8   0  15   31.90   13.20
   7   0 -15  309.97   25.40
   7   0 -15  329.77   27.10
  -7   0  15  348.77   30.20
   6   0 -15  306.47   24.80
   6   0 -15  286.07   23.20
  -6   0  15  317.37   26.10
  -5   0  15    6.70    6.40
   5   0 -15   -1.00    5.50
  -5   0  15    3.40    5.60
  -4   0  15  335.97   22.10
  -4   0  15  318.17   23.80
   4   0 -15  314.07   24.40
   4   0 -15  331.37   21.90
   3   0 -15   -1.60    4.80
  -3   0  15   -1.90    3.30
  -3   0  15    3.20    3.90
   3   0 -15    1.30    3.70
  -2   0  15  140.39   11.90
   2   0 -15  143.19   11.80
  -2   0  15  134.99   11.40
   2   0 -15  157.08   14.40
   1   0 -15  974.60   58.29
  -1   0  15  862.21   55.79
   1   0 -15  909.41   56.09
  -1   0  15  900.41   55.79
   0   0  15  405.56   29.20
   0   0 -15  446.56   30.10
   0   0 -15  468.35   29.00
   0   0 -15  505.65   32.40
   0   0  15  466.05   29.00
  -1   0 -15   22.40    6.70
  -1   0 -15   28.00    7.60
   1   0  15   25.90    4.50
  -1   0 -15   24.80    4.70
   1   0  15   26.60    5.20
   2   0  15   11.20    4.70
   2   0  15    6.30    3.60
  -2   0 -15    5.10    7.40
  -2   0 -15    5.20    4.30
   3   0  15  164.58   14.90
  -3   0 -15  163.48   14.60
  -3   0 -15  175.28   18.50
   3   0  15  159.28   13.70
   4   0  15   58.69    9.70
  -4   0 -15   65.99    9.90
   4   0  15   74.89    9.60
  -4   0 -15   44.70   12.90
   5   0  15  322.67   25.40
  -5   0 -15  336.47   26.70
   5   0  15  308.17   25.50
  -5   0 -15  346.47   30.10
   8  -1 -15    5.60    6.60
  -8  -1  15    5.40   11.70
   8  -1 -15    0.00    6.90
   8   1 -15    2.60    7.30
  -8   1  15   13.10   11.80
   7  -1 -15    6.20    7.10
   7  -1 -15    4.20    6.10
  -7  -1  15    8.10   10.10
   7   1 -15    2.20    7.10
  -7   1  15    4.90   10.10
   6  -1 -15  128.99   13.10
   6  -1 -15  128.39   14.80
  -6  -1  15  131.09   16.50
   6   1 -15  110.49   15.30
  -6   1  15  122.59   12.30
  -6   1  15  132.49   17.70
  -5  -1  15 1256.97   74.79
   5  -1 -15 1202.18   74.49
   5   1 -15 1170.28   76.19
  -5   1  15 1234.28   72.89
   5   1 -15 1073.39   75.09
   4  -1 -15  147.89   12.00
   4  -1 -15  148.29   14.30
  -4  -1  15  144.79   13.90
  -4   1  15  156.18   15.40
  -4   1  15  164.18   13.00
   4   1 -15  151.78   16.20
   4   1 -15  141.39   12.40
   3  -1 -15    2.00    3.30
  -3  -1  15    6.00    4.50
   3  -1 -15    3.00    5.10
  -3  -1  15    2.00    3.20
   3  -1 -15    1.30    3.70
   3   1 -15    9.60    4.50
  -3   1  15    7.60    4.40
   3   1 -15    6.90    6.30
   2  -1 -15  287.77   21.00
   2  -1 -15  284.67   18.90
  -2  -1  15  296.57   18.80
  -2  -1  15  289.77   19.80
   2   1 -15  271.37   18.30
  -2   1  15  254.57   19.10
   2   1 -15  259.67   19.40
  -2   1  15  273.77   18.60
   2   1 -15  265.07   22.50
   1  -1 -15   73.79    7.70
   1  -1 -15   51.69    8.00
  -1  -1  15   55.59    6.30
  -1   1  15   62.89    6.70
   1   1 -15   68.09    8.10
   1   1 -15   74.89   11.50
   1   1 -15   50.09    6.00
  -1   1  15   59.79    7.20
   0  -1 -15  723.23   44.80
   0  -1  15  688.63   43.20
   0  -1  15  700.33   42.80
   0  -1 -15  705.03   43.40
   0   1 -15  666.03   42.50
   0   1 -15  710.43   46.70
   0   1 -15  677.53   43.70
   0   1  15  635.84   43.00
   0   1  15  682.63   42.80
   1  -1  15  199.78   15.60
   1  -1  15  199.98   15.50
  -1  -1 -15  217.38   17.90
  -1   1 -15  213.48   15.50
  -1   1 -15  237.88   18.00
   1   1  15  205.48   15.40
  -1   1 -15  213.28   15.90
   1   1  15  214.48   16.20
  -2  -1 -15   85.99   11.20
   2  -1  15   79.29    9.20
   2  -1  15   86.89    9.30
   2   1  15   72.59    9.10
   2   1  15   60.99    7.90
  -2   1 -15   52.79    7.60
  -2   1 -15   69.39   10.90
  -3  -1 -15  206.68   16.80
   3  -1  15  201.48   17.10
  -3  -1 -15  202.48   20.60
   3  -1  15  197.88   15.70
   3   1  15  214.38   17.60
   3   1  15  211.48   16.60
  -3   1 -15  211.48   20.40
  -3   1 -15  199.18   16.80
  -4  -1 -15  434.36   34.60
  -4  -1 -15  500.95   31.90
   4  -1  15  452.55   31.10
   4  -1  15  442.86   31.90
  -4   1 -15  461.35   32.20
  -4   1 -15  433.76   34.70
   4   1  15  458.85   32.50
   4   1  15  437.76   31.50
   5  -1  15    5.10    6.80
  -5  -1 -15   -1.10   11.10
  -5  -1 -15   10.50    8.80
   5  -1  15    9.70    6.30
   5   1  15    4.20    7.00
  -5   1 -15    5.10    8.90
   5   1  15    2.20    6.10
  -5   1 -15  -13.10   11.20
  -8  -2  15  116.09   22.30
   8  -2 -15  100.39   13.50
   8   2 -15   97.59   16.40
  -8   2  15   99.69   18.00
   7  -2 -15  239.28   20.70
   7  -2 -15  255.17   21.80
  -7  -2  15  270.17   24.40
  -7   2  15  273.57   28.40
   7   2 -15  218.98   24.00
  -7   2  15  249.18   20.70
   6  -2 -15  435.46   32.30
   6  -2 -15  460.45   31.00
  -6  -2  15  455.55   33.60
  -6   2  15  475.95   31.40
   6   2 -15  451.45   35.70
   5  -2 -15   36.90    6.40
  -5  -2  15   31.30    7.90
  -5   2  15   27.80    6.70
   5   2 -15   35.30    6.60
   5   2 -15   23.20    9.00
  -4  -2  15  298.37   22.80
  -4  -2  15  300.17   20.60
   4  -2 -15  306.87   20.70
   4  -2 -15  293.67   22.30
   4   2 -15  291.27   26.30
   4   2 -15  307.47   21.80
  -4   2  15  288.57   20.60
  -4   2  15  305.87   21.70
   3  -2 -15  101.39    9.50
  -3  -2  15  112.99   11.60
   3  -2 -15  110.59   11.60
   3   2 -15  103.19   10.70
   3   2 -15  102.59    9.40
   3   2 -15  133.49   17.30
  -3   2  15  108.49   10.90
  -3   2  15   88.79    9.50
   2  -2 -15   94.99   11.40
  -2  -2  15  109.99   11.30
   2  -2 -15  106.49    9.90
  -2  -2  15  108.99    9.50
   2  -2 -15  101.89    9.90
   2   2 -15  129.79   11.60
  -2   2  15  138.59   11.50
   2   2 -15  139.39   17.60
   2   2 -15  138.89   10.40
  -2   2  15  138.99   10.80
   1  -2 -15  695.63   43.40
   1  -2 -15  727.43   43.90
  -1  -2  15  717.53   43.40
  -1  -2  15  712.83   44.60
   1   2 -15  702.93   44.70
   1   2 -15  610.94   48.70
  -1   2  15  669.83   44.20
   1   2 -15  710.53   43.60
  -1   2  15  727.93   44.10
  -1   2  15  718.73   43.70
   0  -2  15  521.15   32.90
   0  -2  15  495.25   31.80
   0  -2 -15  569.04   33.20
   0   2 -15  481.65   33.30
   0   2  15  477.05   32.20
   0   2 -15  476.15   31.90
   0   2  15  472.45   32.50
  -1  -2 -15  171.58   14.70
   1  -2  15  152.38   11.70
   1  -2  15  145.99   12.30
  -1   2 -15  119.19   11.80
   1   2  15  123.29   12.00
  -1   2 -15  124.29   12.80
   1   2  15  109.59   11.50
  -1   2 -15  133.99   14.20
  -2  -2 -15    5.30    8.00
   2  -2  15    0.40    3.90
   2  -2  15   -0.70    4.00
   2   2  15    0.90    3.90
  -2   2 -15    1.20    5.40
  -2   2 -15   -0.60    4.70
   2   2  15    1.80    4.80
  -2   2 -15    5.60    7.40
   3  -2  15  114.59   12.90
  -3  -2 -15  122.19   16.00
  -3   2 -15  128.99   14.30
  -3   2 -15  129.19   13.60
   3   2  15  137.69   13.20
   3   2  15  136.99   14.30
  -3   2 -15  146.59   16.80
  -4  -2 -15   26.10   12.20
   4  -2  15   23.60    7.60
  -4   2 -15   57.29   13.70
   4   2  15   41.30    9.10
  -4   2 -15   47.00    9.10
   4   2  15   56.79    9.40
   5  -2  15  222.28   19.00
   5  -2  15  197.88   19.20
  -5  -2 -15  240.18   24.10
   5   2  15  225.08   20.60
  -5   2 -15  191.28   22.90
   5   2  15  189.88   20.30
  -5   2 -15  237.48   21.80
   7  -3 -15   43.00    9.00
  -7  -3  15   37.40   11.00
   7  -3 -15   50.39   10.10
   7   3 -15   59.69   13.40
  -7   3  15   58.69   10.30
   6  -3 -15  152.88   16.20
  -6  -3  15  159.58   18.00
  -6  -3  15  140.49   14.70
   6  -3 -15  140.89   14.50
  -6   3  15  170.58   16.40
   6   3 -15  167.88   21.10
   6   3 -15  160.28   15.20
   5  -3 -15  352.46   26.40
   5  -3 -15  377.76   25.20
  -5  -3  15  373.86   25.00
  -5  -3  15  399.06   27.70
  -5   3  15  335.07   24.90
   5   3 -15  346.07   32.10
   5   3 -15  335.37   25.90
  -5   3  15  343.87   26.10
   4  -3 -15  325.37   23.40
   4  -3 -15  305.17   22.00
  -4  -3  15  310.57   22.00
  -4  -3  15  322.97   24.10
  -4   3  15  327.47   23.40
   4   3 -15  307.07   23.00
  -4   3  15  303.17   22.20
   4   3 -15  299.07   29.60
  -3  -3  15  261.87   20.10
   3  -3 -15  258.57   18.40
  -3   3  15  247.18   18.60
   3   3 -15  223.18   26.00
  -3   3  15  250.77   19.50
   3   3 -15  240.28   18.00
   3   3 -15  267.27   19.70
  -2  -3  15  262.87   21.80
   2  -3 -15  265.77   20.60
  -2   3  15  315.77   21.40
   2   3 -15  304.57   22.10
  -2   3  15  311.97   21.80
   2   3 -15  257.67   28.20
   2   3 -15  329.47   21.00
  -2   3  15  331.77   21.50
   1  -3 -15  136.59   11.70
  -1  -3  15  122.69    9.40
  -1  -3  15  119.99   11.70
  -1   3  15  100.29   11.10
  -1   3  15   90.99   10.60
   1   3 -15   97.99   11.80
  -1   3  15   99.09   10.70
   1   3 -15   96.69   10.70
   0  -3  15  379.16   24.00
   0  -3  15  379.16   25.60
   0  -3 -15  427.66   26.30
   0  -3 -15  341.97   24.30
   0   3 -15  334.47   26.00
   0   3  15  339.07   25.20
   0   3  15  338.37   24.80
   0   3  15  347.87   24.60
  -1  -3 -15  251.97   19.80
   1  -3  15  265.07   19.70
   1  -3  15  260.47   20.80
  -1  -3 -15  276.57   22.30
  -1   3 -15  303.27   22.70
  -1   3 -15  290.57   21.50
   1   3  15  290.97   20.40
   1   3  15  293.27   20.60
  -1   3 -15  279.87   20.40
   1   3  15  292.17   21.20
  -2  -3 -15  223.98   20.40
   2  -3  15  209.68   17.30
   2  -3  15  219.28   16.70
   2   3  15  202.88   17.60
  -2   3 -15  187.78   16.70
  -2   3 -15  203.48   18.00
  -2   3 -15  209.88   20.10
   2   3  15  192.28   16.80
   3  -3  15   31.80    7.10
   3  -3  15   34.60    7.50
  -3  -3 -15   19.80   10.90
   3   3  15   27.70    7.20
  -3   3 -15   25.20    7.40
  -3   3 -15   24.20    8.20
   3   3  15   30.30    7.90
  -3   3 -15   27.70   10.50
   4  -3  15  193.58   18.00
   4  -3  15  200.08   17.90
  -4  -3 -15  208.28   22.60
   4   3  15  212.08   18.60
  -4   3 -15  146.89   20.10
  -4   3 -15  185.78   19.60
   4   3  15  184.18   18.80
  -4   3 -15  208.78   18.70
   6  -4 -15   69.89    9.80
   6  -4 -15   75.29   11.00
   6  -4 -15   69.19    9.10
  -6  -4  15   66.49    9.80
  -6  -4  15   71.99   12.00
   6   4 -15   51.99    9.80
  -6   4  15   68.29   11.30
   6   4 -15   65.89   16.40
  -5  -4  15   63.19   11.00
  -5  -4  15   54.69    8.90
   5  -4 -15   68.69    9.40
   5  -4 -15   60.09   10.00
  -5   4  15   76.09   11.00
   5   4 -15   88.89   11.70
  -5   4  15   65.49    9.40
   5   4 -15   74.29   17.00
   4  -4 -15   53.89    8.00
  -4  -4  15   47.80    9.20
  -4  -4  15   55.69    8.30
  -4   4  15   38.90    7.70
  -4   4  15   44.80    8.90
   4   4 -15   38.50    8.40
   4   4 -15   35.80   13.60
   3  -4 -15  273.27   20.60
  -3  -4  15  262.57   22.10
   3   4 -15  287.87   22.10
   3   4 -15  281.07   20.00
   3   4 -15  246.88   30.00
  -3   4  15  279.17   21.50
  -3   4  15  289.77   21.20
   2  -4 -15  248.38   19.00
  -2  -4  15  243.38   20.00
  -2   4  15  240.68   19.60
   2   4 -15  240.78   18.40
  -2   4  15  250.87   19.20
  -2   4  15  249.28   19.30
   2   4 -15  237.78   19.90
   1  -4 -15  226.78   18.60
  -1  -4  15  255.07   19.90
   1   4 -15  242.18   18.40
  -1   4  15  254.87   19.20
  -1   4  15  242.28   19.10
  -1   4  15  235.78   19.50
   1   4 -15  232.98   20.10
   0  -4 -15  132.39   14.40
   0  -4  15  123.69   13.90
   0  -4 -15  121.69   13.20
   0  -4  15  131.89   11.40
   0   4  15  150.28   13.50
   0   4  15  148.69   13.60
   0   4 -15  148.09   15.50
   0   4  15  132.09   13.70
   0   4 -15  147.09   13.30
   1  -4  15  185.48   14.30
  -1  -4 -15  173.78   15.30
  -1  -4 -15  189.08   18.20
   1  -4  15  176.98   16.10
   1   4  15  155.28   15.00
  -1   4 -15  174.58   16.80
   1   4  15  164.68   15.40
  -1   4 -15  162.08   15.10
   1   4  15  168.68   16.10
  -1   4 -15  160.78   17.90
   2  -4  15   35.70    7.30
  -2  -4 -15   33.90   11.20
   2  -4  15   40.40    8.50
   2   4  15   41.60    9.10
   2   4  15   35.80    7.50
   2   4  15   44.20    8.10
  -2   4 -15   39.80    9.10
  -2   4 -15   47.40   11.00
  -2   4 -15   36.10    7.70
   3  -4  15  152.88   15.70
  -3  -4 -15  154.18   18.80
   3  -4  15  167.28   15.60
   3   4  15  140.29   15.60
  -3   4 -15  153.78   15.70
  -3   4 -15  115.09   17.50
   3   4  15  138.49   20.20
  -3   4 -15  153.18   17.50
   3   4  15  153.88   16.90
   5  -5 -15   77.09   13.60
  -5  -5  15   80.49   10.80
   5  -5 -15   72.59   11.00
  -5   5  15   59.69   10.20
   5   5 -15   73.49   13.10
   4  -5 -15  229.68   19.40
  -4  -5  15  214.08   19.60
  -4  -5  15  232.48   21.30
   4   5 -15  246.88   21.00
  -4   5  15  233.18   20.00
  -4   5  15  237.38   20.50
   3  -5 -15  222.58   18.90
  -3  -5  15  241.88   20.40
  -3  -5  15  225.38   19.60
  -3   5  15  230.48   19.40
   3   5 -15  226.38   20.10
   3   5 -15  210.48   17.70
  -3   5  15  205.58   19.50
   2  -5 -15   33.90    8.10
  -2  -5  15   33.60    8.40
  -2   5  15   38.20    8.10
   2   5 -15   37.60    9.20
   2   5 -15   34.20    7.20
  -2   5  15   40.20    8.20
  -2   5  15   36.50    8.70
  -1  -5  15   68.09   10.30
   1  -5 -15   76.49   10.30
   1   5 -15   67.39    9.40
  -1   5  15   72.19   11.00
  -1   5  15   59.99    9.80
   1   5 -15   55.69   10.90
  -1   5  15   68.59   10.00
   0  -5  15  123.19   14.10
   0  -5 -15  112.19   12.60
   0  -5 -15   93.59   16.20
   0   5 -15  107.09   11.90
   0   5  15  111.89   13.40
   0   5  15  127.29   13.30
   0   5 -15  103.19   14.30
   0   5  15  112.19   13.20
   1  -5  15   45.10    9.20
  -1  -5 -15   49.60   11.50
  -1  -5 -15   37.90    8.50
   1   5  15   53.49    9.10
  -1   5 -15   55.39    9.00
   1   5  15   57.29   10.50
  -1   5 -15   50.29   10.00
  -1   5 -15   56.79   11.80
   1   5  15   60.99    9.50
   2  -5  15  359.56   29.30
   2  -5  15  383.96   26.80
  -2  -5 -15  387.56   31.00
   2   5  15  351.76   32.80
  -2   5 -15  357.66   31.20
   2   5  15  384.36   27.50
  -2   5 -15  343.27   30.40
   8   0 -16  286.47   24.00
  -8   0  16  298.57   30.30
   8   0 -16  287.17   26.00
   7   0 -16   29.80    9.60
  -7   0  16   19.30   11.20
   6   0 -16   78.19   12.40
  -6   0  16   86.99   13.60
  -5   0  16  394.06   29.60
   5   0 -16  412.86   30.10
  -4   0  16   16.80    4.90
   4   0 -16   13.80    6.70
  -4   0  16   13.40    5.70
   4   0 -16   18.30    4.80
  -3   0  16  263.57   18.30
   3   0 -16  245.88   18.40
   3   0 -16  261.07   21.10
  -3   0  16  259.07   19.30
  -2   0  16   22.90    5.00
  -2   0  16   20.00    4.70
   2   0 -16   21.50    7.30
   2   0 -16   22.50    5.40
  -1   0  16    0.80    3.60
   1   0 -16    2.80    4.80
   1   0 -16    3.30    6.30
   0   0 -16  652.53   42.30
   0   0  16  634.24   41.70
   0   0 -16  709.23   44.90
  -1   0 -16  885.11   54.59
   1   0  16  830.82   52.79
   1   0  16  840.22   53.49
  -1   0 -16  826.22   52.99
  -1   0 -16  921.01   56.49
  -2   0 -16   56.79   10.30
  -2   0 -16   44.90    6.70
   2   0  16   54.59    7.00
   2   0  16   46.20    7.30
   3   0  16   15.70    5.00
   3   0  16   16.60    6.30
  -3   0 -16   11.90    6.10
  -3   0 -16   24.90   10.80
   4   0  16   27.80    7.10
   4   0  16   20.30    7.50
  -4   0 -16   17.50   11.40
  -4   0 -16   29.00    8.30
   5   0  16   -0.60    5.80
   5   0  16   -4.00    6.50
  -5   0 -16   -6.00   12.10
  -5   0 -16   11.70    8.90
   8  -1 -16    8.80    7.90
  -8  -1  16   14.90   13.40
   8  -1 -16   14.40    6.90
   8   1 -16    9.80    8.30
  -8   1  16   23.20   12.40
   7  -1 -16  115.59   14.30
   7  -1 -16  133.69   16.60
  -7  -1  16  142.89   18.00
   7   1 -16  138.69   18.50
  -7   1  16  116.49   18.50
  -6  -1  16   37.30    9.70
   6  -1 -16   43.90    9.30
   6  -1 -16   43.80    7.70
  -6   1  16   32.30   11.50
   6   1 -16   25.40    8.90
   5  -1 -16  116.69   13.80
  -5  -1  16  119.49   14.30
   5  -1 -16  127.59   11.60
  -5   1  16   76.29   12.40
   5   1 -16  119.29   15.30
  -5   1  16  123.19   11.70
  -4  -1  16  920.91   58.39
   4  -1 -16  898.01   58.59
   4   1 -16  867.51   60.39
  -4   1  16  957.20   57.39
   4   1 -16  957.30   57.39
  -3  -1  16  189.68   15.70
  -3  -1  16  186.28   14.00
   3  -1 -16  187.58   14.10
   3  -1 -16  191.58   16.80
   3   1 -16  196.18   18.70
   3   1 -16  179.28   15.00
  -3   1  16  179.98   14.80
  -2  -1  16   79.29    8.10
   2  -1 -16   79.39    9.20
   2  -1 -16   92.49   10.90
  -2  -1  16   52.69    7.70
  -2   1  16   75.09    8.50
   2   1 -16   81.99    9.00
   2   1 -16   93.29   13.20
  -1  -1  16  252.17   17.90
   1  -1 -16  245.68   18.70
  -1  -1  16  241.98   18.50
   1  -1 -16  281.27   20.80
   1   1 -16  286.47   23.10
   1   1 -16  252.07   17.60
   1   1 -16  256.67   19.10
  -1   1  16  253.67   18.40
  -1   1  16  262.57   18.00
   0  -1  16  150.58   12.40
   0  -1 -16  161.18   15.40
   0  -1 -16  158.38   13.90
   0  -1  16  139.89   12.50
   0   1 -16  154.58   12.40
   0   1 -16  161.48   14.30
   0   1  16  151.18   13.00
   0   1 -16  165.98   17.50
   0   1  16  162.18   12.40
  -1  -1 -16  412.86   27.70
   1  -1  16  394.66   26.00
  -1   1 -16  405.16   28.00
   1   1  16  367.86   25.70
  -1   1 -16  369.86   25.60
   1   1  16  379.86   26.50
  -2  -1 -16  323.57   25.50
   2  -1  16  328.97   23.40
   2   1  16  311.97   22.70
  -2   1 -16  361.46   26.40
   2   1  16  346.17   23.90
  -2   1 -16  310.37   22.70
   3  -1  16   25.30    6.80
  -3  -1 -16   26.90   10.70
  -3   1 -16   24.10   10.80
   3   1  16   20.70    6.60
   3   1  16   16.60    5.60
  -3   1 -16   17.80    6.70
   4  -1  16   82.39   11.80
   4  -1  16   96.09   11.10
  -4  -1 -16   82.79   15.20
  -4  -1 -16  100.09   14.00
  -4   1 -16   89.29   11.60
  -4   1 -16   80.09   15.30
   4   1  16   84.99   12.10
   4   1  16   76.69   10.80
   5  -1  16  146.89   15.70
  -5  -1 -16  152.18   16.50
   5  -1  16  130.19   16.00
  -5  -1 -16  171.28   19.50
  -5   1 -16  171.88   18.80
  -5   1 -16  155.58   20.50
   5   1  16  164.78   16.90
   5   1  16  131.19   16.60
  -7  -2  16   59.99   12.40
   7  -2 -16   51.49   10.40
   7  -2 -16   50.39    9.40
  -7   2  16   43.40   19.40
   7   2 -16   42.10   11.80
   6  -2 -16  135.59   13.70
   6  -2 -16  134.99   15.90
  -6  -2  16  137.69   17.40
  -6   2  16  133.79   14.10
   6   2 -16  147.99   20.00
  -5  -2  16  254.27   22.00
   5  -2 -16  257.57   19.50
   5  -2 -16  248.38   21.40
   5   2 -16  294.07   20.60
  -5   2  16  299.37   21.00
   5   2 -16  252.07   25.10
  -4  -2  16    3.90    5.70
   4  -2 -16   -0.20    1.00
   4  -2 -16    4.40    5.70
   4   2 -16    5.50    5.00
  -4   2  16    2.90    5.30
   4   2 -16    3.80    7.60
   3  -2 -16  347.27   25.50
   3  -2 -16  344.07   23.50
  -3  -2  16  377.86   25.60
   3   2 -16  369.06   30.50
  -3   2  16  358.16   24.00
  -3   2  16  348.47   24.80
   3   2 -16  347.57   23.30
   3   2 -16  352.46   25.00
  -2  -2  16    9.40    5.00
   2  -2 -16   15.60    6.10
  -2  -2  16   11.90    3.90
   2  -2 -16   16.30    4.90
   2   2 -16   16.30    8.90
   2   2 -16   13.20    4.20
  -2   2  16   17.50    5.50
   2   2 -16   20.20    5.80
  -2   2  16   14.40    4.50
   1  -2 -16  190.28   14.60
  -1  -2  16  171.58   15.00
  -1  -2  16  183.78   13.60
   1   2 -16  188.08   15.60
   1   2 -16  183.88   14.10
  -1   2  16  175.88   14.80
   1   2 -16  175.48   19.80
  -1   2  16  184.18   14.40
   0  -2  16  572.24   36.00
   0  -2  16  555.54   34.90
   0  -2 -16  590.34   36.10
   0   2 -16  547.45   36.60
   0   2  16  527.95   35.30
   0   2  16  520.45   35.70
   0   2 -16  522.65   35.00
  -1  -2 -16  415.76   28.60
   1  -2  16  403.56   26.90
   1  -2  16  392.56   27.20
  -1   2 -16  398.86   27.50
   1   2  16  394.46   26.90
  -1   2 -16  405.26   28.90
   1   2  16  380.46   27.40
  -1   2 -16  386.16   26.60
  -2  -2 -16  125.79   14.80
   2  -2  16  118.59   12.00
  -2   2 -16  132.19   15.30
  -2   2 -16  117.69   12.30
   2   2  16  121.59   13.00
  -2   2 -16  115.39   12.80
   2   2  16  112.19   11.80
   3  -2  16   27.40    6.90
  -3  -2 -16   16.40   10.90
   3   2  16   14.80    5.80
   3   2  16   14.90    6.80
  -3   2 -16   14.20    6.70
  -3   2 -16   15.90   10.90
   4  -2  16  104.59   12.60
  -4  -2 -16  106.99   16.10
   4   2  16   84.19   11.70
  -4   2 -16   93.19   12.20
   4   2  16   96.69   13.70
  -4   2 -16   80.79   16.20
   7  -3 -16   37.50    9.30
   7  -3 -16   37.60    8.60
  -7   3  16   35.00    9.40
   7   3 -16   31.90   14.60
   6  -3 -16   92.69   10.80
  -6  -3  16   90.39   13.20
   6  -3 -16   91.29   12.20
   6   3 -16   86.89   16.30
  -6   3  16   70.79   11.20
   6   3 -16   89.29   11.40
  -5  -3  16  184.88   18.30
   5  -3 -16  176.78   17.40
  -5  -3  16  163.88   15.10
   5  -3 -16  180.88   15.50
   5   3 -16  180.68   22.80
   5   3 -16  182.68   16.20
  -5   3  16  177.18   16.90
  -5   3  16  182.08   15.40
  -4  -3  16  443.86   30.20
   4  -3 -16  420.26   31.40
   4  -3 -16  440.46   30.20
  -4  -3  16  433.36   32.10
   4   3 -16  482.85   31.70
   4   3 -16  458.75   38.80
  -4   3  16  490.15   30.80
  -4   3  16  481.75   31.70
   3  -3 -16  232.18   17.80
   3  -3 -16  232.88   16.10
  -3  -3  16  248.78   18.50
   3   3 -16  185.58   24.10
  -3   3  16  175.58   15.80
  -3   3  16  178.38   16.70
   3   3 -16  180.38   16.80
   3   3 -16  176.08   15.10
  -2  -3  16  161.98   14.40
  -2   3  16  150.88   13.10
   2   3 -16  133.79   12.30
  -2   3  16  141.39   13.50
  -2   3  16  139.99   13.00
   2   3 -16  126.59   13.60
   2   3 -16  127.89   21.10
   1  -3 -16  170.88   14.60
   1  -3 -16  213.88   15.80
  -1  -3  16  188.28   13.70
  -1  -3  16  208.88   16.20
   1   3 -16  177.68   15.00
  -1   3  16  178.88   15.30
   1   3 -16  157.08   16.10
  -1   3  16  173.38   15.70
  -1   3  16  186.98   15.00
   0  -3  16  149.69   14.20
   0  -3  16  136.69   12.40
   0  -3 -16  148.09   14.80
   0   3  16  174.68   14.10
   0   3 -16  152.58   13.80
   0   3  16  165.68   14.50
   0   3 -16  170.38   16.40
   1  -3  16  219.58   17.60
   1  -3  16  210.48   18.60
  -1  -3 -16  223.38   20.60
  -1   3 -16  244.98   18.60
   1   3  16  255.37   18.70
  -1   3 -16  251.87   21.00
   1   3  16  253.67   19.50
  -1   3 -16  266.37   20.00
   2  -3  16  204.48   16.70
   2  -3  16  186.98   15.70
  -2  -3 -16  212.78   20.00
   2   3  16  182.68   17.00
  -2   3 -16  161.68   16.00
  -2   3 -16  173.88   17.20
  -2   3 -16  166.58   20.20
   2   3  16  161.38   15.60
   3  -3  16  163.08   15.70
   3  -3  16  162.58   15.90
  -3  -3 -16  155.98   18.60
   3   3  16  176.48   16.30
  -3   3 -16  159.58   16.20
   3   3  16  165.08   17.00
  -3   3 -16  182.48   20.70
  -3   3 -16  164.98   17.90
  -4  -3 -16   25.70   18.50
   4  -3  16   46.70    9.50
   4  -3  16   49.90   12.70
  -4   3 -16   36.70   13.20
   4   3  16   40.20   10.10
   4   3  16   36.70   10.00
  -4   3 -16   50.19   10.60
  -4   3 -16   48.60   10.90
   6  -4 -16   58.39   10.40
  -6  -4  16   52.29    9.20
   6  -4 -16   55.89    8.60
   6  -4 -16   56.99    9.50
  -6   4  16   70.09   11.80
   6   4 -16   81.89   11.40
  -5  -4  16   96.19   11.50
   5  -4 -16  107.29   14.40
  -5  -4  16   97.79   13.80
   5  -4 -16  109.69   12.00
  -5   4  16  113.79   12.20
  -5   4  16  126.39   14.00
   5   4 -16  119.69   21.70
   5   4 -16  140.89   14.90
  -4  -4  16   46.90    9.60
   4  -4 -16   49.90    8.10
   4  -4 -16   33.70    8.30
  -4  -4  16   48.00    8.20
   4   4 -16   31.20    8.20
   4   4 -16   45.10   15.30
  -4   4  16   47.30    9.10
  -4   4  16   43.80    7.90
  -3  -4  16  133.49   15.10
   3  -4 -16  128.09   12.90
  -3   4  16  116.99   12.90
   3   4 -16  121.09   11.80
   3   4 -16  114.89   13.80
   3   4 -16  108.69   21.10
  -3   4  16  103.59   12.40
   2  -4 -16  132.99   13.20
  -2  -4  16  130.49   14.40
  -2   4  16  112.69   13.10
   2   4 -16  115.19   12.50
  -2   4  16  133.89   13.40
   2   4 -16  122.79   14.20
  -2   4  16  134.79   13.40
   1  -4 -16  251.87   19.40
  -1  -4  16  258.07   20.80
  -1   4  16  254.37   19.70
  -1   4  16  233.58   20.20
   1   4 -16  237.08   19.00
   1   4 -16  239.48   21.10
  -1   4  16  267.47   19.90
   0  -4 -16   54.49    9.60
   0  -4  16   54.39    7.60
   0  -4 -16   47.10    8.10
   0  -4  16   48.60    8.60
   0   4  16   49.50    8.90
   0   4 -16   59.29   10.90
   0   4  16   58.49    8.70
   0   4 -16   52.09    8.00
   0   4  16   45.30    8.10
  -1  -4 -16  152.78   14.50
   1  -4  16  160.48   13.70
  -1  -4 -16  169.48   17.90
   1  -4  16  149.09   15.20
  -1   4 -16  164.78   16.60
  -1   4 -16  155.48   14.70
   1   4  16  161.98   16.00
   1   4  16  135.99   14.50
  -1   4 -16  141.49   17.10
   1   4  16  148.19   14.50
  -2  -4 -16  142.09   17.60
   2  -4  16  167.58   15.20
   2  -4  16  154.18   16.30
   2   4  16  185.68   17.60
  -2   4 -16  169.18   17.60
  -2   4 -16  170.08   15.90
   2   4  16  168.98   16.00
  -2   4 -16  179.08   20.10
   3  -4  16    7.30    6.50
   3  -4  16   11.70    6.60
  -3   4 -16   12.90    9.80
   3   4  16   20.80    8.30
  -3   4 -16   13.70    8.50
   4  -5 -16  103.99   12.30
  -4  -5  16   90.99   12.10
  -4   5  16  141.49   14.60
   4   5 -16   88.29   21.40
   4   5 -16  138.39   21.90
   3  -5 -16  157.28   15.60
  -3  -5  16  168.78   17.50
  -3  -5  16  171.68   16.80
   3   5 -16  149.09   14.50
  -3   5  16  151.48   16.50
  -3   5  16  156.38   16.50
   3   5 -16  147.29   16.50
   2  -5 -16  249.08   19.60
  -2  -5  16  252.67   20.90
  -2   5  16  215.68   19.40
   2   5 -16  210.28   20.40
  -2   5  16  221.28   19.50
  -2   5  16  215.78   20.10
   2   5 -16  218.18   18.30
  -1  -5  16   32.60    8.60
   1  -5 -16   31.20    7.90
  -1   5  16   25.10    7.60
  -1   5  16   17.80    7.60
   1   5 -16   23.80    8.70
   1   5 -16   19.50    6.60
  -1   5  16   16.90    6.80
   0  -5 -16   49.20    9.10
   0  -5  16   58.69   10.30
   0   5  16   52.49    9.20
   0   5 -16   54.99    8.90
   0   5  16   61.19    9.70
   0   5 -16   51.29   11.10
   0   5  16   54.19   10.20
  -1  -5 -16    3.70    9.60
   1  -5  16   10.70   10.80
  -1  -5 -16   10.60    6.80
   1   5  16   18.50    8.00
  -1   5 -16   20.20    9.20
   1   5  16   21.10    6.90
  -7   0  17  445.96   36.30
   7   0 -17  427.26   33.60
  -6   0  17   26.30   10.10
   6   0 -17   32.30    9.40
   5   0 -17   15.50    7.50
  -5   0  17   19.50    8.00
  -4   0  17  435.06   28.50
   4   0 -17  419.76   31.30
   3   0 -17   52.79    9.70
  -3   0  17   47.10    7.60
  -3   0  17   41.10    6.70
   3   0 -17   46.70    7.20
   2   0 -17  716.83   45.60
  -2   0  17  657.33   42.20
   2   0 -17  643.84   42.40
   1   0 -17  101.69   13.10
  -1   0  17  103.49   10.10
   1   0 -17  102.89   11.30
   0   0  17   58.89    7.70
   0   0 -17   75.69    9.50
   0   0 -17   85.39   12.30
  -1   0 -17  571.74   37.20
   1   0  17  526.15   35.80
   2   0  17  499.55   34.30
   2   0  17  527.05   35.20
  -2   0 -17  553.24   37.40
  -3   0 -17    4.80    5.90
   3   0  17    1.30    4.40
  -3   0 -17   14.40   10.80
   3   0  17    1.80    5.80
   4   0  17  156.68   17.00
  -4   0 -17  159.68   19.90
   4   0  17  166.08   15.70
  -4   0 -17  176.08   17.30
   7  -1 -17   22.90    7.70
  -7  -1  17   22.80   11.30
   7  -1 -17   25.50    9.10
  -7   1  17   31.20   13.30
   7   1 -17   30.70   10.50
  -6  -1  17   89.69   13.40
   6  -1 -17   81.59   12.40
   6   1 -17  108.09   15.60
  -6   1  17  112.19   16.70
  -5  -1  17   70.09   11.00
   5  -1 -17   82.59   11.80
  -5   1  17   75.09    9.30
   5   1 -17   85.79   13.80
   4  -1 -17   81.89   11.40
  -4  -1  17   81.89   10.60
   4   1 -17   86.59   13.20
   4   1 -17   84.39   10.20
  -4   1  17   79.99    9.60
  -3  -1  17 1176.98   72.49
   3  -1 -17 1198.38   71.19
  -3  -1  17 1161.88   71.09
   3  -1 -17 1117.49   73.19
   3   1 -17 1170.78   71.79
  -3   1  17 1143.89   71.69
   3   1 -17 1199.78   75.59
  -2  -1  17  247.58   17.30
   2  -1 -17  251.77   20.30
   2  -1 -17  234.78   17.60
   2   1 -17  243.38   22.30
  -2   1  17  224.28   17.60
   2   1 -17  223.18   18.30
  -1  -1  17  136.09   11.70
   1  -1 -17  136.79   12.60
  -1  -1  17  141.89   12.50
   1  -1 -17  157.58   15.50
   1   1 -17  138.79   17.40
   1   1 -17  134.89   13.30
  -1   1  17  132.09   12.00
   0  -1 -17   52.49    8.60
   0  -1  17   54.49    7.20
   0  -1 -17   47.80    9.30
   0   1 -17   54.19    6.90
   0   1  17   51.49    6.80
   0   1 -17   61.89   11.90
   0   1 -17   64.49    9.40
   0   1  17   56.29    7.70
  -1  -1 -17  182.98   17.30
   1  -1  17  184.18   15.00
  -1   1 -17  190.08   18.00
  -1   1 -17  193.58   15.00
   1   1  17  189.38   15.60
   1   1  17  187.98   14.80
   2  -1  17  172.28   15.50
  -2  -1 -17  166.28   19.00
  -2   1 -17  186.38   15.40
  -2   1 -17  211.88   20.40
   2   1  17  202.08   16.60
   2   1  17  187.68   15.20
  -3  -1 -17  269.87   25.60
   3  -1  17  268.07   22.00
  -3   1 -17  288.17   26.60
   3   1  17  297.67   22.80
  -3   1 -17  295.47   22.10
   3   1  17  280.17   21.40
  -4  -1 -17   13.30   12.10
   4  -1  17   25.70    8.00
  -4   1 -17   37.90    9.00
  -4   1 -17   26.40   12.90
   4   1  17   28.60    7.40
   4   1  17   30.40    8.60
   7  -2 -17  164.28   16.70
   7  -2 -17  174.18   18.50
  -7  -2  17  171.58   20.60
   7   2 -17  155.68   20.40
  -6  -2  17  278.27   24.60
   6  -2 -17  268.47   23.30
   6  -2 -17  279.57   21.20
  -6   2  17  279.17   21.80
   6   2 -17  268.77   26.40
  -5  -2  17   39.80    9.20
   5  -2 -17   45.20    9.20
   5  -2 -17   29.50    6.20
   5   2 -17   41.40    7.70
  -5   2  17   39.70    8.10
   5   2 -17   57.19   13.00
   4  -2 -17  308.17   22.60
  -4  -2  17  339.97   24.80
   4  -2 -17  290.67   24.20
  -4   2  17  322.47   23.50
   4   2 -17  336.97   29.30
   4   2 -17  324.97   23.30
  -3  -2  17   32.90    7.30
   3  -2 -17   22.00    7.30
   3   2 -17   32.70   10.90
   3   2 -17   31.50    7.00
  -3   2  17   26.80    6.50
   2  -2 -17  379.26   27.50
  -2  -2  17  386.76   28.60
   2  -2 -17  382.46   29.40
  -2  -2  17  380.56   27.00
   2   2 -17  428.26   28.80
  -2   2  17  466.75   28.20
  -2   2  17  454.75   28.80
   2   2 -17  454.95   35.60
   2   2 -17  462.85   27.60
   1  -2 -17  183.38   16.80
   1  -2 -17  176.88   14.80
  -1  -2  17  172.68   13.70
  -1  -2  17  184.88   15.40
   1   2 -17  187.08   14.40
   1   2 -17  185.28   16.00
  -1   2  17  208.98   14.90
  -1   2  17  186.28   15.00
   1   2 -17  123.79   17.90
   0  -2  17  200.18   15.10
   0  -2 -17  232.88   17.70
   0  -2  17  207.18   16.10
   0   2 -17  183.68   17.40
   0   2  17  187.98   16.10
   0   2  17  179.28   15.50
   0   2 -17  186.48   15.40
  -1  -2 -17  295.37   23.00
   1  -2  17  280.77   20.60
   1   2  17  278.07   21.40
  -1   2 -17  278.27   20.60
   1   2  17  288.27   20.90
  -1   2 -17  294.47   23.60
  -2  -2 -17  360.56   27.80
   2  -2  17  359.96   25.00
   2   2  17  320.47   24.50
  -2   2 -17  386.66   29.30
  -2   2 -17  313.27   26.50
  -2   2 -17  329.47   24.70
   2   2  17  372.26   26.10
  -3  -2 -17   15.70   11.40
   3  -2  17   39.00    8.10
  -3   2 -17   25.40    7.60
  -3   2 -17   27.60   11.70
   3   2  17   28.90    8.30
   3   2  17   25.50    6.90
   4  -2  17   41.70   12.00
   4   2  17   39.40    9.70
  -4   2 -17   36.10   13.40
   4   2  17   44.50    9.20
  -4   2 -17   43.10    9.50
   6  -3 -17   42.80    9.60
  -6  -3  17   38.30   10.40
   6  -3 -17   40.80    8.00
  -6   3  17   39.20    9.30
   6   3 -17   32.90   12.20
   6   3 -17   49.00    8.90
   5  -3 -17  111.09   12.20
  -5  -3  17  109.39   13.70
   5  -3 -17  106.29   13.00
  -5   3  17  101.59   12.60
   5   3 -17  115.09   13.00
   5   3 -17  110.69   19.00
   4  -3 -17  115.79   14.20
  -4  -3  17  118.99   12.70
  -4  -3  17  124.19   15.00
   4  -3 -17  112.99   12.00
   4   3 -17  122.19   13.70
  -4   3  17  118.79   13.10
   4   3 -17  133.69   21.60
  -4   3  17  118.79   12.40
  -3  -3  17  387.36   28.00
   3  -3 -17  310.37   25.10
   3  -3 -17  377.76   27.70
   3   3 -17  402.06   25.70
   3   3 -17  373.26   35.30
   3   3 -17  397.56   27.40
  -3   3  17  389.76   26.40
  -3   3  17  409.46   27.50
   2  -3 -17   97.09   10.70
  -2  -3  17  128.79   13.50
   2   3 -17   95.09   18.10
   2   3 -17  118.09   13.70
  -2   3  17  123.79   12.60
   2   3 -17  129.09   11.50
  -2   3  17  125.99   12.20
  -1  -3  17  357.26   23.20
  -1  -3  17  341.67   25.20
   1  -3 -17  334.77   24.30
   1   3 -17  344.17   24.10
  -1   3  17  333.67   25.00
  -1   3  17  355.06   24.60
   1   3 -17  341.87   25.70
   0  -3  17   50.99    8.70
   0  -3 -17   59.39    9.70
   0  -3  17   53.59    7.20
   0   3  17   72.39    9.70
   0   3  17   68.09    8.90
   0   3 -17   70.49    8.60
   0   3 -17   61.59   10.40
  -1  -3 -17   78.89   11.90
   1  -3  17   90.09   10.00
   1  -3  17   60.89    9.20
  -1   3 -17   75.19    9.30
   1   3  17   81.39   11.00
   1   3  17   81.29    9.80
  -1   3 -17   96.29   13.20
  -1   3 -17   68.49   10.00
   2  -3  17  107.49   11.90
   2  -3  17  104.19   12.50
  -2  -3 -17  111.09   15.00
   2   3  17  106.39   12.10
   2   3  17   89.39   12.60
  -2   3 -17  104.49   11.50
  -2   3 -17  105.39   12.80
  -2   3 -17   95.69   14.50
  -3  -3 -17   69.69   15.30
   3  -3  17  110.09   13.70
   3  -3  17   94.29   12.30
   3   3  17  112.49   12.90
  -3   3 -17  105.79   13.50
  -3   3 -17  118.89   12.70
  -3   3 -17  125.89   17.10
   3   3  17  121.19   14.90
  -5  -4  17   92.19   15.00
  -5  -4  17   90.19   11.30
   5  -4 -17   92.29   12.60
   5  -4 -17   93.59   11.50
  -5   4  17  104.29   13.50
   5   4 -17  106.49   20.50
   5   4 -17  128.39   14.00
  -5   4  17  104.29   12.00
   4  -4 -17   47.80    8.20
  -4  -4  17   40.90    9.50
   4  -4 -17   34.70    8.60
  -4  -4  17   35.70    8.10
  -4   4  17   43.30    8.30
  -4   4  17   41.60    9.00
   4   4 -17   40.30   15.20
   4   4 -17   39.70    8.80
   3  -4 -17   36.10    7.40
  -3  -4  17    7.30    7.00
  -3  -4  17   35.90    8.80
   3   4 -17   31.60    6.50
   3   4 -17   35.90    8.50
   3   4 -17   31.40   14.20
  -3   4  17   33.10    7.70
  -3   4  17   34.20    8.40
   2  -4 -17  121.59   13.20
  -2  -4  17  119.69   14.80
   2   4 -17   68.99   17.80
  -2   4  17  139.49   13.70
  -2   4  17  140.69   13.70
   2   4 -17  128.79   14.60
   2   4 -17  137.49   12.80
  -2   4  17  123.09   13.40
  -1  -4  17  154.88   16.60
   1  -4 -17  177.98   15.90
  -1   4  17  189.48   16.40
   1   4 -17  179.28   15.50
  -1   4  17  176.28   16.80
  -1   4  17  182.58   16.10
   1   4 -17  175.48   17.80
   0  -4  17  242.58   21.30
   0  -4 -17  270.07   21.90
   0  -4 -17  226.98   21.70
   0   4  17  279.07   21.10
   0   4 -17  273.97   23.00
   0   4  17  279.07   21.00
   0   4 -17  279.87   20.50
   0   4  17  264.17   21.90
  -1  -4 -17   31.10   10.40
   1  -4  17   43.00    7.20
   1  -4  17   26.50    7.40
   1   4  17   26.10    8.30
  -1   4 -17   27.80    7.10
  -1   4 -17   31.60   10.10
   1   4  17   36.20    7.70
  -1   4 -17   28.50    8.40
   2  -4  17   58.79   10.00
   2  -4  17   67.59    9.60
  -2  -4 -17   60.19   13.40
  -2   4 -17   62.79   11.00
  -2   4 -17   64.19   13.20
   2   4  17   62.99   11.00
   2   4  17   67.19   11.10
  -2   4 -17   63.49   10.30
   2  -5 -17   74.29   10.50
   2   5 -17   86.69   12.00
  -2   5  17   89.49   11.60
  -2   5  17   75.79   12.20
  -7   0  18  211.98   24.30
   7   0 -18  207.68   21.50
  -6   0  18  486.15   36.70
   6   0 -18  457.85   35.40
   5   0 -18   31.80    9.10
  -5   0  18   25.40    8.40
  -4   0  18    0.80    5.60
   4   0 -18   -1.00    6.70
  -4   0  18    0.20    4.50
  -3   0  18  327.67   23.30
   3   0 -18  337.67   23.50
   3   0 -18  346.17   27.00
  -2   0  18   81.79    9.40
   2   0 -18  100.49   10.80
   2   0 -18  111.79   14.80
   1   0 -18  608.94   40.60
  -1   0  18  531.85   36.30
   1   0 -18  556.54   37.00
   0   0 -18  207.98   17.50
   0   0 -18  219.88   20.50
   0   0  18  164.78   15.30
   1   0  18   26.80    6.30
  -1   0 -18   27.30    8.70
   2   0  18   48.50    8.60
  -2   0 -18   58.69   11.80
   3   0  18  553.54   39.30
  -3   0 -18  595.74   42.10
  -7  -1  18  235.78   24.70
   7  -1 -18  218.18   22.20
  -7   1  18  251.57   27.50
   7   1 -18  229.98   23.60
  -6  -1  18   77.99   12.70
   6  -1 -18   85.39   12.60
   6   1 -18   58.19   12.40
  -5  -1  18   85.49   12.40
   5  -1 -18   82.29   12.20
   5   1 -18   79.49   14.00
  -5   1  18   79.49   10.00
  -4  -1  18   15.90    6.80
   4  -1 -18   16.70    7.70
  -4   1  18    8.60    5.50
   4   1 -18   13.50    5.80
   4   1 -18   16.50    8.80
   3  -1 -18   43.70    7.60
   3  -1 -18   38.50    8.60
  -3  -1  18   40.60    7.70
  -3  -1  18   38.00    6.20
   3   1 -18   36.70   10.40
   3   1 -18   33.90    7.00
  -3   1  18   37.20    6.90
  -2  -1  18  862.81   53.49
   2  -1 -18  843.32   53.59
   2  -1 -18  881.71   56.19
   2   1 -18  931.11   58.99
   2   1 -18  828.42   54.09
  -2   1  18  830.92   53.89
  -1  -1  18  241.58   18.50
   1  -1 -18  249.18   19.40
   1  -1 -18  270.87   22.50
   1   1 -18  304.67   25.30
   1   1 -18  250.27   20.00
  -1   1  18  253.27   19.20
   0  -1 -18   96.29   11.30
   0  -1 -18   92.89   12.80
   0  -1  18   91.99   10.00
   0   1 -18  101.49   15.80
   0   1  18   86.99   10.30
   0   1 -18  120.99   12.80
   1  -1  18    5.40    4.60
  -1  -1 -18    8.00    8.00
  -1  -1 -18   -1.10    4.70
   1   1  18    1.80    3.80
   1   1  18    1.70    5.00
  -1   1 -18    6.20    4.70
  -1   1 -18    6.60    8.00
  -2  -1 -18  167.18   18.70
   2  -1  18  148.59   14.50
  -2   1 -18  143.29   13.80
  -2   1 -18  158.08   19.30
   2   1  18  141.19   13.40
   2   1  18  150.28   15.10
   3  -1  18   23.00    6.90
  -3  -1 -18   21.70   11.80
   3   1  18   12.90    6.80
  -3   1 -18   10.90   11.60
  -3   1 -18   19.60    7.10
   3   1  18   13.00    5.70
   6  -2 -18  416.16   30.90
  -6  -2  18  434.56   32.10
   6  -2 -18  401.76   30.70
   6   2 -18  395.96   34.20
  -6   2  18  368.06   28.80
  -5  -2  18  125.99   15.60
   5  -2 -18  111.19   15.00
   5   2 -18  117.69   13.00
   5   2 -18  121.69   18.60
  -5   2  18  117.09   12.90
   4  -2 -18   78.69   11.30
  -4  -2  18   74.79   10.80
   4   2 -18   75.19   10.10
  -4   2  18   65.29    9.60
   4   2 -18   67.19   15.30
  -3  -2  18  119.89   13.80
   3  -2 -18  104.29   14.80
   3   2 -18  154.48   13.80
  -3   2  18  151.08   13.50
   3   2 -18  157.88   20.40
   2  -2 -18  123.79   11.70
  -2  -2  18  127.89   13.40
  -2  -2  18  132.49   11.10
   2  -2 -18  125.89   14.90
   2   2 -18  101.59   12.80
   2   2 -18  145.79   20.60
  -2   2  18  115.09   12.40
   1  -2 -18  356.36   28.10
  -1  -2  18  350.76   25.00
   1  -2 -18  370.16   26.00
  -1  -2  18  351.66   26.30
  -1   2  18  380.36   26.40
   1   2 -18  381.46   27.10
   1   2 -18  415.06   25.60
  -1   2  18  392.46   25.90
   0  -2  18   93.79   10.20
   0  -2  18   85.49   10.70
   0  -2 -18  108.19   12.10
   0   2  18  104.29   11.00
   0   2 -18  107.39   12.70
   0   2 -18  104.19   10.70
   0   2  18  107.89   11.70
  -1  -2 -18  172.18   18.00
   1  -2  18  162.68   14.80
  -1   2 -18  191.08   18.90
   1   2  18  186.48   15.30
   1   2  18  186.68   16.30
  -1   2 -18  170.88   15.10
  -2  -2 -18   77.59   13.20
   2  -2  18   80.09   10.00
  -2   2 -18   72.89   13.10
   2   2  18   63.39   10.40
  -2   2 -18   72.79    9.40
   2   2  18   64.19    9.20
   3  -2  18  282.27   22.40
  -3  -2 -18  252.67   25.70
  -3   2 -18  279.07   27.80
   3   2  18  286.57   23.70
  -3   2 -18  281.17   22.10
   3   2  18  287.27   22.10
  -5  -3  18  143.89   17.40
   5  -3 -18  147.19   14.30
   5  -3 -18  147.29   16.80
  -5   3  18  138.09   15.10
   5   3 -18  176.48   15.60
   5   3 -18  118.79   19.80
  -4  -3  18   77.99   11.80
   4  -3 -18   69.09   11.00
   4  -3 -18   75.09    9.10
   4   3 -18   92.39   11.60
  -4   3  18   82.89   11.10
   4   3 -18   64.39   16.10
  -3  -3  18  176.08   17.20
   3  -3 -18  169.98   16.90
  -3   3  18  181.08   15.20
   3   3 -18  171.58   14.20
   3   3 -18  151.18   23.60
  -3   3  18  151.98   15.80
   3   3 -18  160.58   16.30
  -2  -3  18  168.98   15.40
   2   3 -18  146.39   15.50
   2   3 -18  153.68   13.40
  -2   3  18  159.68   15.10
  -2   3  18  149.49   14.20
   2   3 -18  105.19   20.30
   1  -3 -18   86.19   10.80
  -1  -3  18   96.59   12.40
  -1   3  18  103.89   11.20
   1   3 -18  110.59   11.30
  -1   3  18  100.39   11.70
   1   3 -18  110.59   13.10
   0  -3  18   96.59   12.30
   0  -3 -18   90.99   12.10
   0  -3  18   96.99   10.80
   0   3 -18  121.39   12.30
   0   3  18  124.89   12.60
   0   3 -18  137.09   15.00
   0   3  18  133.89   13.70
   1  -3  18   15.50    5.40
  -1  -3 -18   11.10    9.10
   1  -3  18    9.00    5.80
   1   3  18    9.00    5.50
  -1   3 -18    3.70    5.50
   1   3  18   13.70    7.10
  -1   3 -18   10.10    8.50
   2  -3  18  107.39   12.50
   2  -3  18  103.59   13.00
  -2  -3 -18  108.09   15.70
  -2   3 -18  120.89   16.30
   2   3  18  109.49   12.40
  -2   3 -18   99.59   11.70
  -2   3 -18  109.39   13.30
   2   3  18  110.19   14.00
  -4  -4  18  198.88   24.40
   4  -4 -18  178.38   18.30
   4  -4 -18  187.48   16.60
  -4  -4  18  200.98   17.50
  -4   4  18  191.88   17.40
  -4   4  18  151.58   20.70
   4   4 -18  188.28   17.90
   4   4 -18  170.48   27.10
  -3  -4  18   51.99   10.10
  -3  -4  18   21.10    8.00
   3  -4 -18   47.80    8.10
  -3   4  18   46.40    9.30
  -3   4  18   48.60    8.70
   3   4 -18   23.40   13.80
   3   4 -18   47.60    7.60
   3   4 -18   51.59    9.90
   2  -4 -18   15.30    6.60
  -2  -4  18   19.20    7.40
   2   4 -18   26.60    8.30
   2   4 -18   28.70    6.60
  -2   4  18   37.90    7.90
  -2   4  18   33.80    8.50
  -2   4  18   28.30    7.40
  -1  -4  18   54.69    9.60
  -1   4  18   48.70    8.70
  -1   4  18   38.50    8.90
   1   4 -18   51.49   10.30
   1   4 -18   44.30    7.90
   0  -4 -18   36.40    9.80
   0  -4  18   33.70    8.20
   0   4 -18   41.80   10.60
   0   4  18   34.50    7.90
   0   4 -18   43.00    7.90
   0   4  18   41.40    8.80
  -6   0  19   43.40   11.60
   6   0 -19   36.40   10.50
  -5   0  19  757.42   53.69
   5   0 -19  843.02   54.59
   4   0 -19  101.99   14.50
  -4   0  19   81.99    9.80
   3   0 -19   67.89    8.80
  -3   0  19   51.39    7.90
   3   0 -19   69.59   12.20
   2   0 -19  204.58   20.20
  -2   0  19  170.18   15.00
   2   0 -19  189.18   16.10
   1   0 -19  118.99   15.90
   1   0 -19   99.79   12.30
  -1   0  19   90.39   10.40
   0   0 -19  218.28   19.50
   0   0 -19  248.08   23.00
   0   0  19  213.28   17.70
   1   0  19  148.09   14.20
  -1   0 -19  163.18   18.40
  -2   0 -19   17.40   10.40
   2   0  19   16.30    6.50
  -3   0 -19   85.29   17.50
   3   0  19   96.79   15.90
   6  -1 -19  179.18   19.30
  -6  -1  19  191.98   20.80
   6   1 -19  181.08   20.80
  -5  -1  19   21.60    8.70
   5  -1 -19   27.20    8.90
   5   1 -19   33.40   10.90
  -5   1  19   19.30    6.80
  -4  -1  19  368.86   28.70
   4  -1 -19  357.06   29.60
   4   1 -19  411.06   32.50
   4   1 -19  404.26   27.60
  -4   1  19  417.46   27.70
  -3  -1  19   11.10    5.00
   3  -1 -19   21.50    8.40
  -3  -1  19   13.70    5.40
  -3   1  19    8.50    5.70
   3   1 -19    4.20    5.50
   3   1 -19   11.50    8.90
   2  -1 -19   16.30    6.20
  -2  -1  19   14.40    5.00
   2  -1 -19   22.60    8.50
  -2   1  19   17.10    5.80
   2   1 -19   37.60   11.20
   2   1 -19   20.80    6.50
   1  -1 -19  413.96   30.60
  -1  -1  19  394.16   26.70
   1  -1 -19  393.16   27.40
  -1   1  19  377.76   27.00
   1   1 -19  366.06   27.70
   1   1 -19  409.76   33.00
   0  -1 -19  427.96   28.40
   0  -1 -19  409.96   31.00
   0  -1  19  391.26   26.90
   0   1  19  361.16   27.20
   0   1 -19  364.36   28.50
  -1  -1 -19    2.60    5.40
  -1  -1 -19   36.40    9.70
   1  -1  19   26.70    6.50
  -1   1 -19   19.40    9.40
   1   1  19   13.00    5.80
  -2  -1 -19    7.90   10.00
   2  -1  19    8.50    5.90
   2   1  19    8.40    6.20
  -2   1 -19   16.10   10.90
   2   1  19    9.00    6.40
  -3   1 -19   26.10    7.50
   3   1  19   29.30    6.90
  -6  -2  19   87.49   13.90
   6  -2 -19   78.29   12.80
  -6   2  19   59.69   10.40
  -5  -2  19  454.95   34.80
   5  -2 -19  456.15   34.80
   5   2 -19  516.95   33.70
   5   2 -19  463.05   39.00
  -5   2  19  519.75   33.80
   4  -2 -19   97.09   12.70
  -4  -2  19   93.59   12.50
   4   2 -19   96.89   11.60
   4   2 -19  108.19   18.50
  -4   2  19   94.49   11.80
   3  -2 -19  116.79   15.20
  -3  -2  19  115.19   13.90
   3   2 -19  114.29   13.20
  -3   2  19  109.09   12.50
   3   2 -19  150.58   21.40
  -2  -2  19  185.38   15.80
   2  -2 -19  191.98   18.00
  -2  -2  19  203.18   17.60
   2  -2 -19  207.68   19.30
   2   2 -19  209.58   24.60
  -2   2  19  185.38   16.90
   2   2 -19  192.28   17.30
  -1  -2  19   71.59    9.60
   1  -2 -19   69.99    9.40
  -1  -2  19   65.39    8.20
   1  -2 -19   66.69   11.60
   1   2 -19   60.19    9.80
  -1   2  19   52.79    9.00
   0  -2  19  200.98   16.80
   0  -2 -19  225.58   21.10
   0  -2 -19  233.18   19.60
   0   2  19  207.68   17.20
   0   2  19  219.68   18.40
   0   2 -19  220.98   19.90
   0   2 -19  210.98   17.10
  -1  -2 -19  262.27   21.80
   1  -2  19  248.08   18.80
  -1  -2 -19  223.58   22.30
   1   2  19  229.28   18.70
   1   2  19  241.28   20.00
  -1   2 -19  225.38   18.40
  -1   2 -19  241.78   22.30
  -2  -2 -19   94.29   14.20
   2  -2  19   81.99   10.40
   2   2  19   66.89   10.90
  -2   2 -19   70.79    9.60
  -2   2 -19   55.69   13.00
   2   2  19   67.79    9.60
   5  -3 -19    0.30    9.10
  -5  -3  19    3.40    8.90
  -5   3  19    6.20    7.20
   5   3 -19    5.60   12.40
   5   3 -19    4.70    6.20
  -4  -3  19  113.99   14.30
   4  -3 -19  100.99   13.40
  -4   3  19  131.89   14.00
   4   3 -19  120.19   13.60
   4   3 -19  118.99   21.10
  -3  -3  19   27.60    8.30
   3  -3 -19   20.80    8.40
   3   3 -19   25.00   13.20
   3   3 -19   40.10    8.80
  -3   3  19   21.00    7.30
  -2  -3  19  169.98   16.30
   2  -3 -19  160.78   17.70
  -2   3  19  183.68   15.50
  -2   3  19  171.48   16.10
   2   3 -19  128.49   22.10
   2   3 -19  155.48   16.70
   2   3 -19  183.78   14.90
  -1  -3  19  188.58   17.30
   1  -3 -19  188.78   16.70
  -1   3  19  192.08   16.60
   1   3 -19  190.78   18.30
  -1   3  19  179.08   17.00
   1   3 -19  192.08   16.10
   0  -3  19  231.68   17.30
   0  -3  19  217.68   19.10
   0  -3 -19  237.58   20.20
   0   3 -19  214.78   17.80
   0   3 -19  194.88   20.10
   0   3  19  212.98   18.20
   0   3  19  215.58   19.20
   1  -3  19   85.19   10.00
   1  -3  19   65.59   10.00
  -1  -3 -19   71.69   12.20
  -1   3 -19   63.89    9.20
   1   3  19   66.49    9.60
  -1   3 -19   67.69   12.80
   1   3  19   70.29   11.10
   5   0 -20   51.49   11.70
  -4   0  20  428.86   29.20
   4   0 -20  419.06   33.10
   3   0 -20  131.09   17.50
  -3   0  20  118.79   12.50
   3   0 -20  121.19   13.20
   2   0 -20    8.60    8.80
   2   0 -20   11.90    6.20
  -2   0  20   11.40    5.60
   1   0 -20   28.30    7.90
  -1   0  20   18.70    5.90
   1   0 -20   23.60   10.30
   0   0 -20   67.79   13.90
   0   0 -20   78.39   11.60
   0   0  20   54.29    8.70
   1   0  20   82.09   10.60
  -1   0 -20   85.59   13.00
  -2   0 -20  205.58   25.90
   2   0  20  184.28   21.30
   5  -1 -20  140.69   17.10
  -5  -1  20  137.89   17.50
   5   1 -20  126.99   18.30
  -5   1  20  141.69   14.30
  -4  -1  20   17.30    7.40
   4  -1 -20    8.70    8.10
   4   1 -20    5.40    8.80
   4   1 -20   11.60    6.20
  -4   1  20    4.40    6.00
  -3  -1  20  127.39   12.30
   3  -1 -20  137.09   16.30
   3   1 -20   97.09   11.60
  -3   1  20   88.49   11.40
   3   1 -20  107.09   16.90
   2  -1 -20  145.39   18.10
   2  -1 -20  157.78   15.00
  -2  -1  20  150.48   13.90
   2   1 -20  188.58   21.60
  -2   1  20  165.18   14.80
   2   1 -20  152.38   15.60
   1  -1 -20   25.70    9.80
   1  -1 -20   24.30    7.80
  -1  -1  20   19.60    5.90
  -1   1  20   27.70    6.80
   1   1 -20   24.10   11.20
   1   1 -20   22.40    7.80
   0  -1 -20  113.99   13.10
   0  -1  20  116.89   12.10
   0  -1 -20  113.99   15.60
   0   1 -20  115.29   13.80
   0   1  20  114.39   12.40
   1  -1  20  303.27   23.10
  -1  -1 -20  314.87   26.00
   1   1  20  295.27   23.50
  -1   1 -20  325.57   26.40
  -5  -2  20  174.78   18.70
  -5   2  20  168.58   16.70
   4  -2 -20  372.46   27.50
  -4  -2  20  386.96   27.20
   4   2 -20  303.27   25.00
   4   2 -20  304.27   31.60
  -4   2  20  333.37   25.70
   3  -2 -20   79.59   12.90
  -3  -2  20  100.39   12.80
  -3   2  20   92.99   11.70
   3   2 -20  134.99   20.30
   3   2 -20  105.39   12.90
  -2  -2  20   38.60    8.30
   2  -2 -20   36.90    9.80
   2   2 -20   19.90    7.40
  -2   2  20   19.00    6.90
   2   2 -20   14.50   11.20
  -1  -2  20   12.40    5.00
   1  -2 -20   10.90    8.50
   1  -2 -20   15.40    7.10
   1   2 -20    5.30    6.90
  -1   2  20    9.50    6.10
   0  -2 -20  121.29   15.90
   0  -2  20  132.29   12.50
   0  -2 -20  130.29   15.80
   0   2 -20  123.69   14.80
   0   2  20  111.99   13.20
  -1  -2 -20   47.00   10.80
  -1  -2 -20   22.50   10.20
   1  -2  20   43.80    8.00
   1   2  20   47.80    9.90
   1   2  20   48.60    8.90
  -1   2 -20   53.49    8.20
  -1   2 -20   49.60   12.90
   3  -3 -20  205.68   26.20
  -3  -3  20  189.68   18.30
   3   3 -20  183.58   17.30
  -3   3  20  156.98   18.80
   3   3 -20  162.58   24.50
  -2  -3  20   38.90    8.70
   2  -3 -20   40.30   10.30
  -2   3  20   37.00    9.00
   2   3 -20   42.90    9.50
   1  -3 -20   90.89   13.60
  -1  -3  20  131.39   14.10
   1   3 -20  100.59   11.10
  -1   3  20  106.79   12.20
  -1   3  20   90.49   15.50
   1   3 -20   94.69   14.60
   4   0 -21    7.70    8.70
  -3   0  21  623.34   40.60
   3   0 -21  598.54   40.50
   3   0 -21  640.44   45.20
   2   0 -21  185.48   21.30
  -2   0  21  179.58   15.70
   2   0 -21  174.08   16.70
  -1   0  21   49.20    8.20
   1   0 -21   61.29   13.60
   1   0 -21   46.50    9.20
   0   0 -21    7.40    7.90
   0   0  21    3.70    5.30
   4  -1 -21  196.78   21.30
  -4   1  21  238.08   18.90
   4   1 -21  196.58   19.00
   4   1 -21  235.38   24.60
   3  -1 -21   70.99   13.00
  -3   1  21   66.39    9.70
   3   1 -21   67.69    9.90
   3   1 -21   80.09   15.70
  -2  -1  21  259.27   20.90
   2  -1 -21  270.57   25.50
   2  -1 -21  249.78   21.30
   2   1 -21  352.56   29.60
   2   1 -21  304.07   22.50
  -2   1  21  306.77   22.10
  -1  -1  21   90.19   10.60
   1  -1 -21  103.89   15.20
   1  -1 -21   90.49   11.70
  -1   1  21   99.19   11.60
   1   1 -21  107.79   18.90
   1   1 -21  112.79   13.30
   0  -1  21   52.59    8.60
   0  -1 -21   58.39   10.90
   0  -1 -21   49.80   12.50
   0   1 -21   61.99   11.20
   0   1  21   70.99    9.90
   3  -2 -21  273.57   33.40
  -3  -2  21  280.27   23.60
  -3   2  21  305.27   23.30
   3   2 -21  278.17   23.30
   3   2 -21  332.57   31.50
   2  -2 -21   61.49   12.10
  -2   2  21   73.99   10.70
   2   2 -21   82.89   17.90
   2   2 -21   70.69   10.80
  -1  -2  21   66.89    9.00
   1  -2 -21   57.49   12.40
   1  -2 -21   63.99   10.20
   1   2 -21   97.39   13.60
   0   0   0    0.00    0.00
_computing_structure_solution     'SHELXT 2014/5 (Sheldrick, 2014)'
;
_shelx_hkl_checksum              94883
_shelx_res_file
;
TITL 20Sep17_AP1_P21_a.res in P2(1)
    20Sep17_AP1_P21_a.res
    created by SHELXL-2016/6 at 06:20:38 on 21-Sep-2017
CELL  0.71073   7.4526   5.8441  16.2782   90.000  101.808   90.000
ZERR    2.000   0.0013   0.0010   0.0027    0.000    0.002    0.000
LATT -1
SYMM -X, 1/2+Y, -Z
SFAC C  H  Br
UNIT 30  28  4
L.S. 10
ACTA
BOND $H
FMAP 2
PLAN 5
SIZE 0.116 0.251 0.74
TEMP 23.000
WGHT    0.000000
FVAR       0.70695
BR1   3    0.725123    0.643238    0.321498    11.00000    0.03702    0.03549 =
         0.01707   -0.00373    0.00528   -0.00535
BR2   3    0.070376    0.073323    0.938435    11.00000    0.01583    0.01890 =
         0.02574    0.00104    0.00954   -0.00157
C1    1    0.796480    0.801843    0.704113    11.00000    0.01949    0.02523 =
         0.01742   -0.00017    0.00692   -0.00389
AFIX  23
H1A   2    0.773435    0.961347    0.714801    11.00000   -1.20000
H1B   2    0.918940    0.764318    0.734497    11.00000   -1.20000
AFIX   0
C2    1    0.657824    0.653010    0.735988    11.00000    0.01815    0.02095 =
         0.01831   -0.00127    0.00796   -0.00305
AFIX  23
H2A   2    0.688304    0.493461    0.729720    11.00000   -1.20000
H2B   2    0.537220    0.679954    0.701533    11.00000   -1.20000
AFIX   0
C3    1    0.650671    0.698091    0.828003    11.00000    0.01826    0.01945 =
         0.01958   -0.00158    0.00743   -0.00275
AFIX  23
H3A   2    0.770709    0.669457    0.862731    11.00000   -1.20000
H3B   2    0.620835    0.857725    0.834565    11.00000   -1.20000
AFIX   0
C4    1    0.786024    0.767756    0.610773    11.00000    0.01333    0.02070 =
         0.01894    0.00189    0.00629   -0.00302
C5    1    0.697304    0.926891    0.552707    11.00000    0.01906    0.01601 =
         0.02434    0.00064    0.00756    0.00195
AFIX  43
H5    2    0.649793    1.059450    0.571618    11.00000   -1.20000
AFIX   0
C6    1    0.678452    0.890666    0.466382    11.00000    0.01874    0.02024 =
         0.02151    0.00516    0.00156    0.00197
AFIX  43
H6    2    0.619388    0.997936    0.427980    11.00000   -1.20000
AFIX   0
C7    1    0.749376    0.692151    0.439226    11.00000    0.01941    0.02361 =
         0.01517   -0.00070    0.00541   -0.00420
C8    1    0.838357    0.530330    0.494700    11.00000    0.02067    0.01695 =
         0.02655   -0.00069    0.01229    0.00160
AFIX  43
H8    2    0.885231    0.397812    0.475442    11.00000   -1.20000
AFIX   0
C9    1    0.856171    0.571030    0.580775    11.00000    0.01850    0.01975 =
         0.02092    0.00686    0.00686    0.00207
AFIX  43
H9    2    0.916431    0.463847    0.618886    11.00000   -1.20000
AFIX   0
C10   1    0.511062    0.549949    0.857914    11.00000    0.01579    0.01845 =
         0.01401   -0.00406    0.00554   -0.00258
C11   1    0.560406    0.337056    0.895161    11.00000    0.01355    0.02003 =
         0.01643   -0.00239    0.00451    0.00149
AFIX  43
H11   2    0.681880    0.289513    0.903494    11.00000   -1.20000
AFIX   0
C12   1    0.430874    0.194808    0.920027    11.00000    0.01732    0.01607 =
         0.01586    0.00045    0.00523    0.00205
AFIX  43
H12   2    0.465409    0.054546    0.945371    11.00000   -1.20000
AFIX   0
C13   1    0.248896    0.266563    0.906224    11.00000    0.01416    0.01891 =
         0.01473   -0.00135    0.00703   -0.00037
C14   1    0.196667    0.477473    0.870125    11.00000    0.01453    0.02240 =
         0.02181    0.00200    0.00660    0.00442
AFIX  43
H14   2    0.075257    0.525136    0.862057    11.00000   -1.20000
AFIX   0
C15   1    0.328223    0.616719    0.846155    11.00000    0.01962    0.01708 =
         0.02256    0.00349    0.00609    0.00206
AFIX  43
H15   2    0.293275    0.757895    0.821671    11.00000   -1.20000
AFIX   0
HKLF 4
REM  20Sep17_AP1_P21_a.res in P2(1)
REM R1 =  0.0231 for    3421 Fo > 4sig(Fo)  and  0.0246 for all    3562 data
REM    154 parameters refined using      1 restraints
END
WGHT      0.0352      0.0000
REM Highest difference peak  0.684,  deepest hole -0.353,  1-sigma level  0.072
Q1    1   0.7303  0.4969  0.3227  11.00000  0.05    0.68
Q2    1   0.0705  0.2180  0.9374  11.00000  0.05    0.55
Q3    1   0.4778  1.0635  0.4219  11.00000  0.05    0.44
Q4    1   0.2012  0.1815  0.9200  11.00000  0.05    0.39
Q5    1   0.5899  1.1457  0.4442  11.00000  0.05    0.38
;
_shelx_res_checksum              19876
loop_
_space_group_symop_operation_xyz
'x, y, z'
'-x, y+1/2, -z'
loop_
_atom_site_type_symbol
_atom_site_label
_atom_site_fract_x
_atom_site_fract_y
_atom_site_fract_z
_atom_site_U_iso_or_equiv
_atom_site_adp_type
_atom_site_calc_flag
_atom_site_occupancy
Br Br1 0.72512(6) 0.64324(6) 0.32150(2) 0.02990(11) Uani d 1
Br Br2 0.07038(4) 0.07332(6) 0.93844(2) 0.01940(9) Uani d 1
C C1 0.7965(5) 0.8018(7) 0.7041(2) 0.0203(7) Uani d 1
H H1A 0.773435 0.961347 0.714801 0.024 Uiso calc 1
H H1B 0.91894 0.764318 0.734497 0.024 Uiso calc 1
C C2 0.6578(4) 0.6530(7) 0.73599(18) 0.0185(6) Uani d 1
H H2A 0.688304 0.493461 0.72972 0.022 Uiso calc 1
H H2B 0.53722 0.679954 0.701533 0.022 Uiso calc 1
C C3 0.6507(5) 0.6981(6) 0.8280(2) 0.0186(7) Uani d 1
H H3A 0.770709 0.669457 0.862731 0.022 Uiso calc 1
H H3B 0.620835 0.857725 0.834565 0.022 Uiso calc 1
C C4 0.7860(5) 0.7678(6) 0.6108(2) 0.0172(7) Uani d 1
C C5 0.6973(5) 0.9269(6) 0.5527(2) 0.0194(7) Uani d 1
H H5 0.649793 1.05945 0.571618 0.023 Uiso calc 1
C C6 0.6785(5) 0.8907(6) 0.4664(2) 0.0205(7) Uani d 1
H H6 0.619388 0.997936 0.42798 0.025 Uiso calc 1
C C7 0.7494(5) 0.6922(6) 0.43923(19) 0.0191(7) Uani d 1
C C8 0.8384(5) 0.5303(6) 0.4947(2) 0.0203(8) Uani d 1
H H8 0.885231 0.397812 0.475442 0.024 Uiso calc 1
C C9 0.8562(4) 0.5710(7) 0.5808(2) 0.0193(6) Uani d 1
H H9 0.916431 0.463847 0.618886 0.023 Uiso calc 1
C C10 0.5111(4) 0.5499(6) 0.85791(18) 0.0157(6) Uani d 1
C C11 0.5604(5) 0.3371(6) 0.8952(2) 0.0165(7) Uani d 1
H H11 0.68188 0.289513 0.903494 0.02 Uiso calc 1
C C12 0.4309(4) 0.1948(6) 0.92003(19) 0.0162(7) Uani d 1
H H12 0.465409 0.054546 0.945371 0.019 Uiso calc 1
C C13 0.2489(4) 0.2666(6) 0.90622(19) 0.0154(6) Uani d 1
C C14 0.1967(5) 0.4775(6) 0.8701(2) 0.0192(7) Uani d 1
H H14 0.075257 0.525136 0.862057 0.023 Uiso calc 1
C C15 0.3282(4) 0.6167(6) 0.84615(19) 0.0195(7) Uani d 1
H H15 0.293275 0.757895 0.821671 0.023 Uiso calc 1
loop_
_atom_site_aniso_label
_atom_site_aniso_U_11
_atom_site_aniso_U_22
_atom_site_aniso_U_33
_atom_site_aniso_U_12
_atom_site_aniso_U_13
_atom_site_aniso_U_23
Br1 0.0370(2) 0.0355(2) 0.01707(16) -0.00535(17) 0.00528(14) -0.00373(15)
Br2 0.01583(15) 0.01890(15) 0.02574(17) -0.00157(13) 0.00954(12) 0.00104(12)
C1 0.0195(18) 0.0252(19) 0.0174(15) -0.0039(14) 0.0069(14) -0.0002(14)
C2 0.0182(16) 0.0209(16) 0.0183(14) -0.0031(14) 0.0080(12) -0.0013(14)
C3 0.0183(17) 0.0195(19) 0.0196(15) -0.0027(14) 0.0074(13) -0.0016(12)
C4 0.0133(16) 0.0207(17) 0.0189(15) -0.0030(13) 0.0063(13) 0.0019(13)
C5 0.0191(18) 0.0160(16) 0.0243(17) 0.0020(13) 0.0076(14) 0.0006(13)
C6 0.0187(17) 0.0202(18) 0.0215(17) 0.0020(14) 0.0016(14) 0.0052(14)
C7 0.0194(17) 0.0236(19) 0.0152(14) -0.0042(14) 0.0054(12) -0.0007(12)
C8 0.0207(17) 0.017(2) 0.0266(18) 0.0016(13) 0.0123(14) -0.0007(13)
C9 0.0185(15) 0.0197(16) 0.0209(16) 0.0021(16) 0.0069(13) 0.0069(15)
C10 0.0158(14) 0.0184(17) 0.0140(14) -0.0026(13) 0.0055(12) -0.0041(12)
C11 0.0135(16) 0.0200(17) 0.0164(15) 0.0015(13) 0.0045(13) -0.0024(13)
C12 0.0173(16) 0.0161(18) 0.0159(14) 0.0020(13) 0.0052(12) 0.0004(12)
C13 0.0142(16) 0.0189(17) 0.0147(14) -0.0004(12) 0.0070(12) -0.0014(12)
C14 0.0145(16) 0.0224(17) 0.0218(16) 0.0044(14) 0.0066(13) 0.0020(14)
C15 0.0196(16) 0.0171(19) 0.0226(15) 0.0021(13) 0.0061(13) 0.0035(13)
loop_
_atom_type_symbol
_atom_type_description
_atom_type_scat_dispersion_real
_atom_type_scat_dispersion_imag
_atom_type_scat_source
C C 0.0033 0.0016 'International Tables Vol C Tables 4.2.6.8 and 6.1.1.4'
H H 0.0000 0.0000 'International Tables Vol C Tables 4.2.6.8 and 6.1.1.4'
Br Br -0.2901 2.4595 'International Tables Vol C Tables 4.2.6.8 and 6.1.1.4'
loop_
_geom_angle_atom_site_label_1
_geom_angle_atom_site_label_2
_geom_angle_atom_site_label_3
_geom_angle
C4 C1 C2 111.5(3)
C4 C1 H1A 109.3
C2 C1 H1A 109.3
C4 C1 H1B 109.3
C2 C1 H1B 109.3
H1A C1 H1B 108.0
C1 C2 C3 113.4(3)
C1 C2 H2A 108.9
C3 C2 H2A 108.9
C1 C2 H2B 108.9
C3 C2 H2B 108.9
H2A C2 H2B 107.7
C10 C3 C2 112.4(3)
C10 C3 H3A 109.1
C2 C3 H3A 109.1
C10 C3 H3B 109.1
C2 C3 H3B 109.1
H3A C3 H3B 107.9
C9 C4 C5 118.3(3)
C9 C4 C1 120.9(3)
C5 C4 C1 120.8(3)
C4 C5 C6 121.1(3)
C4 C5 H5 119.4
C6 C5 H5 119.4
C7 C6 C5 118.8(3)
C7 C6 H6 120.6
C5 C6 H6 120.6
C8 C7 C6 121.9(3)
C8 C7 Br1 119.2(3)
C6 C7 Br1 118.8(3)
C7 C8 C9 118.2(3)
C7 C8 H8 120.9
C9 C8 H8 120.9
C4 C9 C8 121.7(3)
C4 C9 H9 119.1
C8 C9 H9 119.1
C15 C10 C11 118.1(3)
C15 C10 C3 121.0(3)
C11 C10 C3 120.8(3)
C12 C11 C10 121.3(3)
C12 C11 H11 119.4
C10 C11 H11 119.4
C13 C12 C11 118.8(3)
C13 C12 H12 120.6
C11 C12 H12 120.6
C14 C13 C12 121.0(3)
C14 C13 Br2 119.6(3)
C12 C13 Br2 119.4(2)
C13 C14 C15 119.1(3)
C13 C14 H14 120.4
C15 C14 H14 120.4
C14 C15 C10 121.6(3)
C14 C15 H15 119.2
C10 C15 H15 119.2
loop_
_geom_bond_atom_site_label_1
_geom_bond_atom_site_label_2
_geom_bond_distance
Br1 C7 1.909(3)
Br2 C13 1.899(3)
C1 C4 1.519(4)
C1 C2 1.521(5)
C1 H1A 0.97
C1 H1B 0.97
C2 C3 1.532(4)
C2 H2A 0.97
C2 H2B 0.97
C3 C10 1.509(5)
C3 H3A 0.97
C3 H3B 0.97
C4 C9 1.392(5)
C4 C5 1.393(5)
C5 C6 1.399(5)
C5 H5 0.93
C6 C7 1.384(5)
C6 H6 0.93
C7 C8 1.380(5)
C8 C9 1.400(5)
C8 H8 0.93
C9 H9 0.93
C10 C15 1.392(4)
C10 C11 1.400(5)
C11 C12 1.395(5)
C11 H11 0.93
C12 C13 1.393(4)
C12 H12 0.93
C13 C14 1.387(5)
C14 C15 1.390(5)
C14 H14 0.93
C15 H15 0.93

_cod_database_fobs_code 1549344
