#------------------------------------------------------------------------------
#$Date: 2018-09-24 09:49:13 +0300 (Mon, 24 Sep 2018) $
#$Revision: 211137 $
#$URL: file:///home/coder/svn-repositories/cod/cif/1/54/92/1549272.cif $
#------------------------------------------------------------------------------
#
# This file is available in the Crystallography Open Database (COD),
# http://www.crystallography.net/
#
# All data on this site have been placed in the public domain by the
# contributors.
#
data_1549272
loop_
_publ_author_name
'C. Kouvatas'
'V. Alonzo'
'T. Bataille'
'L. Le Polles'
'C. Roiland'
'G. Louarn'
'E. Le Fur'
_publ_section_title
;
 Synthesis, crystal structure of the ammonium vanadyl oxalatophosphite and
 its controlled conversion into catalytic vanadyl phosphates
;
_journal_name_full               'Journal of Solid State Chemistry'
_journal_page_first              73
_journal_page_last               77
_journal_paper_doi               10.1016/j.jssc.2017.05.026
_journal_volume                  253
_journal_year                    2017
_chemical_formula_sum            'C H7.89 N O7.45 P V'
_chemical_formula_weight         235.08
_space_group_crystal_system      triclinic
_space_group_IT_number           2
_space_group_name_Hall           '-P 1'
_space_group_name_H-M_alt        'P -1'
_symmetry_space_group_name_Hall  '-P 1'
_symmetry_space_group_name_H-M   'P -1'
_atom_sites_solution_hydrogens   difmap
_cell_angle_alpha                67.260(4)
_cell_angle_beta                 72.927(4)
_cell_angle_gamma                85.848(3)
_cell_formula_units_Z            2
_cell_length_a                   6.3844(4)
_cell_length_b                   7.2278(4)
_cell_length_c                   9.2965(5)
_cell_measurement_reflns_used    4920
_cell_measurement_temperature    293(2)
_cell_measurement_theta_max      30.034
_cell_measurement_theta_min      2.910
_cell_volume                     377.80(4)
_computing_cell_refinement
'Dirax/lsq (Duisenberg & Schreurs, 1989-2000)'
_computing_data_collection       'Collect (Bruker AXS BV, 1997-2004)'
_computing_data_reduction        'EvalCCD (Duisenberg & Schreurs 1990-2000)'
_computing_structure_refinement  'SHELXL-2014/7 (Sheldrick, 2014)'
_diffrn_ambient_temperature      293(2)
_diffrn_detector_area_resol_mean 9
_diffrn_measured_fraction_theta_full 0.993
_diffrn_measured_fraction_theta_max 0.967
_diffrn_measurement_device       '95mm CCD camera on \k-goniostat'
_diffrn_measurement_device_type  KappaCCD
_diffrn_measurement_method       CCD
_diffrn_radiation_monochromator  'horizonally mounted graphite crystal'
_diffrn_radiation_type           MoK\a
_diffrn_radiation_wavelength     0.71069
_diffrn_reflns_av_R_equivalents  0.0503
_diffrn_reflns_av_unetI/netI     0.0652
_diffrn_reflns_Laue_measured_fraction_full 0.993
_diffrn_reflns_Laue_measured_fraction_max 0.967
_diffrn_reflns_limit_h_max       7
_diffrn_reflns_limit_h_min       -8
_diffrn_reflns_limit_k_max       10
_diffrn_reflns_limit_k_min       -10
_diffrn_reflns_limit_l_max       13
_diffrn_reflns_limit_l_min       -11
_diffrn_reflns_number            4605
_diffrn_reflns_point_group_measured_fraction_full 0.993
_diffrn_reflns_point_group_measured_fraction_max 0.967
_diffrn_reflns_theta_full        25.240
_diffrn_reflns_theta_max         30.031
_diffrn_reflns_theta_min         3.541
_exptl_absorpt_coefficient_mu    1.530
_exptl_absorpt_correction_T_max  0.9421
_exptl_absorpt_correction_T_min  0.8613
_exptl_absorpt_correction_type   empirical
_exptl_crystal_colour            green
_exptl_crystal_density_diffrn    2.075
_exptl_crystal_description       prism
_exptl_crystal_F_000             238
_exptl_crystal_size_max          0.141
_exptl_crystal_size_mid          0.104
_exptl_crystal_size_min          0.065
_refine_diff_density_max         0.717
_refine_diff_density_min         -0.649
_refine_diff_density_rms         0.122
_refine_ls_extinction_coef       .
_refine_ls_extinction_method     none
_refine_ls_goodness_of_fit_ref   1.082
_refine_ls_hydrogen_treatment    mixed
_refine_ls_matrix_type           full
_refine_ls_number_parameters     133
_refine_ls_number_reflns         2122
_refine_ls_number_restraints     10
_refine_ls_restrained_S_all      1.087
_refine_ls_R_factor_all          0.0580
_refine_ls_R_factor_gt           0.0444
_refine_ls_shift/su_max          0.000
_refine_ls_shift/su_mean         0.000
_refine_ls_structure_factor_coef Fsqd
_refine_ls_weighting_details
'w=1/[\s^2^(Fo^2^)+(0.0446P)^2^+0.3820P] where P=(Fo^2^+2Fc^2^)/3'
_refine_ls_weighting_scheme      calc
_refine_ls_wR_factor_gt          0.1064
_refine_ls_wR_factor_ref         0.1114
_reflns_Friedel_coverage         0.000
_reflns_Friedel_fraction_full    .
_reflns_Friedel_fraction_max     .
_reflns_number_gt                1766
_reflns_number_total             2122
_reflns_threshold_expression     'I > 2\s(I)'
_cod_data_source_file            JSSC-2017-253-73-77.cif
_cod_data_source_block           1
_cod_depositor_comments
;
The following automatic conversions were performed:

'_journal_paper_doi' value
'https://doi.org/10.1016/j.jssc.2017.05.026' was changed to
'10.1016/j.jssc.2017.05.026'.

Automatic conversion script
Id: cif_fix_values 6433 2018-09-21 13:16:33Z andrius 
;
_cod_original_formula_sum        'C1 H7.89 N1 O7.45 P1 V1'
_cod_database_code               1549272
#BEGIN Tags that were not found in dictionaries:
_shelx_space_group_comment
;
The symmetry employed for this shelxl refinement is uniquely defined
by the following loop, which should always be used as a source of
symmetry information in preference to the above space-group names.
They are only intended as comments.
;
_shelx_res_file
;

    shelx.res created by SHELXL-2014/7


TITL import in P -1                   New: P-1
CELL  0.71069   6.3844   7.2278   9.2965   67.260   72.927   85.848
ZERR     1.00   0.0004   0.0004   0.0005    0.004    0.004    0.003
LATT   1
SFAC  C    H    O    P    V    N
UNIT  2    16   15   2    2    2
MERG   2
OMIT     0.00 180.00
DFIX     0.900   0.020 N1 H2N
DFIX     0.900   0.020 N1 H4N
DFIX     0.900   0.020 N1 H3N
DFIX     0.900   0.020 N1 H1N
DFIX     0.940   0.020 O91 H2W1
DFIX     0.940   0.020 O91 H1W1
DFIX     0.940   0.020 O92 H2W2
DFIX     0.940   0.020 O92 H1W2
rem DFIX     0.940   0.020 O95 H1W5
DFIX     1.450   0.020 H2N H1N
DFIX     1.450   0.020 H3N H1N
FMAP   2
ACTA
EQIV $1 -x, -y, -z+1
EQIV $2 -x+1, -y+1, -z+1
EQIV $3 x, y+1, z-1
EQIV $4 x, y+1, z
EQIV $5 x+1, y, z
HTAB
HTAB O91 O4
HTAB O91 O5_$1
HTAB N1 O91_$2
HTAB N1 O91_$3
HTAB N1 O3
HTAB N1 O5_$4
HTAB O95 O7
HTAB O92 O91_$3
HTAB O92 O2_$5
BOND   $H
CONF
PLAN -20
L.S.  30
WGHT    0.044600    0.382000
FVAR       0.97517   0.99801
V1    5   -0.173910    0.419235    0.340397    11.00000    0.00880    0.02492 =
         0.01004   -0.00794   -0.00083   -0.00047
P1    4    0.301587    0.361917    0.404775    11.00000    0.00954    0.02522 =
         0.01530   -0.01222   -0.00241    0.00180
O1    3   -0.215008    0.217761    0.498744    11.00000    0.02791    0.03009 =
         0.01638   -0.00410   -0.00232   -0.00438
O2    3   -0.081374    0.675409    0.088063    11.00000    0.02152    0.02500 =
         0.01576   -0.01210   -0.00306    0.00374
O3    3    0.141415    0.480103    0.313941    11.00000    0.01116    0.03338 =
         0.01969   -0.01037   -0.00434   -0.00086
O4    3    0.253692    0.361660    0.576327    11.00000    0.02202    0.03122 =
         0.01480   -0.01165   -0.00442    0.00501
O5    3   -0.064218    0.279444    0.175067    11.00000    0.02296    0.02255 =
         0.01148   -0.00808   -0.00045   -0.00121
O7    3    0.533526    0.436386    0.297830    11.00000    0.00947    0.06113 =
         0.01902   -0.01631   -0.00213   -0.00070
C1    1   -0.006253    0.614118   -0.024039    11.00000    0.01187    0.02304 =
         0.01301   -0.00713   -0.00208   -0.00148
O91   3    0.375801    0.015485    0.811059    11.00000    0.03268    0.04149 =
         0.03268   -0.00932   -0.00983   -0.00518
N1    6    0.203203    0.923214    0.161896    11.00000    0.03153    0.02838 =
         0.02707   -0.00521   -0.01028   -0.00137
O92   3    0.509476    0.639243   -0.025298    20.44588    0.05115
H1    2    0.290678    0.170210    0.427738    11.00000    0.02345
H2W1  2    0.341676    0.134168    0.739386    11.00000    0.04588
H4N   2    0.319635    0.943911    0.192333    11.00000    0.05639
H1W1  2    0.319550   -0.076447    0.785226    11.00000    0.08296
H2N   2    0.178863    0.789186    0.207633    11.00000    0.06256
H1N   2    0.242130    0.958759    0.052479    11.00000    0.05983
H3N   2    0.106450    1.010334    0.186508    11.00000    0.11028
rem H1W5  2    0.501929    0.508292    0.038538   20.44588    0.21246
H1W2  2   10.444086   10.735800    9.917500    20.44588   10.05000
H2W2  2   10.587606   10.696280   10.009406    20.44588   10.05000
HKLF    4  1.0  1.00  0.00  0.00  0.00 -1.00  0.00  0.00 -1.00 -1.00

REM  import in P -1                   New: P-1
REM R1 =  0.0444 for    1766 Fo > 4sig(Fo)  and  0.0580 for all    2122 data
REM    133 parameters refined using     10 restraints

END

WGHT      0.0446      0.3819

REM Instructions for potential hydrogen bonds
HTAB O91 O4
HTAB N1 O91_$2
HTAB O91 O5_$1
HTAB N1 O2
HTAB N1 O3
HTAB N1 O91_$3
HTAB N1 O5_$4
HTAB O92 O91_$3
HTAB O92 O2_$5

REM Highest difference peak  0.717,  deepest hole -0.649,  1-sigma level  0.122
Q1    1  -0.1696  0.2971  0.3846  11.00000  0.05    0.72
Q2    1   0.1780  0.3914  0.3591  11.00000  0.05    0.55
Q3    1  -0.1734  0.5353  0.2934  11.00000  0.05    0.53
Q4    1   0.4372  0.5501 -0.0070  11.00000  0.05    0.52
Q5    1  -0.5295  0.4538  0.3400  11.00000  0.05    0.50
Q6    1  -0.1340  0.4687  0.4014  11.00000  0.05    0.48
Q7    1   0.0000  0.5000  0.0000  10.50000  0.05    0.47
Q8    1  -0.2179  0.3666  0.2780  11.00000  0.05    0.46
Q9    1  -0.3255  0.6163  0.5147  11.00000  0.05    0.46
Q10   1   0.2891  0.4801  0.3428  11.00000  0.05    0.45
Q11   1   0.4733  0.5001  0.0428  11.00000  0.05    0.45
Q12   1  -0.1452  0.2598  0.5384  11.00000  0.05    0.44
Q13   1  -0.0428  0.3703  0.4010  11.00000  0.05    0.43
Q14   1  -0.3056  0.4478  0.2949  11.00000  0.05    0.43
Q15   1   0.0020  0.5230  0.2826  11.00000  0.05    0.42
Q16   1   0.3047  0.2431  0.4446  11.00000  0.05    0.42
Q17   1  -0.2968  0.5444  0.2841  11.00000  0.05    0.40
Q18   1   0.5130  0.5348  0.0822  11.00000  0.05    0.39
Q19   1   0.4345  0.6320 -0.0190  11.00000  0.05    0.39
Q20   1   0.1771  0.5188  0.3432  11.00000  0.05    0.38
;
_shelx_res_checksum              19711
_shelx_hkl_file
;
  -2   0   0 1215.21   84.29   1
   2   0   0 1261.61   84.27   1
   3   0   0  715.46   51.49   1
  -3   0   0  783.86   51.66   1
   4   0   0   62.29    6.43   1
  -4   0   0   80.18    6.50   1
   5   0   0    4.87    3.91   1
  -5   0   0    0.80    4.18   1
   6   0   0  363.80   26.81   1
  -6   0   0  365.54   27.19   1
  -7   0   0   48.70    9.20   1
  -8   0   0  220.26   19.55   1
  -7   1   0  144.79   13.62   1
   6  -1   0  249.72   19.91   1
  -6   1   0  287.48   20.77   1
  -5   1   0    5.99    4.06   1
   5  -1   0    1.24    3.28   1
  -4   1   0 1646.79  102.46   1
   4  -1   0 1343.10  102.02   1
  -3   1   0  143.28   10.07   1
   3  -1   0  135.05    9.94   1
  -3   1   0  116.81    9.16   2
   2  -1   0 9999.63  669.02   1
  -2   1   0 9777.65  669.04   1
   1  -1   0  712.12   45.64   1
  -1   1   0  625.29   45.56   1
  -1  -1   0    5.53    1.87   2
   1   1   0    5.35    1.55   2
   1   1   0    4.11    1.57   1
  -1  -1   0    6.90    2.36   1
  -2  -1   0  140.22   10.49   2
   2   1   0  160.80   10.94   1
  -2  -1   0  149.52   11.05   1
  -3  -1   0    4.35    3.18   1
   3   1   0    3.01    2.00   1
   4   1   0 1901.35  125.11   1
  -4  -1   0 1765.21  125.13   1
   5   1   0   -3.43    4.44   1
  -5  -1   0    0.77    4.58   1
  -6  -1   0  221.94   17.92   1
   6   1   0  226.68   17.61   1
  -7  -1   0  147.58   13.07   1
  -8   2   0  269.70   22.49   1
  -7   2   0  127.04   12.24   1
   6  -2   0  596.40   45.46   1
  -6   2   0  701.79   46.09   1
  -5   2   0   -1.95    4.74   1
   5  -2   0    6.19    4.15   1
  -5   2   0    1.79    1.47   2
   4  -2   0  261.35   17.88   1
  -4   2   0  235.30   18.04   1
  -4   2   0  228.72   16.81   2
  -3   2   0  701.84   49.56   1
  -3   2   0  741.58   48.95   2
   3  -2   0  709.98   49.52   1
  -2   2   0   81.59    7.12   1
  -2   2   0   79.09    6.55   2
   2  -2   0   94.53    7.03   1
  -1   2   0  169.13   13.69   1
   1  -2   0  218.59   12.99   3
  -1   2   0  201.53   13.84   1
  -1   2   0  184.33   12.86   3
  -1   2   0  204.66   13.92   2
   0   2   0 6563.66  449.06   1
   0   2   0 6705.98  447.81   2
   1   2   0  141.63   10.94   2
  -1  -2   0  138.17   11.68   1
   1   2   0  134.01   11.47   1
   2   2   0 1649.89  114.25   1
  -2  -2   0 1710.78  114.32   1
   3   2   0  821.42   57.35   1
  -3  -2   0  848.53   57.51   1
   4   2   0  110.91    9.33   1
  -4  -2   0  111.89    9.05   1
  -5  -2   0    8.46    3.70   1
   5   2   0   10.19    5.02   1
  -6  -2   0  261.03   20.34   1
   6   2   0  255.69   20.05   1
  -7  -2   0   55.53    9.31   1
  -8  -2   0  168.64   16.50   1
  -8   3   0   -4.65    8.09   1
  -7   3   0   21.13    7.40   1
  -6   3   0   69.72    6.02   2
  -6   3   0   92.53    9.16   1
   6  -3   0   76.30    8.60   1
   5  -3   0   26.75    5.29   1
  -5   3   0   25.21    5.53   1
  -5   3   0   22.93    3.06   2
   4  -3   0   97.05    8.12   1
  -4   3   0   85.62    7.72   1
  -4   3   0   84.19    7.02   2
  -3   3   0   17.65    2.83   3
  -3   3   0    9.53    4.08   1
  -3   3   0   11.97    2.43   2
   3  -3   0    9.83    2.68   1
  -2   3   0 1194.57   72.13   3
  -2   3   0 1089.05   76.20   2
   2  -3   0 1083.99   76.82   4
  -2   3   0 1098.97   76.47   1
  -2   3   0 1131.04   76.51   1
  -1   3   0  150.48   11.44   4
  -1   3   0  174.57   11.89   2
  -1   3   0  151.28   11.63   1
  -1   3   0  155.16   11.59   1
   1  -3   0  170.02   10.81   3
   0   3   0  463.97   31.60   1
   0   3   0  461.60   31.78   2
   0  -3   0  443.74   31.63   1
  -1  -3   0  909.06   62.99   1
   1   3   0  849.25   62.90   1
   1   3   0 1006.27   63.01   2
   2   3   0 1073.60   73.38   2
  -2  -3   0 1064.74   73.68   1
   2   3   0 1092.19   73.63   1
   3   3   0  162.16   11.44   2
   3   3   0  146.44   11.75   1
  -3  -3   0  156.60   11.92   1
   4   3   0 1288.71   84.80   1
  -4  -3   0 1178.87   84.76   1
  -5  -3   0    3.84    3.60   1
   5   3   0    5.33    3.98   1
   6   3   0  234.72   17.67   1
  -6  -3   0  190.07   16.57   1
  -7  -3   0   73.59   10.25   1
  -8   4   0  173.44   16.41   1
  -7   4   0   23.26    6.71   1
  -6   4   0  186.77   13.56   2
  -6   4   0  175.71   14.88   1
   6  -4   0  183.75   15.17   1
  -5   4   0   12.12    3.59   2
  -5   4   0   14.52    5.40   1
  -5   4   0   12.17    3.85   3
   5  -4   0   10.72    4.51   1
   4  -4   0   81.52    7.13   1
  -4   4   0   71.45    7.32   1
  -4   4   0   65.99    6.12   2
   4  -4   0   69.36    5.72   4
  -4   4   0   75.41    6.08   3
  -3   4   0  593.48   41.62   1
  -3   4   0  641.86   41.41   2
  -3   4   0  629.30   41.70   1
   3  -4   0  541.37   41.11   4
  -3   4   0  581.69   38.90   3
  -2   4   0  288.84   21.36   2
  -2   4   0  274.79   21.23   1
  -2   4   0  338.56   21.52   1
  -1   4   0    4.32   23.21   4
  -1   4   0    0.40    2.67   1
  -1   4   0   -0.93    3.14   2
  -1   4   0    0.75    1.76   1
   1  -4   0   -1.83    1.81   3
   0  -4   0 2371.47  158.95   1
   0   4   0 2336.09  158.25   2
   0   4   0 2291.51  158.43   1
  -1  -4   0  481.53   37.14   1
   1   4   0  570.66   37.38   2
   1   4   0  558.16   37.17   1
  -2  -4   0  446.18   31.48   1
   2   4   0  451.60   31.40   2
   2   4   0  447.86   31.38   1
   3   4   0  100.17    8.00   2
  -3  -4   0   89.76    7.96   1
   3   4   0   99.12    8.01   1
  -5  -4   0   24.50    5.01   1
   5   4   0   24.48    4.45   1
  -6  -4   0   78.67    9.10   1
   6   4   0   61.29   10.84   1
  -7  -4   0   44.97   10.44   1
  -8   5   0    4.30    9.40   1
  -7   5   0    1.08    6.11   3
  -7   5   0  -10.20    8.20   1
   6  -5   0   14.18    6.38   1
  -6   5   0   14.18    5.96   1
  -6   5   0   11.11    4.24   3
   6  -5   0   12.11    2.62   4
   5  -5   0   57.77    5.06   4
  -5   5   0   57.50    7.39   1
  -5   5   0   70.18    8.49   1
  -5   5   0   56.47    5.87   3
  -5   5   0   65.02    6.45   2
  -4   5   0  440.05   31.12   1
  -4   5   0  423.92   30.63   2
  -4   5   0  442.40   31.03   1
  -4   5   0  424.23   28.63   3
  -3   5   0    5.64    3.54   1
  -3   5   0    5.98    3.98   1
  -3   5   0    9.48    2.39   3
  -3   5   0   10.52    3.90   2
  -2   5   0  314.58   21.42   2
  -2   5   0  285.81   21.28   1
  -2   5   0  288.26   21.26   1
  -1   5   0    2.74    2.99   1
  -1   5   0    1.52    2.40   4
  -1   5   0    8.57    4.16   2
   1  -5   0    6.85    2.24   3
  -1   5   0    5.58    3.07   1
   0  -5   0  220.26   16.70   1
   0   5   0  235.75   16.72   1
   0   5   0  222.96   17.07   4
   0   5   0  241.37   17.15   2
   1   5   0  122.02   10.38   2
   1   5   0  136.12   10.07   1
  -1  -5   0  125.92   10.03   1
   2   5   0  265.44   20.41   1
   2   5   0  290.69   20.71   2
  -2  -5   0  295.00   20.67   1
   3   5   0  101.99    8.34   2
   3   5   0   84.11    8.46   1
  -3  -5   0  103.84    8.90   1
   4   5   0  621.88   45.43   1
  -4  -5   0  660.37   45.26   1
  -5  -5   0  107.42   10.48   1
   5   5   0  137.50   11.95   1
  -6  -5   0  211.88   17.75   1
  -7   6   0   60.89   10.47   1
  -6   6   0  318.43   25.25   2
  -6   6   0  370.66   26.42   1
  -6   6   0  338.61   23.58   3
  -5   6   0    8.82    6.28   1
  -5   6   0   -0.64    7.13   1
  -5   6   0   -2.71    3.57   2
  -5   6   0    1.51    3.26   3
  -4   6   0    3.86    4.87   2
  -4   6   0    4.85    5.36   1
  -3   6   0   -0.02    4.58   1
  -2   6   0   20.55    4.60   1
  -2   6   0   16.87    4.49   1
   2  -6   0   16.62    3.24   3
  -2   6   0   16.96    4.94   2
  -1   6   0    4.45    4.48   2
  -1   6   0    7.63    3.23   1
  -1   6   0    3.76    3.12   4
   1  -6   0    2.40    2.40   3
  -1   6   0    5.44    3.49   1
   0   6   0 1178.95   78.56   4
   0   6   0 1214.25   78.27   2
   0  -6   0 1093.61   78.08   1
   0   6   0 1051.64   78.74   1
   1   6   0  200.53   17.00   1
   1   6   0  231.86   17.30   2
  -1  -6   0  257.52   17.17   1
   2   6   0  412.44   29.02   1
   2   6   0  379.73   29.21   2
  -2  -6   0  422.59   29.00   1
   3   6   0  232.96   16.42   1
  -3  -6   0  193.43   15.98   1
   3   6   0  199.86   16.34   2
   4   6   0   57.25    9.37   1
  -4  -6   0   41.02    6.05   1
  -6   7   0   31.44    8.57   1
  -5   7   0   -0.70    7.82   2
  -5   7   0   -1.87    5.22   1
  -5   7   0    0.90    5.25   1
  -4   7   0  118.34   10.47   1
  -4   7   0  115.36   11.38   1
  -4   7   0  101.48   10.29   2
  -3   7   0  126.56   11.17   1
  -3   7   0  122.34   11.02   1
  -3   7   0  118.85   11.40   2
  -2   7   0  750.12   53.11   1
  -2   7   0  760.44   53.40   2
  -2   7   0  775.16   53.45   1
  -1   7   0   85.48    7.78   1
  -1   7   0   72.62    7.62   1
   1  -7   0   71.57    6.37   3
  -1   7   0   68.57    7.82   2
   0   7   0  153.62   13.26   2
   0  -7   0  171.79   12.13   3
   0   7   0  155.21   12.61   1
   0  -7   0  162.64   12.69   1
   0   7   0  162.02   13.23   4
   1   7   0  112.33   11.31   4
   1   7   0  117.99   11.19   2
   1   7   0  121.93   10.42   1
  -1  -7   0  118.58   10.18   1
  -2  -7   0   24.86    4.43   1
   2   7   0   34.34    5.23   1
   2   7   0   17.43    5.23   2
  -3  -7   0   13.33    4.52   1
   3   7   0    9.65   12.82   1
  -4  -7   0  152.05   13.27   1
  -5   8   0   16.77    8.40   1
  -4   8   0  100.79   17.56   1
  -4   8   0   98.33   10.37   1
  -3   8   0   12.57   10.34   1
  -2   8   0   -6.02    6.03   1
  -2   8   0   -4.44    4.69   1
  -1   8   0    3.83    5.14   1
  -1   8   0   13.55    5.50   1
   0  -8   0   99.08    8.66   3
   0   8   0  108.09    9.21   1
   0   8   0   92.80    8.83   1
   0   8   0   86.17    9.73   4
  -1  -8   0   16.58    5.55   3
   1   8   0   10.83    6.99   4
  -2  -8   0  101.89   10.71   1
   2   8   0  126.63   12.59   4
   3   8   0   33.16   10.73   4
  -3   9   0   10.27    6.14   1
  -2   9   0  139.01   13.32   1
  -1   9   0   -0.32    5.73   1
   0   9   0   53.06    8.83   1
   0  -9   0   75.71    7.89   3
   1   9  -1    4.53    5.71   4
  -1  -9   1    1.29    6.10   1
  -1  -9   1   15.26    6.17   3
   0   9  -1  137.19   13.45   1
   0   9  -1  166.04   13.62   4
   0  -9   1  144.67   11.78   3
  -1   9  -1   -2.74    5.26   1
  -2   9  -1   49.06    8.73   1
  -4   9  -1    3.53    8.20   1
  -3  -8   1   24.19    7.22   1
   2   8  -1  131.87   11.75   1
  -2  -8   1  100.79   10.32   1
   1   8  -1   -7.10    7.39   1
  -1  -8   1    5.35    3.58   1
   1   8  -1    3.24    6.01   4
  -1  -8   1    4.13    3.73   3
   0   8  -1   12.98    5.71   4
   0  -8   1    1.04    3.60   3
   0  -8   1    4.76    5.14   1
   0   8  -1    2.27    6.97   1
   1  -8   1    4.97    3.21   3
  -1   8  -1   -6.17    7.41   1
  -1   8  -1    4.61    5.38   1
  -2   8  -1  173.39   14.93   1
  -2   8  -1  190.29   15.03   1
  -3   8  -1   29.34   10.69   1
  -4   8  -1  167.12   14.00   1
  -5   8  -1   17.52    8.79   1
   4   7  -1   18.13   23.57   1
   3   7  -1    4.83    7.18   1
   3   7  -1   -1.34    4.00   2
   2   7  -1   58.16    7.05   1
  -2  -7   1   66.57    7.18   1
   2   7  -1   68.26    8.03   2
   1   7  -1   22.11    4.40   2
  -1  -7   1   22.12    5.10   1
   1   7  -1   15.85    4.82   1
   0   7  -1  785.96   53.97   2
   0   7  -1  808.90   53.83   4
   0  -7   1  798.95   53.66   1
   0   7  -1  777.64   53.81   1
   0  -7   1  672.53   50.03   3
  -1   7  -1    5.23    3.47   4
  -1   7  -1   16.01    4.53   1
  -1   7  -1   12.42    4.44   1
  -1   7  -1   14.35    5.68   2
   1  -7   1    9.24    2.71   3
  -2   7  -1  156.30   13.26   1
  -2   7  -1  163.49   13.13   1
  -2   7  -1  164.72   13.25   2
  -3   7  -1    5.33    4.10   2
  -3   7  -1    2.65    6.58   1
  -3   7  -1    7.52    5.62   1
  -4   7  -1   45.01    7.62   2
  -4   7  -1   34.03    7.51   1
  -5   7  -1    2.12    4.68   2
  -5   7  -1   -3.66   11.82   1
  -6   7  -1  118.26   12.05   1
  -6   7  -1   88.64   10.43   2
  -5  -6   1   43.95    7.23   1
   5   6  -1   68.49   11.57   1
   4   6  -1  394.26   32.78   2
  -4  -6   1  425.76   29.77   1
   4   6  -1  406.44   29.74   1
   3   6  -1   42.99    6.13   1
  -3  -6   1   33.17    5.79   1
   3   6  -1   41.27    6.26   2
  -2  -6   1  622.73   45.03   1
   2   6  -1  614.07   45.04   2
   2   6  -1  691.96   45.15   1
   1   6  -1   76.24    7.60   2
  -1  -6   1   95.51    7.97   1
   1   6  -1   81.80    7.91   1
   0  -6   1   -1.65    2.18   3
   0  -6   1    5.80    3.61   1
   0   6  -1   -3.45    3.88   2
   0   6  -1    3.72    3.91   1
  -1   6  -1  338.45   24.34   1
  -1   6  -1  321.21   24.03   4
   1  -6   1  377.20   22.49   3
  -1   6  -1  343.91   24.54   2
  -1   6  -1  316.35   24.43   1
  -2   6  -1   15.19    4.26   2
  -2   6  -1   19.18    4.56   1
  -2   6  -1   20.54    4.44   1
  -3   6  -1   18.14    5.28   1
  -3   6  -1   24.25    4.81   2
  -3   6  -1   17.43    4.53   1
  -4   6  -1  273.04   23.11   1
  -4   6  -1  228.19   15.98   3
  -4   6  -1  219.85   17.82   2
  -4   6  -1  244.29   18.34   1
  -5   6  -1   71.84    8.68   1
  -5   6  -1   68.56    7.73   2
  -5   6  -1   79.30    8.00   1
  -5   6  -1   60.55    5.95   3
  -6   6  -1   39.69    8.13   1
  -6   6  -1   44.40    6.82   2
  -6   6  -1   55.15    5.60   3
  -7   6  -1   63.16   10.32   1
  -6  -5   1  226.70   18.62   1
  -5  -5   1   38.41    7.66   1
   5   5  -1   56.52    8.41   1
   4   5  -1  374.17   26.52   1
  -4  -5   1  372.69   26.92   1
   4   5  -1  353.24   26.03   2
   3   5  -1   47.89    5.27   2
  -3  -5   1   38.61    5.42   1
   3   5  -1   42.17    5.71   1
   2   5  -1   66.29    6.58   2
  -2  -5   1   59.17    6.50   1
   2   5  -1   68.24    6.48   1
   1   5  -1   52.33    5.84   2
  -1  -5   1   57.52    5.70   1
   1   5  -1   65.14    5.90   1
   0   5  -1  575.72   38.07   2
   0   5  -1  521.52   37.94   1
   0  -5   1  538.17   38.02   1
  -1   5  -1    3.77    2.38   4
  -2   5  -1  705.34   51.01   1
  -2   5  -1  722.30   51.07   1
  -2   5  -1  787.22   51.11   2
  -3   5  -1  283.27   18.65   3
  -3   5  -1  312.66   20.78   1
  -3   5  -1  278.42   20.77   1
  -3   5  -1  253.91   20.33   2
  -4   5  -1    0.62    2.04   3
  -4   5  -1    0.48    4.42   1
  -4   5  -1    4.99    4.95   1
  -4   5  -1    2.35    3.16   2
  -5   5  -1   -3.83    4.90   1
  -5   5  -1    2.50    3.05   3
  -5   5  -1   -0.60    3.60   2
  -5   5  -1   -1.44    5.26   1
  -6   5  -1  293.49   19.33   3
  -6   5  -1  272.08   21.22   1
  -6   5  -1  254.57   19.86   2
  -7   5  -1   21.56    6.46   3
  -8   5  -1  143.39   15.14   1
  -7  -4   1    4.90    7.68   1
  -6  -4   1   -4.06    6.36   1
   6   4  -1   15.33   10.04   1
   5   4  -1   27.41    4.44   1
  -5  -4   1    6.59    4.34   1
   4   4  -1  682.51   46.47   1
   4   4  -1  618.02   45.64   2
  -4  -4   1  692.81   46.60   1
  -3  -4   1    6.13    3.24   1
   3   4  -1    4.99    3.81   1
   3   4  -1   10.00    2.46   2
   2   4  -1  531.59   36.87   1
   2   4  -1  531.37   36.66   2
  -2  -4   1  521.16   38.35   1
   1   4  -1  505.06   37.06   1
   1   4  -1  537.73   37.04   2
  -1  -4   1  560.80   37.23   1
   0   4  -1  521.52   39.60   2
   0  -4   1  588.41   39.78   1
   0   4  -1  610.69   39.77   1
  -1   4  -1   10.58    2.43   1
   1  -4   1   10.96    2.69   1
   1  -4   1    8.72    1.63   3
  -1   4  -1    9.49    3.47   2
  -2   4  -1  559.38   39.08   2
  -2   4  -1  599.79   39.28   1
  -2   4  -1  593.26   39.24   1
  -2   4  -1  505.99   36.43   3
  -3   4  -1   90.38    6.38   3
  -3   4  -1   79.60    7.46   1
  -3   4  -1  105.13    8.09   1
  -3   4  -1   80.16    7.10   2
  -4   4  -1  353.61   25.05   2
   4  -4   1  338.28   24.44   4
  -4   4  -1  332.53   25.44   1
   4  -4   1  396.71   25.71   1
  -5   4  -1   10.61    4.56   1
  -5   4  -1   -0.68    2.81   2
   5  -4   1    0.59    4.38   1
  -6   4  -1  378.26   27.58   2
  -6   4  -1  423.26   29.24   1
   6  -4   1  383.96   28.89   1
  -7   4  -1   72.92    6.20   2
  -8   4  -1   19.51    8.18   1
  -7  -3   1  144.70   14.19   1
   6   3  -1  495.11   34.85   1
  -6  -3   1  453.90   34.40   1
   5   3  -1   16.50    4.52   1
  -5  -3   1   16.50    5.55   1
  -4  -3   1  924.39   60.85   1
   4   3  -1  831.91   60.58   1
   3   3  -1 1522.20  105.31   2
  -3  -3   1 1586.19  106.13   1
   3   3  -1 1548.67  106.05   1
   2   3  -1    5.97    2.96   1
   2   3  -1    6.00    2.39   2
  -2  -3   1   -1.01    2.90   1
   1   3  -1  711.04   48.70   1
  -1  -3   1  668.81   48.64   1
   1   3  -1  748.35   48.60   2
   0  -3   1 5095.96  322.30   1
   0   3  -1 4419.44  322.20   1
  -1   3  -1    9.61    2.88   1
   1  -3   1   -0.76    3.05   1
  -1   3  -1    5.33    1.48   4
  -2   3  -1  958.55   58.89   3
  -2   3  -1  957.36   62.71   1
  -2   3  -1  825.52   62.60   1
  -3   3  -1   23.57    4.61   1
   3  -3   1   33.36    4.40   1
  -4   3  -1  695.98   51.95   2
   4  -3   1  757.56   52.81   1
  -4   3  -1  831.16   53.05   1
   5  -3   1    3.41    4.23   1
  -5   3  -1   -5.08    5.38   1
  -5   3  -1    1.39    1.84   2
  -6   3  -1  250.57   18.29   1
   6  -3   1  236.08   18.18   1
  -6   3  -1  207.30   16.08   2
  -7   3  -1   38.78    7.80   1
  -8   3  -1  147.72   14.73   1
  -8  -2   1   65.18    9.71   1
  -7  -2   1   38.73    7.49   1
   6   2  -1   14.05    4.75   1
  -6  -2   1    8.85    4.47   1
  -5  -2   1  377.92   26.74   1
   5   2  -1  357.09   26.49   1
   4   2  -1 1435.61   96.19   1
  -4  -2   1 1373.16   96.17   1
  -3  -2   1  502.33   33.33   1
   3   2  -1  408.56   32.39   2
   3   2  -1  516.82   33.24   1
   2   2  -1 1144.44   76.99   1
   2   2  -1 1102.66   76.43   2
  -2  -2   1 1132.85   77.01   1
   1   2  -1   89.09    6.80   1
  -1  -2   1   86.19    7.10   1
   0  -2   1 2474.39  187.53   1
   0   2  -1 3058.47  187.62   1
  -1   2  -1  283.69   19.28   1
  -1   2  -1  267.49   17.78   3
  -2   2  -1  786.20   52.00   1
   2  -2   1  726.25   51.91   1
  -3   2  -1   16.65    3.23   1
   3  -2   1   22.20    3.61   1
  -4   2  -1  840.01   56.62   1
   4  -2   1  791.69   56.44   1
  -5   2  -1   18.23    2.15   2
  -5   2  -1   21.46    5.51   1
   5  -2   1   23.51    4.84   1
   6  -2   1  571.85   41.83   1
  -6   2  -1  609.26   42.20   1
  -7   2  -1  208.08   16.86   1
  -8   2  -1   73.84   11.37   1
  -8  -1   1  117.95   13.51   1
  -7  -1   1  408.48   30.81   1
   6   1  -1 1001.69   73.25   1
  -6  -1   1 1114.33   73.71   1
   5   1  -1  133.40   10.57   1
  -5  -1   1  114.19   10.68   1
   4   1  -1  697.66   48.15   1
  -4  -1   1  692.17   48.24   1
  -3  -1   1  551.29   39.84   1
   3   1  -1  597.77   39.85   1
   2   1  -1  682.66   49.88   1
  -2  -1   1  666.33   48.38   1
  -1  -1   1  893.79   58.52   1
   1   1  -1  823.54   58.46   1
  -1   1  -1  372.21   24.02   1
   1  -1   1  321.58   23.89   1
  -2   1  -1 1198.04   77.12   1
   2  -1   1 1060.02   76.97   1
  -3   1  -1 1077.41   73.38   1
   3  -1   1 1063.95   73.29   1
   4  -1   1 1178.68   81.62   1
  -4   1  -1 1200.98   81.77   1
  -5   1  -1    5.38    4.45   1
   5  -1   1    1.29    2.76   1
  -6   1  -1   20.25    6.13   1
   6  -1   1   13.11    3.95   1
  -7   1  -1   42.20    6.68   1
  -8   1  -1   49.41   10.18   1
  -8   0   1   71.07    9.34   1
  -7   0   1    7.11    7.04   1
  -6   0   1   28.97    6.39   1
   6   0  -1    4.50    5.30   1
  -5   0   1    5.39    3.42   1
   4   0  -1  538.19   38.27   1
  -4   0   1  560.06   38.43   1
  -3   0   1 1338.06   96.26   1
   3   0  -1 1485.69   96.32   1
   2   0  -1 5313.13  376.35   1
  -2   0   1 5794.39  376.41   1
   1   0  -1  994.67   69.97   1
  -1   0   1 1065.49   70.00   1
   1   0   1  104.03    7.96   1
  -1   0  -1  119.77    8.18   1
   2   0   1 2346.76  153.56   1
  -2   0  -1 2177.15  153.54   1
  -3   0  -1    9.04    3.55   1
   3   0   1   11.54    3.06   1
  -4   0  -1  175.79   13.04   1
   4   0   1  160.77   12.85   1
   5   0   1    7.53    3.80   1
  -5   0  -1    4.11    3.35   1
   6   0   1  455.53   32.59   1
  -6   0  -1  445.09   32.59   1
  -7   0  -1  289.25   22.58   1
  -8   0  -1   80.14   12.00   1
  -8   1   1  199.38   18.13   1
  -7   1   1   75.68    9.60   1
   6  -1  -1 1134.20   79.15   1
  -6   1   1 1155.39   79.47   1
  -5   1   1  136.08   11.06   1
   5  -1  -1  123.29   10.32   1
  -4   1   1 2247.62  151.57   1
   4  -1  -1 2201.89  151.46   1
  -3   1   1 2196.67  163.00   1
   3  -1  -1 2601.72  163.07   1
   2  -1  -1  711.47   43.78   2
   2  -1  -1  663.11   43.82   1
  -2   1   1  555.88   43.35   2
  -2   1   1  622.48   43.79   1
   1  -1  -1    1.85    1.64   1
   1  -1  -1    2.75    2.18   2
  -1   1   1    5.76    1.93   3
  -1   1   1   -1.78    1.70   1
  -1   1   1   -0.60    1.38   2
   0   1   1  930.95   72.79   2
   0   1   1 1132.33   73.43   4
   0  -1  -1 1132.46   72.81   1
   0  -1  -1 1105.73   72.89   2
   1   1   1  172.38   11.69   1
  -1  -1  -1  161.70   11.74   1
  -1  -1  -1  168.26   11.87   2
  -2  -1  -1  267.06   18.29   1
  -2  -1  -1  251.47   18.07   2
   2   1   1  259.21   18.26   1
  -3  -1  -1  870.96   60.07   2
   3   1   1  889.95   60.64   1
  -3  -1  -1  891.16   60.71   1
  -4  -1  -1  405.06   27.90   1
   4   1   1  400.41   27.78   1
  -4  -1  -1  369.33   26.81   2
  -5  -1  -1   60.95    7.00   1
   5   1   1   56.89    6.94   1
  -6  -1  -1   23.84    5.76   1
   6   1   1   17.80    6.11   1
  -8  -1  -1  169.95   16.58   1
  -8   2   1   99.79   10.75   1
  -7   2   1   -5.62    5.47   1
   6  -2  -1  136.55   11.90   1
  -6   2   1  137.18   12.35   1
  -5   2   1    3.12    3.35   1
   5  -2  -1    2.07    2.91   1
  -4   2   1 1092.90   69.50   1
  -4   2   1  959.71   71.44   2
   4  -2  -1  967.34   69.22   1
  -3   2   1  140.61   10.62   2
  -3   2   1  153.55   11.17   1
  -2   2   1 1135.73   72.35   1
   2  -2  -1 1000.33   71.97   2
  -2   2   1 1190.40   68.40   3
  -2   2   1  982.64   71.95   2
   2  -2  -1  981.38   72.20   1
   1  -2  -1   81.47    6.80   4
   1  -2  -1   98.09    6.72   3
  -1   2   1  102.04    7.34   2
   1  -2  -1  106.04    7.33   2
  -1   2   1   82.98    6.42   3
  -1   2   1   82.85    6.78   1
  -1   2   1   86.52    6.74   1
   0   2   1 1345.41  104.40   4
   0   2   1 1678.33  103.11   2
   0  -2  -1 1434.89  102.67   2
   0  -2  -1 1595.33  101.83   1
   0   2   1 1451.79  101.78   1
  -1  -2  -1 2124.84  146.82   2
   1   2   1 1989.82  146.75   2
   1   2   1 2305.31  147.07   1
  -1  -2  -1 2257.63  147.09   1
   2   2   1   14.03    2.25   1
  -2  -2  -1    9.12    2.73   2
  -2  -2  -1   11.36    2.64   1
  -3  -2  -1  163.16   12.58   2
   3   2   1  178.11   12.84   1
  -3  -2  -1  178.21   12.99   1
  -4  -2  -1  642.50   44.09   1
   4   2   1  621.04   43.89   1
   5   2   1   35.10    5.87   1
  -5  -2  -1   33.37    5.71   1
   6   2   1  571.47   41.33   1
  -6  -2  -1  583.02   41.44   1
  -7  -2  -1  373.43   28.70   1
  -8   3   1   90.60   11.91   1
  -7   3   1   10.40    6.77   1
  -6   3   1  805.15   59.31   1
   6  -3  -1  888.27   59.25   1
   5  -3  -1   -3.46    3.89   1
  -5   3   1    1.91    4.78   1
   4  -3  -1 1006.99   66.26   1
  -4   3   1  997.99   62.65   3
  -4   3   1  901.83   65.54   2
  -4   3   1  932.72   66.28   1
  -3   3   1  827.92   52.46   2
  -3   3   1  757.61   52.75   1
  -3   3   1  751.57   49.70   3
   3  -3  -1  718.33   52.59   1
  -2   3   1   23.40    3.36   1
  -2   3   1   22.41    3.38   2
  -2   3   1   20.87    2.41   3
  -2   3   1   14.45    3.14   1
   2  -3  -1   17.79    2.95   4
  -1   3   1 1181.91   73.45   2
   1  -3  -1 1007.50   73.35   2
  -1   3   1  977.03   73.39   1
  -1   3   1 1097.82   73.33   1
   1  -3  -1 1110.08   69.45   3
   0   3   1 5299.80  313.40   2
   0   3   1 4482.34  316.35   4
   0  -3  -1 4685.52  313.31   2
   0  -3  -1 4218.53  315.82   1
   0   3   1 4487.47  314.53   1
  -1  -3  -1   18.61    2.54   1
   1   3   1   19.76    2.94   2
  -1  -3  -1   20.15    3.99   2
   1   3   1   21.05    2.62   1
  -2  -3  -1  604.70   42.61   1
   2   3   1  612.71   42.54   1
  -2  -3  -1  636.16   42.78   2
   3   3   1  182.46   13.67   1
  -3  -3  -1  186.75   13.83   1
   4   3   1  637.58   44.37   1
  -4  -3  -1  634.41   44.43   1
   5   3   1   39.85    6.23   1
  -5  -3  -1   36.49    5.30   1
  -6  -3  -1   92.93   10.08   1
   6   3   1  107.12   10.71   1
  -7  -3  -1   23.75    8.27   1
  -8   4   1   69.35   10.83   1
  -7   4   1    5.41    6.41   1
  -7   4   1    9.32    5.93   3
   6  -4  -1  247.36   19.98   1
  -6   4   1  286.60   20.77   1
  -6   4   1  267.18   18.98   3
  -5   4   1   41.86    5.11   2
  -5   4   1   59.30    5.71   3
   5  -4  -1   44.24    5.50   1
  -5   4   1   50.68    6.91   1
   4  -4  -1  433.14   31.15   1
  -4   4   1  428.70   31.27   1
  -4   4   1  457.64   29.31   3
   4  -4  -1  451.34   30.76   4
  -4   4   1  425.31   30.84   2
  -3   4   1  477.37   34.07   1
  -3   4   1  504.90   34.08   2
  -3   4   1  467.78   32.02   3
  -3   4   1  514.99   34.19   1
   3  -4  -1  469.46   33.89   4
   2  -4  -1 2603.91  186.43   3
  -2   4   1 3239.00  195.77   2
  -2   4   1 2946.03  195.93   1
  -2   4   1 2751.87  197.40   1
  -1   4   1   79.38    6.51   1
   1  -4  -1   84.62    6.53   3
  -1   4   1   84.56    6.53   1
  -1   4   1   75.59    6.80   2
   0   4   1 1293.23   83.07   1
   0  -4  -1 1178.30   82.64   1
   0   4   1 1214.19   82.94   2
   0   4   1 1166.73   83.38   4
  -1  -4  -1  148.13   11.11   1
   1   4   1  169.25   11.82   2
   1   4   1  135.68   10.95   1
   2   4   1  128.48    9.93   1
   2   4   1  137.57   10.50   2
  -2  -4  -1  127.45   10.05   1
  -3  -4  -1   32.31    4.39   1
   3   4   1   25.23    4.06   1
  -4  -4  -1   83.09    7.82   1
   4   4   1   75.90    7.39   1
   5   4   1   -0.49    6.12   1
  -5  -4  -1   15.29    5.43   1
  -6  -4  -1  265.45   20.55   1
  -8   5   1   -8.80    9.10   1
  -7   5   1   44.65    6.01   3
  -7   5   1   53.09    7.74   1
  -6   5   1  610.22   42.41   1
  -6   5   1  610.43   40.39   3
   6  -5  -1  568.44   41.86   1
   6  -5  -1  574.33   41.12   4
  -6   5   1  594.36   41.35   2
  -5   5   1   -4.55    3.22   3
  -5   5   1    2.67    5.38   1
   5  -5  -1   -0.05    2.76   4
  -5   5   1   -6.11    5.36   1
  -5   5   1    4.55    4.25   2
  -4   5   1  684.93   43.39   1
  -4   5   1  542.76   40.30   3
  -4   5   1  628.96   43.04   2
  -4   5   1  602.57   43.07   1
  -3   5   1   37.23    5.05   1
  -3   5   1   35.20    5.53   2
  -3   5   1   38.11    5.32   1
  -2   5   1  151.99   11.61   1
   2  -5  -1  138.85   10.74   3
  -2   5   1  175.62   12.35   2
  -2   5   1  144.60   11.62   1
  -1   5   1   13.21    2.97   1
  -1   5   1   11.75    2.66   1
  -1   5   1   11.94    3.21   2
   1  -5  -1   17.96    2.78   3
   0  -5  -1  527.03   35.41   1
   0   5   1  501.92   36.06   4
   0  -5  -1  538.20   33.91   3
   0   5   1  456.26   35.24   1
   0   5   1  526.69   35.97   2
   1   5   1   27.02    4.44   4
   1   5   1   31.35    3.66   1
   1   5   1   24.02    4.60   2
  -1  -5  -1   27.15    3.67   1
   2   5   1  232.41   17.00   1
  -2  -5  -1  229.86   17.03   1
   2   5   1  237.37   17.52   2
   3   5   1  131.07   10.65   1
  -3  -5  -1  139.13   10.87   1
   4   5   1  298.88   22.97   1
  -4  -5  -1  322.10   23.01   1
   5   5   1  116.45   12.64   1
  -5  -5  -1  138.44   11.45   1
  -7   6   1   10.95    8.81   1
  -6   6   1  110.48   11.12   2
  -6   6   1  100.56    9.77   3
  -6   6   1  122.75   11.79   1
  -5   6   1   36.53    7.34   1
  -5   6   1   27.36    6.21   2
  -5   6   1   37.47    4.74   3
  -4   6   1   -5.54    5.31   2
  -4   6   1   -0.94    5.28   1
  -3   6   1   19.12    4.43   1
  -3   6   1   24.40    4.86   1
  -2   6   1  998.92   71.96   1
  -2   6   1 1109.80   71.33   1
   2  -6  -1  959.39   67.29   3
  -2   6   1 1076.28   71.74   2
  -1   6   1  124.39    9.76   1
  -1   6   1  122.16    9.83   1
  -1   6   1  117.35   10.52   2
   1  -6  -1  134.08    9.66   3
   0   6   1  640.57   42.04   4
   0  -6  -1  563.53   41.14   1
   0  -6  -1  635.05   39.47   3
   0   6   1  531.34   41.66   2
   1   6   1  248.13   18.72   2
   1   6   1  265.03   18.29   1
  -1  -6  -1  236.96   18.24   1
   2   6   1   26.64    4.45   1
  -2  -6  -1   26.56    4.10   1
  -3  -6  -1   11.89    4.37   1
  -4  -6  -1   52.97    6.91   1
  -6   7   1   67.49   10.41   1
  -5   7   1    1.10   13.43   1
  -5   7   1   36.58    7.88   1
  -4   7   1  422.20   29.38   1
  -4   7   1  362.15   29.56   2
  -4   7   1  410.80   29.27   1
  -3   7   1  103.52    9.90   1
  -3   7   1  122.95   11.21   2
  -3   7   1  114.22   10.49   1
  -2   7   1   92.95    8.30   1
  -2   7   1   79.62    8.05   1
   2  -7  -1   80.34    7.32   3
  -2   7   1   83.80    9.04   2
  -1   7   1    1.63    3.89   1
   1  -7  -1   -3.04    3.64   3
  -1   7   1    4.78    3.42   1
   0  -7  -1   85.46    7.62   3
   0   7   1   92.01    9.49   4
   0   7   1   93.28    7.76   1
   0   7   1   93.00    8.09   1
   0   7   1   70.18    9.39   2
  -1  -7  -1   20.89    4.82   1
   1   7   1   15.58    4.50   1
   1   7   1   29.32    6.79   4
  -1  -7  -1   26.02    6.26   3
   2   7   1   86.86    9.81   4
  -2  -7  -1   92.34    8.16   1
   3   7   1   54.19   10.04   4
  -5   8   1   31.34    8.86   1
  -4   8   1    7.76    6.54   1
  -3   8   1    5.63   11.33   1
  -3   8   1   -4.24    5.98   1
   2  -8  -1  220.11   15.46   3
  -2   8   1  190.21   16.47   1
  -2   8   1  219.54   16.43   1
   1  -8  -1   30.59    5.17   3
   0   8   1  104.11   11.03   1
   1   8   1   75.05   14.38   1
  -1  -8  -1   86.10    9.92   3
   1   8   1   82.71   10.44   4
  -2  -8  -1   23.05    7.39   3
   2   8   1    8.65    7.57   4
  -2  -9   2   59.66    8.79   1
   1   9  -2   21.19    6.77   4
  -1  -9   2   11.11    5.16   3
  -1  -9   2    7.21    6.37   1
   0   9  -2   33.82    5.98   4
   0   9  -2   40.49   11.77   1
   0   9  -2   19.60    9.37   1
   0  -9   2   23.84    4.30   3
  -1   9  -2   -0.24    5.17   1
  -1   9  -2   -5.53   10.32   1
  -3   9  -2   -8.51    8.12   1
  -4   9  -2  145.92   13.95   1
  -4  -8   2   67.07    9.68   1
  -3  -8   2    3.38    6.47   1
   2   8  -2   29.66   10.27   1
  -1  -8   2   -2.68    5.60   1
   0   8  -2  126.19   11.11   4
   0  -8   2  134.31    9.49   3
   0  -8   2  155.22   12.32   1
   0   8  -2  107.57   11.56   1
   1  -8   2   35.61    3.58   3
  -1   8  -2   36.27    5.06   4
  -1   8  -2   38.20    6.96   1
  -1   8  -2   36.86    5.68   1
  -2   8  -2  421.79   31.69   1
  -2   8  -2  441.91   31.74   1
  -3   8  -2  226.75   18.47   1
  -3   8  -2  223.75   18.86   1
  -4   8  -2  121.18   13.02   1
  -5   8  -2   74.41    9.18   1
  -6   8  -2    6.11    9.93   1
   4   7  -2  167.37   14.42   2
  -4  -7   2  170.33   14.76   1
   4   7  -2  175.33   17.39   1
   3   7  -2   -4.52    5.32   2
   3   7  -2    2.52    6.22   1
  -3  -7   2   12.06    6.15   1
  -2  -7   2  319.13   24.02   1
   2   7  -2  295.22   23.74   1
   2   7  -2  357.03   24.24   2
   1   7  -2  176.28   15.19   1
  -1  -7   2  189.39   15.33   1
   1   7  -2  213.65   15.58   2
   0   7  -2  153.82   12.87   2
   0  -7   2  148.02   10.35   3
   0  -7   2  145.24   12.23   1
   0   7  -2  144.24   12.37   1
  -1   7  -2    8.96    4.63   2
  -1   7  -2   18.10    5.29   1
  -1   7  -2    4.51    4.87   1
  -1   7  -2   10.52    2.98   4
   1  -7   2    6.87    1.84   3
  -2   7  -2   21.65    5.51   2
  -2   7  -2   21.83    4.53   1
  -2   7  -2   22.16    5.59   1
  -3   7  -2    7.99    5.01   1
  -3   7  -2    4.23    5.95   1
  -3   7  -2    1.22    5.18   2
  -4   7  -2   61.92    9.12   1
  -4   7  -2   68.81    8.08   1
  -4   7  -2   66.72    8.20   2
  -5   7  -2   73.32    8.30   2
  -5   7  -2   59.37    7.78   1
  -6   7  -2  184.95   16.61   1
  -6   7  -2  176.38   14.54   2
  -6  -6   2  237.55   20.26   1
  -5  -6   2   12.70    6.74   1
   4   6  -2  627.82   45.11   2
  -4  -6   2  654.04   44.90   1
   4   6  -2  605.46   44.50   1
   3   6  -2   96.96    9.40   2
   3   6  -2  103.15    9.85   1
  -3  -6   2  125.48   10.39   1
  -2  -6   2    3.95    3.97   1
   2   6  -2    2.09    2.68   2
   2   6  -2   -1.22    3.96   1
   1   6  -2    6.37    3.66   1
   1   6  -2   -0.93    3.97   2
  -1  -6   2    6.39    3.99   1
   0   6  -2   22.29    4.77   2
   0  -6   2   12.64    3.37   1
   0   6  -2   11.58    3.43   1
   0  -6   2   15.57    2.25   3
  -1   6  -2    7.30    2.57   4
  -1   6  -2   16.97    4.67   2
   1  -6   2   11.63    1.71   3
   1  -6   2    4.48    3.33   1
  -2   6  -2  438.73   32.90   1
  -2   6  -2  458.27   32.95   2
  -2   6  -2  492.26   33.06   1
  -3   6  -2  442.78   30.36   1
  -3   6  -2  407.90   30.21   1
  -3   6  -2  410.28   30.08   2
  -4   6  -2  305.75   22.43   1
  -4   6  -2  289.93   21.56   2
  -4   6  -2  299.28   22.20   1
  -4   6  -2  282.99   19.38   3
  -5   6  -2  169.45   14.19   1
  -5   6  -2  161.88   11.31   3
  -5   6  -2  164.54   14.11   1
  -5   6  -2  147.42   12.91   2
  -6   6  -2   26.98    7.06   1
  -6   6  -2   24.85    5.99   2
  -6   6  -2   31.42    8.33   3
  -7   6  -2    1.36    8.79   1
  -7  -5   2    8.71    9.74   1
  -6  -5   2  163.97   14.78   1
   5   5  -2   21.89    6.56   1
   4   5  -2  233.50   18.09   1
   4   5  -2  233.51   17.50   2
  -4  -5   2  246.77   18.51   1
  -3  -5   2    8.08    3.61   1
   3   5  -2   14.45    4.56   1
   3   5  -2    6.88    2.78   2
  -2  -5   2   20.06    4.62   1
   2   5  -2   24.41    4.27   2
  -1  -5   2    9.99    2.72   1
   1   5  -2    6.88    3.44   1
   1   5  -2    4.70    3.67   2
   0  -5   2  585.72   43.21   1
   0   5  -2  658.47   43.37   1
  -1   5  -2   24.41    2.87   4
  -1   5  -2   25.89    3.52   1
   1  -5   2   19.55    3.52   1
  -2   5  -2   13.10    4.28   1
  -2   5  -2   11.32    3.94   1
  -3   5  -2   34.66    5.51   1
  -3   5  -2   34.87    2.94   3
  -3   5  -2   37.11    5.23   1
  -4   5  -2   63.46    4.83   3
  -4   5  -2   63.09    5.96   2
  -4   5  -2   55.70    7.12   1
  -4   5  -2   46.97    6.06   1
  -5   5  -2   59.06    6.68   2
  -5   5  -2   61.70    5.64   3
  -5   5  -2   59.47    6.55   1
  -5   5  -2   56.10    7.91   1
  -6   5  -2  292.30   21.05   1
  -6   5  -2  240.60   19.24   2
  -7   5  -2  204.25   17.67   1
  -7  -4   2  103.96   12.69   1
   6   4  -2  372.66   26.22   1
  -6  -4   2  312.36   25.81   1
  -5  -4   2   22.73    5.66   1
   5   4  -2   18.36    5.88   1
   4   4  -2  701.75   50.18   2
  -4  -4   2  727.64   51.17   1
   4   4  -2  766.24   51.21   1
   3   4  -2    4.41    2.73   2
   3   4  -2   -0.67    3.66   1
  -3  -4   2    2.99    3.95   1
   2   4  -2  233.01   16.56   2
   2   4  -2  235.50   16.92   1
  -2  -4   2  221.84   16.94   1
   1   4  -2  164.20   12.87   1
  -1  -4   2  185.91   13.22   1
   0  -4   2 1102.06   79.45   1
   0   4  -2 1220.53   79.51   1
   1  -4   2    2.05    3.63   1
  -1   4  -2   -1.00    3.39   1
  -2   4  -2  128.95   10.36   1
  -2   4  -2  130.13   10.35   1
  -3   4  -2  298.14   22.54   1
  -3   4  -2  329.45   22.75   1
  -4   4  -2  642.73   43.90   1
  -4   4  -2  602.53   43.68   1
  -5   4  -2  123.53   10.73   1
   5  -4   2  138.64   11.06   1
  -5   4  -2  120.13    9.74   2
  -6   4  -2   -1.83    5.79   1
  -6   4  -2    7.89    3.05   2
   6  -4   2   10.16    3.79   1
  -7   4  -2   11.97    6.91   1
  -8   4  -2   39.33    9.46   1
  -8  -3   2  174.98   17.35   1
  -7  -3   2   17.67    6.70   1
   6   3  -2  311.68   23.77   1
  -6  -3   2  313.79   23.86   1
  -5  -3   2    3.17    3.56   1
   5   3  -2    7.25    5.05   1
  -4  -3   2  114.21   10.11   1
   4   3  -2  116.27    8.86   2
   4   3  -2  133.61   10.24   1
   3   3  -2  128.54    9.98   1
   3   3  -2  117.14    9.13   2
  -3  -3   2  123.49   10.11   1
  -2  -3   2  798.30   55.90   1
   2   3  -2  824.49   55.84   1
   1   3  -2    3.38    2.92   1
  -1  -3   2    0.67    2.28   1
   0  -3   2  140.89   10.89   1
   0   3  -2  148.18   11.02   1
   1  -3   2 1072.51   70.70   1
  -1   3  -2  993.07   70.61   1
  -2   3  -2  733.41   54.01   1
  -2   3  -2  837.86   54.16   1
   3  -3   2  116.45    8.85   1
  -3   3  -2  104.23    8.90   1
  -4   3  -2   51.18    6.73   1
   4  -3   2   65.94    6.59   1
   5  -3   2  116.43   10.58   1
  -5   3  -2  116.34   10.75   1
   6  -3   2  236.69   17.76   1
  -6   3  -2  234.30   17.49   1
  -6   3  -2  207.72   15.88   2
  -7   3  -2  623.59   44.94   1
  -8   3  -2   43.97    8.26   1
  -8  -2   2  -10.43    9.86   1
  -7  -2   2  214.77   18.11   1
  -6  -2   2  712.51   47.27   1
   6   2  -2  618.29   46.79   1
   5   2  -2    5.24    4.21   1
  -5  -2   2    9.84    4.71   1
  -4  -2   2 1941.49  130.19   1
   4   2  -2 1690.15  130.50   2
   4   2  -2 2085.57  130.19   1
  -3  -2   2   21.59    4.36   1
   3   2  -2   28.33    4.26   1
  -2  -2   2   99.76    7.72   1
   2   2  -2   92.94    7.54   1
   1   2  -2 1020.25   81.23   1
  -1  -2   2 1367.72   81.47   1
   0   2  -2  579.89   36.90   1
   0  -2   2  456.80   34.43   3
   0  -2   2  570.70   36.93   1
  -1   2  -2   23.43    3.02   1
  -1   2  -2   28.84    3.53   1
  -2   2  -2  398.08   30.12   1
   2  -2   2  470.46   30.30   1
   3  -2   2 1601.89  108.44   1
  -3   2  -2 1573.43  108.44   1
  -4   2  -2  329.56   23.40   1
   4  -2   2  310.36   22.95   1
   5  -2   2  601.27   43.16   1
  -5   2  -2  627.37   43.46   1
  -6   2  -2   17.00    6.28   1
   6  -2   2   26.35    5.52   1
  -7   2  -2   12.02    7.09   1
  -8   2  -2    8.98    9.51   1
  -8  -1   2  319.32   25.82   1
  -7  -1   2    8.74    6.35   1
  -6  -1   2  481.28   32.76   1
   6   1  -2  417.80   32.15   1
   5   1  -2   69.19    7.00   1
  -5  -1   2   80.13    7.93   1
   4   1  -2   -3.38    3.70   1
  -4  -1   2   -2.97    3.97   1
  -3  -1   2    3.76    2.54   1
   3   1  -2    6.81    3.19   1
  -2  -1   2 1817.30  116.20   1
   2   1  -2 1599.64  116.09   1
   1   1  -2  471.73   30.33   1
  -1  -1   2  409.15   30.27   1
   0   1  -2 4386.53  314.22   1
   0  -1   2 4900.75  314.27   1
  -1   1  -2  284.69   19.73   1
  -1   1  -2  281.44   19.76   1
   2  -1   2  677.16   48.10   1
  -2   1  -2  724.37   48.20   1
  -3   1  -2 1027.87   71.86   1
   3  -1   2 1066.23   71.84   1
   4  -1   2  117.30    9.88   1
  -4   1  -2  121.97    9.99   1
  -5   1  -2   -0.65    3.50   1
   5  -1   2   -0.14    4.37   1
   6  -1   2  195.15   15.61   1
  -6   1  -2  188.45   15.23   1
  -7   1  -2  379.66   28.64   1
  -8   1  -2  116.20   12.93   1
  -8   0   2    8.01    9.05   1
  -7   0   2   60.78    8.75   1
   7   0  -2   45.69    6.50   1
  -6   0   2  441.88   31.94   1
   6   0  -2  440.26   31.79   1
   5   0  -2    1.37    4.09   1
  -5   0   2   -6.35    4.38   1
  -4   0   2 4741.60  323.53   1
   4   0  -2 4798.33  323.97   1
   3   0  -2 1689.00  126.78   2
  -3   0   2 1947.57  127.24   1
   3   0  -2 1972.11  127.20   1
   2   0  -2  909.54   62.69   1
  -2   0   2  929.57   62.72   1
  -1   0   2   29.28    3.10   1
  -1   0   2   36.29    2.98   3
   1   0  -2   32.25    3.11   1
   0   0  -2  140.46    9.35   3
   0   0   2  135.17    9.53   1
   0   0  -2  134.29    9.52   1
   1   0   2  133.63   10.21   4
   1   0   2  137.94   10.10   1
  -1   0  -2  154.29   10.21   1
  -2   0  -2  179.52   13.06   1
   2   0   2  179.07   12.90   1
   3   0   2    7.46    2.68   1
  -3   0  -2   13.87    3.39   1
  -4   0  -2  565.56   38.97   1
  -4   0  -2  493.55   38.03   2
   4   0   2  615.95   39.05   1
   5   0   2  140.83   11.11   1
  -5   0  -2  121.51    9.64   2
  -5   0  -2  152.55   11.75   1
  -6   0  -2   22.05    6.56   1
   6   0   2   19.80    5.74   1
  -7   0  -2   91.33    9.80   1
  -8   1   2  219.68   19.70   1
   7  -1  -2    4.27    5.82   1
  -7   1   2   -3.93    6.30   1
  -6   1   2 2265.00  139.20   1
   6  -1  -2 1791.08  138.56   1
   5  -1  -2  399.95   28.70   1
  -5   1   2  403.32   28.92   1
  -4   1   2    1.72    3.40   1
   4  -1  -2    3.73    2.36   1
   3  -1  -2  381.50   28.01   1
   3  -1  -2  385.38   27.63   2
  -3   1   2  439.25   28.20   1
   2  -1  -2   58.54    5.27   1
  -2   1   2   75.65    5.49   3
  -2   1   2   45.36   14.14   1
   2  -1  -2   62.06    5.29   2
  -1   1   2   88.72    6.72   1
   1  -1  -2   92.90    6.76   1
   1  -1  -2  102.26    7.33   2
   0  -1  -2 6662.79  419.46   4
   0  -1  -2 5307.63  417.67   2
   0   1   2 6522.36  419.46   4
  -1  -1  -2  311.33   22.23   1
   1   1   2  344.89   22.28   1
  -1  -1  -2  315.24   22.49   2
  -2  -1  -2 1264.26   87.15   1
  -2  -1  -2 1227.29   86.89   2
   2   1   2 1349.70   87.19   1
   3   1   2  440.46   31.26   1
  -3  -1  -2  448.64   31.36   1
  -3  -1  -2  457.51   31.00   2
   4   1   2  122.05    9.32   1
  -4  -1  -2  104.43    9.00   1
  -4  -1  -2  109.26    8.39   2
  -5  -1  -2    8.31    2.21   2
  -5  -1  -2    4.75    4.63   1
   6   1   2  303.37   22.97   1
  -6  -1  -2  301.24   22.73   1
  -7  -1  -2  508.86   37.55   1
  -8   2   2   62.22   10.16   1
   7  -2  -2  259.67   20.76   1
  -7   2   2  275.70   21.41   1
   6  -2  -2  401.18   28.08   1
  -6   2   2  367.07   28.18   1
   5  -2  -2    5.12    3.92   1
  -5   2   2    3.59    4.35   1
  -4   2   2  752.81   51.93   1
   4  -2  -2  743.54   51.79   1
   3  -2  -2  186.64   13.77   1
  -3   2   2  207.84   13.16   3
   3  -2  -2  182.64   13.56   2
  -3   2   2  171.62   13.64   1
   2  -2  -2 2186.53  132.16   3
  -2   2   2 2262.12  132.11   3
  -2   2   2 1877.71  139.84   2
   2  -2  -2 1884.34  138.99   2
  -2   2   2 2072.25  139.87   1
   2  -2  -2 2028.86  140.12   1
  -1   2   2   29.21    3.53   1
  -1   2   2   30.52    2.71   1
   0  -2  -2   40.59    4.67   2
   0   2   2   44.32    4.65   4
  -1  -2  -2   11.18    1.66   1
  -1  -2  -2   10.83    4.72   2
   1   2   2   10.89    1.50   1
   2   2   2  201.14   15.09   1
  -2  -2  -2  228.67   15.38   2
  -2  -2  -2  211.53   15.23   1
   3   2   2  118.02    9.01   1
  -3  -2  -2  121.07    9.02   2
  -3  -2  -2  104.49    8.75   1
  -4  -2  -2  823.10   56.03   1
   4   2   2  794.12   55.89   1
  -4  -2  -2  808.99   55.40   2
   5   2   2   92.20    8.63   1
  -5  -2  -2   72.92    8.18   1
   6   2   2   92.37   11.75   1
  -6  -2  -2   98.49   10.27   1
  -7  -2  -2   74.73    9.20   1
  -8   3   2  147.74   15.57   1
  -7   3   2    3.38    6.22   1
   6  -3  -2  764.18   51.03   1
  -6   3   2  661.95   50.81   1
  -6   3   2  749.37   49.12   3
   5  -3  -2   26.18    5.10   1
  -5   3   2   25.15    4.21   3
  -5   3   2   31.40    5.76   1
  -4   3   2  118.97   10.08   1
   4  -3  -2  117.13    9.93   1
  -4   3   2  122.25    9.39   3
  -4   3   2  126.55    9.51   2
  -3   3   2  845.68   58.19   2
   3  -3  -2  918.49   58.28   2
  -3   3   2  867.24   58.41   1
  -3   3   2  788.15   55.15   3
   3  -3  -2  820.20   58.28   1
   2  -3  -2  829.74   54.05   3
   2  -3  -2  851.41   57.05   2
  -2   3   2  775.19   56.94   2
  -2   3   2  874.41   54.03   3
  -2   3   2  860.92   56.85   1
  -2   3   2  869.03   56.94   1
   2  -3  -2  754.98   57.17   4
  -1   3   2  244.72   17.35   1
   1  -3  -2  254.40   17.07   3
  -1   3   2  247.13   18.03   2
  -1   3   2  234.96   17.38   1
   1  -3  -2  269.79   18.15   2
   0   3   2 2510.09  153.09   4
   0   3   2 2173.85  152.90   1
   0   3   2 2105.88  152.40   2
   0  -3  -2 1917.38  153.14   1
   0  -3  -2 2478.92  151.93   2
   1   3   2   80.03    7.26   4
   1   3   2   67.29    5.36   1
  -1  -3  -2   68.52    5.45   1
  -1  -3  -2   72.15    6.61   2
  -2  -3  -2 1107.63   70.07   1
  -2  -3  -2 1046.69   70.17   2
   2   3   2  920.79   69.85   1
  -3  -3  -2   65.80    6.27   2
  -3  -3  -2   58.88    5.88   1
   3   3   2   61.56    5.64   1
   4   3   2   13.95    4.46   1
  -4  -3  -2    8.12    3.54   2
  -4  -3  -2   17.26    4.04   1
  -5  -3  -2    9.02    5.51   1
  -6  -3  -2   97.78   14.13   1
   6   3   2   89.09   11.29   1
  -8   4   2   16.20    6.86   1
  -7   4   2   50.94    8.41   1
  -7   4   2   57.38    7.53   3
   6  -4  -2  208.15   16.56   1
  -6   4   2  193.98   15.60   3
  -6   4   2  218.92   17.06   1
  -5   4   2   16.29    4.16   3
  -5   4   2   14.82    4.17   1
   5  -4  -2   24.11    4.95   1
   4  -4  -2  893.63   61.14   1
  -4   4   2  867.47   60.36   1
   4  -4  -2  837.12   60.50   4
  -4   4   2  896.53   60.06   2
  -4   4   2  859.80   56.95   3
  -3   4   2  646.20   42.53   2
   3  -4  -2  564.28   42.32   4
  -3   4   2  572.22   39.98   3
  -3   4   2  692.30   42.52   1
  -3   4   2  572.50   42.15   1
   2  -4  -2  804.15   51.61   2
  -2   4   2  708.90   51.04   1
   2  -4  -2  692.54   48.63   3
  -2   4   2  715.01   51.18   1
  -2   4   2  804.56   51.63   2
  -1   4   2   12.78    3.17   2
   1  -4  -2   15.08    3.64   3
  -1   4   2   17.45    2.34   1
   1  -4  -2   14.34    3.61   2
  -1   4   2   16.24    2.41   1
   0   4   2  164.17   13.18   4
   0   4   2  167.88   12.33   1
   0  -4  -2  155.55   12.30   1
   0  -4  -2  186.42   12.55   3
   0   4   2  195.52   13.41   2
   0  -4  -2  180.36   13.54   2
  -1  -4  -2    4.92    2.01   1
   1   4   2    4.19    4.83   4
  -1  -4  -2    0.37    4.06   2
  -2  -4  -2    3.47    4.51   2
  -2  -4  -2   -0.93    2.29   1
   2   4   2    8.49    2.32   1
  -3  -4  -2   65.25    6.26   1
   3   4   2   70.41    6.24   1
  -4  -4  -2  597.63   41.80   1
   4   4   2  593.08   41.73   1
  -5  -4  -2  306.45   23.55   1
   5   4   2  332.76   24.99   1
  -6  -4  -2   28.35    7.95   1
  -8   5   2  176.30   16.85   1
  -7   5   2   14.86   10.75   3
  -7   5   2    0.45    7.44   1
  -6   5   2  556.02   37.08   1
  -6   5   2  489.97   34.99   3
   6  -5  -2  487.25   36.05   1
   6  -5  -2  488.12   35.60   4
   5  -5  -2   57.22    5.90   4
  -5   5   2   59.99    7.57   1
  -5   5   2   49.57    7.70   1
  -5   5   2   57.84    6.92   2
  -5   5   2   52.83    6.36   3
   4  -5  -2   49.47    5.43   4
  -4   5   2   45.97    6.32   2
  -4   5   2   48.25    5.95   1
  -4   5   2   44.41    5.79   1
  -4   5   2   38.29    4.98   3
  -3   5   2   85.78    7.83   1
  -3   5   2   94.44    8.22   1
  -3   5   2   99.67    8.95   2
  -2   5   2  138.58   11.47   1
  -2   5   2  172.25   11.78   1
  -2   5   2  161.64   12.51   2
   2  -5  -2  146.66   11.46   3
  -1   5   2  135.36   10.38   1
  -1   5   2  148.46   11.31   2
   1  -5  -2  142.11   10.42   3
  -1   5   2  137.85   10.45   1
   0   5   2  540.94   38.08   4
   0   5   2  564.42   38.00   2
   0   5   2  509.15   38.10   1
   1   5   2  450.91   28.68   4
  -1  -5  -2  372.36   27.26   1
   1   5   2  356.34   27.29   1
   2   5   2  524.37   35.56   4
   2   5   2  434.82   34.98   1
  -2  -5  -2  508.78   34.44   1
   3   5   2  260.39   19.98   1
  -3  -5  -2  288.96   20.09   1
  -5  -5  -2    1.02    5.22   1
  -7   6   2   -9.63    9.31   1
  -6   6   2   45.26    6.82   3
  -6   6   2   45.93    8.32   1
  -5   6   2    0.17    6.11   1
  -5   6   2   11.98    4.11   3
  -5   6   2    4.45    5.55   2
  -5   6   2   17.26    6.72   1
  -4   6   2  420.02   29.04   1
  -4   6   2  409.06   28.97   1
  -4   6   2  371.30   29.22   2
  -3   6   2  251.11   18.69   1
  -3   6   2  269.56   18.92   1
  -3   6   2  241.77   19.21   2
  -2   6   2  338.42   25.42   2
   2  -6  -2  355.11   23.70   3
  -2   6   2  296.44   24.49   1
  -2   6   2  393.89   24.72   1
   1  -6  -2  203.41   14.76   3
  -1   6   2  220.47   16.20   2
  -1   6   2  186.50   14.69   1
   0   6   2   49.71    5.07   1
   0   6   2   56.92    7.06   4
   0   6   2   63.65    5.22   1
   0   6   2   56.66    6.56   2
   0  -6  -2   57.37    6.93   3
   1   6   2   79.96    6.92   1
  -1  -6  -2   89.05    7.06   1
   2   6   2   32.09    7.48   4
  -2  -6  -2   24.56    3.93   1
   2   6   2   20.76    4.03   1
   3   6   2    8.65    8.28   4
   4   6   2  197.86   17.91   4
  -6   7   2  475.75   35.34   1
  -5   7   2  154.49   14.72   1
  -5   7   2  156.04   13.96   1
  -4   7   2   30.45    7.08   1
  -4   7   2    7.28    5.98   1
  -3   7   2  141.27   11.99   1
  -3   7   2  146.49   12.04   1
  -2   7   2   95.82    8.26   1
  -2   7   2   85.70    8.15   1
   2  -7  -2   91.04    8.44   3
  -1   7   2   12.49    3.56   1
   1  -7  -2   11.09    4.98   3
   0   7   2  136.21   10.47   1
   0   7   2  135.02   10.51   1
   1   7   2   76.84    9.07   4
   1   7   2   69.06    6.36   1
   2   7   2  228.01   19.39   4
   3   7   2   50.33   11.26   4
  -4   8   2  116.52   11.90   1
   2  -8  -2  140.31   11.60   3
  -2   8   2  134.01   11.35   1
   1  -8  -2   17.83    6.36   3
   0  -8  -2   57.30    8.47   3
   1   8   2   16.22    6.58   4
  -1  10  -3  -13.87    9.56   1
  -2  -9   3   75.24    9.43   1
  -1  -9   3   -2.97    3.63   3
  -1  -9   3    0.20    5.26   1
   0   9  -3   13.11    5.18   4
  -1   9  -3   44.06    8.29   1
  -2   9  -3  299.33   23.62   1
  -3   9  -3  130.23   12.94   1
  -4   9  -3   81.09   11.76   1
  -4  -8   3    3.14    5.85   1
   2   8  -3   67.23    8.16   1
   1   8  -3    5.11    6.53   2
  -1  -8   3   18.61    6.32   1
   0   8  -3  451.39   31.95   1
   0  -8   3  431.15   31.95   1
   0  -8   3  411.55   28.66   3
   0   8  -3  456.77   32.27   2
  -1   8  -3   94.49    9.60   2
  -1   8  -3  101.22    8.42   4
  -1   8  -3  102.62   10.26   1
  -1   8  -3  105.90   10.21   1
  -2   8  -3   53.27    8.29   1
  -2   8  -3   44.61    6.67   1
  -3   8  -3   72.13   12.37   1
  -3   8  -3   85.59   10.47   1
  -4   8  -3   -2.63    7.71   1
  -5  -7   3   11.52    7.86   1
   4   7  -3  328.00   25.49   2
   4   7  -3  370.02   26.37   1
  -4  -7   3  346.77   26.46   1
   3   7  -3   44.25    7.03   2
   3   7  -3   57.91    6.70   1
  -3  -7   3   49.23    7.28   1
  -2  -7   3  261.68   20.62   1
   2   7  -3  279.13   20.87   1
   2   7  -3  268.92   20.48   2
   1   7  -3   42.81    6.58   1
   1   7  -3   57.91    7.07   2
  -1  -7   3   46.41    6.46   1
   0  -7   3   -0.40    1.52   3
   0   7  -3   -1.77    3.61   1
   0   7  -3    4.95    4.90   2
   0  -7   3   -3.09    4.76   1
  -1   7  -3    2.73    2.54   4
  -1   7  -3    3.73    5.40   1
  -1   7  -3    6.46    3.71   2
  -2   7  -3  213.99   16.47   1
  -2   7  -3  204.66   16.26   2
  -2   7  -3  182.15   15.53   1
  -3   7  -3   88.60    9.59   1
  -3   7  -3  103.10   10.27   1
  -3   7  -3   95.04    8.94   2
  -4   7  -3  155.98   13.14   1
  -4   7  -3  158.41   14.35   1
  -4   7  -3  157.39   13.04   2
  -5   7  -3  144.26   13.40   2
  -5   7  -3  145.90   12.96   1
  -6  -6   3  190.51   17.21   1
  -5  -6   3   38.35    7.61   1
   5   6  -3   23.21    4.78   2
   4   6  -3    3.63    4.06   2
   3   6  -3   57.39    7.42   1
   3   6  -3   63.11    6.66   2
  -3  -6   3   55.40    7.69   1
  -2  -6   3    6.69    3.54   1
   1   6  -3   19.22    3.82   2
  -1  -6   3   21.31    4.58   1
   0  -6   3  549.21   36.43   1
   0  -6   3  495.04   33.15   3
   0   6  -3  494.81   36.29   1
  -1   6  -3   32.42    5.79   1
   1  -6   3   40.03    4.85   1
  -2   6  -3  185.95   13.94   1
  -2   6  -3  158.44   13.70   1
  -3   6  -3  224.61   18.21   1
  -3   6  -3  249.03   18.26   1
  -4   6  -3   67.05    7.44   1
  -4   6  -3   45.47    7.70   1
  -5   6  -3    1.91    2.55   3
  -5   6  -3    6.63    4.72   2
  -5   6  -3   -1.28    6.50   1
  -6   6  -3  112.32   10.00   2
  -6   6  -3  115.94   12.23   1
  -7   6  -3  130.71   13.73   1
  -7  -5   3   64.97   10.23   1
  -6  -5   3   70.52    9.64   1
   5   5  -3   74.14    8.50   1
   5   5  -3   59.25    6.07   2
  -5  -5   3   58.37    8.48   1
   4   5  -3  133.74   10.48   2
  -4  -5   3  117.57   11.65   1
   4   5  -3  140.52   11.83   1
   3   5  -3   18.41    4.18   2
  -3  -5   3   29.45    5.76   1
   3   5  -3   32.00    5.24   1
   2   5  -3  416.96   30.30   1
  -2  -5   3  439.19   30.65   1
   1   5  -3  146.39   10.88   1
  -1  -5   3  132.21   10.97   1
   0  -5   3  137.78   10.64   1
   0   5  -3  119.15   10.37   1
  -1   5  -3    8.12    3.95   1
   1  -5   3   -4.61    4.05   1
  -2   5  -3 1050.28   64.93   1
  -2   5  -3  826.89   64.60   1
  -3   5  -3  614.89   45.88   1
  -3   5  -3  697.51   46.10   1
  -4   5  -3  475.21   32.97   1
  -4   5  -3  438.51   32.69   1
  -5   5  -3  401.40   27.72   1
  -5   5  -3  342.47   27.24   1
  -6   5  -3    1.96    4.27   2
  -6   5  -3   14.17    6.95   1
  -7   5  -3   85.73    9.58   1
  -7  -4   3   31.99    8.55   1
  -6  -4   3  105.23   10.16   1
   6   4  -3  102.29   10.69   1
   5   4  -3   -2.49    4.63   1
  -5  -4   3   14.59    6.00   1
   5   4  -3    4.17    2.19   2
   4   4  -3   87.91    7.03   2
  -4  -4   3   80.58    8.34   1
   4   4  -3   88.47    8.34   1
  -3  -4   3   34.53    5.26   1
   3   4  -3   31.43    4.04   1
   2   4  -3  230.18   15.90   1
  -2  -4   3  197.66   15.74   1
  -1  -4   3  403.42   29.27   1
   1   4  -3  426.13   29.22   1
   0  -4   3 1896.77  134.80   1
   0   4  -3 2060.65  134.87   1
  -1   4  -3  226.40   17.32   1
   1  -4   3  248.94   17.68   1
  -2   4  -3 1452.68   96.57   1
  -2   4  -3 1368.91   96.53   1
  -3   4  -3  764.65   47.04   1
  -3   4  -3  579.63   46.55   1
  -4   4  -3    1.76    3.41   1
  -5   4  -3   12.14    4.17   1
  -5   4  -3   17.83    5.79   1
  -6   4  -3  172.96   15.01   1
  -7   4  -3  107.62   12.30   1
  -8  -3   3   23.99    7.58   1
  -7  -3   3  127.45   13.15   1
  -6  -3   3   72.66    9.08   1
   6   3  -3   93.56    9.18   1
   5   3  -3   -0.38    1.45   2
  -5  -3   3   -3.80    3.80   1
   5   3  -3    4.15    4.39   1
  -4  -3   3 1376.42   89.42   1
   4   3  -3 1281.96   88.93   2
   4   3  -3 1240.65   89.17   1
   3   3  -3  577.70   40.60   1
  -3  -3   3  586.70   40.75   1
  -2  -3   3  416.99   31.38   1
   2   3  -3  480.58   31.45   1
  -1  -3   3   86.18    7.34   1
   1   3  -3   81.51    6.79   1
   0   3  -3 1164.72   79.59   1
   0  -3   3 1064.96   75.03   3
   0  -3   3 1265.37   79.69   1
  -1   3  -3   33.33    4.16   1
   1  -3   3   30.80    4.55   1
  -2   3  -3  282.24   19.27   1
  -2   3  -3  250.12   19.00   1
  -3   3  -3  682.79   46.92   1
  -3   3  -3  665.38   46.86   1
  -4   3  -3  631.86   42.58   1
   4  -3   3  626.91   42.45   1
   4  -3   3  557.64   41.34   4
  -5   3  -3  482.44   34.24   1
   5  -3   3  471.01   34.23   1
  -6   3  -3   -7.84    6.09   1
   6  -3   3    5.34    4.55   1
  -7   3  -3  145.12   13.07   1
  -8   3  -3    0.31    5.97   1
  -8  -2   3  253.87   20.88   1
  -7  -2   3   11.76    7.46   1
   6   2  -3  839.82   57.23   1
  -6  -2   3  795.37   57.23   1
   5   2  -3   -5.97    4.63   1
  -5  -2   3   -0.57    3.56   1
   4   2  -3  294.37   20.12   1
  -4  -2   3  253.05   20.09   1
   3   2  -3   37.04    4.09   1
  -3  -2   3   34.84    4.97   1
   2   2  -3 2041.60  138.45   1
  -2  -2   3 2021.53  213.17   1
   1   2  -3    8.91    2.69   1
  -1  -2   3    5.97    3.08   1
   0  -2   3 2429.58  173.36   3
   0  -2   3 2652.62  183.58   1
   0   2  -3 2853.93  183.63   1
   0   2  -3 2890.41  173.44   3
  -1   2  -3  603.56   46.77   4
  -1   2  -3  748.44   47.15   1
  -1   2  -3  705.25   47.06   1
  -2   2  -3 1615.74  104.50   1
  -2   2  -3 1448.54  104.40   1
   3  -2   3 1908.88  128.42   1
  -3   2  -3 1789.20  128.33   1
   3  -2   3 1950.17  129.17   4
  -4   2  -3   18.41    3.62   1
   4  -2   3   13.50    4.26   1
   5  -2   3    6.59    4.84   1
  -5   2  -3    2.79    3.77   1
  -6   2  -3   93.67   10.48   1
   6  -2   3  104.13   10.54   1
  -7   2  -3   68.96    9.46   1
  -8  -1   3  175.07   17.02   1
  -7  -1   3   55.11    8.52   1
   6   1  -3    2.50    4.65   1
  -6  -1   3    0.18    5.48   1
  -5  -1   3   10.68    4.68   1
   5   1  -3    0.90    4.05   1
  -4  -1   3  269.67   20.65   1
   4   1  -3  305.45   20.82   1
   3   1  -3  149.85   11.05   1
  -3  -1   3  142.72   11.05   1
   2   1  -3  641.19   43.82   1
  -2  -1   3  632.54   43.84   1
   1   1  -3  671.02   51.18   1
  -1  -1   3  847.07   48.58   3
  -1  -1   3  733.28   51.26   1
   0  -1   3  912.25   69.18   1
   0   1  -3 1119.35   69.28   1
   0   1  -3 1018.65   65.49   3
  -1   1  -3  216.05   15.85   1
  -1   1  -3  233.62   15.90   1
   2  -1   3   54.50    4.75   1
   2  -1   3   55.19    4.54   4
  -2   1  -3   52.01    4.86   1
  -3   1  -3  598.17   43.03   1
   3  -1   3  643.07   43.15   1
   4  -1   3  281.87   21.26   1
  -4   1  -3  300.92   21.35   1
  -5   1  -3  113.62   10.20   1
   5  -1   3  106.39   10.10   1
  -6   1  -3   73.49    8.85   1
   6  -1   3   83.81    9.05   1
  -7   1  -3  233.58   19.49   1
  -8   0   3   46.83   10.34   1
   7   0  -3   40.23    6.99   1
  -7   0   3   31.93    7.47   1
   6   0  -3 1574.57  104.27   1
  -6   0   3 1453.98  104.24   1
  -5   0   3   18.73    4.54   1
   5   0  -3   12.09    3.41   1
  -4   0   3  231.73   15.59   1
   4   0  -3  180.27   14.37   2
   4   0  -3  214.32   15.36   1
   3   0  -3  794.95   53.38   1
  -3   0   3  756.65   53.32   1
   2   0  -3 1265.55   92.71   1
  -2   0   3 1280.43   92.75   1
  -2   0   3 1546.28   88.17   3
  -1   0   3    1.93    1.35   1
   1   0  -3    0.24    1.52   1
   1   0  -3    2.33    2.66   3
  -1   0   3    4.68    1.82   3
   0   0  -3  498.80   32.94   3
   0   0   3  494.43   34.39   1
   0   0  -3  492.79   34.82   4
   0   0  -3  529.12   34.41   1
  -1   0  -3   50.25    4.05   1
   1   0   3   53.87    4.84   4
  -1   0  -3   51.41    4.30   1
   2   0   3  824.79   55.80   4
   2   0   3  814.79   55.39   1
  -2   0  -3  784.88   55.37   1
   3   0   3 1130.60   72.15   1
  -3   0  -3  971.23   72.03   1
  -4   0  -3   40.52    5.88   1
   5   0   3   12.57    3.96   1
  -5   0  -3   18.71    5.23   1
  -5   0  -3   18.87    2.84   2
   6   0   3  163.10   14.38   1
  -6   0  -3  196.23   15.25   1
  -7   0  -3  437.21   32.84   1
  -8   1   3  352.52   27.67   1
   7  -1  -3  200.29   15.45   1
  -7   1   3  164.33   15.03   1
  -6   1   3   59.66    7.31   1
   6  -1  -3   47.81    6.69   1
   5  -1  -3   11.91    3.20   1
   4  -1  -3   69.27    6.22   1
  -4   1   3   56.73    5.82   1
   4  -1  -3   65.83    5.24   2
   3  -1  -3    5.21    2.40   2
  -3   1   3   -2.78    2.69   1
   3  -1  -3   -3.79    2.52   1
  -3   1   3    3.37    3.32   3
   2  -1  -3  160.47   10.74   2
   2  -1  -3  131.21   10.41   1
  -2   1   3  163.31   10.51   3
  -2   1   3  125.81   10.43   1
  -1   1   3  203.97   16.27   1
  -1   1   3  229.81   14.73   3
   0  -1  -3  349.80   25.02   4
   0  -1  -3  366.16   23.74   3
  -1  -1  -3  281.36   22.01   1
   1   1   3  355.57   22.83   4
   1   1   3  327.15   22.08   1
  -2  -1  -3  103.56    8.02   1
   2   1   3  115.73    8.78   4
   2   1   3  102.19    8.04   1
  -3  -1  -3  474.10   34.63   1
  -3  -1  -3  455.06   34.45   2
   3   1   3  565.32   34.81   1
   4   1   3  495.06   38.71   1
  -4  -1  -3  582.33   38.84   1
  -4  -1  -3  584.74   38.37   2
   5   1   3  637.13   42.87   1
  -5  -1  -3  658.91   43.04   1
  -5  -1  -3  528.43   41.68   2
   6   1   3   34.34    9.01   1
  -6  -1  -3   41.41    7.51   1
  -7  -1  -3  254.59   20.97   1
  -8   2   3  148.15   15.45   1
   7  -2  -3   10.92    6.57   1
  -7   2   3    7.21    5.59   1
   6  -2  -3  786.67   56.44   1
  -6   2   3  829.85   56.82   1
  -5   2   3   23.91    5.21   3
   5  -2  -3   15.93    3.57   1
  -5   2   3   22.86    4.69   1
   4  -2  -3  370.99   26.17   2
  -4   2   3  394.01   25.59   3
  -4   2   3  379.26   26.64   1
   4  -2  -3  355.51   26.55   1
   3  -2  -3  408.11   31.15   1
  -3   2   3  482.98   31.29   1
   3  -2  -3  421.30   31.18   2
  -3   2   3  484.84   29.99   3
  -2   2   3    0.94    2.90   3
   2  -2  -3   -1.94    2.69   3
   2  -2  -3   -1.02    3.27   2
  -2   2   3    1.26    1.67   1
   1  -2  -3   18.45    2.81   3
   1  -2  -3   11.53    3.32   4
   1  -2  -3   19.32    3.71   2
   0  -2  -3 1189.05   81.08   2
   1   2   3  876.13   57.89   4
   1   2   3  761.50   56.66   1
  -1  -2  -3  815.60   57.26   2
  -1  -2  -3  884.09   56.70   1
  -2  -2  -3  936.00   56.89   1
  -2  -2  -3  847.19   57.12   2
   2   2   3  784.88   57.83   4
   2   2   3  755.29   56.75   1
  -3  -2  -3 1330.44   95.94   1
  -3  -2  -3 1422.09   95.90   2
   3   2   3 1466.05   96.05   1
   4   2   3   30.25    4.66   1
  -4  -2  -3   25.05    3.62   2
  -4  -2  -3   24.65    4.42   1
  -5  -2  -3   79.41    7.85   2
   5   2   3   98.58    9.16   1
  -5  -2  -3  100.92    9.22   1
   6   2   3   14.83   10.21   1
  -6  -2  -3   17.51   12.68   1
  -8   3   3  125.95   12.58   1
  -7   3   3   20.38    6.97   1
  -7   3   3   17.47    5.90   3
   6  -3  -3   -1.46    3.81   1
  -6   3   3    3.18    4.74   3
  -6   3   3    3.77    5.59   1
  -5   3   3   19.60    5.00   1
  -5   3   3   11.28    3.97   3
   4  -3  -3  731.58   48.25   1
   4  -3  -3  650.94   47.91   2
  -4   3   3  681.09   45.80   3
  -4   3   3  712.87   48.19   1
  -3   3   3   89.54    7.66   3
  -3   3   3   98.01    7.79   1
   3  -3  -3   98.25    8.07   2
   3  -3  -3   93.60    7.63   1
   2  -3  -3  978.85   59.20   3
   2  -3  -3  958.34   62.28   2
  -2   3   3  852.69   62.66   1
   2  -3  -3  970.73   62.71   4
  -2   3   3  771.69   62.90   1
   1  -3  -3   29.89    4.96   2
   1  -3  -3   28.99    4.41   3
   0  -3  -3  718.68   47.91   3
   0   3   3  711.17   50.82   4
   0  -3  -3  758.13   50.46   2
   1   3   3  617.21   39.37   4
  -1  -3  -3  494.75   38.67   2
   2   3   3  288.95   23.45   1
   2   3   3  389.85   25.00   4
  -2  -3  -3  345.22   23.59   1
  -2  -3  -3  335.21   24.31   2
  -3  -3  -3   13.75    4.23   2
  -3  -3  -3    8.50    2.73   1
   3   3   3   11.40    3.03   1
  -4  -3  -3  175.45   13.68   1
   4   3   3  180.59   13.72   1
  -4  -3  -3  179.67   14.05   2
  -5  -3  -3  212.98   17.51   1
   5   3   3  249.02   18.06   1
  -6  -3  -3   12.87    6.59   1
  -8   4   3   98.32   13.19   1
  -7   4   3   -2.59    7.75   1
   6  -4  -3 1492.30  102.19   1
  -6   4   3 1369.01  102.99   3
  -6   4   3 1571.02  102.29   1
  -5   4   3  119.27   10.19   1
   5  -4  -3  125.90   10.49   1
  -5   4   3  118.81    9.66   3
   4  -4  -3  599.15   38.27   1
   4  -4  -3  522.22   38.39   4
  -4   4   3  531.23   38.22   1
  -4   4   3  529.81   36.35   3
  -3   4   3  240.47   16.01   1
   3  -4  -3  226.91   16.42   4
  -3   4   3  212.71   15.49   3
   3  -4  -3  224.82   16.71   2
  -3   4   3  193.80   15.90   1
  -2   4   3  139.96    9.75   1
   2  -4  -3  137.91   11.19   2
  -2   4   3  126.96    9.82   1
   2  -4  -3  126.32   10.11   3
  -1   4   3   68.34    4.88   1
  -1   4   3   59.00    4.86   1
   1  -4  -3   64.34    6.75   2
   1  -4  -3   70.55    6.47   3
   0  -4  -3   80.55    7.33   3
   0  -4  -3   71.27    7.30   2
   0   4   3   74.12    7.57   4
  -1  -4  -3    6.16    4.24   2
   1   4   3   11.90    5.15   4
   2   4   3  335.55   26.53   1
  -2  -4  -3  396.20   27.63   2
   2   4   3  436.62   28.39   4
  -2  -4  -3  364.64   26.77   1
   3   4   3  643.76   44.18   4
  -3  -4  -3  677.64   43.54   2
   3   4   3  554.03   43.49   1
  -3  -4  -3  589.93   42.68   1
   4   4   3   -2.91    4.08   1
  -4  -4  -3   -4.16    3.91   1
  -5  -4  -3   88.84    8.86   1
   5   4   3   94.27   10.43   4
  -7   5   3   32.63    7.22   1
   6  -5  -3   91.67    8.54   1
   6  -5  -3   70.40    7.96   4
  -6   5   3   65.56    8.48   3
  -6   5   3   73.58    8.29   1
   5  -5  -3    4.88    4.52   4
  -5   5   3   -0.39    4.33   1
  -5   5   3    2.96    4.90   3
  -4   5   3   20.57    4.71   1
   4  -5  -3   27.61    5.41   4
  -4   5   3   24.41    5.01   1
  -4   5   3   22.70    3.91   3
  -3   5   3    0.51    2.90   1
  -3   5   3    2.20    3.12   1
  -2   5   3  346.81   24.99   1
  -2   5   3  340.42   24.98   1
   2  -5  -3  393.95   26.35   2
   2  -5  -3  353.90   24.43   3
  -1   5   3   11.63    2.09   1
  -1   5   3   14.94    2.06   1
   1  -5  -3   18.08    5.00   2
   0  -5  -3  540.17   36.96   3
   0  -5  -3  560.47   39.08   2
   1   5   3  562.56   37.98   4
  -1  -5  -3  491.85   37.26   2
  -2  -5  -3    6.08    2.03   1
  -2  -5  -3   -4.55    4.27   2
   2   5   3    1.80    1.96   1
   2   5   3    6.71    6.12   4
   3   5   3   16.17    7.24   4
   3   5   3    8.75    3.43   1
   4   5   3   30.18    9.40   4
  -7   6   3   -4.83    8.53   1
  -6   6   3  457.67   34.66   1
  -6   6   3  357.49   28.96   3
  -6   6   3  438.92   30.95   1
  -5   6   3   68.69    9.32   1
  -5   6   3   88.28    9.60   1
  -4   6   3  251.76   18.41   1
  -4   6   3  238.22   18.46   1
  -3   6   3  149.66   11.35   1
  -3   6   3  136.52   11.17   1
   2  -6  -3   39.41    5.03   3
  -2   6   3   42.79    4.62   1
  -2   6   3   43.68    4.63   1
   1  -6  -3   25.69    6.43   3
   0  -6  -3  129.61   11.25   3
   1   6   3   25.60    5.75   4
  -1  -6  -3   37.21    7.40   3
   2   6   3   91.55   10.15   4
   3   6   3   61.72    8.55   4
  -5   7   3   27.01    6.91   1
  -4   7   3   16.39    5.30   1
   2  -7  -3  211.95   15.44   3
  -2   7   3  196.20   14.78   1
   0  -7  -3  225.89   17.42   3
  -1  -7  -3  109.00   12.24   3
  -2  -7  -3   81.52   11.62   3
   2   7   3   53.19   10.33   4
   2  -8  -3   41.25    7.76   3
   1  -8  -3   -3.84    6.72   3
   0  10  -4   79.61   11.24   4
   0  10  -4  106.61   10.85   1
   0 -10   4   88.77   10.67   1
  -1  10  -4   41.21   10.67   1
  -2  10  -4   -5.20    9.55   1
  -3  -9   4   12.16    8.85   1
  -2  -9   4   30.93    6.21   1
   0   9  -4  172.70   13.89   4
   0  -9   4  177.84   15.60   1
  -1   9  -4  162.21   14.92   1
  -1   9  -4  160.00   12.50   4
  -2   9  -4   61.12   10.60   1
  -3   9  -4   81.80   10.60   1
  -4   9  -4   46.91   10.61   1
  -4  -8   4   50.47    9.45   1
  -3  -8   4   15.36    5.33   1
   2   8  -4  317.99   24.92   2
   2   8  -4  348.31   25.49   1
  -2  -8   4  312.88   24.38   1
   1   8  -4  444.20   33.96   1
   1   8  -4  507.39   34.77   2
  -1  -8   4  449.97   33.95   1
   0   8  -4   13.99    8.65   1
   0   8  -4   16.88    6.83   2
  -1   8  -4   83.37    9.84   2
   1  -8   4   80.58    8.65   1
  -1   8  -4   80.88    7.04   4
  -1   8  -4  100.19   10.06   1
  -1   8  -4   78.79    8.40   1
  -2   8  -4   19.03    6.42   1
  -2   8  -4    2.90    7.83   2
  -3   8  -4   35.85    7.62   1
  -4   8  -4   70.12   10.16   1
  -5   8  -4   54.57    9.76   1
  -5  -7   4   49.26    9.73   1
  -4  -7   4   98.47   11.09   1
   4   7  -4  130.95   10.88   2
  -3  -7   4  113.86   11.80   1
   3   7  -4  117.27   10.66   2
   3   7  -4  112.43   11.24   1
   2   7  -4    5.75    5.08   2
   2   7  -4   -2.64    4.93   1
  -2  -7   4    1.69    5.20   1
   1   7  -4   17.82    6.49   1
   0  -7   4  236.81   17.57   1
   0   7  -4  214.45   17.19   1
   1  -7   4   73.58    8.41   1
  -1   7  -4   75.40    6.36   4
  -1   7  -4   83.61    8.50   1
  -2   7  -4  384.37   29.34   1
  -2   7  -4  418.45   29.49   1
  -3   7  -4  345.58   25.16   1
  -3   7  -4  319.53   24.73   1
  -4   7  -4  117.81   11.84   1
  -5   7  -4   91.65   11.10   1
  -5   7  -4   91.95   10.94   2
  -6   7  -4   76.20   10.14   1
  -6  -6   4   -3.49    8.69   1
  -5  -6   4    4.34    6.89   1
   5   6  -4   11.16    3.80   2
   4   6  -4  126.42   10.90   2
  -4  -6   4  130.44   12.33   1
   4   6  -4  137.66   12.32   1
   3   6  -4   -2.84    5.55   1
   3   6  -4    3.61    3.11   2
  -3  -6   4    8.50    5.62   1
  -2  -6   4  409.50   30.72   1
   2   6  -4  438.64   30.50   1
  -1  -6   4  427.85   29.82   1
   1   6  -4  400.96   29.60   1
   0  -6   4  223.26   17.02   1
   0   6  -4  221.47   16.76   1
   1  -6   4  409.80   29.56   1
  -1   6  -4  407.13   29.42   1
  -2   6  -4   24.85    5.19   1
  -2   6  -4   22.63    5.38   1
  -3   6  -4   30.23    6.11   1
  -4   6  -4   99.17    9.46   1
  -4   6  -4  101.17    9.44   1
  -5   6  -4  174.40   15.22   1
  -5   6  -4  193.33   12.74   3
  -6   6  -4   46.56    7.43   1
  -6   6  -4   40.34    7.19   2
  -7   6  -4   89.85   12.15   1
  -7  -5   4   -4.82    9.13   1
  -6  -5   4   93.31    9.47   1
   5   5  -4   13.26    3.35   2
  -5  -5   4   15.82    6.62   1
   4   5  -4  400.87   29.16   1
  -4  -5   4  459.15   29.73   1
   4   5  -4  355.63   28.52   2
  -3  -5   4  167.95   14.05   1
   3   5  -4  181.58   14.06   1
   2   5  -4   38.59    5.30   1
  -2  -5   4   35.48    5.79   1
  -1  -5   4  138.42   11.90   1
   1   5  -4  158.60   11.79   1
   0   5  -4  796.96   60.02   1
   0  -5   4  944.50   60.35   1
   1  -5   4  285.73   20.84   1
  -1   5  -4  274.85   20.43   1
  -2   5  -4  546.51   36.31   1
  -2   5  -4  478.60   36.16   1
  -3   5  -4 1082.20   71.67   1
  -3   5  -4  985.08   71.38   1
  -4   5  -4  207.83   15.88   1
  -4   5  -4  200.39   15.89   1
  -5   5  -4  147.13   13.19   1
  -5   5  -4  161.26   13.75   1
  -6   5  -4   18.34    7.30   1
  -7  -4   4   16.53    8.67   1
  -6  -4   4   67.63    9.35   1
   6   4  -4   78.79    5.87   2
   5   4  -4   13.82    5.61   1
  -5  -4   4   -4.96    5.57   1
  -4  -4   4  550.31   38.13   1
   4   4  -4  520.09   37.88   1
   3   4  -4   49.61    5.96   1
  -3  -4   4   67.66    6.97   1
  -2  -4   4  556.05   38.96   1
   2   4  -4  553.78   38.85   1
   1   4  -4  740.09   49.89   1
  -1  -4   4  697.87   49.88   1
   0  -4   4  406.79   30.11   1
   0   4  -4  446.81   30.18   1
  -1   4  -4  528.15   37.49   1
   1  -4   4  545.03   37.68   1
  -2   4  -4   29.99    5.06   1
  -2   4  -4   29.22    3.94   1
  -3   4  -4    6.02    3.12   1
  -3   4  -4    0.67    4.74   1
  -4   4  -4    4.84    5.02   1
  -5   4  -4   70.27    8.52   1
  -5   4  -4  100.29    9.27   1
  -6   4  -4   45.16    6.65   1
  -7   4  -4  308.80   24.64   1
  -8  -3   4   -9.13    9.30   1
  -7  -3   4    6.80    8.00   1
  -6  -3   4  573.74   41.03   1
   6   3  -4  569.94   40.87   1
  -5  -3   4    6.71    5.48   1
   5   3  -4   16.25    4.26   1
   5   3  -4   17.04    2.25   2
  -4  -3   4  439.21   32.17   1
   4   3  -4  468.43   32.34   1
   3   3  -4   63.28    6.27   1
  -3  -3   4   61.75    6.12   1
  -2  -3   4  828.62   61.93   1
   2   3  -4  972.45   62.01   1
  -1  -3   4  167.41   13.21   1
  -1  -3   4  177.23   11.87   3
   1   3  -4  180.40   13.13   1
   0  -3   4  946.25   69.45   3
   0   3  -4 1185.77   74.13   1
   0  -3   4 1113.03   74.10   1
  -1   3  -4  128.14    8.18   3
   1  -3   4  119.84    9.84   1
  -1   3  -4  115.07    9.33   1
  -2   3  -4  121.31    9.37   1
  -2   3  -4  103.13    8.79   1
  -3   3  -4 2260.49  155.46   1
  -3   3  -4 2300.49  155.42   1
  -4   3  -4    2.03    4.45   1
  -4   3  -4    3.81    4.38   1
   5  -3   4  280.55   22.03   4
  -5   3  -4  360.17   24.03   1
   5  -3   4  315.92   23.52   1
  -6   3  -4   22.35    7.19   1
   6  -3   4   18.64    2.94   4
  -7   3  -4   10.23    6.92   1
  -8  -2   4  277.35   22.73   1
  -7  -2   4   63.15    9.29   1
   6   2  -4  116.26   10.86   1
  -6  -2   4  111.82   10.95   1
  -5  -2   4  264.97   18.39   1
   5   2  -4  214.78   17.69   1
   4   2  -4    5.11    3.99   1
  -4  -2   4    4.79    4.36   1
  -3  -2   4   37.76    5.25   1
   3   2  -4   41.45    4.97   1
  -2  -2   4  408.90   27.25   1
   2   2  -4  362.66   26.95   1
   1   2  -4  879.27   60.98   1
  -1  -2   4  933.20   61.10   1
  -1  -2   4  857.50   57.54   3
   0  -2   4   22.72    3.23   1
   0   2  -4   27.10    2.82   3
  -1   2  -4 2029.25  137.41   1
  -1   2  -4 2052.72  137.50   1
  -1   2  -4 1985.05  137.71   4
  -2   2  -4  306.54   22.93   1
  -2   2  -4  343.95   23.11   1
  -3   2  -4    6.82    2.87   1
  -3   2  -4    7.29    3.81   1
   3  -2   4    6.47    2.05   4
  -4   2  -4   94.07    7.97   1
   4  -2   4   74.91    7.24   1
   4  -2   4   70.57    6.45   4
   5  -2   4   33.19    4.01   4
   5  -2   4   33.09    5.17   1
  -5   2  -4   26.57    4.80   1
   6  -2   4   85.91    7.90   4
  -6   2  -4   78.60    9.78   1
   6  -2   4   87.67    9.00   1
   7  -2   4  398.51   29.70   4
  -7   2  -4  431.52   31.23   1
  -8  -1   4    7.80    8.84   1
  -7  -1   4   23.29    7.36   1
   6   1  -4  237.24   18.99   1
  -6  -1   4  258.41   19.41   1
  -5  -1   4   25.30  889.03   1
   5   1  -4   25.87    4.08   1
   5   1  -4   20.78    2.23   2
   4   1  -4  888.80   61.57   1
  -4  -1   4  896.93   61.67   1
   3   1  -4 1465.12   94.27   1
  -3  -1   4 1293.08   94.15   1
   2   1  -4   68.85    5.88   1
  -2  -1   4   59.16    5.92   1
  -2  -1   4   72.01    5.46   3
  -1  -1   4  368.45   23.12   3
   1   1  -4  352.83   23.14   3
   1   1  -4  365.62   24.23   1
  -1  -1   4  308.41   24.16   1
   0   1  -4 4332.67  315.33   1
   0   1  -4 5016.58  298.20   3
   0  -1   4 4605.13  314.96   1
  -1   1  -4  197.51   15.24   1
  -1   1  -4  232.11   15.32   1
  -1   1  -4  215.09   15.29   4
  -2   1  -4  251.61   17.21   1
  -2   1  -4  234.58   17.01   1
   2  -1   4  229.18   16.96   4
  -3   1  -4 1380.06   88.97   1
   3  -1   4 1310.25   89.08   4
   3  -1   4 1203.52   88.80   1
   4  -1   4  115.53   10.15   1
  -4   1  -4  116.26   10.20   1
   4  -1   4  125.13    9.80   4
   5  -1   4  655.41   47.09   4
  -5   1  -4  659.75   47.20   1
   5  -1   4  700.75   47.35   1
   6  -1   4   10.66    8.08   1
  -6   1  -4    5.66    4.30   1
  -6   1  -4   11.47    3.17   2
   6  -1   4   17.17    5.54   4
  -7   1  -4    6.86    5.19   1
  -8   0   4  198.70   16.92   1
   7   0  -4  221.10   17.37   1
  -7   0   4  203.25   16.93   1
  -6   0   4  188.50   16.07   1
   6   0  -4  214.06   16.10   1
   5   0  -4    1.18    1.61   2
  -5   0   4    0.08    4.35   1
   4   0  -4    6.34    3.47   1
  -4   0   4    5.37    2.77   1
   4   0  -4    8.71    2.13   2
  -3   0   4   26.05    4.17   3
  -3   0   4   17.84    3.77   1
   3   0  -4   25.08    3.45   1
   2   0  -4 1229.57   78.21   1
  -2   0   4 1121.25   78.97   1
  -2   0   4 1089.58   74.26   3
   1   0  -4   15.12    3.49   3
   1   0  -4   14.43    1.98   1
  -1   0   4   13.82    2.08   1
  -1   0   4   18.82    3.53   3
   0   0  -4  723.17   50.17   1
   0   0  -4  656.47   50.20   1
   0   0  -4  787.79   48.09   3
   0   0  -4  785.23   50.87   4
  -1   0  -4  795.52   58.19   1
  -1   0  -4  913.22   58.31   1
  -2   0  -4  166.34   11.90   1
   2   0   4  155.85   11.78   1
   2   0   4  163.16   12.15   4
   3   0   4  160.60   12.51   4
  -3   0  -4  164.02   12.47   1
   3   0   4  168.71   12.56   1
   4   0   4  326.20   22.98   1
  -4   0  -4  287.43   22.69   1
   4   0   4  332.32   23.28   4
  -5   0  -4  149.13   11.92   1
   5   0   4  121.03   11.52   1
  -5   0  -4  128.20   10.31   2
   6   0   4   13.38    5.37   1
  -6   0  -4   -0.64    3.33   2
  -6   0  -4    1.83    6.14   1
   6   0   4   14.16    4.84   4
  -7   0  -4  407.07   28.86   1
   7   0   4  331.44   27.69   4
  -8   1   4   -8.52    6.26   1
   6  -1  -4  288.77   22.81   1
  -6   1   4  334.23   23.32   1
  -5   1   4   -0.89    4.36   1
  -5   1   4    3.98    4.27   3
   5  -1  -4    2.15    2.04   2
   5  -1  -4   -1.70    3.87   1
  -4   1   4 1244.82   79.67   3
   4  -1  -4 1221.06   84.11   1
  -4   1   4 1312.64   83.83   1
   4  -1  -4 1109.50   83.48   2
  -3   1   4  261.32   17.72   3
   3  -1  -4  265.35   18.14   1
   3  -1  -4  249.83   18.18   2
  -3   1   4  240.63   18.11   1
   2  -1  -4 1183.36   83.83   1
  -2   1   4 1235.01   83.55   1
   2  -1  -4 1288.53   79.51   3
  -2   1   4 1196.26   79.39   3
   1  -1  -4  113.07    8.70   4
   1  -1  -4  109.46    8.68   3
   0  -1  -4  860.95   64.99   4
   0  -1  -4 1030.52   61.56   3
  -1  -1  -4  198.49   13.32   1
  -1  -1  -4  166.21   13.29   1
   1   1   4  215.33   14.61   4
  -2  -1  -4  501.95   38.23   1
   2   1   4  559.80   39.11   4
   2   1   4  609.34   38.39   1
  -3  -1  -4 1626.06  112.70   2
   3   1   4 1680.55  113.99   4
   3   1   4 1720.79  112.98   1
  -3  -1  -4 1595.92  112.85   1
  -4  -1  -4    9.75    4.06   1
  -4  -1  -4   11.49    3.18   2
   4   1   4   13.58    5.77   4
   5   1   4  307.64   21.69   1
  -5  -1  -4  262.36   20.52   2
  -5  -1  -4  283.14   21.58   1
   5   1   4  294.00   21.90   4
   6   1   4   35.04   10.28   1
  -6  -1  -4   36.03    8.72   1
  -6  -1  -4   38.96    4.76   2
   6   1   4   40.14    8.63   4
  -8   2   4  124.60   13.80   1
  -7   2   4   29.64    6.89   1
  -7   2   4   28.39    7.53   3
   7  -2  -4   24.52    5.28   1
   6  -2  -4  552.80   44.02   1
  -6   2   4  617.09   42.54   3
  -6   2   4  714.77   44.79   1
   5  -2  -4   12.44    4.10   1
  -5   2   4    6.78    4.79   3
   4  -2  -4  196.99   14.88   2
  -4   2   4  193.99   14.65   3
  -4   2   4  215.83   15.24   1
   4  -2  -4  205.36   15.11   1
  -3   2   4    0.37    3.46   3
  -3   2   4    1.78    2.58   1
   3  -2  -4    1.47    2.33   1
   2  -2  -4  522.42   33.15   1
   2  -2  -4  519.97   33.82   2
  -2   2   4  442.08   33.05   1
   2  -2  -4  453.36   32.09   3
  -2   2   4  476.05   32.06   3
   1  -2  -4  221.65   14.97   3
   1  -2  -4  231.19   15.85   4
   1  -2  -4  189.55   15.56   2
   0  -2  -4 1196.70   83.33   3
   0  -2  -4 1373.27   87.84   2
  -1  -2  -4  890.46   62.89   2
   1   2   4  941.03   63.63   4
   2   2   4   82.70    8.29   4
   2   2   4  102.79    7.18   1
  -2  -2  -4   92.94    7.10   1
  -2  -2  -4   95.51    8.37   2
   3   2   4   77.93    7.18   4
  -3  -2  -4   64.32    5.97   1
   3   2   4   71.34    6.14   1
  -3  -2  -4   65.83    7.01   2
   4   2   4    0.15    3.56   1
  -4  -2  -4    7.28    3.76   1
  -4  -2  -4   -9.97    9.60   2
   4   2   4    1.95    3.84   4
  -5  -2  -4   17.65    5.03   1
  -5  -2  -4   18.83    4.97   2
   5   2   4   19.28    7.45   4
   5   2   4   25.27    6.00   1
   6   2   4   28.83    6.95   4
  -6  -2  -4    6.52    6.99   1
  -8   3   4   55.14   10.55   1
  -7   3   4   38.34    8.91   1
  -6   3   4  263.43   20.40   1
   6  -3  -4  271.85   20.65   1
  -6   3   4  272.67   19.93   3
   5  -3  -4   74.60    7.00   1
  -5   3   4   62.35    7.11   3
   5  -3  -4   69.35    6.80   2
  -5   3   4   63.37    6.67   1
   4  -3  -4  469.94   34.62   2
   4  -3  -4  511.54   34.72   1
  -4   3   4  512.71   33.36   3
  -4   3   4  483.79   34.67   1
   3  -3  -4  612.55   39.36   1
  -3   3   4  516.65   39.25   1
  -3   3   4  552.75   37.81   3
   3  -3  -4  618.11   40.21   4
   3  -3  -4  547.88   39.70   2
   2  -3  -4  819.77   51.95   3
   2  -3  -4  806.54   54.67   2
  -2   3   4  826.17   55.10   1
   2  -3  -4  797.47   54.98   4
  -2   3   4  709.36   54.19   1
   1  -3  -4   60.61    6.22   3
   1  -3  -4   60.08    5.91   2
   0  -3  -4    0.47    2.79   3
   0  -3  -4    4.66    4.16   2
  -1  -3  -4   20.70    3.79   2
   1   3   4   20.85    5.52   4
   2   3   4   27.64    6.06   4
  -2  -3  -4   33.07    2.96   1
  -2  -3  -4   25.58    5.60   2
   2   3   4   30.66    2.98   1
   3   3   4  359.45   25.56   1
  -3  -3  -4  352.99   25.55   1
   3   3   4  381.43   27.27   4
  -3  -3  -4  365.96   26.36   2
  -4  -3  -4    8.41    5.21   2
   4   3   4   -5.50    4.68   4
  -4  -3  -4    4.21    3.85   1
   4   3   4   -1.21    3.87   1
   5   3   4  214.17   18.94   4
  -5  -3  -4  229.82   17.27   1
  -5  -3  -4  223.11   17.25   2
  -8   4   4  248.31   21.84   1
  -7   4   4   98.51   11.78   1
  -6   4   4  388.06   25.62   1
  -6   4   4  304.18   23.73   3
   6  -4  -4  315.31   25.07   1
   5  -4  -4   26.45    5.46   1
  -5   4   4   35.27    5.86   1
  -5   4   4   27.10    5.32   3
  -4   4   4  298.56   22.02   1
   4  -4  -4  313.91   22.64   2
  -4   4   4  290.29   21.40   3
   4  -4  -4  320.54   22.00   1
   4  -4  -4  307.32   22.62   4
   3  -4  -4   20.42    4.15   3
   3  -4  -4   25.33    5.06   4
  -3   4   4   26.52    3.28   1
  -3   4   4   19.98    3.14   1
   3  -4  -4   23.88    5.29   2
   2  -4  -4    4.26    4.70   2
  -2   4   4   -0.97    1.27   1
   2  -4  -4   -0.51    3.75   3
  -2   4   4    1.60    1.58   1
   1  -4  -4   17.32    3.87   2
   1  -4  -4    8.44    3.40   3
   0  -4  -4  455.65   32.20   3
   0  -4  -4  499.14   34.04   2
   1   4   4  784.11   52.33   4
  -1  -4  -4  693.18   51.43   2
  -2  -4  -4    3.72    5.00   2
   2   4   4    5.06    6.14   4
  -3  -4  -4   34.64    5.84   2
   3   4   4   44.89    4.46   1
  -3  -4  -4   41.39    4.06   1
   3   4   4   29.05    8.01   4
  -4  -4  -4   68.58    7.14   1
   4   4   4   69.97   10.18   4
  -4  -4  -4   93.45    9.42   2
   5   4   4   24.54    7.24   4
  -7   5   4    1.63    8.39   1
  -6   5   4   43.54    7.22   3
  -6   5   4   48.08    7.80   1
   6  -5  -4   42.31    6.28   1
   6  -5  -4   50.66    8.91   4
  -5   5   4   19.80    5.42   1
   5  -5  -4   12.38    5.98   4
  -5   5   4   29.36   18.93   1
   4  -5  -4   88.30    8.68   4
  -4   5   4   78.55    7.51   1
  -4   5   4   80.00    7.44   1
  -3   5   4  255.61   18.17   1
  -3   5   4  250.80   18.14   1
   3  -5  -4  266.00   19.77   2
   3  -5  -4  246.12   18.42   3
   2  -5  -4  356.27   25.17   3
   2  -5  -4  381.43   26.93   2
   1  -5  -4  231.65   17.77   3
   1  -5  -4  264.28   19.37   2
   0  -5  -4   68.15    8.41   2
   0  -5  -4   61.22    7.77   3
  -1  -5  -4   42.59    6.74   3
  -1  -5  -4   41.80    6.86   2
   1   5   4   38.66    6.35   4
   2   5   4   21.04    7.79   4
  -2  -5  -4   31.23    7.67   2
   3   5   4  167.56   14.84   4
   4   5   4   51.57   10.34   4
  -6   6   4  142.23   12.74   1
  -5   6   4   99.90    9.65   1
  -4   6   4   77.61    7.26   1
  -4   6   4   63.84    6.99   1
   3  -6  -4   88.69    8.16   3
  -3   6   4   79.13    6.85   1
  -3   6   4   89.38    7.43   1
   2  -6  -4  146.55   12.12   3
   1  -6  -4   48.31    7.23   3
   0  -6  -4  184.80   14.93   3
  -1  -6  -4  297.71   22.59   3
   2   6   4  177.81   17.06   4
  -2  -6  -4  193.37   17.29   3
   2  -7  -4  190.59   14.68   3
   1  -7  -4   69.23    9.93   3
   0  -7  -4   97.12   10.35   3
  -1  -7  -4   39.16    8.49   3
   0 -10   5   15.06    8.63   1
  -1  10  -5   -5.52    9.72   1
  -2  10  -5   31.36    8.80   1
  -2  -9   5  174.55   16.43   1
  -1  -9   5  148.80   13.98   1
   0  -9   5   53.06    8.77   1
  -1   9  -5   91.43    7.43   4
  -1   9  -5   86.57   10.18   1
  -2   9  -5    0.84    8.88   1
  -3   9  -5   31.31   10.00   1
  -4   9  -5    5.48    9.31   1
  -4  -8   5  339.97   27.31   1
  -3  -8   5  180.03   15.99   1
  -2  -8   5   48.92    7.81   1
   2   8  -5   38.01    7.71   2
   1   8  -5   75.16    8.20   1
  -1  -8   5   78.44    9.44   1
   0   8  -5   16.92    7.09   1
   1  -8   5   15.55    7.26   1
  -1   8  -5   13.74    4.88   1
  -2   8  -5   63.38    8.72   1
  -3   8  -5   33.50    6.38   1
  -4   8  -5   98.67   10.75   1
  -5   8  -5  139.16   15.23   1
  -6  -7   5  136.76   13.55   1
  -5  -7   5   63.93   10.81   1
   4   7  -5   26.48    6.00   2
   3   7  -5    9.28    5.56   2
   2   7  -5  138.57   12.80   1
  -2  -7   5  145.17   12.94   1
  -1  -7   5   85.11    9.40   1
   1   7  -5   85.44    8.82   1
   0  -7   5  223.09   17.74   1
   0   7  -5  225.14   17.65   1
   1  -7   5   56.31    8.10   1
  -1   7  -5   67.74    8.14   1
  -2   7  -5   61.06    7.57   1
  -2   7  -5   54.21    7.71   1
  -3   7  -5   63.27    8.32   1
  -3   7  -5   71.32    9.07   1
  -4   7  -5   -7.85    5.43   1
  -5   7  -5    5.41    5.91   1
  -6   7  -5   -8.02    7.49   1
  -6  -6   5   33.12    7.89   1
   5   6  -5   -0.45    3.35   2
  -5  -6   5   -3.34    9.53   1
   4   6  -5  386.19   30.38   1
   4   6  -5  425.20   30.39   2
  -4  -6   5  435.80   30.89   1
  -3  -6   5  140.80   12.03   1
   3   6  -5  138.07   12.08   1
  -2  -6   5  393.62   28.17   1
   2   6  -5  370.92   27.81   1
  -1  -6   5  127.17   11.18   1
   1   6  -5  124.77   10.70   1
   0  -6   5  106.13   10.05   1
   0   6  -5  112.32    9.74   1
  -1   6  -5   -2.57    5.02   1
   1  -6   5    9.62    4.90   1
  -2   6  -5  121.05   10.15   1
  -2   6  -5  110.39   10.01   1
  -3   6  -5  402.51   28.37   1
  -3   6  -5  365.32   27.95   1
  -4   6  -5   40.98    7.33   1
  -4   6  -5   29.73    5.42   1
  -5   6  -5  186.39   15.58   1
  -6   6  -5    2.42    8.14   1
  -7  -5   5   20.86    8.17   1
  -6  -5   5  210.57   17.93   1
   5   5  -5   33.38    5.49   1
  -5  -5   5   36.88    5.90   1
   5   5  -5   29.83    4.58   2
   4   5  -5   -7.33    5.25   1
  -4  -5   5    1.32    4.26   1
  -3  -5   5    7.64    4.23   1
   3   5  -5    4.51    4.18   1
   2   5  -5  383.84   27.39   1
  -2  -5   5  373.50   27.65   1
  -1  -5   5 1063.08   71.41   3
  -1  -5   5 1149.43   75.78   1
   1   5  -5 1076.42   75.58   1
   0  -5   5  371.47   26.69   1
   0   5  -5  366.52   26.39   1
   1  -5   5  593.75   42.99   1
  -1   5  -5  628.11   42.95   1
  -2   5  -5   46.95    6.20   1
  -2   5  -5   54.25    6.65   1
  -3   5  -5  161.30   12.65   1
  -3   5  -5  149.76   12.59   1
  -4   5  -5   11.69    4.27   1
  -5   5  -5  148.99   13.67   1
  -6   5  -5   67.97   10.16   1
  -7   5  -5  143.98   14.27   1
   6   4  -5  108.97    8.92   2
  -6  -4   5  139.50   12.26   1
   5   4  -5   81.78    7.80   1
  -5  -4   5   80.45    8.02   1
  -4  -4   5  633.77   47.97   1
   4   4  -5  736.57   48.25   1
  -3  -4   5 1468.68   95.75   1
   3   4  -5 1312.57   95.33   1
   2   4  -5  769.52   52.73   1
  -2  -4   5  749.10   52.81   1
  -1  -4   5  878.81   57.28   3
  -1  -4   5  945.12   61.38   1
   1   4  -5  836.53   61.17   1
   0   4  -5  236.62   17.73   1
   0  -4   5  245.13   17.85   1
  -1   4  -5   63.09    6.18   1
   1  -4   5   51.09    5.75   1
  -2   4  -5  185.97   13.13   3
  -2   4  -5  205.66   15.28   1
  -2   4  -5  205.92   15.27   1
  -3   4  -5  259.35   19.47   1
  -3   4  -5  259.68   19.54   1
  -4   4  -5  252.86   20.88   1
  -4   4  -5  314.56   21.58   1
  -5   4  -5  494.81   37.16   1
  -5   4  -5  533.86   37.24   1
  -6   4  -5   37.62    7.60   1
  -7   4  -5   93.79   11.58   1
  -8  -3   5  151.63   15.23   1
  -7  -3   5  223.93   18.73   1
  -6  -3   5  234.10   18.50   1
   6   3  -5  229.21   18.37   1
   5   3  -5  156.84   13.05   1
  -5  -3   5  154.68   13.17   1
  -4  -3   5  126.34   11.02   1
   4   3  -5  132.56   10.56   1
   3   3  -5  176.89   13.01   1
  -3  -3   5  157.12   13.27   1
   2   3  -5  144.53   11.58   1
  -2  -3   5  162.69   12.14   1
   1   3  -5  492.48   33.56   1
  -1  -3   5  475.56   33.64   1
  -1  -3   5  469.70   31.30   3
   0   3  -5  896.46   53.99   3
   0  -3   5  845.26   57.51   1
   0   3  -5  761.67   57.39   1
  -1   3  -5 1182.15   74.16   3
  -1   3  -5 1112.63  636.70   1
   1  -3   5 1119.36   78.96   1
  -2   3  -5  261.05   18.96   1
  -2   3  -5  262.52   19.06   1
  -3   3  -5  423.32   30.67   1
  -3   3  -5  437.74   30.71   1
  -4   3  -5   54.81    7.19   1
  -4   3  -5   59.20    6.67   1
  -5   3  -5  113.66   10.96   1
  -5   3  -5  126.46   11.50   1
  -6   3  -5   60.45    8.64   1
  -7   3  -5   67.35   10.03   1
  -8  -2   5   52.45    8.33   1
  -7  -2   5   27.39    7.81   1
   6   2  -5   10.64    6.05   1
  -6  -2   5   13.29    6.16   1
   5   2  -5   17.74    4.53   1
  -5  -2   5   28.93    5.76   1
  -4  -2   5  765.05   53.67   1
   4   2  -5  778.95   53.67   1
  -3  -2   5 1988.04  139.50   1
   3   2  -5 2104.52  139.49   1
  -2  -2   5  655.96   50.96   1
   2   2  -5  788.78   51.11   1
  -2  -2   5  775.70   48.33   3
  -1  -2   5 2330.44  157.41   3
  -1  -2   5 2640.38  165.80   1
   1   2  -5 2343.19  166.03   1
   0  -2   5  701.51   49.42   1
   0   2  -5  668.96   49.35   1
   0   2  -5  783.34   46.67   3
  -1   2  -5    2.06    2.72   1
  -1   2  -5    3.17    2.99   1
  -1   2  -5    0.00    1.84   4
  -2   2  -5  245.08   16.33   1
  -2   2  -5  194.27   15.83   1
  -3   2  -5  304.52   21.34   1
  -3   2  -5  284.92   21.27   1
  -4   2  -5  338.95   25.06   1
  -4   2  -5  348.92   24.92   1
  -5   2  -5  305.50   20.88   1
   5  -2   5  249.16   19.77   4
   5  -2   5  270.94   20.95   1
  -6   2  -5   37.47    6.78   1
   6  -2   5   21.92    4.91   4
  -7   2  -5  219.86   18.05   1
  -8  -1   5   33.64    9.79   1
  -7  -1   5   28.37    6.72   1
  -6  -1   5  393.35   30.33   1
   6   1  -5  446.65   30.60   1
   5   1  -5  178.52   14.79   1
  -5  -1   5  213.88   15.49   1
   4   1  -5   57.03    6.01   1
  -4  -1   5   67.89    6.64   1
  -3  -1   5  576.95   43.09   1
  -3  -1   5  630.38   41.09   3
   3   1  -5  657.65   43.19   1
   2   1  -5  147.91   11.85   1
  -2  -1   5  173.43   12.11   1
  -2  -1   5  161.43   11.58   3
   1   1  -5  583.81   41.09   1
   1   1  -5  621.11   39.21   3
  -1  -1   5  623.20   41.20   1
  -1  -1   5  562.51   39.09   3
   0  -1   5  509.74   37.51   1
   0   1  -5  554.84   35.80   3
   0   1  -5  571.45   37.59   1
  -1   1  -5  568.95   39.97   4
  -1   1  -5  582.41   39.80   1
  -1   1  -5  581.17   39.77   1
  -2   1  -5 1193.63   81.23   1
  -2   1  -5 1181.80   81.19   1
  -3   1  -5  704.79   46.43   1
  -3   1  -5  662.66   46.40   1
   3  -1   5  635.09   46.44   4
   4  -1   5   -1.84    3.86   4
  -4   1  -5    4.18    4.06   1
   5  -1   5  115.16   10.33   4
  -5   1  -5  124.28   11.07   1
   5  -1   5  117.73   10.70   1
  -6   1  -5   34.19    7.30   1
   6  -1   5   42.06    6.48   4
  -6   1  -5   34.24    4.93   2
   7  -1   5  133.64   13.17   4
  -7   1  -5  161.77   15.13   1
  -8   0   5  104.73   13.39   1
  -7   0   5   79.55    9.25   1
  -6   0   5   38.97    6.80   1
   6   0  -5   29.66    3.19   2
   6   0  -5   40.38    5.81   1
  -5   0   5    5.88    4.62   3
  -5   0   5    8.01    3.45   1
   5   0  -5    6.75    3.15   1
  -4   0   5  411.87   27.31   3
  -4   0   5  423.49   28.53   1
   4   0  -5  368.25   28.21   1
  -3   0   5 1099.85   69.79   3
   3   0  -5 1071.08   73.23   1
  -3   0   5 1040.86   73.27   1
  -2   0   5  419.41   29.62   3
  -2   0   5  472.71   30.92   1
   2   0  -5  449.68   29.84   3
   2   0  -5  441.12   30.83   1
   1   0  -5  568.60   39.80   1
   1   0  -5  569.39   38.24   3
  -1   0   5  606.58   39.86   1
   0   0  -5   32.34    3.85   4
   0   0  -5   30.23    3.42   3
   0   0  -5   25.54    2.48   1
   0   0  -5   27.48    2.56   1
  -1   0  -5   29.60    4.29   1
  -1   0  -5   29.15    3.03   1
  -2   0  -5   28.86    3.26   1
  -2   0  -5   22.27    3.22   1
  -3   0  -5 1028.40   73.22   1
   3   0   5 1105.67   73.87   4
   4   0   5   16.44    4.76   1
  -4   0  -5   10.69    3.80   1
   4   0   5    9.45    5.16   4
   5   0   5  311.60   22.81   1
  -5   0  -5  315.86   22.98   1
  -5   0  -5  307.12   22.08   2
   5   0   5  287.72   22.98   4
   6   0   5    7.62   11.57   1
   6   0   5   14.11    6.34   4
  -6   0  -5   -3.61    5.23   1
  -8   1   5   30.01    9.94   1
   7  -1  -5   -1.72    4.19   1
  -6   1   5  422.67   31.41   3
  -6   1   5  471.53   33.10   1
   6  -1  -5  445.09   31.73   2
   6  -1  -5  489.30   32.99   1
  -5   1   5    0.71    4.49   1
  -5   1   5    5.44    3.48   3
   5  -1  -5    5.82    4.10   1
  -4   1   5  262.13   17.65   1
   4  -1  -5  245.34   17.56   1
  -4   1   5  250.92   17.11   3
   4  -1  -5  205.35   17.17   2
  -3   1   5  303.49   21.58   1
  -3   1   5  304.56   21.07   3
   3  -1  -5  298.60   21.75   2
   3  -1  -5  312.80   21.51   1
   2  -1  -5   19.89    6.99   3
   2  -1  -5   19.80    2.43   1
  -2   1   5   22.04    2.53   1
   1  -1  -5  333.77   22.69   4
   1  -1  -5  297.37   21.49   3
   0  -1  -5  340.12   26.11   4
   0  -1  -5  395.18   24.97   3
  -2  -1  -5    3.62    2.05   1
   2   1   5    0.85    4.56   4
  -2  -1  -5    0.64    1.77   1
   3   1   5  554.68   36.50   4
   3   1   5  464.99   35.25   1
  -3  -1  -5  510.71   35.32   1
  -3  -1  -5  502.59   35.75   2
  -4  -1  -5   11.57    4.84   2
   4   1   5    2.77    5.42   4
   4   1   5    6.01    4.03   1
   5   1   5  294.95   23.96   4
   5   1   5  328.75   23.61   1
  -5  -1  -5  279.11   22.83   2
  -5  -1  -5  361.93   23.61   1
   6   1   5  105.07   12.08   4
  -6  -1  -5  138.38   11.96   1
  -8   2   5  161.50   15.62   1
   7  -2  -5   18.80    5.91   1
  -7   2   5   12.95    8.28   1
  -6   2   5   14.66    5.98   1
  -6   2   5   17.53    5.67   3
  -5   2   5    7.52    3.52   3
  -5   2   5    2.05    4.50   1
   5  -2  -5   -2.18    4.11   1
   5  -2  -5   -0.98    3.56   2
  -4   2   5  152.22   11.68   1
  -4   2   5  147.32   11.77   3
   4  -2  -5  144.99   11.80   2
   4  -2  -5  154.53   11.60   1
  -3   2   5 1233.95   87.57   1
   3  -2  -5 1179.08   86.87   2
   3  -2  -5 1363.97   87.89   1
  -3   2   5 1310.60   83.03   3
   2  -2  -5  198.86   14.74   4
   2  -2  -5  188.20   14.07   3
   2  -2  -5  191.00   14.51   2
  -2   2   5  193.11   13.45   1
   1  -2  -5 1044.37   82.21   4
   1  -2  -5 1184.23   77.78   3
   1  -2  -5 1357.46   82.06   2
   0  -2  -5  270.34   18.11   3
   0  -2  -5  245.82   18.85   2
  -1  -2  -5   80.39    7.84   2
   2   2   5   77.48    7.44   4
  -2  -2  -5   75.21    5.55   1
  -2  -2  -5   67.84    5.52   1
  -2  -2  -5   73.84    7.76   2
  -3  -2  -5   34.62    3.92   1
  -3  -2  -5   36.87    5.96   2
   3   2   5   31.91    6.31   4
   3   2   5   30.95    3.64   1
   4   2   5  142.76   12.26   1
   4   2   5  153.73   14.14   4
  -4  -2  -5  159.92   13.36   2
  -4  -2  -5  177.09   12.63   1
  -5  -2  -5  312.49   24.51   2
  -5  -2  -5  386.79   24.94   1
   5   2   5  308.10   25.39   4
  -8   3   5   47.79    8.84   1
  -7   3   5   56.14    7.73   1
   6  -3  -5  449.82   34.43   1
  -6   3   5  479.64   33.38   1
  -6   3   5  441.60   32.65   3
  -5   3   5  161.04   12.56   3
  -5   3   5  146.07   12.02   1
   5  -3  -5  153.74   12.31   2
   5  -3  -5  149.21   12.30   1
  -4   3   5  186.97   14.33   1
   4  -3  -5  210.83   15.04   2
   4  -3  -5  186.16   14.27   1
  -4   3   5  187.04   14.53   3
  -3   3   5  572.00   39.89   3
   3  -3  -5  590.62   42.33   1
   3  -3  -5  583.07   42.04   2
  -3   3   5  619.35   41.61   1
   3  -3  -5  622.20   42.37   4
   3  -3  -5  617.39   40.34   3
   2  -3  -5   23.26    4.04   3
   2  -3  -5   27.99    5.66   2
   2  -3  -5   32.67    4.69   4
   1  -3  -5    3.07    3.97   2
   1  -3  -5    7.11    4.57   3
   0  -3  -5   90.18    8.26   3
   0  -3  -5   81.40    8.45   2
  -1  -3  -5  651.41   45.77   2
  -2  -3  -5  133.51   11.43   2
   2   3   5  122.26   12.33   4
  -3  -3  -5  653.47   44.46   2
  -3  -3  -5  604.85   43.04   1
   3   3   5  623.08   44.97   4
  -4  -3  -5   48.50    4.84   1
   4   3   5   40.28    7.20   4
  -4  -3  -5   31.28    6.74   2
   5   3   5   62.97   10.60   4
  -5  -3  -5   68.25    9.08   2
  -7   4   5   48.61    8.29   1
  -6   4   5    8.58    6.56   1
   6  -4  -5   -6.95    5.33   1
   5  -4  -5   41.53    5.16   1
  -5   4   5   34.70    4.97   1
  -5   4   5   50.69    6.79   3
   5  -4  -5   28.77    5.04   4
   5  -4  -5   39.86    6.59   2
  -4   4   5   25.59    5.05   3
  -4   4   5   32.50    4.49   1
   4  -4  -5   27.98    6.28   2
  -4   4   5   33.65    4.37   1
   4  -4  -5   36.82    6.34   4
  -3   4   5  111.03    7.79   1
   3  -4  -5  107.31    9.98   2
   3  -4  -5   95.46    8.93   3
  -3   4   5   92.99    7.73   1
   3  -4  -5  112.47   10.37   4
   2  -4  -5  253.47   19.41   3
   2  -4  -5  292.72   20.78   2
   1  -4  -5  354.97   26.23   2
   1  -4  -5  358.07   24.94   3
   0  -4  -5   15.04    5.89   2
   0  -4  -5   16.78    5.91   3
  -1  -4  -5  120.00   11.36   2
  -1  -4  -5  139.91   11.15   3
   2   4   5   10.74    5.59   4
  -3  -4  -5   51.41    8.34   2
   3   4   5   45.35    9.91   4
   4   4   5    4.74    6.41   4
  -6   5   5  284.23   21.69   1
   5  -5  -5   33.45    8.57   4
  -5   5   5   31.79    5.76   1
  -5   5   5   45.53    6.14   1
  -4   5   5  365.29   23.92   1
   4  -5  -5  332.89   25.19   2
  -4   5   5  302.89   23.61   1
   3  -5  -5  349.23   24.28   3
   3  -5  -5  341.18   25.97   2
   2  -5  -5   72.06    7.49   3
   2  -5  -5   55.41    8.32   2
   1  -5  -5   -5.60    6.01   2
   1  -5  -5    6.51    5.24   3
   0  -5  -5   22.86    6.45   2
   0  -5  -5   28.36    6.75   3
  -1  -5  -5  276.71   22.78   2
  -1  -5  -5  326.35   22.88   3
  -2  -5  -5   48.15    7.27   2
  -2  -5  -5   48.02    9.74   3
  -3  -5  -5  240.19   20.07   2
   3   5   5  220.48   20.80   4
  -5   6   5   22.60    6.25   1
   3  -6  -5   96.02   10.57   3
   2  -6  -5   71.25    9.95   2
   2  -6  -5   84.26    8.28   3
   1  -6  -5   84.34    9.42   3
   1  -6  -5  102.59   11.14   2
   0  -6  -5   68.57   10.63   2
   0  -6  -5   65.28   10.15   3
  -1  -6  -5  156.24   15.95   3
   2  -7  -5   31.86    8.96   3
   1  -7  -5   16.85    9.07   3
  -1 -10   6   34.87    9.98   1
   0 -10   6   12.73    8.61   1
  -1  10  -6   50.54    9.84   1
  -3  -9   6   74.70   11.85   1
  -2  -9   6   20.56    9.05   1
  -1  -9   6   43.59    8.34   1
   0  -9   6    9.47    5.31   1
  -1   9  -6    2.32    8.77   1
  -2   9  -6   -4.09    9.19   1
  -3   9  -6   36.30    9.74   1
  -4   9  -6   14.23    8.00   1
  -5  -8   6  134.33   14.88   1
  -3  -8   6   12.62    5.42   1
  -2  -8   6    3.28    4.82   1
  -1  -8   6   44.18    8.30   1
   0  -8   6   28.11    7.33   1
   1  -8   6   47.88    8.34   1
  -2   8  -6  125.88   12.98   1
  -3   8  -6  147.02   14.47   1
  -4   8  -6   10.06    8.68   1
  -6  -7   6   -7.89    9.49   1
  -5  -7   6   10.26    9.00   1
  -4  -7   6  115.24   12.55   1
   3   7  -6  150.31   14.13   1
  -3  -7   6  147.22   13.96   1
   2   7  -6  233.05   17.91   1
  -2  -7   6  216.48   17.95   1
  -1  -7   6  275.55   20.33   1
   1   7  -6  244.28   19.55   1
   0   7  -6  102.09   10.24   1
   0  -7   6  119.56   10.04   1
   1  -7   6  213.41   16.32   1
  -1   7  -6  182.09   15.94   1
  -2   7  -6   14.14    4.90   1
  -2   7  -6   -0.61    6.04   1
  -3   7  -6   78.96   10.03   1
  -4   7  -6   45.05    7.18   1
  -5   7  -6  147.24   13.69   1
  -6  -6   6  211.93   19.12   1
  -5  -6   6  108.68   10.70   1
   5   6  -6  105.88    9.57   2
  -4  -6   6   79.87    8.54   1
   4   6  -6   72.30    7.85   1
  -3  -6   6  203.26   15.66   1
   3   6  -6  181.63   15.47   1
   2   6  -6   18.48    4.71   1
  -2  -6   6    0.18    5.75   1
  -1  -6   6    5.56    1.57   3
   1   6  -6    5.48    4.76   1
  -1  -6   6    2.83    3.45   1
   0   6  -6   57.51    7.03   1
   0  -6   6   54.39    6.13   1
   1  -6   6  246.01   19.01   1
  -1   6  -6  247.18   18.66   1
  -2   6  -6  140.50   11.76   1
  -2   6  -6  111.64   10.62   1
  -3   6  -6  305.48   23.32   1
  -3   6  -6  302.43   23.26   1
  -4   6  -6   91.21   10.48   1
  -5   6  -6  203.25   17.02   1
  -6   6  -6   14.09    7.24   1
  -7  -5   6   85.47   10.00   1
  -6  -5   6   -6.15    8.12   1
  -5  -5   6   34.44    5.75   1
   5   5  -6   25.59    5.25   1
  -4  -5   6  345.94   25.48   1
   4   5  -6  330.60   25.06   1
   3   5  -6  348.70   27.24   1
  -3  -5   6  401.35   27.84   1
  -2  -5   6  275.77   19.70   3
   2   5  -6  290.82   21.60   1
  -2  -5   6  317.49   22.23   1
   1   5  -6  890.03   64.18   1
  -1  -5   6  961.02   64.36   1
  -1  -5   6  928.98   60.86   3
   0   5  -6   51.78    6.35   1
   0  -5   6   53.28    6.41   1
  -1   5  -6  553.10   38.05   1
   1  -5   6  519.26   38.06   1
  -2   5  -6  117.49    9.95   1
  -2   5  -6  114.29    9.97   1
  -3   5  -6   42.04    3.65   3
  -3   5  -6   46.90    7.32   1
  -3   5  -6   57.20    7.21   1
  -4   5  -6  142.06   12.04   1
  -4   5  -6  127.09   11.69   1
  -5   5  -6  210.30   17.81   1
  -6   5  -6  -12.11    8.43   1
  -7  -4   6   44.21    9.40   1
  -6  -4   6  305.10   23.09   1
  -5  -4   6  227.50   17.79   1
   5   4  -6  216.72   17.19   1
   4   4  -6  133.00   11.38   1
  -4  -4   6  126.04   11.68   1
  -3  -4   6  567.29   42.88   1
   3   4  -6  654.03   43.06   1
  -2  -4   6   51.48    4.71   3
   2   4  -6   57.64    6.28   1
  -2  -4   6   53.81    6.48   1
  -1  -4   6  189.64   13.20   3
   1   4  -6  181.53   14.62   1
  -1  -4   6  214.95   15.13   1
   0   4  -6    5.90    4.07   1
   0  -4   6   -2.88    2.92   1
  -1   4  -6   10.48    2.05   3
   1  -4   6    3.61    3.21   1
  -1   4  -6   17.30    4.51   1
  -2   4  -6  433.90   33.17   1
  -2   4  -6  498.09   33.53   1
  -2   4  -6  477.48   30.72   3
  -3   4  -6  842.17   58.34   1
  -3   4  -6  829.30   58.18   1
  -4   4  -6    0.39    4.83   1
  -5   4  -6  103.52   10.96   1
  -8  -3   6  157.02   15.82   1
  -7  -3   6  158.93   14.84   1
   6   3  -6   44.85    6.71   1
   5   3  -6   94.87    9.41   1
  -5  -3   6   91.39    9.54   1
  -4  -3   6  293.94   22.15   1
   4   3  -6  310.53   22.27   1
  -3  -3   6  145.99   12.09   1
  -3  -3   6  149.36   11.07   3
   3   3  -6  145.29   11.78   1
  -2  -3   6  142.36   10.74   3
   2   3  -6  150.41   11.74   1
  -2  -3   6  157.45   12.07   1
  -1  -3   6  608.28   43.68   1
  -1  -3   6  626.86   40.92   3
   1   3  -6  646.95   43.70   1
   0   3  -6    0.70    3.31   1
   0   3  -6    2.66    2.52   3
   0  -3   6   -1.19    3.93   1
  -1   3  -6  620.39   45.84   4
  -1   3  -6  644.02   45.74   1
  -1   3  -6  679.62   42.87   3
  -1   3  -6  687.69   45.75   1
  -2   3  -6    8.45    4.03   1
  -2   3  -6    6.05    3.55   1
  -3   3  -6   24.08    4.82   1
  -3   3  -6   30.24    4.68   1
  -4   3  -6   13.95    4.96   1
  -4   3  -6    1.49    3.42   1
  -5   3  -6  117.48   11.21   1
  -5   3  -6  115.07   10.37   1
  -6   3  -6   28.83    7.27   1
  -8  -2   6   22.47   18.72   1
  -7  -2   6   17.47    6.96   1
   6   2  -6  385.10   28.89   1
  -6  -2   6  397.86   28.96   1
   5   2  -6  105.13    9.11   1
  -5  -2   6  106.96    9.37   1
   4   2  -6   53.72    6.32   1
  -4  -2   6   62.46    6.98   1
  -4  -2   6   66.93    5.98   3
  -3  -2   6  786.71   54.62   3
  -3  -2   6  893.44   57.99   1
   3   2  -6  827.06   57.75   1
   2   2  -6   84.13    6.95   1
  -2  -2   6   76.33    7.19   1
  -2  -2   6   76.27    6.56   3
   1   2  -6   -1.03    3.25   3
  -1  -2   6   -0.04    3.24   1
   1   2  -6   -2.72    2.91   1
  -1  -2   6    5.48    2.84   3
   0   2  -6  340.47   23.39   1
   0   2  -6  296.89   22.01   3
   0  -2   6  353.85   23.50   1
  -1   2  -6   83.26    6.71   4
  -1   2  -6   78.52    6.78   1
  -1   2  -6   83.67    6.37   3
  -1   2  -6   80.83    6.75   1
  -2   2  -6  286.21   20.57   1
  -2   2  -6  283.75   20.55   1
  -3   2  -6 1153.90   80.58   1
  -3   2  -6 1189.11   80.61   1
  -4   2  -6   71.75    7.88   1
  -4   2  -6   75.55    7.97   1
  -5   2  -6  782.26   56.13   1
  -5   2  -6  814.57   56.03   1
  -6   2  -6   41.44    7.93   1
  -8  -1   6  179.53   16.97   1
  -7  -1   6  249.04   19.50   1
  -6  -1   6    0.35    5.41   1
   6   1  -6    4.26    5.26   1
   6   1  -6   -0.89    2.25   2
  -5  -1   6   19.23    5.08   1
   5   1  -6   28.96    5.30   1
  -5  -1   6   25.82    5.58   3
   4   1  -6  744.96   52.37   1
  -4  -1   6  773.28   52.46   1
  -4  -1   6  746.36   49.91   3
  -3  -1   6 1159.66   73.56   3
   3   1  -6 1133.15   77.35   1
  -3  -1   6 1091.66   77.37   1
   2   1  -6  282.50   20.60   1
  -2  -1   6  287.11   19.90   3
  -2  -1   6  299.96   20.73   1
   1   1  -6  527.00   33.46   3
   1   1  -6  492.71   34.97   1
  -1  -1   6  498.00   35.00   1
   0   1  -6   15.62    3.55   3
   0  -1   6   20.37    3.10   1
   0   1  -6   21.17    3.23   4
   0   1  -6   18.92    2.55   1
  -1   1  -6 1549.72  104.48   3
  -1   1  -6 1695.23  110.19   1
  -1   1  -6 1606.45  110.09   1
  -2   1  -6   25.66    3.75   1
  -3   1  -6   92.14    8.28   1
  -3   1  -6  110.05    8.84   1
  -4   1  -6   67.62    7.74   1
  -4   1  -6   66.62    7.18   1
  -5   1  -6  141.59   12.11   1
  -5   1  -6  125.02   11.57   1
  -6   1  -6   12.42    6.43   1
  -8   0   6    7.14    9.64   1
  -7   0   6   34.15    6.59   1
   7   0  -6   44.20    3.85   2
   6   0  -6  604.99   41.30   2
   6   0  -6  596.98   42.29   1
  -6   0   6  591.71   42.56   1
  -5   0   6  322.25   23.59   3
   5   0  -6  343.04   24.02   2
   5   0  -6  353.39   24.68   1
  -5   0   6  336.21   24.76   1
  -4   0   6  327.10   22.28   1
   4   0  -6  291.94   22.13   1
  -4   0   6  303.00   21.37   3
  -3   0   6  894.04   64.25   1
   3   0  -6  972.70   64.17   1
  -3   0   6  936.35   61.27   3
  -2   0   6  118.86    9.11   3
   2   0  -6  112.40    8.98   3
   2   0  -6  104.01    9.89   1
  -2   0   6  123.19    8.74   1
   1   0  -6  322.44   22.44   1
   1   0  -6  319.80   22.06   3
  -1   0   6  328.94   22.48   1
   0   0  -6  599.99   38.91   4
   0   0  -6  516.27   38.19   1
   0   0  -6  570.15   36.87   3
   0   0  -6  537.96   38.04   1
  -1   0  -6  210.08   14.27   1
  -1   0  -6  185.10   14.16   1
  -1   0  -6  204.52   14.49   3
  -2   0  -6   96.92    7.75   1
  -2   0  -6  100.27    7.77   1
  -3   0  -6  980.25   62.94   1
  -3   0  -6  846.38   62.81   1
   4   0   6   -0.11    4.10   4
  -4   0  -6    8.55    3.20   1
  -4   0  -6    5.43    4.38   1
  -5   0  -6  866.51   58.74   1
  -5   0  -6  824.70   58.68   1
   5   0   6  841.84   59.29   4
  -5   0  -6  824.22   58.13   2
   6   0   6   51.10    9.48   4
  -6   0  -6   31.61    7.96   1
  -8   1   6  277.44   23.08   1
  -7   1   6  297.98   23.60   1
   6  -1  -6   71.49    6.72   2
  -6   1   6   81.05    8.75   1
  -6   1   6   62.28    8.32   3
   5  -1  -6   78.95    7.43   2
  -5   1   6   94.97    8.96   3
  -5   1   6   73.41    8.06   1
   5  -1  -6   82.94    7.95   1
   4  -1  -6   16.59    3.81   1
  -4   1   6   26.87    5.60   3
   4  -1  -6   21.02    4.33   2
  -4   1   6   24.11    4.17   1
   3  -1  -6  510.35   32.63   2
  -3   1   6  473.66   32.09   1
  -3   1   6  446.40  314.32   3
   3  -1  -6  401.86   31.90   1
   2  -1  -6  559.06   40.18   1
  -2   1   6  635.48   40.31   1
   2  -1  -6  567.36   39.01   3
   1  -1  -6  837.49   56.04   3
   1  -1  -6  874.07   59.39   4
   0  -1  -6  106.76    9.15   3
  -1  -1  -6  726.85   48.27   3
  -2  -1  -6   90.26    6.91   1
  -2  -1  -6   90.07    7.00   1
  -3  -1  -6  412.25   28.54   1
  -3  -1  -6  401.79   28.47   1
  -3  -1  -6  405.53   29.27   2
  -4  -1  -6  189.67   13.90   1
   4   1   6  180.75   15.41   4
  -4  -1  -6  162.61   14.65   2
  -4  -1  -6  180.44   13.74   1
  -5  -1  -6   21.20    6.20   2
   5   1   6   18.67    6.52   4
  -5  -1  -6   12.39    5.06   1
  -8   2   6   42.28   10.90   1
  -7   2   6    3.71    6.24   1
   6  -2  -6  249.45   19.34   2
  -6   2   6  254.12   20.08   3
   6  -2  -6  254.52   19.73   1
  -6   2   6  292.61   20.32   1
   5  -2  -6  297.94   22.05   2
  -5   2   6  309.52   21.84   3
   5  -2  -6  289.18   22.04   1
  -5   2   6  308.59   22.20   1
  -4   2   6  366.06   27.40   1
  -4   2   6  355.27   26.84   3
   4  -2  -6  446.36   28.04   2
   4  -2  -6  386.48   27.40   1
   3  -2  -6 1234.96   83.35   3
   3  -2  -6 1305.53   91.17   1
  -3   2   6 1254.18   88.89   1
  -3   2   6 1303.81   86.52   3
   3  -2  -6 1290.83   87.61   2
   2  -2  -6   17.06    4.31   4
   2  -2  -6   21.94    5.32   2
   2  -2  -6   14.96    5.12   3
   1  -2  -6   75.04    7.65   4
   1  -2  -6  102.10    8.43   3
   1  -2  -6   89.24    8.05   2
   0  -2  -6   23.10    5.61   3
   0  -2  -6   18.17    4.12   2
  -1  -2  -6    8.48    5.16   2
  -1  -2  -6   10.31    5.21   3
  -2  -2  -6  408.08   29.63   2
  -3  -2  -6  465.90   33.29   1
  -3  -2  -6  482.81   33.29   1
  -3  -2  -6  497.21   34.80   2
   4   2   6   -4.48    7.94   4
  -4  -2  -6   -8.75    7.01   2
  -5  -2  -6  382.36   26.80   2
   5   2   6  335.33   27.92   4
  -8   3   6  135.71   15.13   1
  -7   3   6  219.94   17.97   1
  -6   3   6  103.75    9.98   1
   6  -3  -6   85.04    8.94   1
   6  -3  -6   95.03    9.16   2
   5  -3  -6  161.43   14.91   2
  -5   3   6  182.52   14.56   3
  -5   3   6  211.91   14.80   1
   5  -3  -6  195.74   14.60   1
  -4   3   6    5.22    5.17   3
   4  -3  -6    1.11    3.70   2
   4  -3  -6   -7.41    5.84   4
  -4   3   6   -5.04    3.36   1
  -3   3   6  132.19    8.83   1
  -3   3   6  113.68    8.69   1
   3  -3  -6  121.08   10.52   2
   3  -3  -6  115.46   10.13   3
   3  -3  -6  116.62   10.72   4
   2  -3  -6   40.89   17.12   4
   2  -3  -6   34.06    4.73   3
   2  -3  -6   37.57    6.08   2
   1  -3  -6   45.60    6.57   3
   0  -3  -6   87.80    8.98   3
   0  -3  -6   92.51    9.34   2
  -1  -3  -6  494.96   33.56   3
  -1  -3  -6  472.54   34.59   2
  -2  -3  -6   -4.95    8.85   2
  -3  -3  -6   52.41    7.07   2
   4   3   6   48.44    8.51   4
  -4  -3  -6   34.71    9.39   2
  -7   4   6   15.39    7.88   1
  -6   4   6   76.43    8.85   1
  -5   4   6   77.25    7.53   1
   5  -4  -6   78.79    9.93   4
   5  -4  -6   69.66    9.00   2
   5  -4  -6   73.90    7.01   1
   4  -4  -6  142.98   12.34   2
   4  -4  -6  127.39   12.45   4
  -4   4   6  134.46   10.29   1
  -4   4   6  132.11   10.18   1
   3  -4  -6  507.54   34.25   2
   3  -4  -6  485.87   34.45   4
   3  -4  -6  415.78   32.22   3
   2  -4  -6   -1.65    5.89   2
   2  -4  -6    5.64    3.58   3
   1  -4  -6   37.75    6.55   3
   1  -4  -6   37.10    7.03   2
   0  -4  -6   60.14    8.14   2
   0  -4  -6   52.49    6.80   3
  -1  -4  -6  164.09   13.89   3
  -1  -4  -6  179.17   14.46   2
  -2  -4  -6   15.53    8.61   3
  -2  -4  -6   10.44    5.34   2
  -3  -4  -6  205.79   17.93   2
  -6   5   6   85.45    9.75   1
  -5   5   6  145.63   11.86   1
   4  -5  -6   -2.90    6.98   2
   3  -5  -6   91.21    9.92   2
   3  -5  -6   78.92    9.18   3
   2  -5  -6   10.76    4.86   2
   2  -5  -6   14.62    7.29   3
   1  -5  -6  246.60   18.81   3
   1  -5  -6  225.23   19.04   2
   0  -5  -6    8.16    8.16   3
   0  -5  -6    6.96    7.61   2
  -1  -5  -6  315.13   24.87   2
  -1  -5  -6  304.19   24.06   3
  -2  -5  -6    9.41    9.67   2
  -2  -5  -6   30.76   10.54   3
   3  -6  -6  293.58   22.86   3
   3  -6  -6  300.65   23.87   2
   2  -6  -6   27.68    7.14   2
   2  -6  -6   31.02    8.89   3
   1  -6  -6  141.66   14.90   2
   1  -6  -6  153.19   14.30   3
   0  -6  -6   -0.50    9.21   3
   0  -6  -6   -3.19    7.02   2
  -1  10  -7  152.50   14.93   1
  -3  -9   7   46.13    9.61   1
  -1  -9   7   21.96    9.00   1
  -1   9  -7   13.45    9.50   1
  -2   9  -7    4.46    9.30   1
  -3   9  -7  114.18   14.07   1
  -4  -8   7    0.79    6.83   1
  -3  -8   7    0.02    8.06   1
  -2  -8   7   68.02    5.34   3
  -2  -8   7   52.84    9.84   1
  -1  -8   7   58.80    7.59   1
   0  -8   7   68.34    9.14   1
   1  -8   7  260.40   20.99   1
  -2   8  -7   -2.94    7.20   1
  -3   8  -7   47.12    8.13   1
  -4   8  -7   -4.02    7.69   1
  -6  -7   7   39.08    8.21   1
  -5  -7   7   10.58    9.63   1
  -4  -7   7  107.37   12.62   1
  -3  -7   7   40.37    8.12   1
  -2  -7   7  214.83   14.99   3
  -2  -7   7  234.15   18.29   1
   2   7  -7  215.44   17.99   1
  -1  -7   7  120.81   11.31   1
   1   7  -7  117.78   11.70   1
   0  -7   7    0.94    5.61   1
  -1   7  -7   16.97    6.21   1
  -2   7  -7    4.83    6.85   1
  -3   7  -7  185.63   15.76   1
  -4   7  -7    4.00    8.00   1
  -5   7  -7  104.68   12.66   1
  -6  -6   7  103.01   12.23   1
  -5  -6   7   51.48    8.53   1
  -4  -6   7    4.26    4.95   1
  -3  -6   7    6.49    4.54   1
   3   6  -7    0.16    5.71   1
  -2  -6   7   39.39    6.98   1
   2   6  -7   22.87    5.56   1
  -2  -6   7   32.22    3.62   3
  -1  -6   7  194.98   13.77   3
  -1  -6   7  217.25   16.28   1
   1   6  -7  212.09   16.10   1
   0  -6   7    2.26    4.86   1
  -1   6  -7  229.47   18.21   1
   1  -6   7  230.79   17.84   1
  -2   6  -7   -3.64    5.02   1
  -2   6  -7    7.57    4.41   1
  -3   6  -7   62.48    9.18   1
  -3   6  -7   72.89    7.75   1
  -4   6  -7   17.58    7.30   1
  -5   6  -7   20.87    9.06   1
  -7  -5   7    6.48    6.60   1
  -6  -5   7   33.76    8.67   1
  -5  -5   7  133.80   13.01   1
  -4  -5   7   68.33    8.85   1
   4   5  -7   74.44    8.55   1
  -3  -5   7  403.90   26.70   3
  -3  -5   7  388.65   28.91   1
   3   5  -7  395.61   28.81   1
   2   5  -7  119.78   10.97   1
  -2  -5   7  127.77   10.89   1
  -2  -5   7  128.53    9.18   3
  -1  -5   7  126.76    9.17   3
   1   5  -7  147.97   11.49   1
  -1  -5   7  121.57   10.80   1
   0  -5   7    2.88    4.87   1
   0   5  -7   -2.07    4.39   1
   1  -5   7  196.52   15.20   1
  -1   5  -7  178.26   14.86   1
  -2   5  -7  223.03   17.78   1
  -2   5  -7  252.16   18.38   1
  -2   5  -7  220.45   15.35   3
  -3   5  -7  402.86   25.46   3
  -3   5  -7  360.38   28.17   1
  -3   5  -7  391.47   28.40   1
  -4   5  -7   23.46    7.78   1
  -5   5  -7  183.04   15.25   1
  -6   5  -7   25.12    6.89   1
  -7  -4   7  353.66   27.41   1
  -6  -4   7   51.09    8.96   1
   5   4  -7  223.40   17.70   1
  -5  -4   7  223.75   17.55   1
   4   4  -7    8.89    3.67   1
  -4  -4   7    8.37    5.60   1
  -3  -4   7    5.88    2.54   3
  -3  -4   7    4.56    3.88   1
   3   4  -7    3.29    3.29   1
   2   4  -7   44.83    6.01   1
  -2  -4   7   53.80    4.72   3
  -2  -4   7   42.37    6.38   1
  -1  -4   7   44.01    6.08   1
   1   4  -7   47.30    5.79   1
  -1  -4   7   43.62    4.07   3
   0   4  -7  390.18   28.86   1
   0  -4   7  417.82   29.07   1
  -1   4  -7  772.81   55.90   1
  -1   4  -7  751.68   56.07   4
  -1   4  -7  822.51   52.15   3
  -1   4  -7  866.88   56.00   1
  -2   4  -7   36.73    6.23   1
  -2   4  -7   23.04    4.36   1
  -2   4  -7   30.05    3.38   3
  -3   4  -7   28.33    5.12   1
  -3   4  -7   22.49    5.49   1
  -3   4  -7   24.86    3.73   3
  -4   4  -7    8.37    6.31   1
  -4   4  -7   17.68    6.05   1
  -5   4  -7    0.38    6.28   1
  -6   4  -7    7.98    7.26   1
  -8  -3   7   29.64    9.77   1
  -7  -3   7   31.26    7.45   1
  -6  -3   7   81.28    8.44   1
   5   3  -7   44.72    5.81   1
  -5  -3   7   48.36    7.41   1
  -4  -3   7  189.09   13.13   3
  -4  -3   7  168.27   14.15   1
   4   3  -7  162.77   13.85   1
   3   3  -7  683.61   49.94   1
  -3  -3   7  789.04   47.22   3
  -3  -3   7  675.15   49.89   1
   2   3  -7  745.59   51.63   1
  -2  -3   7  756.70   51.79   1
  -2  -3   7  727.11   48.67   3
  -1  -3   7  599.96   44.96   1
  -1  -3   7  635.20   42.25   3
   1   3  -7  701.08   45.07   1
   0  -3   7  264.23   18.79   1
   0   3  -7  257.79   17.39   3
   0   3  -7  241.66   18.69   1
  -1   3  -7    9.22    2.45   4
  -1   3  -7   14.55    3.93   1
  -1   3  -7   14.25    4.07   1
  -1   3  -7   10.96    2.84   3
  -2   3  -7  122.84    9.93   1
  -2   3  -7  129.71   11.60   3
  -2   3  -7  119.13   10.01   1
  -3   3  -7  246.51   18.84   1
  -3   3  -7  247.89   18.75   1
  -4   3  -7   32.49    5.52   1
  -5   3  -7  491.72   35.66   1
  -6   3  -7   52.01    7.47   1
  -8  -2   7  148.04   15.20   1
  -7  -2   7  367.92   26.36   1
   7   2  -7  329.19   24.00   2
   6   2  -7   87.09    8.92   1
  -6  -2   7   67.11    7.48   3
  -6  -2   7   72.76    8.74   1
  -5  -2   7  474.87   33.46   1
  -5  -2   7  479.17   31.79   3
   5   2  -7  438.09   33.17   1
  -4  -2   7    5.76    5.22   1
  -4  -2   7   -0.98    4.13   3
   4   2  -7    2.95    4.09   1
  -3  -2   7    2.70    4.02   1
  -3  -2   7    4.63  926.36   3
   3   2  -7    7.64    3.78   1
  -2  -2   7  173.46   11.83   3
  -2  -2   7  154.18   12.47   1
   2   2  -7  149.14   12.16   1
   1   2  -7  172.38   12.94   1
   1   2  -7  160.80   12.39   3
  -1  -2   7  179.80   12.86   1
   0   2  -7  226.04   17.50   1
   0   2  -7  261.95   16.90   3
   0  -2   7  241.78   17.72   1
  -1   2  -7  802.52   48.66   3
  -1   2  -7  693.86   51.28   4
  -1   2  -7  800.99   51.29   1
  -1   2  -7  667.90   51.13   1
  -2   2  -7  336.54   25.25   1
  -2   2  -7  361.19   25.38   1
  -2   2  -7  364.90   24.06   3
  -3   2  -7  459.23   34.56   1
  -3   2  -7  523.40   34.95   1
  -4   2  -7   71.08    7.71   1
  -4   2  -7   83.19    8.32   1
  -5   2  -7   35.04    6.12   1
  -5   2  -7   20.81    8.23   1
  -8  -1   7   47.37    8.69   1
   7   1  -7   67.35    5.62   2
  -7  -1   7   70.31    8.23   1
  -6  -1   7  163.73   14.83   3
  -6  -1   7  207.19   15.09   1
   6   1  -7  157.17   13.02   2
   6   1  -7  187.31   14.78   1
   5   1  -7   73.88    7.45   1
  -5  -1   7   71.48    7.91   3
  -5  -1   7   91.20    8.51   1
   4   1  -7  160.75   12.91   1
  -4  -1   7  172.84   13.15   1
  -4  -1   7  157.47   12.48   3
  -3  -1   7 1179.22   75.15   1
   3   1  -7 1050.48   74.91   1
  -3  -1   7 1046.19   71.37   3
   2   1  -7  933.91   59.90   3
  -2  -1   7  904.13   59.84   3
  -2  -1   7  886.11   62.86   1
   2   1  -7  935.27   62.82   1
  -1  -1   7 1329.35   88.36   1
   1   1  -7 1294.11   88.92   1
   1   1  -7 1231.02   83.29   3
   0   1  -7   20.29    4.15   3
   0   1  -7   14.62    2.67   1
   0   1  -7   13.73    2.46   1
  -1   1  -7  305.42   21.90   1
  -1   1  -7  273.39   21.93   1
  -1   1  -7  354.30   21.55   3
  -2   1  -7  201.72   14.86   1
  -2   1  -7  200.81   14.92   1
  -3   1  -7  257.52   19.06   1
  -3   1  -7  258.29   18.98   1
  -4   1  -7   24.26    6.58   1
  -4   1  -7   23.78    4.69   1
  -5   1  -7  216.69   17.31   1
  -8   0   7  114.65   13.74   1
   7   0  -7  329.57   24.13   2
  -7   0   7  349.45   26.22   1
   6   0  -7   68.05    6.79   1
  -6   0   7   57.69    7.62   3
  -6   0   7   51.18    6.60   1
   6   0  -7   57.70    5.99   2
   5   0  -7  369.80   25.77   1
  -5   0   7  407.53   26.06   1
   5   0  -7  329.86   25.21   2
  -5   0   7  310.40   24.83   3
  -4   0   7  225.10   15.84   1
  -4   0   7  212.29   15.84   3
   4   0  -7  191.60   15.56   1
   3   0  -7  165.13   12.97   1
  -3   0   7  169.35   13.15   3
  -3   0   7  191.92   13.29   1
   2   0  -7    2.35    2.04   1
  -2   0   7    2.35    2.24   1
  -2   0   7   -1.28    3.21   3
   2   0  -7   14.20    5.14   3
   1   0  -7   33.67    3.21   1
   1   0  -7   28.14    4.57   3
   1   0  -7   34.35    4.25   4
  -1   0   7   31.70    3.12   1
   0   0  -7   15.62    1.95   1
   0   0  -7   10.11    1.85   1
   0   0  -7   12.99    4.23   3
   0   0  -7   16.10    3.95   4
  -1   0  -7  511.90   42.61   1
  -1   0  -7  681.31   40.71   3
  -1   0  -7  626.20   43.35   1
  -2   0  -7   47.92    4.67   1
  -2   0  -7   43.76    4.55   1
  -3   0  -7  275.68   19.53   1
  -3   0  -7  263.70   19.56   1
  -4   0  -7   95.86    9.70   2
  -4   0  -7   94.44    8.90   1
  -4   0  -7   82.08    8.16   1
  -5   0  -7   40.85    6.51   1
  -5   0  -7   46.33    7.23   2
  -8   1   7   66.18    9.75   1
   7  -1  -7   64.16    6.12   2
  -7   1   7   66.96    8.12   1
  -6   1   7   19.41    6.88   1
   6  -1  -7   36.53   10.07   1
   6  -1  -7   28.93    5.08   2
  -5   1   7    4.33    5.70   3
   5  -1  -7   -2.86    3.32   1
  -5   1   7   -0.64    4.56   1
   5  -1  -7    3.22    4.47   2
   4  -1  -7   82.17    7.75   2
   4  -1  -7   63.27    6.65   1
  -4   1   7   65.80    7.02   3
  -4   1   7   84.63    6.96   1
   3  -1  -7 1236.92   88.47   1
  -3   1   7 1149.24   82.05   3
  -3   1   7 1385.74   85.98   1
  -2   1   7    0.37    1.40   1
   2  -1  -7   -6.67    4.47   4
   2  -1  -7   -1.40    1.21   1
   2  -1  -7   -2.88    4.72   3
   1  -1  -7  532.82   38.80   4
   1  -1  -7  561.43   36.77   3
   0  -1  -7   -6.41    5.32   3
  -1  -1  -7  169.06   13.57   3
  -2  -1  -7  208.21   16.67   2
  -3  -1  -7  219.40   15.09   1
  -3  -1  -7  201.12   14.99   1
  -3  -1  -7  198.64   16.90   2
  -4  -1  -7   -0.93    6.15   2
  -4  -1  -7   -3.43    3.97   1
  -8   2   7   20.05    7.78   1
   7  -2  -7  178.66   13.75   2
  -7   2   7  164.36   14.59   1
   6  -2  -7   32.33    6.68   1
  -6   2   7   33.69    7.10   1
   6  -2  -7   24.87    5.30   2
  -5   2   7  461.37   34.04   1
  -5   2   7  490.34   33.37   3
   5  -2  -7  508.94   34.16   1
   5  -2  -7  461.28   34.15   2
  -4   2   7   50.59    5.34   1
   4  -2  -7   47.17    7.00   2
   4  -2  -7   51.64    5.23   1
  -4   2   7   40.86    7.22   3
   3  -2  -7   30.52    5.82   4
   3  -2  -7   33.19    6.63   2
   3  -2  -7   21.87    2.67   1
   3  -2  -7   29.29    6.48   3
  -3   2   7   29.54    3.06   1
   2  -2  -7    0.70    5.00   3
   2  -2  -7   10.15    4.53   4
   2  -2  -7    0.54    5.46   2
   1  -2  -7    8.18    5.40   3
   1  -2  -7   12.67    4.18   2
   0  -2  -7  234.75   18.07   3
   0  -2  -7  254.33   18.89   2
  -1  -2  -7  797.51   57.02   3
  -1  -2  -7  916.71   60.03   2
  -3  -2  -7  409.32   29.96   2
  -4  -2  -7   61.14   10.52   2
  -7   3   7   99.32   11.56   1
  -6   3   7  188.05   15.26   1
   6  -3  -7  186.34   15.50   2
  -5   3   7   21.13    4.57   1
   5  -3  -7   12.32    5.09   1
   4  -3  -7    1.99    4.15   1
   4  -3  -7   10.20    5.76   2
   3  -3  -7  338.56   28.28   4
   3  -3  -7  351.91   25.56   3
   3  -3  -7  405.74   27.44   2
   2  -3  -7  107.24   11.19   3
   2  -3  -7  123.92   10.76   4
   2  -3  -7  140.05   11.85   2
   1  -3  -7  807.74   55.24   2
   1  -3  -7  763.99   52.43   3
   0  -3  -7   39.23    7.42   2
   0  -3  -7   32.37    7.21   3
  -1  -3  -7   78.30    8.48   2
  -1  -3  -7   81.80    9.76   3
  -2  -3  -7   37.61    8.42   2
  -2  -3  -7   38.24    9.25   3
  -3  -3  -7   89.52   10.36   2
   6  -4  -7   68.49    9.15   2
  -6   4   7   73.17    8.85   1
  -5   4   7  206.61   16.32   1
   5  -4  -7  236.70   18.45   2
   4  -4  -7   27.57    7.50   2
   3  -4  -7  127.85   11.70   2
   3  -4  -7  130.18   12.33   3
   2  -4  -7   38.83    7.77   3
   2  -4  -7   36.12    8.36   2
   1  -4  -7    7.59    6.43   3
   1  -4  -7    3.38    5.40   2
   0  -4  -7   13.69    6.36   2
   0  -4  -7   10.96    8.60   3
  -1  -4  -7  481.72   33.90   2
  -1  -4  -7  420.01   32.53   3
  -2  -4  -7   31.25    7.31   2
  -2  -4  -7   26.81   10.77   3
   5  -5  -7    7.01    8.77   2
   3  -5  -7  255.93   21.65   3
   3  -5  -7  336.71   24.19   2
   2  -5  -7   -9.81    8.08   2
   2  -5  -7    7.19    7.67   3
   1  -5  -7  291.80   23.52   3
   1  -5  -7  314.62   24.45   2
   0  -5  -7    6.59    9.51   3
   0  -5  -7   -7.07    9.08   2
  -3  -9   8   -1.06    9.31   1
  -1  -9   8   96.11   10.63   1
   0  -9   8   -6.73    7.80   1
  -1   9  -8  106.35   12.05   1
  -2   9  -8    6.35    9.82   1
  -4  -8   8  -13.22    9.53   1
  -3  -8   8   99.69   11.76   1
  -2  -8   8   54.95    8.01   1
  -1  -8   8  170.71   15.40   1
   0  -8   8   -5.88    6.69   1
  -1   8  -8   32.81    8.63   1
  -2   8  -8   40.22    9.73   1
  -3   8  -8  129.35   14.49   1
  -4   8  -8   14.61   10.54   1
  -5  -7   8  119.61   13.61   1
  -3  -7   8   96.48    7.95   3
  -3  -7   8  101.15   10.50   1
  -2  -7   8   -4.10    3.31   3
  -2  -7   8    0.89    6.51   1
   1   7  -8   67.66    8.11   1
  -1  -7   8   75.82    8.84   1
   0  -7   8    0.30    6.08   1
   1  -7   8  347.57   26.52   1
  -2   7  -8   60.70    9.96   1
  -3   7  -8   71.61   11.04   1
  -4   7  -8    9.83    9.58   1
  -6  -6   8  -14.48   10.01   1
  -5  -6   8   17.43    6.56   1
  -4  -6   8    6.88    7.46   1
  -4  -6   8   19.52    5.19   3
   3   6  -8  244.41   18.63   1
  -3  -6   8  224.40   19.13   1
  -3  -6   8  230.17   16.39   3
   2   6  -8   43.83    6.83   1
  -2  -6   8   45.91    4.49   3
  -2  -6   8   46.29    6.43   1
   1   6  -8  453.25   32.35   1
  -1  -6   8  434.73   32.28   1
   0  -6   8   12.87    4.32   1
   0   6  -8   17.30    5.88   1
  -1   6  -8  146.73   13.84   1
   1  -6   8  170.41   13.96   1
  -2   6  -8   30.11    7.20   1
  -3   6  -8   70.85    9.72   1
  -4   6  -8   31.11    8.79   1
  -5   6  -8  132.26   13.08   1
  -7  -5   8   73.68    9.70   1
  -6  -5   8   47.24    8.90   1
  -5  -5   8  259.35   20.92   1
   4   5  -8    0.44    5.12   1
  -4  -5   8    4.71    3.05   3
  -4  -5   8    1.44    7.31   1
   3   5  -8  195.90   15.66   1
  -3  -5   8  194.21   16.36   1
  -3  -5   8  204.12   14.02   3
  -2  -5   8   10.03    3.04   3
   2   5  -8    9.97    3.69   1
  -2  -5   8    4.64    5.54   1
   1   5  -8   38.19    5.41   1
  -1  -5   8   53.38    7.06   1
   0  -5   8   60.33    6.47   1
   0   5  -8   55.59    6.82   1
  -1   5  -8  355.56   26.50   1
  -1   5  -8  346.82   25.15   4
  -1   5  -8  371.36   26.29   1
  -2   5  -8    6.46    4.44   1
  -2   5  -8    0.10    2.17   3
  -2   5  -8   -2.81    6.20   1
  -3   5  -8   96.63   10.43   1
  -3   5  -8   83.36    8.50   1
  -3   5  -8   90.34    7.11   3
  -4   5  -8    1.41    2.84   3
  -4   5  -8    4.40    7.15   1
  -7  -4   8  123.33   12.23   1
   5   4  -8   90.94    9.07   1
  -5  -4   8  104.05    9.40   3
  -5  -4   8   83.12   10.31   1
  -4  -4   8    9.69    6.10   1
   4   4  -8    6.79    4.88   1
  -4  -4   8   10.23    4.19   3
  -3  -4   8    9.41    4.28   1
   3   4  -8    7.90    3.51   1
  -3  -4   8   10.59    3.50   3
   2   4  -8  509.98   37.81   1
  -2  -4   8  540.01   35.38   3
  -2  -4   8  550.34   38.04   1
  -1  -4   8  866.69   62.72   1
   1   4  -8  938.35   62.71   1
   0   4  -8   31.25    4.36   1
   0  -4   8   27.62    5.73   1
  -1   4  -8  114.31   10.07   1
  -1   4  -8  107.16    9.75   4
  -1   4  -8  113.33   10.19   1
  -1   4  -8  107.49    8.23   3
  -2   4  -8    7.57    5.39   1
  -2   4  -8   11.21    4.45   1
  -2   4  -8   17.19    3.36   3
  -3   4  -8   57.73    7.45   1
  -3   4  -8   76.65    7.57   1
  -3   4  -8   84.12    6.72   3
  -4   4  -8    4.01    6.08   1
  -5   4  -8  134.63   22.41   1
  -7  -3   8   63.13    9.51   1
  -6  -3   8   53.28    6.88   1
  -5  -3   8   54.00    7.32   1
   5   3  -8   46.83    6.07   1
  -5  -3   8   48.67    6.50   3
  -4  -3   8  162.51   13.27   1
   4   3  -8  146.71   12.86   1
  -4  -3   8  160.73   11.91   3
   3   3  -8  367.41   28.25   1
  -3  -3   8  398.63   28.78   1
  -3  -3   8  418.50   26.80   3
  -2  -3   8    8.44    4.47   1
   2   3  -8    6.32    3.88   1
  -2  -3   8    3.49    3.41   3
   1   3  -8    1.71    3.99   1
  -1  -3   8   -0.96    3.95   1
   0   3  -8  127.99    9.33   3
   0   3  -8  116.95   10.54   1
   0  -3   8  127.74   10.18   1
  -1   3  -8  245.02   17.59   1
  -1   3  -8  234.79   16.35   3
  -1   3  -8  228.48   17.40   1
  -1   3  -8  226.52   16.95   4
  -2   3  -8    1.81    4.48   1
  -2   3  -8   -3.87    4.48   1
  -2   3  -8    1.73    3.58   3
  -3   3  -8  312.75   24.25   1
  -3   3  -8  360.38   23.12   3
  -3   3  -8  316.27   24.46   1
  -4   3  -8   43.77    6.45   1
  -4   3  -8   34.14    5.36   1
  -5   3  -8   86.94   10.00   1
  -8  -2   8   88.98   12.50   1
  -7  -2   8   85.31    9.95   1
   7   2  -8   98.08    7.74   2
   6   2  -8    0.39    3.39   1
  -6  -2   8    5.36    5.94   1
  -5  -2   8   57.27    6.55   3
  -5  -2   8   53.47    7.01   1
   5   2  -8   49.02    6.51   1
  -4  -2   8   75.44    7.89   1
   4   2  -8   52.25    7.03   1
  -4  -2   8   68.34    7.32   3
  -3  -2   8  274.03   19.29   3
  -3  -2   8  277.45   19.95   1
   3   2  -8  260.93   19.75   1
  -2  -2   8   52.11    5.79   1
  -2  -2   8   39.49    5.33   3
   2   2  -8   37.97    5.17   1
  -1  -2   8  713.78   50.72   1
   1   2  -8  638.84   47.97   3
   1   2  -8  843.66   50.85   1
   0   2  -8    2.05    3.30   1
   0  -2   8    7.18    2.66   1
   0   2  -8   -3.68    3.80   3
  -1   2  -8  807.38   50.32   3
  -1   2  -8  695.37   52.72   1
  -1   2  -8  786.11   52.77   1
  -2   2  -8   60.94    7.07   1
  -2   2  -8   76.01    7.33   3
  -2   2  -8   75.52    6.80   1
  -3   2  -8   39.07    6.01   1
  -3   2  -8   43.97    5.31   1
  -4   2  -8   43.78    7.81   1
  -4   2  -8   26.88    5.75   1
  -5   2  -8  101.19   10.86   1
  -8  -1   8    9.15    7.49   1
   7   1  -8  179.33   13.81   2
  -7  -1   8  194.53   16.76   1
  -6  -1   8   69.49    9.38   1
   6   1  -8   44.99    5.39   2
   5   1  -8  219.76   17.01   1
  -5  -1   8  203.21   15.98   3
  -5  -1   8  229.69   17.23   1
  -4  -1   8   73.22    7.42   1
   4   1  -8   68.05    6.96   1
  -4  -1   8   65.24    7.45   3
   3   1  -8  635.99   46.62   1
  -3  -1   8  683.82   46.72   1
  -3  -1   8  692.14   44.72   3
   2   1  -8    7.29    8.27   3
   2   1  -8    9.24    2.87   1
  -2  -1   8    4.75    6.41   1
   1   1  -8  472.62   32.79   1
   1   1  -8  480.69   31.71   3
  -1  -1   8  460.43   32.78   1
   0   1  -8   64.70    6.82   4
   0   1  -8   63.90    5.70   1
   0   1  -8   71.15    7.16   3
   0   1  -8   71.03    5.86   1
  -1   1  -8  281.12   17.62   3
  -1   1  -8  250.11   17.72   1
  -1   1  -8  207.28   17.49   1
  -2   1  -8   21.08    3.63   1
  -2   1  -8   15.49    3.66   1
  -3   1  -8  234.11   15.64   1
  -3   1  -8  172.85   15.15   1
  -4   1  -8   57.27    6.88   1
  -5   1  -8  119.22   11.50   1
  -5   1  -8  122.71   11.57   2
  -8   0   8  114.07   14.20   1
  -7   0   8  223.62   18.42   1
   7   0  -8  236.16   17.17   2
  -6   0   8    4.26    6.32   1
   6   0  -8    7.50    5.62   1
   6   0  -8    1.42    4.03   2
  -5   0   8  233.33   17.19   3
   5   0  -8  200.74   16.87   1
  -5   0   8  236.49   17.46   1
   5   0  -8  229.23   17.34   2
  -4   0   8   98.19    8.90   3
  -4   0   8  116.86    9.39   1
   4   0  -8   96.30    8.87   1
   3   0  -8  123.89    9.52   1
  -3   0   8  127.90    9.89   1
  -3   0   8  118.77   10.06   3
   2   0  -8  143.84   11.44   3
  -2   0   8  133.33   10.12   1
   2   0  -8  129.06    9.94   1
   1   0  -8  671.59   44.21   4
   1   0  -8  545.97   42.78   1
   1   0  -8  665.59   41.94   3
   0   0  -8  167.21   11.66   1
   0   0  -8  164.95   13.24   4
   0   0  -8  170.04   12.96   3
   0   0  -8  156.89   11.65   1
  -1   0  -8  347.33   25.77   1
  -1   0  -8  359.52   27.32   1
  -2   0  -8   55.42    4.98   1
  -2   0  -8   53.74    8.01   3
  -2   0  -8   52.43    5.17   1
  -3   0  -8    7.50    3.49   1
  -4   0  -8   -7.13    7.11   2
   7  -1  -8   20.96    4.89   2
   6  -1  -8  115.08   10.12   1
  -6   1   8  116.43   11.28   1
   6  -1  -8  118.55   10.15   2
   5  -1  -8  334.09   25.05   2
   5  -1  -8  315.99   24.42   1
  -5   1   8  361.87   24.60   1
   4  -1  -8   21.70    3.60   1
  -4   1   8   20.22    5.25   3
  -4   1   8   22.03    4.44   1
   3  -1  -8  431.44   34.90   1
   3  -1  -8  570.83   35.64   2
  -3   1   8  480.03   34.41   1
   2  -1  -8    3.88    3.87   3
   2  -1  -8    7.60    4.79   4
   1  -1  -8  383.35   25.83   3
   1  -1  -8  355.88   27.17   4
   0  -1  -8  204.32   15.74   3
  -1  -1  -8   86.20    9.32   3
  -1  -1  -8   85.62    8.48   2
  -2  -1  -8   50.07    8.34   3
  -2  -1  -8   58.09   12.62   2
  -3  -1  -8  382.21   28.94   2
  -4  -1  -8   34.12    9.21   2
   7  -2  -8  358.00   27.40   2
  -7   2   8  391.39   28.46   1
  -6   2   8   46.28    7.08   1
   6  -2  -8   57.26    7.81   2
   5  -2  -8   61.62    7.21   1
   5  -2  -8   77.86    9.02   2
  -5   2   8   85.11    7.48   1
   4  -2  -8   13.70    5.65   2
   3  -2  -8    6.18    7.13   2
   3  -2  -8    6.49    6.59   3
   2  -2  -8  440.86   31.96   4
   2  -2  -8  388.78   30.10   3
   2  -2  -8  481.29   32.19   2
   1  -2  -8  412.49   32.00   3
   1  -2  -8  521.91   34.26   2
   0  -2  -8    6.14    6.63   2
   0  -2  -8   -6.12    7.03   3
  -1  -2  -8  442.79   33.80   3
  -1  -2  -8  526.16   35.70   2
  -2  -2  -8   -6.39    8.37   3
  -2  -2  -8   11.01    8.09   2
  -3  -2  -8   66.91   10.98   2
  -6   3   8   19.34    6.15   1
   6  -3  -8   25.72    7.37   2
   5  -3  -8   61.80    9.11   2
  -5   3   8   66.13    6.82   1
   4  -3  -8  326.70   25.10   2
   3  -3  -8  544.83   40.39   3
   3  -3  -8  647.97   43.17   2
   2  -3  -8    4.19    4.59   3
   2  -3  -8   -5.50    7.50   2
   1  -3  -8  196.39   16.86   3
   1  -3  -8  229.00   18.10   2
   0  -3  -8   17.96    7.22   3
   0  -3  -8   21.86    8.40   2
  -1  -3  -8   83.22   11.56   3
  -1  -3  -8  103.56   12.09   2
  -2  -3  -8    0.69    9.55   2
  -2  -3  -8   -3.02    9.49   3
   5  -4  -8  103.37   11.94   2
   4  -4  -8   -1.56    5.99   2
   3  -4  -8   94.25   10.08   3
   3  -4  -8   91.55   11.69   2
   2  -4  -8    2.15    7.32   2
   1  -4  -8  176.05   15.37   3
   1  -4  -8  190.80   16.14   2
   0  -4  -8   14.01    7.23   3
  -2  -9   9  -13.10    9.93   1
  -1  -9   9  133.62   14.45   1
   0  -9   9  -18.76 1026.24   1
  -1   9  -9  280.78   24.14   1
  -2   9  -9   35.89   11.03   1
  -4  -8   9    8.70    9.93   1
  -3  -8   9  137.59   13.17   1
  -2  -8   9    0.13    5.83   1
  -1  -8   9   42.38    9.04   1
   0  -8   9    6.84    5.07   1
  -1   8  -9   41.39    7.66   1
  -2   8  -9   32.43    7.80   1
  -3   8  -9   53.11   10.00   1
  -5  -7   9  108.90   13.30   1
  -4  -7   9    3.97    8.96   3
  -4  -7   9    3.88    9.09   1
  -3  -7   9   11.56    3.91   3
  -3  -7   9   -4.77    7.84   1
  -2  -7   9   18.99    3.48   3
  -2  -7   9   23.01    7.87   1
  -1  -7   9  182.61   15.83   1
   0  -7   9  120.96   11.93   1
  -1   7  -9   92.02   11.12   1
  -1   7  -9   84.56    6.84   4
  -2   7  -9   12.16    6.93   1
  -3   7  -9    9.07    9.12   1
  -4   7  -9   13.52   10.39   1
  -6  -6   9   29.09   10.90   1
  -5  -6   9   52.50    7.95   3
  -5  -6   9   67.94   10.47   1
  -4  -6   9   -3.24    7.70   1
  -4  -6   9    3.73    4.93   3
  -3  -6   9  113.04   11.94   1
  -3  -6   9  115.39    9.29   3
  -2  -6   9   24.38    3.64   3
   1   6  -9   10.71    5.09   1
  -1  -6   9    6.31    6.16   1
   0  -6   9    0.90    5.66   1
  -1   6  -9   11.13    2.96   4
  -1   6  -9   20.30    4.97   1
  -1   6  -9   14.07    5.85   1
  -2   6  -9   -5.67    7.65   1
  -3   6  -9  148.43   14.59   1
  -4   6  -9   52.53   10.77   1
  -6  -5   9   10.59    9.01   1
  -5  -5   9   70.05   10.08   1
  -5  -5   9   71.52    8.34   3
   4   5  -9   -7.90    6.80   1
  -4  -5   9   12.46    5.27   1
  -4  -5   9    4.58    4.79   3
   3   5  -9    6.66    4.78   1
  -3  -5   9    6.38    3.70   3
  -3  -5   9   17.26    6.51   1
   2   5  -9  102.19   10.05   1
  -2  -5   9   90.61    7.92   3
  -2  -5   9  102.42   10.15   1
   1   5  -9  333.12   23.93   1
  -1  -5   9  314.25   24.27   1
   0  -5   9  107.38   10.22   1
   0   5  -9  100.56    9.73   1
  -1   5  -9  215.44   17.36   1
  -1   5  -9  208.19   16.03   4
  -1   5  -9  240.62   18.02   1
  -2   5  -9   88.09    9.10   1
  -2   5  -9   84.45    9.36   1
  -2   5  -9   91.93    7.27   3
  -3   5  -9    4.59    3.84   3
  -3   5  -9   18.71    5.34   1
  -4   5  -9    5.53    4.78   3
  -4   5  -9    8.17    9.31   1
  -7  -4   9   -4.43    9.40   1
  -6  -4   9   -9.05    8.21   1
  -5  -4   9   29.84    7.24   1
  -5  -4   9   30.69    5.09   3
  -4  -4   9  125.81   11.90   1
   4   4  -9  125.65   11.34   1
  -4  -4   9  119.96    9.80   3
  -3  -4   9  519.62   34.36   3
   3   4  -9  504.60   36.67   1
  -3  -4   9  507.67   36.83   1
  -2  -4   9   17.62    4.46   1
  -2  -4   9   14.43    3.71   3
   2   4  -9    6.81    5.04   1
  -1  -4   9   17.28    5.93   1
   1   4  -9   27.04    5.97   1
   0   4  -9    1.95    3.27   3
   0  -4   9   -2.37    5.27   1
  -1   4  -9   25.17    4.05   4
  -1   4  -9   25.47    6.04   1
  -2   4  -9   -4.78    5.36   1
  -2   4  -9    3.28    5.47   1
  -3   4  -9  144.20   12.40   1
  -3   4  -9  113.39   12.40   1
  -3   4  -9  133.30   10.41   3
  -4   4  -9   50.89    7.79   3
  -4   4  -9   58.76    7.34   1
  -7  -3   9  146.26   15.51   1
  -6  -3   9   92.47   11.15   1
  -5  -3   9  386.11   27.34   3
   5   3  -9  422.33   28.79   1
  -5  -3   9  363.25   29.03   1
  -4  -3   9   47.90    6.25   3
   4   3  -9   44.97    5.61   1
  -4  -3   9   50.86    7.21   1
  -3  -3   9  133.51   11.58   1
  -3  -3   9  129.75   10.18   3
   3   3  -9  117.60   10.94   1
  -2  -3   9    1.43    4.38   1
  -2  -3   9    2.89    4.00   3
  -1  -3   9  311.76   22.64   1
   1   3  -9  300.71   22.44   1
   0   3  -9   54.70    6.12   3
   0   3  -9   61.05    6.70   1
   0  -3   9   49.01    6.61   1
   0   3  -9   57.95    6.33   4
  -1   3  -9  344.49   25.29   3
  -1   3  -9  377.86   26.99   1
  -1   3  -9  400.34   27.15   1
  -1   3  -9  365.85   26.80   4
  -2   3  -9  125.65   11.66   1
  -2   3  -9  128.38   11.71   1
  -2   3  -9  151.33   11.28   3
  -3   3  -9   70.13    8.09   1
  -3   3  -9   63.76    7.85   3
  -3   3  -9   69.43    8.28   1
  -4   3  -9   48.03    5.95   3
  -4   3  -9   41.71    7.42   1
  -7  -2   9   -2.00    7.95   1
   7   2  -9    4.89    7.92   2
  -6  -2   9   28.78    7.73   1
  -5  -2   9  124.13   10.81   1
  -5  -2   9  114.02   10.19   3
   5   2  -9  125.35   10.91   1
   4   2  -9   16.92    8.80   1
  -4  -2   9   23.88    8.03   1
  -4  -2   9   12.98    4.31   3
   3   2  -9  589.34   41.76   1
  -3  -2   9  585.32   41.92   1
  -3  -2   9  607.92   39.87   3
  -2  -2   9   65.90    6.82   1
   2   2  -9   71.32    6.92   1
   1   2  -9  530.29   34.65   1
  -1  -2   9  486.84   34.52   1
   1   2  -9  454.01   32.87   3
   0   2  -9  132.21   10.94   4
   0   2  -9  133.20   10.52   1
   0   2  -9  130.71   10.69   3
   0   2  -9  122.73   10.14   1
  -1   2  -9    9.38    3.78   1
  -1   2  -9    0.90    4.22   3
  -1   2  -9    3.30    3.94   1
  -2   2  -9    2.57    3.75   1
  -2   2  -9   22.29    5.75   3
  -2   2  -9    9.90    4.32   1
  -3   2  -9   40.39    5.93   1
  -3   2  -9   30.66    6.61   1
  -3   2  -9   27.96    5.76   3
  -4   2  -9   36.98    8.17   3
  -4   2  -9   37.63    8.29   1
  -7  -1   9  299.51   23.05   1
   7   1  -9  291.38   21.67   2
  -6  -1   9   33.08    7.48   1
   6   1  -9   27.70    8.06   1
   5   1  -9  697.57   47.77   1
  -5  -1   9  599.04   44.22   3
  -5  -1   9  649.76   45.89   1
   4   1  -9   24.78    5.01   1
  -4  -1   9   19.65    5.44   1
  -4  -1   9   13.54    5.24   3
  -3  -1   9   73.80    7.78   3
   3   1  -9   76.40    7.12   1
  -3  -1   9   69.50    7.27   1
  -2  -1   9  165.45   13.02   1
   2   1  -9  168.56   12.92   1
   2   1  -9  184.43   13.83   3
   1   1  -9  153.84   11.15   1
   1   1  -9  151.38   12.43   4
  -1  -1   9  142.10   11.14   1
   1   1  -9  138.09   11.74   3
   0   1  -9   94.63    7.93   1
   0   1  -9  107.32    9.45   4
   0   1  -9   82.68    8.92   3
   0   1  -9  110.09    8.07   1
  -1   1  -9   99.21    7.81   1
  -1   1  -9   98.00    8.82   3
  -1   1  -9   85.33    7.90   1
  -2   1  -9   15.76    3.91   1
  -2   1  -9   11.03    4.86   3
  -3   1  -9   14.04    4.14   1
  -3   1  -9   11.73    7.57   3
  -4   1  -9   33.21    7.13   3
  -7   0   9  120.85   11.84   1
   7   0  -9  116.04   10.37   2
   6   0  -9   -4.51    4.54   2
  -6   0   9    3.91    7.15   1
   6   0  -9   15.14  103.00   1
  -5   0   9    8.65    5.76   1
   5   0  -9    3.74    5.33   1
   5   0  -9    1.66    5.96   2
  -4   0   9   71.40    8.04   3
  -4   0   9   89.69    8.05   1
   4   0  -9   86.01    7.57   1
   3   0  -9  489.11   37.54   1
  -3   0   9  577.21   37.36   1
   2   0  -9   -6.16    5.54   3
   2   0  -9    6.95    6.38   4
  -2   0   9   -1.90    2.52   1
   1   0  -9  183.69   14.84   4
   1   0  -9  180.06   14.42   3
   0   0  -9   16.46    6.56   3
  -1   0  -9    3.53    6.42   3
  -2   0  -9   20.79    7.08   3
  -2   0  -9   20.38    3.36   1
  -3   0  -9   48.90    9.38   3
  -3   0  -9   32.29    7.04   2
   7  -1  -9  166.51   14.49   2
  -7   1   9  177.24   15.58   1
  -6   1   9    6.59    6.11   1
   6  -1  -9   -4.72    6.12   2
   5  -1  -9  377.59   27.55   2
  -5   1   9  364.46   26.66   1
   5  -1  -9  365.99   28.63   1
   4  -1  -9    0.32    3.46   1
   4  -1  -9    7.63    6.64   2
   3  -1  -9   -1.77    4.95   2
   3  -1  -9    3.99    2.02   1
  -3   1   9    3.26    2.50   1
   2  -1  -9   42.77    7.55   3
   2  -1  -9   37.40    7.66   2
   1  -1  -9   82.89    8.82   2
   1  -1  -9   88.77    9.67   3
   0  -1  -9   37.72    7.12   3
   0  -1  -9   32.74    7.22   2
  -1  -1  -9  281.68   21.07   2
  -1  -1  -9  252.87   20.71   3
  -2  -1  -9    7.02    8.16   2
  -2  -1  -9    8.31    6.16   3
  -3  -1  -9  107.89   12.89   3
  -3  -1  -9  109.80   13.30   2
  -6   2   9   23.00    6.63   1
   5  -2  -9   -4.41    5.52   2
  -5   2   9    3.78    4.04   1
   4  -2  -9  150.20   13.90   2
   3  -2  -9  574.63   40.88   3
   3  -2  -9  611.91   42.85   2
   2  -2  -9   -3.50    6.92   2
   2  -2  -9   -0.28    5.67   3
   1  -2  -9  541.94   36.89   2
   1  -2  -9  467.44   34.94   3
   0  -2  -9   27.08    8.32   3
   0  -2  -9   32.72    9.37   2
  -1  -2  -9   -4.25    6.67   2
  -2  -2  -9    8.33   10.46   2
   5  -3  -9  653.71   47.10   2
   4  -3  -9    8.18    9.18   2
   3  -3  -9   51.91   10.42   3
   3  -3  -9   76.96   11.30   2
   2  -3  -9    1.74    7.32   3
   2  -3  -9   19.53    8.04   2
   1  -3  -9   34.62    9.64   2
   1  -3  -9   34.39    9.16   3
   0  -3  -9   27.30    7.97   2
   0  -3  -9   12.22    8.82   3
   3  -4  -9  245.68   20.97   2
   3  -4  -9  232.87   20.90   3
   2  -4  -9    8.18   10.21   3
  -1  -9  10   77.39   12.09   1
   0  -9  10    9.99   43.27   1
  -3  -8  10    8.59    7.23   1
  -2  -8  10   40.51    7.83   1
  -1  -8  10   76.64   11.04   1
   0  -8  10   23.69    6.93   1
  -1   8 -10  102.88   13.04   1
  -2   8 -10   17.37   14.06   1
  -5  -7  10   15.29   11.52   1
  -4  -7  10    4.88    6.93   1
  -3  -7  10  227.75   20.23   1
  -2  -7  10   52.67    7.61   1
  -1  -7  10   39.62    8.37   1
   0  -7  10    3.85    7.91   1
  -1   7 -10   23.18    8.09   1
  -2   7 -10  103.31   13.20   1
  -5  -6  10  217.50   18.70   1
  -4  -6  10   67.01   11.36   1
  -4  -6  10   62.31    8.56   3
  -3  -6  10    9.04    7.97   1
  -3  -6  10   11.12    4.03   3
  -1  -6  10   68.49    9.21   1
   0  -6  10    4.09    6.84   1
  -1   6 -10  425.99   32.39   1
  -2   6 -10   32.24    7.18   1
  -3   6 -10  161.44   16.17   1
  -6  -5  10   -1.55    9.01   1
  -4  -5  10    1.33    5.24   1
  -4  -5  10   10.56    5.69   3
   3   5 -10  280.77   22.45   1
  -3  -5  10  292.91   22.82   1
  -3  -5  10  298.29   20.68   3
  -2  -5  10   -0.70    6.59   1
   2   5 -10    5.80    5.93   1
   1   5 -10  359.21   26.68   1
  -1  -5  10  359.49   27.01   1
   0   5 -10   18.08    4.52   1
  -1   5 -10   97.70   10.66   1
  -1   5 -10   74.87    7.82   4
  -1   5 -10   97.89    9.28   1
  -2   5 -10   35.57    7.92   1
  -2   5 -10   38.00    4.77   3
  -3   5 -10   20.71    5.17   3
  -6  -4  10   38.39    9.07   1
  -5  -4  10  442.20   32.69   1
  -4  -4  10   27.94    6.49   3
  -4  -4  10   34.35    6.81   1
   4   4 -10   41.57    6.54   1
  -3  -4  10   53.29    6.07   3
  -3  -4  10   57.92    7.75   1
   3   4 -10   50.22    7.08   1
   2   4 -10   12.22    5.62   1
  -2  -4  10   -6.01    6.20   1
  -1  -4  10   11.75    4.53   1
   1   4 -10   12.19    4.59   1
   0   4 -10   93.18    9.57   1
   0   4 -10   92.67    8.80   4
   0   4 -10   85.48    8.59   3
   0  -4  10  103.29   10.08   1
  -1   4 -10  168.25   12.70   3
  -1   4 -10  166.30   14.67   1
  -1   4 -10  179.64   14.70   1
  -2   4 -10   24.45    5.13   1
  -2   4 -10   28.72    7.22   1
  -2   4 -10   23.37    3.95   3
  -3   4 -10  100.29    9.38   1
  -3   4 -10   81.03    9.17   3
  -4   4 -10  107.66   10.78   3
  -4   4 -10  127.70   12.51   1
  -7  -3  10  148.49   14.23   1
  -6  -3  10   31.24    8.74   1
   5   3 -10   10.59    6.78   1
  -5  -3  10   18.23    5.58   1
  -4  -3  10   73.47    9.47   1
   4   3 -10   59.96    8.31   1
  -3  -3  10  125.69   11.79   1
   3   3 -10  132.65   11.58   1
  -3  -3  10  126.82   11.11   3
   2   3 -10   17.68    4.69   1
  -2  -3  10   23.13    6.07   1
   1   3 -10  303.85   23.45   1
  -1  -3  10  336.41   23.73   1
   0   3 -10   83.59    8.17   1
   0   3 -10   68.15    7.46   3
   0   3 -10   72.44    8.27   4
   0   3 -10   74.54    7.56   1
  -1   3 -10  123.36   11.15   1
  -1   3 -10  133.06   11.34   1
  -1   3 -10  122.76   10.65   3
  -2   3 -10   73.52    8.41   1
  -2   3 -10   90.31   10.23   1
  -2   3 -10   85.90    8.52   3
  -3   3 -10   21.61    6.33   3
  -7  -2  10  101.03   13.04   1
  -6  -2  10   41.92    8.92   1
  -5  -2  10  233.09   18.39   1
   5   2 -10  215.86   17.62   1
  -4  -2  10   24.81    5.94   1
  -4  -2  10   25.38    6.31   3
   4   2 -10   19.20    4.74   1
  -3  -2  10  116.44   10.84   3
   3   2 -10  107.95   10.06   1
  -3  -2  10  130.32   10.74   1
   2   2 -10   80.77    7.67   1
  -2  -2  10   77.52    7.57   1
   1   2 -10    7.97    4.11   1
   1   2 -10    6.01    5.11   3
  -1  -2  10   -5.21    4.19   1
   1   2 -10    3.38    4.42   4
   0   2 -10   93.44    8.10   1
   0   2 -10   89.02    8.77   3
   0   2 -10   79.04    7.89   1
   0   2 -10   96.98    9.13   4
  -1   2 -10  135.63   11.96   1
  -1   2 -10  167.10   12.20   1
  -1   2 -10  150.21   12.29   3
  -2   2 -10   27.06    6.50   3
  -2   2 -10   39.42    5.33   1
  -3   2 -10   87.12    8.62   1
  -3   2 -10   75.65   10.22   3
  -7  -1  10  113.84   12.09   1
   6   1 -10    1.58    5.66   2
   5   1 -10  123.02   11.90   1
  -5  -1  10  135.42   11.94   1
  -4  -1  10   65.88    7.78   1
   4   1 -10   56.56    6.17   1
  -3  -1  10  173.29   14.39   1
   3   1 -10  202.05   14.37   1
   2   1 -10   71.58    8.70   3
   2   1 -10   61.70    6.24   1
  -2  -1  10   70.14    6.46   1
   1   1 -10  205.65   14.79   1
   1   1 -10  178.47   14.58   1
   1   1 -10  205.30   15.58   3
   1   1 -10  213.57   16.35   4
   0   1 -10   85.84    7.11   1
   0   1 -10   83.04    7.04   1
   0   1 -10   84.94    8.92   3
  -1   1 -10   65.67    8.63   3
  -1   1 -10   59.51    5.68   1
  -2   1 -10   67.04    8.36   3
  -3   1 -10   14.26    6.52   3
   6   0 -10    3.24    5.70   2
  -6   0  10   29.37    7.67   1
   5   0 -10  360.75   25.75   2
  -5   0  10  322.91   25.32   1
  -4   0  10   72.00    7.24   1
   4   0 -10   59.94    7.08   1
  -3   0  10   21.21    3.93   1
   3   0 -10   29.91    3.89   1
   2   0 -10   30.02    5.56   3
   1   0 -10    8.48    6.39   3
   0   0 -10   20.43    5.57   3
  -1   0 -10   93.66   10.55   3
  -2   0 -10   31.15    9.07   3
  -6   1  10   40.78    7.40   1
   6  -1 -10   47.52    8.62   2
   5  -1 -10   44.46    9.35   2
  -5   1  10   43.92    6.51   1
  -4   1  10   59.47    5.75   1
   4  -1 -10   48.88    7.80   2
   3  -1 -10  110.89   13.03   2
   2  -1 -10   -0.67    5.59   2
   2  -1 -10   -4.46    5.24   3
   1  -1 -10  356.06   25.39   2
   1  -1 -10  299.93   24.10   3
   0  -1 -10   39.94    9.11   3
  -1  -1 -10  203.82   18.09   3
  -1  -1 -10  268.91   20.91   2
   5  -2 -10  370.26   28.45   2
   3  -2 -10  250.44   21.54   2
   2  -2 -10   32.95    8.91   2
   2  -2 -10   29.43    8.75   3
   1  -2 -10   95.93   12.13   3
   1  -2 -10  122.90   13.32   2
   0  -2 -10   -2.12    9.48   3
   0  -2 -10   -0.81    8.31   2
  -2  -8  11   14.13    9.90   1
  -1  -8  11   72.93   11.52   1
   0  -8  11   14.07   10.17   1
  -4  -7  11   49.15   12.15   1
  -3  -7  11   35.49    9.93   1
  -2  -7  11    2.32    8.87   1
  -1  -7  11   41.47    9.07   1
   0  -7  11   25.70    9.32   1
  -1   7 -11   69.08   12.63   1
  -2   7 -11    0.75   11.49   1
  -5  -6  11    1.67   10.57   1
  -3  -6  11    2.68    6.66   3
  -3  -6  11    4.51    9.08   1
  -2  -6  11   25.24    6.67   1
  -1  -6  11  195.90   16.55   1
   0  -6  11   73.98   10.52   1
  -1   6 -11  289.74   23.40   1
  -2   6 -11  109.25   13.45   1
  -5  -5  11  130.48   15.00   1
  -4  -5  11   36.69    9.16   1
  -3  -5  11  118.13   14.76   3
  -3  -5  11  123.93   13.15   1
  -2  -5  11  117.15   11.87   1
  -1  -5  11   45.41    8.04   1
   0   5 -11   13.37    6.14   4
   0   5 -11    2.65    7.88   1
   0   5 -11    0.37    6.94   1
  -1   5 -11   35.39    8.28   1
  -2   5 -11   16.09    5.63   3
  -2   5 -11   34.21    8.69   1
  -6  -4  11   -3.39    8.58   1
  -5  -4  11   78.77   11.03   1
  -4  -4  11    5.65    7.66   1
  -3  -4  11   39.02    8.12   1
  -3  -4  11   29.11    8.06   3
   3   4 -11   21.96    7.36   1
  -2  -4  11   -1.46    6.56   1
   1   4 -11  144.72   12.84   1
  -1  -4  11  148.94   13.40   1
   0   4 -11  132.72   11.15   3
   0   4 -11  141.46   12.23   4
   0   4 -11  121.29   20.23   1
  -1   4 -11  254.04   22.58   1
  -1   4 -11  245.04   17.68   3
  -1   4 -11  241.34   19.43   1
  -2   4 -11  275.20   23.16   3
  -2   4 -11  279.50   21.59   1
  -6  -3  11   36.87    9.80   1
  -5  -3  11  139.47   13.56   1
  -4  -3  11   25.03    8.06   1
  -3  -3  11  107.25   10.13   1
   3   3 -11  109.13   10.22   1
  -2  -3  11  162.75   13.87   1
   2   3 -11  155.12   13.21   1
   1   3 -11  113.45   10.52   1
   1   3 -11  107.60   11.29   4
  -1  -3  11  106.34   10.67   1
   0   3 -11  134.57   11.99   4
   0   3 -11  106.81   11.10   3
   0   3 -11  145.47   11.93   1
   0   3 -11  142.21   11.74   1
  -1   3 -11   24.55    6.01   3
  -1   3 -11   24.98    5.70   1
  -2   3 -11   18.28    5.28   1
  -2   3 -11   31.97    6.86   3
  -5  -2  11  192.20   16.72   1
   5   2 -11  187.12   16.41   1
  -4  -2  11   94.31   10.42   1
   4   2 -11   98.68   10.32   1
  -3  -2  11   13.89    5.63   1
   2   2 -11   48.06    5.96   1
  -2  -2  11   40.72    5.93   1
   1   2 -11  183.23   13.84   3
   1   2 -11  173.13   16.05   1
   0   2 -11   24.66    6.86   3
   0   2 -11   34.97    4.61   1
  -1   2 -11  179.81   14.68   1
  -1   2 -11  201.08   15.66   3
  -2   2 -11  243.28   18.92   3
   6   1 -11    4.50    6.36   2
  -5  -1  11  126.95   11.58   1
  -4  -1  11    5.41    4.86   1
  -3  -1  11   94.91    8.82   1
   2   1 -11   13.51    4.82   3
   1   1 -11   86.80    9.80   3
   1   1 -11   84.70    7.31   1
   0   1 -11   34.99    7.92   3
  -1   1 -11    3.49    7.56   3
  -5   0  11  107.70   11.24   1
   5   0 -11  111.01   12.02   2
   4   0 -11   -5.65    7.44   2
   2   0 -11    6.52    8.05   3
   1   0 -11   49.46    9.28   3
   0   0 -11   47.18    9.26   3
  -1   0 -11  231.76   18.11   3
   3  -1 -11  160.32   16.51   2
   2  -1 -11   31.38    8.79   2
   2  -1 -11   23.14    6.37   3
   1  -1 -11  212.27   17.81   3
   1  -1 -11  226.32   18.81   2
  -2  -7  12   62.36   11.76   1
  -1  -7  12   95.70   12.02   1
   0   7 -12   16.97   11.16   1
  -4  -6  12   11.02   10.06   1
  -3  -6  12  215.03   19.51   1
  -2  -6  12   50.62    8.08   1
  -1  -6  12  176.70   16.33   1
   0   6 -12  127.94   15.08   1
  -4  -5  12   75.56   12.29   1
  -3  -5  12   65.03   10.43   1
  -2  -5  12  103.71   12.42   1
  -1  -5  12   49.80    8.57   1
   0   5 -12   -1.83    7.45   1
  -1   5 -12   75.52   13.31   1
  -5  -4  12   -1.69    8.61   1
  -4  -4  12   -2.32    8.48   1
  -3  -4  12   99.88   11.43   1
   2   4 -12   24.03    7.71   1
  -2  -4  12    8.03    7.37   1
  -1  -4  12  184.73   16.51   1
   0   4 -12   79.61   10.23   1
  -1   4 -12   34.36    8.87   1
  -5  -3  12  170.17   15.90   1
  -4  -3  12   66.77   10.38   1
  -3  -3  12   71.08    9.46   1
  -2  -3  12  105.93   10.24   1
   1   3 -12   44.75    6.82   1
  -1   3 -12  216.79   17.43   3
  -5  -2  12    6.00    8.68   1
  -4  -2  12   13.72    7.12   1
  -3  -2  12   96.06   10.31   1
  -2  -2  12   24.09    6.20   1
   1   2 -12  255.43   19.65   3
   0   2 -12  123.68   12.30   3
   1   1 -12    9.66    8.35   3
   0   1 -12   30.74    9.57   3
   3   0 -12   76.98   12.81   2
   2   0 -12   50.04   11.29   3
  -2  -5  13    0.57    7.72   1
  -3  -4  13   45.41    9.59   1
  -2  -4  13  196.09   17.60   1
   0   0   0    0.00    0.00
;
_shelx_hkl_checksum              6787
#END Tags that were not found in dictionaries
loop_
_space_group_symop_operation_xyz
'x, y, z'
'-x, -y, -z'
loop_
_atom_site_label
_atom_site_type_symbol
_atom_site_fract_x
_atom_site_fract_y
_atom_site_fract_z
_atom_site_U_iso_or_equiv
_atom_site_adp_type
_atom_site_occupancy
_atom_site_site_symmetry_order
_atom_site_calc_flag
_atom_site_refinement_flags_posn
_atom_site_refinement_flags_adp
_atom_site_refinement_flags_occupancy
_atom_site_disorder_assembly
_atom_site_disorder_group
V1 V -0.17391(7) 0.41924(7) 0.34040(5) 0.01456(14) Uani 1 1 d . . . . .
P1 P 0.30159(10) 0.36192(11) 0.40477(8) 0.01560(17) Uani 1 1 d . . . . .
O1 O -0.2150(4) 0.2178(3) 0.4987(2) 0.0269(5) Uani 1 1 d . . . . .
O2 O -0.0814(3) 0.6754(3) 0.0881(2) 0.0201(4) Uani 1 1 d . . . . .
O3 O 0.1414(3) 0.4801(3) 0.3139(2) 0.0213(4) Uani 1 1 d . . . . .
O4 O 0.2537(3) 0.3617(3) 0.5763(2) 0.0222(4) Uani 1 1 d . . . . .
O5 O -0.0642(3) 0.2794(3) 0.1751(2) 0.0194(4) Uani 1 1 d . . . . .
O7 O 0.5335(3) 0.4364(4) 0.2978(2) 0.0299(5) Uani 1 1 d . . . . .
C1 C -0.0063(4) 0.6141(4) -0.0240(3) 0.0161(5) Uani 1 1 d . . . . .
O91 O 0.3758(4) 0.0155(4) 0.8111(3) 0.0367(6) Uani 1 1 d D . . . .
N1 N 0.2032(5) 0.9232(4) 0.1619(3) 0.0301(6) Uani 1 1 d D . . . .
O92 O 0.5095(12) 0.6392(10) -0.0253(8) 0.051(2) Uiso 0.445(10) 1 d D . P . .
H1 H 0.291(6) 0.170(5) 0.428(4) 0.023(9) Uiso 1 1 d . . . . .
H2W1 H 0.342(7) 0.134(4) 0.739(4) 0.046(13) Uiso 1 1 d D . . . .
H4N H 0.320(6) 0.944(8) 0.192(6) 0.056(14) Uiso 1 1 d D . . . .
H1W1 H 0.320(10) -0.076(7) 0.785(7) 0.083(19) Uiso 1 1 d D . . . .
H2N H 0.179(9) 0.789(3) 0.208(5) 0.063(15) Uiso 1 1 d D . . . .
H1N H 0.242(8) 0.959(6) 0.052(2) 0.060(15) Uiso 1 1 d D . . . .
H3N H 0.106(10) 1.010(8) 0.187(6) 0.11(3) Uiso 1 1 d D . . . .
H1W2 H 0.4441 0.7358 -0.0825 0.050 Uiso 0.445(10) 1 d D U P . .
H2W2 H 0.5876 0.6963 0.0094 0.050 Uiso 0.445(10) 1 d D U P . .
loop_
_atom_site_aniso_label
_atom_site_aniso_U_11
_atom_site_aniso_U_22
_atom_site_aniso_U_33
_atom_site_aniso_U_23
_atom_site_aniso_U_13
_atom_site_aniso_U_12
V1 0.0088(2) 0.0249(3) 0.0100(2) -0.00794(17) -0.00083(14) -0.00047(16)
P1 0.0095(3) 0.0252(4) 0.0153(3) -0.0122(3) -0.0024(2) 0.0018(2)
O1 0.0279(12) 0.0301(12) 0.0164(9) -0.0041(8) -0.0023(8) -0.0044(9)
O2 0.0215(10) 0.0250(10) 0.0158(8) -0.0121(7) -0.0031(7) 0.0037(8)
O3 0.0112(9) 0.0334(11) 0.0197(9) -0.0104(8) -0.0043(7) -0.0009(8)
O4 0.0220(10) 0.0312(11) 0.0148(9) -0.0117(8) -0.0044(7) 0.0050(8)
O5 0.0230(10) 0.0225(10) 0.0115(8) -0.0081(7) -0.0005(7) -0.0012(8)
O7 0.0095(10) 0.0611(16) 0.0190(9) -0.0163(10) -0.0021(7) -0.0007(9)
C1 0.0119(12) 0.0230(14) 0.0130(11) -0.0071(9) -0.0021(8) -0.0015(9)
O91 0.0327(14) 0.0415(15) 0.0327(13) -0.0093(11) -0.0098(10) -0.0052(11)
N1 0.0315(15) 0.0284(15) 0.0271(13) -0.0052(11) -0.0103(11) -0.0014(11)
loop_
_atom_type_symbol
_atom_type_description
_atom_type_scat_dispersion_real
_atom_type_scat_dispersion_imag
_atom_type_scat_source
C C 0.0033 0.0016 'International Tables Vol C Tables 4.2.6.8 and 6.1.1.4'
H H 0.0000 0.0000 'International Tables Vol C Tables 4.2.6.8 and 6.1.1.4'
O O 0.0106 0.0060 'International Tables Vol C Tables 4.2.6.8 and 6.1.1.4'
P P 0.1023 0.0942 'International Tables Vol C Tables 4.2.6.8 and 6.1.1.4'
V V 0.3005 0.5294 'International Tables Vol C Tables 4.2.6.8 and 6.1.1.4'
N N 0.0061 0.0033 'International Tables Vol C Tables 4.2.6.8 and 6.1.1.4'
loop_
_geom_angle_atom_site_label_1
_geom_angle_atom_site_label_2
_geom_angle_atom_site_label_3
_geom_angle
_geom_angle_site_symmetry_1
_geom_angle_site_symmetry_3
O1 V1 O4 105.08(10) . 2_566
O1 V1 O7 100.15(11) . 1_455
O4 V1 O7 89.25(9) 2_566 1_455
O1 V1 O3 98.50(10) . .
O4 V1 O3 87.56(9) 2_566 .
O7 V1 O3 161.27(9) 1_455 .
O1 V1 O5 95.52(10) . .
O4 V1 O5 159.39(8) 2_566 .
O7 V1 O5 87.80(9) 1_455 .
O3 V1 O5 88.72(8) . .
O1 V1 O2 169.87(10) . .
O4 V1 O2 84.75(7) 2_566 .
O7 V1 O2 82.12(8) 1_455 .
O3 V1 O2 79.21(8) . .
O5 V1 O2 74.64(7) . .
O7 P1 O3 108.58(12) . .
O7 P1 O4 113.71(12) . .
O3 P1 O4 113.53(12) . .
O7 P1 H1 105.1(16) . .
O3 P1 H1 110.9(16) . .
O4 P1 H1 104.6(15) . .
C1 O2 V1 112.64(17) . .
P1 O3 V1 131.58(13) . .
P1 O4 V1 131.45(13) . 2_566
C1 O5 V1 119.50(17) 2_565 .
P1 O7 V1 134.14(13) . 1_655
O2 C1 O5 126.8(3) . 2_565
O2 C1 C1 117.1(3) . 2_565
O5 C1 C1 116.0(3) 2_565 2_565
H2W1 O91 H1W1 101(5) . .
H4N N1 H2N 104(4) . .
H4N N1 H1N 110(4) . .
H2N N1 H1N 107(2) . .
H4N N1 H3N 104(5) . .
H2N N1 H3N 124(5) . .
H1N N1 H3N 108(3) . .
H1W2 O92 H2W2 105.1(7) . .
loop_
_geom_bond_atom_site_label_1
_geom_bond_atom_site_label_2
_geom_bond_distance
_geom_bond_site_symmetry_2
V1 O1 1.590(2) .
V1 O4 1.992(2) 2_566
V1 O7 2.006(2) 1_455
V1 O3 2.015(2) .
V1 O5 2.0832(18) .
V1 O2 2.295(2) .
P1 O7 1.519(2) .
P1 O3 1.520(2) .
P1 O4 1.5325(19) .
P1 H1 1.32(4) .
O2 C1 1.243(3) .
O4 V1 1.992(2) 2_566
O5 C1 1.269(3) 2_565
O7 V1 2.006(2) 1_655
C1 O5 1.269(3) 2_565
C1 C1 1.536(5) 2_565
O91 H2W1 0.918(19) .
O91 H1W1 0.91(2) .
N1 H4N 0.910(19) .
N1 H2N 0.899(19) .
N1 H1N 0.906(18) .
N1 H3N 0.896(19) .
O92 H1W2 0.863(7) .
O92 H2W2 0.866(7) .
loop_
_geom_hbond_atom_site_label_D
_geom_hbond_atom_site_label_H
_geom_hbond_atom_site_label_A
_geom_hbond_distance_DH
_geom_hbond_distance_HA
_geom_hbond_distance_DA
_geom_hbond_angle_DHA
_geom_hbond_site_symmetry_A
O91 H2W1 O4 0.918(19) 1.94(2) 2.851(3) 172(4) .
O91 H1W1 O5 0.91(2) 2.13(4) 2.961(3) 151(5) 2_556
N1 H4N O91 0.910(19) 1.98(2) 2.853(4) 161(4) 2_666
N1 H1N O91 0.906(18) 2.037(19) 2.934(4) 171(4) 1_564
N1 H2N O3 0.899(19) 2.063(19) 2.961(4) 177(5) .
N1 H3N O5 0.896(19) 2.14(3) 3.007(4) 163(6) 1_565
O92 H1W2 O91 0.863(7) 1.958(3) 2.769(7) 155.9(5) 1_564
O92 H2W2 O2 0.866(7) 2.408(2) 3.151(7) 144.2(5) 1_655
loop_
_geom_torsion_atom_site_label_1
_geom_torsion_atom_site_label_2
_geom_torsion_atom_site_label_3
_geom_torsion_atom_site_label_4
_geom_torsion
_geom_torsion_site_symmetry_1
_geom_torsion_site_symmetry_2
_geom_torsion_site_symmetry_3
_geom_torsion_site_symmetry_4
O7 P1 O3 V1 158.96(16) . . . .
O4 P1 O3 V1 -73.52(19) . . . .
O7 P1 O4 V1 81.1(2) . . . 2_566
O3 P1 O4 V1 -43.7(2) . . . 2_566
O3 P1 O7 V1 160.84(19) . . . 1_655
O4 P1 O7 V1 33.4(3) . . . 1_655
V1 O2 C1 O5 -177.9(2) . . . 2_565
V1 O2 C1 C1 1.3(4) . . . 2_565
