#------------------------------------------------------------------------------
#$Date: 2019-11-17 08:12:14 +0200 (Sun, 17 Nov 2019) $
#$Revision: 228818 $
#$URL: file:///home/coder/svn-repositories/cod/cif/1/54/90/1549044.cif $
#------------------------------------------------------------------------------
#
# This file is available in the Crystallography Open Database (COD),
# http://www.crystallography.net/
#
# All data on this site have been placed in the public domain by the
# contributors.
#
data_1549044
loop_
_publ_author_name
'Nievergelt, Philipp P.'
'Babor, Martin'
'\<Cejka, Jan'
'Spingler, Bernhard'
_publ_section_title
;
 A high throughput screening method for the nano-crystallization of salts
 of organic cations.
;
_journal_issue                   15
_journal_name_full               'Chemical science'
_journal_page_first              3716
_journal_page_last               3722
_journal_paper_doi               10.1039/c8sc00783g
_journal_volume                  9
_journal_year                    2018
_chemical_absolute_configuration rmad
_chemical_formula_sum            'C10 H16 I N O'
_chemical_formula_weight         293.14
_space_group_crystal_system      monoclinic
_space_group_IT_number           4
_space_group_name_Hall           'P 2yb'
_space_group_name_H-M_alt        'P 1 21 1'
_symmetry_space_group_name_Hall  'P 2yb'
_symmetry_space_group_name_H-M   'P 1 21 1'
_atom_sites_solution_hydrogens   geom
_audit_creation_method           SHELXL-2014/7
_audit_update_record
;
2017-11-15 deposited with the CCDC.
2018-03-06 downloaded from the CCDC.
;
_cell_angle_alpha                90
_cell_angle_beta                 95.864(3)
_cell_angle_gamma                90
_cell_formula_units_Z            2
_cell_length_a                   5.40542(18)
_cell_length_b                   6.94898(18)
_cell_length_c                   16.0701(4)
_cell_measurement_reflns_used    4194
_cell_measurement_temperature    160(2)
_cell_measurement_theta_max      73.415
_cell_measurement_theta_min      5.513
_cell_volume                     600.47(3)
_computing_cell_refinement       'CrysAlis PRO (Rigaku, 2015)'
_computing_data_collection       'CrysAlis PRO (Rigaku, 2015)'
_computing_data_reduction        'CrysAlis PRO (Rigaku, 2015)'
_computing_molecular_graphics    'ORTEP-3 (Farrugia, 1997)'
_computing_publication_material  'SHELXL-2014/7 (Sheldrick, 2014)'
_computing_structure_refinement  'SHELXL-2014/7 (Sheldrick, 2014)'
_computing_structure_solution    'SHELXT-2014 (Sheldrick, 2014)'
_diffrn_ambient_temperature      160(2)
_diffrn_measured_fraction_theta_full 0.978
_diffrn_measured_fraction_theta_max 0.973
_diffrn_measurement_device_type  'XtaLAB Synergy, Dualflex, Pilatus 200K'
_diffrn_measurement_method       '\w scans'
_diffrn_radiation_source         'micro-focus sealed X-ray tube'
_diffrn_radiation_type           CuK\a
_diffrn_radiation_wavelength     1.54184
_diffrn_reflns_av_R_equivalents  0.0330
_diffrn_reflns_av_unetI/netI     0.0286
_diffrn_reflns_Laue_measured_fraction_full 0.978
_diffrn_reflns_Laue_measured_fraction_max 0.973
_diffrn_reflns_limit_h_max       5
_diffrn_reflns_limit_h_min       -6
_diffrn_reflns_limit_k_max       8
_diffrn_reflns_limit_k_min       -8
_diffrn_reflns_limit_l_max       19
_diffrn_reflns_limit_l_min       -19
_diffrn_reflns_number            7652
_diffrn_reflns_point_group_measured_fraction_full 0.953
_diffrn_reflns_point_group_measured_fraction_max 0.939
_diffrn_reflns_theta_full        67.684
_diffrn_reflns_theta_max         74.157
_diffrn_reflns_theta_min         5.535
_exptl_absorpt_coefficient_mu    20.679
_exptl_absorpt_correction_T_max  0.993
_exptl_absorpt_correction_T_min  0.215
_exptl_absorpt_correction_type   gaussian
_exptl_absorpt_process_details
;
CrysAlisPro 1.171.38.43c (Rigaku Oxford Diffraction, 2015)
Numerical absorption correction based on gaussian integration over
            a multifaceted crystal model
Empirical absorption correction using spherical harmonics,
 implemented in SCALE3 ABSPACK scaling algorithm.
;
_exptl_crystal_colour            colourless
_exptl_crystal_density_diffrn    1.621
_exptl_crystal_description       plate
_exptl_crystal_F_000             288
_exptl_crystal_recrystallization_method 'Vapour diffusion'
_exptl_crystal_size_max          0.250
_exptl_crystal_size_mid          0.060
_exptl_crystal_size_min          0.011
_refine_diff_density_max         0.299
_refine_diff_density_min         -0.690
_refine_diff_density_rms         0.069
_refine_ls_abs_structure_details
;
 Flack x determined using 901 quotients [(I+)-(I-)]/[(I+)+(I-)]
 (Parsons, Flack and Wagner, Acta Cryst. B69 (2013) 249-259).
;
_refine_ls_abs_structure_Flack   -0.018(10)
_refine_ls_extinction_method     none
_refine_ls_goodness_of_fit_ref   1.075
_refine_ls_hydrogen_treatment    constr
_refine_ls_matrix_type           full
_refine_ls_number_parameters     121
_refine_ls_number_reflns         2282
_refine_ls_number_restraints     1
_refine_ls_restrained_S_all      1.074
_refine_ls_R_factor_all          0.0278
_refine_ls_R_factor_gt           0.0254
_refine_ls_shift/su_max          0.001
_refine_ls_shift/su_mean         0.000
_refine_ls_structure_factor_coef Fsqd
_refine_ls_weighting_details
'w=1/[\s^2^(Fo^2^)+(0.0298P)^2^+0.7076P] where P=(Fo^2^+2Fc^2^)/3'
_refine_ls_weighting_scheme      calc
_refine_ls_wR_factor_gt          0.0629
_refine_ls_wR_factor_ref         0.0642
_reflns_Friedel_coverage         0.777
_reflns_Friedel_fraction_full    0.924
_reflns_Friedel_fraction_max     0.898
_reflns_number_gt                2164
_reflns_number_total             2282
_reflns_threshold_expression     'I > 2\s(I)'
_cod_data_source_file            c8sc00783g2.cif
_cod_data_source_block           PN050916o_10442_A3_D2_eph_I
_cod_depositor_comments
'Adding full bibliography for 1549042--1549063.cif.'
_cod_database_code               1549044
_shelx_shelxl_version_number     2014/7
_shelx_space_group_comment
;
The symmetry employed for this shelxl refinement is uniquely defined
by the following loop, which should always be used as a source of
symmetry information in preference to the above space-group names.
They are only intended as comments.
;
_shelx_estimated_absorpt_t_min   0.079
_shelx_estimated_absorpt_t_max   0.804
_shelx_res_file
;

    PN050916o_10442_A3_D2_eph_I.res created by SHELXL-2014/7


TITL     TEST STRUCTURE C:\DATA\BSP\PN050916O_10442_A3_D2_EPH_I\PN050916O_10442_
CELL  1.54184  5.40542  6.94898 16.07010 90.00000 95.86420 90.00000
ZERR 2  0.00018  0.00018  0.00043  0.00000  0.00260  0.00000
LATT -1
SYMM -X, Y+ 0.50000, -Z
SFAC C H N O I
UNIT 20 32 2 2 2
LIST 4 ! automatically inserted. Change 6 to 4 for CHECKCIF!!
TEMP -113
SIZE 0.011 0.06 0.25
REM colourless plate
PLAN 30
FMAP 2
L.S. 4
BOND $H
CONF
ACTA
HTAB
WGHT    0.029800    0.707600
FVAR       8.10335
C1    1    0.686972    1.184622    0.736339    11.00000    0.02540    0.02441 =
         0.02753   -0.00280    0.00398    0.00178
AFIX  13
H1    2    0.603214    1.092429    0.694762    11.00000   -1.20000
AFIX   0
C2    1    0.550487    1.376660    0.727859    11.00000    0.03064    0.03003 =
         0.02832   -0.00083    0.00688    0.00349
AFIX  13
H2    2    0.371737    1.355134    0.736149    11.00000   -1.20000
AFIX   0
C3    1    0.657322    1.529216    0.789959    11.00000    0.06722    0.02737 =
         0.04017   -0.00616    0.00862    0.00286
AFIX 137
H3A   2    0.620480    1.494117    0.846456    11.00000   -1.50000
H3B   2    0.582155    1.654336    0.774764    11.00000   -1.50000
H3C   2    0.837842    1.537025    0.788480    11.00000   -1.50000
AFIX   0
C4    1    0.475227    1.330654    0.570173    11.00000    0.05719    0.04210 =
         0.03121   -0.00008   -0.00050   -0.00093
AFIX 137
H4C   2    0.466044    1.403767    0.517801    11.00000   -1.50000
H4B   2    0.309758    1.281425    0.578639    11.00000   -1.50000
H4A   2    0.590594    1.222628    0.567304    11.00000   -1.50000
AFIX   0
C5    1    0.680436    1.100982    0.823523    11.00000    0.03044    0.02580 =
         0.02925   -0.00256    0.01025    0.00752
C6    1    0.475170    0.997131    0.841186    11.00000    0.03174    0.02766 =
         0.03608    0.00154    0.00480    0.00159
AFIX  43
H6    2    0.341171    0.979432    0.798821    11.00000   -1.20000
AFIX   0
C7    1    0.460765    0.918056    0.919656    11.00000    0.04174    0.03517 =
         0.04571    0.00992    0.01613    0.00632
AFIX  43
H7    2    0.317465    0.847844    0.931279    11.00000   -1.20000
AFIX   0
C8    1    0.657827    0.942516    0.981057    11.00000    0.06236    0.04452 =
         0.03023    0.00841    0.01196    0.02267
AFIX  43
H8    2    0.651591    0.885710    1.034573    11.00000   -1.20000
AFIX   0
C9    1    0.861210    1.048059    0.964948    11.00000    0.03950    0.05439 =
         0.03221   -0.00372    0.00015    0.00881
AFIX  43
H9    2    0.993847    1.066986    1.007691    11.00000   -1.20000
AFIX   0
C10   1    0.874191    1.127992    0.885819    11.00000    0.03262    0.03857 =
         0.03281   -0.00221   -0.00049    0.00247
AFIX  43
H10   2    1.015804    1.200878    0.874682    11.00000   -1.20000
AFIX   0
N1    3    0.565588    1.458907    0.641472    11.00000    0.02751    0.02796 =
         0.03598    0.00306    0.00590    0.00617
AFIX  23
H1A   2    0.475737    1.569834    0.636988    11.00000   -1.20000
H1B   2    0.726855    1.490117    0.636397    11.00000   -1.20000
AFIX   0
O1    4    0.933345    1.220093    0.714983    11.00000    0.02396    0.03289 =
         0.04047   -0.00056    0.01026    0.00484
AFIX 147
H1C   2    0.995259    1.116915    0.699434    11.00000   -1.50000
AFIX   0
I1    5    1.076020    0.792472    0.617312    11.00000    0.02992    0.03183 =
         0.03832   -0.00281    0.00350    0.00267
HKLF 4

REM      TEST STRUCTURE C:\DATA\BSP\PN050916O_10442_A3_D2_EPH_I\PN050916O_10442_
REM R1 =  0.0254 for    2164 Fo > 4sig(Fo)  and  0.0278 for all    2282 data
REM    121 parameters refined using      1 restraints

END

WGHT      0.0298      0.7074

REM Instructions for potential hydrogen bonds
EQIV $1 x-1, y, z
HTAB C2 O1_$1
EQIV $2 x-1, y+1, z
HTAB N1 I1_$2
EQIV $3 x, y+1, z
HTAB N1 I1_$3
HTAB O1 I1

REM Highest difference peak  0.299,  deepest hole -0.690,  1-sigma level  0.069
Q1    1   0.8166  0.7984  0.6389  11.00000  0.05    0.30
Q2    1   0.6239  1.7905  0.6185  11.00000  0.05    0.28
Q3    1   1.2225  1.2969  0.8537  11.00000  0.05    0.28
Q4    1   1.1381  0.7070  0.5656  11.00000  0.05    0.26
Q5    1   0.9150  0.7324  0.5715  11.00000  0.05    0.26
Q6    1   1.0033  0.8707  0.6733  11.00000  0.05    0.25
Q7    1   1.1263  0.6039  0.6389  11.00000  0.05    0.25
Q8    1   1.0230  0.9785  0.5863  11.00000  0.05    0.25
Q9    1   0.9098  0.8684  0.5721  11.00000  0.05    0.24
Q10   1   0.9490  1.1151  0.5698  11.00000  0.05    0.23
Q11   1   1.0019  0.6164  0.5746  11.00000  0.05    0.23
Q12   1   0.9971  0.6945  0.6745  11.00000  0.05    0.23
Q13   1   0.0030  1.2019  0.5197  11.00000  0.05    0.23
Q14   1   0.2477  1.5180  0.6238  11.00000  0.05    0.23
Q15   1   0.9564  0.7968  0.6989  11.00000  0.05    0.23
Q16   1   1.1373  0.8823  0.5673  11.00000  0.05    0.23
Q17   1   1.0798  0.6504  0.6847  11.00000  0.05    0.23
Q18   1   0.2424  1.0661  0.6237  11.00000  0.05    0.22
Q19   1   0.0749  1.2982  0.5326  11.00000  0.05    0.22
Q20   1   1.1280  0.9801  0.6403  11.00000  0.05    0.22
Q21   1   1.1038  0.9402  0.6798  11.00000  0.05    0.22
Q22   1   1.2402  0.6996  0.6630  11.00000  0.05    0.21
Q23   1   1.2093  0.8088  0.6623  11.00000  0.05    0.21
Q24   1   1.0879  0.9920  0.6156  11.00000  0.05    0.21
Q25   1   0.9118  1.8020  0.8065  11.00000  0.05    0.21
Q26   1   1.0187  1.7242  0.8063  11.00000  0.05    0.21
Q27   1   1.0250  1.1046  0.6134  11.00000  0.05    0.20
Q28   1   0.4798  1.8247  0.6645  11.00000  0.05    0.20
Q29   1   1.0900  0.5648  0.5178  11.00000  0.05    0.20
Q30   1   0.7441  1.2770  0.5659  11.00000  0.05    0.20
;
_shelx_res_checksum              73692
_shelx_hkl_file
;
   0  -8   0 24820.0 1596.57  12
   0  -8   0 25094.1 1803.24  11
   0  -8   1 12553.9 1149.60  12
   0  -8  -1 12188.0 1230.96  12
   0  -8   1 11821.7 1276.26  11
   0  -8  -1 12982.0 1382.88  11
   0  -8  -2 742.159 738.852  11
   0  -8   2 840.599 650.744  11
   0  -8   2 1595.72 537.313  12
   0  -8  -2 1842.52 732.656  12
   0  -8  -3 10499.1 1397.35  11
   0  -8   3 12129.0 1254.19  11
   0  -8  -3 11945.6 1260.10  12
   0  -8   3 10804.8 992.114  12
   0  -8   4 17771.1 1199.91  12
   0  -8  -4 17054.8 1741.86  11
   0  -8   4 23742.5 1655.85  11
   0  -8  -4 21637.2 1697.72  12
   0  -8  -5 20282.2 1752.56  12
   0  -8   5 20201.8 1559.34  11
   0  -8  -6 5300.67 1072.22  11
   0  -8   6 3280.21 990.368  11
   0  -8  -6 1540.42 1171.55  12
   0  -8   6 3638.00 924.574  14
   0  -8   7 7750.04 1025.24  11
   0  -8  -7 8850.18 1142.76  12
   0  -8   7 7048.02 825.379  14
   0  -7   0-318.356 946.824  12
   0  -7   0 389.099 1018.22  11
   0  -7   1 36606.7 2376.07  12
   0  -7  -1 37402.9 2493.22  12
   0  -7  -1 34642.5 2596.46  11
   0  -7   1 32775.1 2479.15  11
   0  -7   2 63772.8 3011.69  12
   0  -7   2 61884.8 3207.65  11
   0  -7  -2 62366.6 3215.10  12
   0  -7  -2 54186.9 3235.29  11
   0  -7  -3 30004.8 2370.20  12
   0  -7  -3 27161.9 2399.32  11
   0  -7   3 26201.7 1972.44  12
   0  -7   3 28569.0 2237.56  11
   0  -7   4 1164.81 901.639  11
   0  -7  -4-1869.66 1099.92  12
   0  -7  -4 1403.78 1079.54  11
   0  -7   4 342.526 645.600  12
   0  -7  -5 3432.86 1222.16  12
   0  -7   5 2813.30 993.114  11
   0  -7   5 2118.98 716.579  12
   0  -7  -6 43551.2 3083.15  12
   0  -7   6 34080.4 2010.56  12
   0  -7   6 39283.4 2449.61  11
   0  -7   7 26107.3 1763.93  12
   0  -7   7 31818.9 2289.85  11
   0  -7  -7 33921.4 3071.50  12
   0  -7   8 5101.62 1365.32  14
   0  -7   8 7650.66 1488.65  11
   0  -7   9 2878.94 969.340  11
   0  -7  -9 4280.42 1295.41  12
   0  -7   9 2941.10 944.162  14
   0  -7 -10 23768.7 1749.54  12
   0  -7  10 25459.6 1549.96  11
   0  -7  10 25680.9 1486.23  14
   0  -7  11 24346.2 1173.92  14
   0  -7  11 25111.7 1184.22  11
   0  -7 -11 23867.5 1414.78  12
   0  -6   0 96164.0 4778.20   3
   0  -6   0 84257.0 4043.91  11
   0  -6   0 83439.1 3727.23  12
   0  -6   1 49991.1 3477.45   3
   0  -6  -1 47353.8 3353.65   3
   0  -6  -1 47268.2 2915.79  12
   0  -6   1 43139.6 2722.58  12
   0  -6   1 45990.3 2986.87  11
   0  -6  -2 8102.07 1458.15  12
   0  -6   2 8685.16 1383.45  12
   0  -6   2 7721.90 1486.08  11
   0  -6   3 30997.2 2245.72  12
   0  -6   3 29189.0 2360.77  11
   0  -6  -3 32502.4 2567.37  12
   0  -6   4 137256. 4425.47  12
   0  -6  -4 138630. 5164.18  12
   0  -6   4 138719. 4829.63  11
   0  -6   5 72891.0 3198.82  12
   0  -6  -5 72392.6 3852.02  12
   0  -6   5 62929.0 3339.30  11
   0  -6   6 513.344 860.669  11
   0  -6   6 973.485 728.816  12
   0  -6  -6 469.810 1138.73  12
   0  -6   7 19626.4 1740.14  12
   0  -6  -7 22295.0 2659.06  12
   0  -6   7 21373.4 2069.30  11
   0  -6   8 55284.6 3259.64  11
   0  -6   8 50869.5 2768.81  12
   0  -6  -8 55264.4 4397.38  12
   0  -6   9 26953.6 2699.97  14
   0  -6   9 30037.9 2537.31  12
   0  -6   9 28097.3 2724.42  11
   0  -6  10 6815.24 1566.82  14
   0  -6 -10 7676.67 1824.23  12
   0  -6  10 7173.97 1746.15  11
   0  -6 -11 5090.05 1259.04  12
   0  -6  11 4324.95 986.131  14
   0  -6  11 3950.63 1066.11  11
   0  -6 -12 13445.5 1479.85  12
   0  -6  12 15041.5 1287.95  14
   0  -6  12 13744.8 1169.83  11
   0  -6  13 29344.6 1445.57  14
   0  -6  13 29336.9 1376.42  11
   0  -6 -13 28663.2 1666.31  12
   0  -6  14 9044.31 700.506  14
   0  -5   0-563.341 720.727   3
   0  -5   0 234.523 751.897  12
   0  -5  -1 88074.5 3605.53  12
   0  -5  -1 90940.7 4166.86   3
   0  -5   1 96861.4 4426.14   3
   0  -5   1 89873.9 3514.68  12
   0  -5  -2 165867. 5559.36   3
   0  -5   2 168355. 5963.87   3
   0  -5   2 161981. 4991.42  11
   0  -5   2 155953. 4564.02  12
   0  -5  -2 159848. 4911.44  12
   0  -5  -3 52312.1 3148.07   3
   0  -5  -3 48368.2 2856.00  12
   0  -5   3 49145.6 2580.05  12
   0  -5   3 49637.7 2836.12  11
   0  -5   3 56693.9 3572.37   3
   0  -5   4 4779.04 1144.73   3
   0  -5   4 6022.04 1252.78  11
   0  -5   4 4251.68 1082.01  12
   0  -5  -4 5153.63 1126.84   3
   0  -5  -4 3931.97 1172.25  12
   0  -5  -5 18143.1 2148.32  21
   0  -5   5 17723.9 1764.51  11
   0  -5  -5 18846.0 1929.48   3
   0  -5  -5 18019.7 1975.14  12
   0  -5   5 18068.5 1624.94  12
   0  -5   5 19794.5 2215.98   3
   0  -5  -6 73237.5 3705.31   3
   0  -5   6 65165.3 4264.04   3
   0  -5  -6 61164.1 3983.74  21
   0  -5   6 62443.6 2870.80  12
   0  -5   6 65353.4 3244.16  11
   0  -5   7 104288. 4127.01  11
   0  -5   7 101914. 5765.32   3
   0  -5  -7 100063. 5358.39  21
   0  -5   7 99281.8 3622.14  12
   0  -5   8 31555.8 2474.87  11
   0  -5   8 31450.7 2204.33  12
   0  -5   9 15259.3 2025.97  11
   0  -5   9 17978.0 1978.65  12
   0  -5  10 60710.1 4228.11  12
   0  -5  10 63467.9 4630.47  11
   0  -5  10 55684.7 4279.53  14
   0  -5  11 56752.9 3532.95  11
   0  -5  11 50198.0 3206.38  14
   0  -5  12 13376.5 1551.82  14
   0  -5  12 13839.9 1509.04  11
   0  -5  13 806.084 614.274  14
   0  -5  13 636.064 577.545  11
   0  -5 -13 1079.17 853.508  12
   0  -5 -14 10452.1 1338.45  12
   0  -5  14 11939.6 1049.95  11
   0  -5  14 13298.5 1209.25  14
   0  -5  14 12593.0 1055.51   9
   0  -5  15 15375.1 940.637   9
   0  -5 -15 16488.4 1261.13  12
   0  -5  15 15789.2 996.083  11
   0  -5  16 16295.2 899.276  14
   0  -4   0 197389. 5300.81   3
   0  -4  -1 150059. 4591.39   3
   0  -4   1 144291. 4597.21   3
   0  -4  -2 5400.44 997.543   3
   0  -4   2 6729.23 1101.58   3
   0  -4   3 60451.7 3137.65   3
   0  -4  -3 59358.1 2872.55   3
   0  -4   4 204127. 5902.39   3
   0  -4  -4 200063. 5309.95   3
   0  -4   5 228471. 6537.53   3
   0  -4  -5 203350. 5320.60   3
   0  -4   6 5989.93 1182.19   3
   0  -4  -6 5417.34 985.465   3
   0  -4  -6 4090.84 1087.18  21
   0  -4   7 31876.0 2887.34   3
   0  -4  -7 34318.3 2827.59  21
   0  -4   7 28438.3 2076.40  11
   0  -4   8 82061.5 3613.38  11
   0  -4   8 83790.7 5220.11   3
   0  -4   8 79533.4 3222.96  12
   0  -4  -8 82219.6 4661.35  21
   0  -4  -9 90790.7 4800.16  20
   0  -4   9 85191.5 4097.38  11
   0  -4   9 78081.0 5271.17   3
   0  -4  -9 80641.1 5321.48  21
   0  -4   9 95896.9 4024.55  12
   0  -4  10 20845.3 2873.63  11
   0  -4  10 17888.5 2307.92   3
   0  -4  10 14640.3 2483.59  14
   0  -4 -10 21105.2 2856.98  21
   0  -4  10 20525.0 2744.74  12
   0  -4  11 3129.13 1367.77  11
   0  -4  11 1645.70 1244.80  14
   0  -4  12 64782.3 3254.91  11
   0  -4  12 56132.2 3097.56  14
   0  -4  13 60123.6 2819.60  11
   0  -4  13 64045.6 2960.42  14
   0  -4  14 15299.8 1396.32  11
   0  -4  14 16907.2 1412.44   9
   0  -4  14 17265.2 1496.72  14
   0  -4  15 1165.07 554.921  14
   0  -4  15 2900.86 601.722  11
   0  -4  15 1788.98 599.888   9
   0  -4  16 9640.99 834.138   9
   0  -4  16 9225.10 950.133  14
   0  -4  16 10409.9 903.061  11
   0  -4 -16 10092.7 1026.31  12
   0  -4  17 20680.4 1121.51  14
   0  -3   0-37.2205 339.745   1
   0  -3   0-185.454 546.420   3
   0  -3   1 218939. 4681.62   3
   0  -3   1 229331. 3259.38   1
   0  -3  -1 222364. 4630.43   3
   0  -3   2 347109. 5998.97   3
   0  -3  -2 336296. 5634.79   3
   0  -3   3 183781. 4518.72   3
   0  -3  -3 184109. 4207.18   3
   0  -3  -4 13400.6 1233.89   3
   0  -3   4 14211.9 1409.86   3
   0  -3   4 13789.2 1152.53   1
   0  -3   5 143500. 4491.66   3
   0  -3   5 144057. 3783.80   1
   0  -3  -5 152254. 3937.05   3
   0  -3  -6 226330. 4972.50   3
   0  -3   6 228893. 5444.98   1
   0  -3  -6 229873. 5941.49  21
   0  -3   6 236512. 6119.94   3
   0  -3  -7 201040. 6021.82  21
   0  -3   7 197899. 5704.51   1
   0  -3   7 192512. 6202.82   3
   0  -3   8 15634.9 2271.57   1
   0  -3   8 15546.6 2157.65   3
   0  -3  -8 15555.0 2046.95  21
   0  -3  -9 31399.4 3183.88  21
   0  -3   9 35475.7 3885.80   1
   0  -3  -9 33801.2 2904.48  20
   0  -3   9 27347.4 2855.03   3
   0  -3   9 31855.3 2656.03  14
   0  -3   9 34027.5 2709.56  11
   0  -3  10 108272. 5315.50  11
   0  -3  10 116512. 6153.79   1
   0  -3 -10 114114. 6038.80  20
   0  -3  10 115611. 5208.51  14
   0  -3 -10 112908. 5664.13  21
   0  -3  10 117503. 5393.09   3
   0  -3  11 119634. 4560.38  11
   0  -3  11 98478.9 4271.21  14
   0  -3 -11 103001. 5239.64  21
   0  -3  11 102459. 4845.92   3
   0  -3  11 115673. 5708.63   1
   0  -3  12 15717.0 1681.69  11
   0  -3 -12 13859.3 1934.99  21
   0  -3  12 16439.1 1739.15  14
   0  -3  13 2706.67 938.302  14
   0  -3  13 1370.87 768.117  11
   0  -3  14 21857.7 1723.00   9
   0  -3  14 21937.8 1804.12  14
   0  -3  14 21299.3 1682.81  11
   0  -3  15 65841.5 2721.03   9
   0  -3  15 70786.2 2742.57  11
   0  -3  15 69467.3 2907.21  14
   0  -3  16 8365.29 982.630  11
   0  -3  16 7468.83 1045.56  14
   0  -3  16 7774.80 962.424   9
   0  -3  17-181.250 509.121  14
   0  -3  17-154.531 427.442   9
   0  -3  17 423.587 349.007  11
   0  -3  18 6973.05 744.427  14
   0  -2   0 254693. 2733.30   1
   0  -2   0 248214. 3851.50   3
   0  -2  -1 555634. 5749.18   3
   0  -2   1 566864. 4293.93   1
   0  -2   2 37071.9 1337.24   1
   0  -2   2 35619.7 1646.58   3
   0  -2  -2 37608.0 1549.37   3
   0  -2   3 211804. 3560.58   1
   0  -2   3 209719. 3940.45   3
   0  -2   4 275863. 4573.23   1
   0  -2  -4 285490. 4364.62   3
   0  -2   4 281685. 4825.42   3
   0  -2  -5 115768. 3518.79  21
   0  -2  -5 115498. 2932.24   3
   0  -2   5 112049. 3429.55   1
   0  -2   5 106691. 3220.14   3
   0  -2   6 119871. 4349.87   1
   0  -2  -6 133024. 4089.00  21
   0  -2   6 127661. 3975.60   3
   0  -2  -7 10186.6 1468.52  21
   0  -2   7 10697.7 1793.88   1
   0  -2   7 10527.4 1436.52   3
   0  -2  -8 181688. 5633.72  20
   0  -2  -8 166716. 6092.19  21
   0  -2   8 169284. 6064.78   3
   0  -2   9 195875. 6538.00   1
   0  -2  -9 184635. 6356.08  20
   0  -2   9 195677. 6036.20   3
   0  -2  -9 185428. 6302.36  21
   0  -2  10 47352.0 3408.67   1
   0  -2 -10 42278.7 2757.14  20
   0  -2 -10 40808.5 3000.48  21
   0  -2  10 42757.7 2807.79   3
   0  -2  11 12616.0 1412.97  11
   0  -2  11 8539.88 1207.89  14
   0  -2  11 9185.48 1336.18   3
   0  -2 -11 9200.37 1635.05  21
   0  -2  11 10032.2 1815.81   1
   0  -2 -12 62719.1 3809.40  21
   0  -2  12 68848.0 2967.82  11
   0  -2  12 69916.0 4255.64   1
   0  -2  12 68076.1 3041.67  14
   0  -2  12 67395.5 3558.92   3
   0  -2  13 70269.7 3035.78   9
   0  -2  13 72031.4 3180.71  14
   0  -2  13 71540.4 2991.91  11
   0  -2  13 64021.4 4418.84   1
   0  -2 -13 64541.2 3958.48  21
   0  -2  14 19984.6 1744.03   9
   0  -2  14 20524.9 1782.40  14
   0  -2  14 22787.2 1738.18  11
   0  -2  15-198.269 650.384   9
   0  -2  15-43.2378 758.787  14
   0  -2  15-547.188 590.030  11
   0  -2  16 28550.4 1779.57  11
   0  -2  16 27415.3 1918.15  14
   0  -2  16 27655.3 1799.43   9
   0  -2  17 30108.5 1709.95   9
   0  -2  17 31714.5 1869.86  14
   0  -2  18 18556.1 1303.20  14
   0  -2  18 16279.5 1056.09   9
   0  -2  19 994.465 417.535  14
   0  -1   0-24.4271 172.447   1
   0  -1   0 130.302 264.166   3
   0  -1   1 34464.6 890.596   1
   0  -1   1 33129.9 1034.99   3
   0  -1  -1 34124.3 1033.81   3
   0  -1  -2 489653. 3945.13   3
   0  -1   2 489305. 4124.76   1
   0  -1   3 521379. 5332.56   2
   0  -1  -3 506925. 4393.42   3
   0  -1   4 34352.0 1838.61   1
   0  -1   4 36497.7 1893.80   2
   0  -1  -4 33985.6 1590.73  21
   0  -1   5 193099. 4846.53   2
   0  -1  -5 200632. 4348.37  21
   0  -1  -6 587582. 8857.79  21
   0  -1  -6 608467. 8127.55  20
   0  -1  -7 210425. 5340.88  20
   0  -1   7 192467. 5389.89   1
   0  -1  -7 204696. 5393.20  21
   0  -1   7 206369. 5287.56   2
   0  -1  -8 27876.7 1847.02  20
   0  -1   8 29670.3 2191.50   2
   0  -1  -8 27602.7 2078.36  21
   0  -1   8 32242.9 2366.34   1
   0  -1  -9 20770.2 1866.96  21
   0  -1   9 24108.0 2272.14   1
   0  -1  -9 22212.6 1614.67  20
   0  -1   9 22082.9 2063.57   2
   0  -1  10 105356. 4573.35   1
   0  -1 -10 103122. 4172.17  21
   0  -1  10 109017. 4505.64   2
   0  -1 -10 104209. 3486.82  20
   0  -1  11 139051. 5449.21   2
   0  -1 -11 133009. 4952.52  21
   0  -1  11 133081. 3942.28  14
   0  -1  11 135938. 5634.85   1
   0  -1  12 78913.9 3158.07   8
   0  -1 -12 72239.0 3282.10  15
   0  -1  12 80641.5 3169.49  14
   0  -1  12 83460.5 3030.85  11
   0  -1  12 85966.0 4569.80   1
   0  -1  12 80447.2 3108.98   9
   0  -1  13 9705.64 1291.79   9
   0  -1 -13 10249.2 1462.45  15
   0  -1  13 7892.03 1719.70   1
   0  -1  13 11972.3 1313.70  11
   0  -1  13 8849.56 1240.99  14
   0  -1  13 10075.6 1258.39   8
   0  -1  14 70292.7 3047.37   8
   0  -1 -14 67452.4 3280.17  15
   0  -1  14 68237.8 3035.17   9
   0  -1  14 75858.5 3053.96  11
   0  -1  14 71901.6 3227.56  14
   0  -1  15 59550.4 2704.23  11
   0  -1 -15 56069.7 2945.14  15
   0  -1  15 62857.6 2988.78  14
   0  -1  15 56808.7 2721.31   9
   0  -1  15 57844.9 2725.54   8
   0  -1  16 30960.3 1927.98   8
   0  -1  16 35587.0 2241.59  14
   0  -1  16 31411.3 2037.36   9
   0  -1  17-231.303 543.660   9
   0  -1  17 1347.73 774.843  14
   0  -1  18 8117.59 875.982   9
   0  -1  18 9782.69 1093.95  14
   0  -1  19 11907.8 988.360  14
   0   0  -2 18523.9 981.972   5
   0   0   2 18079.5 982.473   2
   0   0  -2 18450.6 896.462  20
   0   0  -2 19034.0 938.935  21
   0   0  -3 317773. 4068.43  21
   0   0  -3 303209. 3573.22  20
   0   0  -3 304225. 4209.22   5
   0   0   3 309857. 4390.95   2
   0   0   4 386529. 5381.73   2
   0   0  -4 399629. 4979.50  21
   0   0  -4 382798. 5131.35   5
   0   0  -5 346188. 4388.10  20
   0   0  -5 351952. 5073.07  21
   0   0   6 45924.1 2227.72   2
   0   0  -6 42669.5 1948.93  21
   0   0  -6 41625.3 1670.92  20
   0   0   7 13157.3 1390.54   2
   0   0  -7 13431.0 1258.70  21
   0   0  -7 13749.0 1093.30  20
   0   0   8 241185. 5617.94   2
   0   0  -8 225173. 5060.55  21
   0   0  -8 240321. 4438.09  20
   0   0  -9 272926. 4998.93  20
   0   0   9 289191. 6579.52   2
   0   0  10 34523.9 2482.03   2
   0   0  11 43651.8 3187.40   1
   0   0  11 43240.9 2940.51   2
   0   0  12 89862.8 3205.56  11
   0   0  12 99856.6 3541.93  14
   0   0  12 98712.8 4623.76   2
   0   0  12 98242.3 4898.31   1
   0   0 -12 100215. 3833.83  15
   0   0  12 97047.3 3389.09   9
   0   0  12 101591. 3632.56   8
   0   0  13 46786.2 2500.64   9
   0   0  13 50373.4 3470.07   2
   0   0  13 46782.6 3563.33   1
   0   0  13 50291.3 2696.45  14
   0   0  13 45070.0 2425.65  11
   0   0 -13 48409.0 2819.95  15
   0   0  13 50168.8 2678.19   8
   0   0 -14 16266.0 1732.86  15
   0   0  14 16481.8 1563.31  11
   0   0  14 15322.4 1565.94   9
   0   0  14 17908.2 1692.37   8
   0   0  14 18047.3 1745.34  14
   0   0  15 2116.65 841.213   8
   0   0  15 1909.70 831.467  14
   0   0  15 1450.77 780.903   9
   0   0 -15 2354.36 1000.22  15
   0   0  16 13657.2 1543.75  14
   0   0 -16 11560.4 1486.72  15
   0   0  16 13214.3 1434.41   9
   0   0  17 41908.2 2191.50   9
   0   0 -17 44409.3 2431.58  15
   0   0  17 43955.6 2420.04  14
   0   0  18 17520.5 1287.31   9
   0   0  18 16605.3 1397.63  14
   0   0 -18 15819.8 1353.64  15
   0   0  19 207.188 335.611   9
   0   0  19 125.997 457.947  14
   0   1   0-17.4101 210.912   5
   0   1   0 41.6644 328.030   4
   0   1   1 71120.4 1639.11   4
   0   1  -1 72882.7 1441.51   4
   0   1   1 72527.8 1262.87   2
   0   1  -1 71997.6 1413.04   5
   0   1   2 360851. 4092.41   4
   0   1  -2 343423. 3283.56   4
   0   1  -2 342745. 3506.71   5
   0   1   2 356789. 3470.92   2
   0   1  -2 350702. 3433.03  20
   0   1   3 554469. 5464.41   2
   0   1  -3 557802. 4794.09  20
   0   1   4 26009.2 1610.52   4
   0   1   4 24974.6 1542.22   2
   0   1  -4 27647.3 1300.03  20
   0   1   5 190563. 4389.01   2
   0   1  -5 200713. 4063.22  20
   0   1  -5 185912. 4380.99   5
   0   1  -6 596024. 8379.05  20
   0   1   6 590271. 8012.52   2
   0   1  -7 168514. 4255.33  20
   0   1  -7 163102. 4691.99   5
   0   1  -8 53298.3 2829.54   5
   0   1  -8 54661.7 2412.88  20
   0   1   8 56299.5 2765.35   2
   0   1  -9 21244.7 1573.47  20
   0   1   9 21421.9 1874.35   2
   0   1  10 108115. 4285.33   2
   0   1  11 148244. 4383.03   8
   0   1  11 140560. 5173.30   2
   0   1  11 147023. 4319.44  14
   0   1  12 74249.3 3213.15  14
   0   1 -12 76239.3 3426.16  15
   0   1  12 76303.5 3217.38   9
   0   1  12 76786.6 3304.22   8
   0   1 -12 75812.8 3008.47  13
   0   1  12 77150.4 4092.45   2
   0   1  13 5671.60 1158.68   8
   0   1  13 6654.38 1394.29   1
   0   1 -13 2706.74 808.528  13
   0   1  13 6292.00 1102.05   9
   0   1  13 6497.55 1546.19   2
   0   1 -13 5045.15 1115.39  15
   0   1  13 6558.82 1177.60  14
   0   1  14 81088.3 3561.22   8
   0   1  14 77903.2 3474.71  14
   0   1  14 73204.3 3280.64   9
   0   1 -14 81155.4 3738.29  15
   0   1 -15 66291.8 3369.35  15
   0   1  15 62780.2 3038.45   9
   0   1  15 68044.4 3223.30   8
   0   1  15 64753.7 3193.10  14
   0   1  16 31246.9 2122.56   9
   0   1 -16 28872.8 2225.92  15
   0   1  16 32571.3 2257.51  14
   0   1 -17 504.713 841.690  15
   0   1  17 668.364 720.617  14
   0   1  17 372.602 595.810   9
   0   1 -18 6048.08 1027.54  15
   0   1  18 8079.37 1074.56  14
   0   1  18 7269.25 870.875   9
   0   1 -19 12696.7 991.365  15
   0   1  19 14467.4 949.103   9
   0   1  19 15439.7 1142.90  14
   0   2   0 300748. 3726.01   5
   0   2   0 302013. 4357.89   4
   0   2   1 546369. 6171.10   4
   0   2   1 547653. 4566.35   2
   0   2  -1 543946. 5231.82   5
   0   2   1 547946. 5006.53   5
   0   2   2 41738.5 1409.14   2
   0   2  -2 44892.7 1699.34   4
   0   2  -2 45695.0 1661.55   5
   0   2   2 48714.9 2028.19   4
   0   2  -3 244774. 3968.14   4
   0   2   3 244550. 3774.16   2
   0   2  -3 243218. 4082.94   5
   0   2   3 241170. 4668.64   4
   0   2  -4 306299. 4935.74   5
   0   2   4 301486. 4888.04   2
   0   2  -4 298446. 4985.12  20
   0   2   4 307633. 5653.52   4
   0   2  -4 298218. 4590.89   4
   0   2  -5 141993. 3427.70   4
   0   2   5 158862. 4396.64   4
   0   2  -5 156857. 4008.70   5
   0   2   5 141442. 3912.13   2
   0   2  -5 152226. 3907.95  20
   0   2  -6 138164. 4381.22   5
   0   2  -6 132214. 4149.26  20
   0   2   6 131827. 4106.79   2
   0   2  -6 133031. 3698.40   4
   0   2  -7 25194.0 2131.40  20
   0   2  -7 25333.9 2295.09   5
   0   2  -7 28596.0 2188.58   4
   0   2   7 26787.7 1974.05   2
   0   2  -8 192305. 6809.83   4
   0   2  -8 175090. 5835.52   5
   0   2   8 185285. 5141.64   2
   0   2  -9 179354. 5176.06  20
   0   2  -9 184195. 6926.56   4
   0   2  -9 183534. 6012.80   5
   0   2   9 183853. 5386.13   2
   0   2  10 41104.6 2703.08   2
   0   2  11 14262.8 1776.04  14
   0   2 -11 13735.1 1665.61  15
   0   2  11 10726.3 1484.35   2
   0   2  11 13760.8 1603.39   8
   0   2  11 13351.6 1542.18   9
   0   2 -11 12958.0 1416.81  13
   0   2  12 56595.3 3483.11   2
   0   2  12 63448.7 3161.04   8
   0   2  12 62084.5 3147.34   9
   0   2 -12 62632.4 3224.84  15
   0   2 -12 57585.4 2778.03  13
   0   2  12 61227.0 3236.83  14
   0   2  13 73352.0 4063.89   2
   0   2  13 77586.6 3520.81   9
   0   2  13 80362.5 3663.21   8
   0   2  13 79879.1 3682.14  14
   0   2 -13 78406.6 3722.06  15
   0   2 -13 77526.3 3250.65  13
   0   2  14 14139.1 1770.61  14
   0   2 -14 13521.0 1462.27  13
   0   2 -14 10959.8 1567.07  15
   0   2  14 14714.0 1659.60   9
   0   2  15-312.909 823.209  14
   0   2  15 538.687 760.225   9
   0   2 -15 623.353 843.968  15
   0   2 -15 443.263 604.084  13
   0   2  16 23457.6 1986.23  14
   0   2 -16 23800.0 1616.96  13
   0   2  16 27493.7 1988.73   9
   0   2 -16 24681.7 2030.21  15
   0   2  17 35290.0 2153.31  14
   0   2  17 35318.6 1910.99  19
   0   2  17 36891.0 2038.11   9
   0   2 -17 37611.7 2255.80  15
   0   2 -18 13252.3 1282.95  15
   0   2  18 13373.6 1277.13  14
   0   2  18 14539.3 1134.80   9
   0   2  19 1238.78 479.242  14
   0   2 -19 906.503 395.606  15
   0   3   0 96.9863 656.411   4
   0   3   0-63.2222 399.039   5
   0   3   1 243352. 4209.19   5
   0   3  -1 238527. 4395.98   5
   0   3  -1 246789. 4966.83   4
   0   3   1 239678. 3641.46   2
   0   3   1 250693. 5178.91   4
   0   3   2 345278. 6265.17   4
   0   3   2 337475. 4498.00   2
   0   3  -2 345482. 5364.13   5
   0   3   2 355686. 5092.86   5
   0   3  -2 358604. 5918.80   4
   0   3   3 170330. 3490.48   2
   0   3   3 174107. 3674.45   5
   0   3  -3 177671. 4083.20   5
   0   3   3 171112. 4648.72   4
   0   3  -3 169399. 4129.71   4
   0   3  -4 9363.66 1217.45   4
   0   3  -4 8521.66 1089.25   5
   0   3   4 9069.09 1043.67   2
   0   3   4 9880.43 1376.98   4
   0   3   4 9909.18 980.146   5
   0   3  -5 153185. 4197.09   4
   0   3   5 157262. 5047.41   4
   0   3  -5 147666. 4316.18   5
   0   3  -6 245030. 6255.39   5
   0   3  -6 233480. 5452.93   4
   0   3   6 236828. 5727.50   2
   0   3   6 236218. 6630.22   4
   0   3   7 220853. 5529.12   2
   0   3  -7 225071. 6768.61   5
   0   3   8 8117.13 1138.72   2
   0   3  -8 6527.69 1790.67   5
   0   3  -9 29629.4 2342.38  15
   0   3   9 28921.2 2900.35   9
   0   3   9 34306.4 3237.35  14
   0   3   9 30203.1 2202.52   2
   0   3  -9 25330.9 2223.92  13
   0   3  -9 26441.6 2751.38   5
   0   3  10 140377. 7136.33  14
   0   3  10 135611. 4459.92   7
   0   3 -10 130745. 4607.05  13
   0   3  10 124788. 5658.74   9
   0   3 -10 129544. 4689.57  15
   0   3 -10 129420. 5740.29   5
   0   3  10 128446. 4624.76  18
   0   3  11 124505. 4405.83  18
   0   3  11 125655. 5558.60  14
   0   3  11 122135. 5022.43   9
   0   3 -11 121887. 4318.31  13
   0   3 -11 128356. 4715.59  15
   0   3 -12 19349.9 2052.09  15
   0   3  12 16418.7 2044.24  14
   0   3  12 20654.5 2098.80   9
   0   3 -12 18107.4 1781.08  13
   0   3  13 4513.74 1220.01  14
   0   3 -13 3931.85 1056.69  13
   0   3 -13 3812.91 1172.50  15
   0   3  13 4017.05 1129.40   9
   0   3  13 5081.96 1050.14  19
   0   3  14 19305.0 1775.59  19
   0   3 -14 19340.5 1966.84  15
   0   3 -14 17376.9 1609.16  13
   0   3  14 20977.1 1932.97   9
   0   3  14 19905.2 1963.68  14
   0   3  15 65877.8 3262.52  14
   0   3 -15 65857.2 3240.68  15
   0   3 -15 62672.6 2720.17  13
   0   3  15 62941.5 2986.37   9
   0   3  15 59897.0 2787.29  19
   0   3  16 13949.0 1406.64   9
   0   3 -16 13507.0 1515.27  15
   0   3 -16 11854.0 1148.69  13
   0   3  16 13048.7 1474.28  14
   0   3 -17-366.500 418.719  13
   0   3  17 546.018 631.651  14
   0   3 -17 295.165 628.999  15
   0   3  17-34.8705 514.016   9
   0   3 -18 6459.94 858.718  15
   0   3  18 6368.46 840.291  14
   0   3  18 5964.19 685.383   9
   0   4   0 190427. 5343.34   4
   0   4   0 179964. 4392.44   5
   0   4  -1 146644. 4059.43   5
   0   4   1 147436. 3917.29   5
   0   4   1 142606. 4718.47   4
   0   4  -1 147249. 4643.44   4
   0   4   2 10067.9 1468.39   4
   0   4  -2 8275.55 1206.38   4
   0   4   2 7505.18 980.782   5
   0   4  -2 7844.12 1061.93   5
   0   4  -3 43800.7 2442.57   5
   0   4   3 47867.0 3013.24   4
   0   4   3 43580.6 2209.52   5
   0   4  -3 43868.5 2589.04   4
   0   4   4 231485. 6623.97   4
   0   4   4 214114. 4872.54   5
   0   4  -4 219984. 5754.78   4
   0   4  -4 216574. 5619.58   5
   0   4  -5 236198. 6329.79   5
   0   4   5 247591. 7256.99   4
   0   4  -6 10777.3 1675.38   5
   0   4   7 30773.4 2441.72  14
   0   4   7 32165.3 2404.72   9
   0   4   7 34140.1 2650.62  18
   0   4   7 32814.0 2510.43   7
   0   4  -7 28165.7 2493.06  15
   0   4  -7 32162.0 2992.29   5
   0   4  -7 34373.9 2497.79  13
   0   4  -7 34840.4 2469.44  19
   0   4  -8 67439.0 3674.60  15
   0   4   8 73300.7 3965.72  14
   0   4   8 67360.5 3681.10  19
   0   4   8 67174.8 3693.99   9
   0   4  -8 73348.4 3889.03  19
   0   4   8 69395.5 4003.99   7
   0   4  -8 71524.6 4790.25   5
   0   4  -8 73378.4 3852.74  13
   0   4   8 74976.7 4152.59  18
   0   4   9 80931.2 4210.38  18
   0   4  -9 87933.5 4058.53  15
   0   4   9 86287.0 4781.16  19
   0   4  -9 78596.1 4068.51  13
   0   4   9 92604.6 5032.55   9
   0   4   9 81673.2 4766.86  14
   0   4  -9 73177.0 4816.38   5
   0   4   9 89170.3 4279.35   7
   0   4  -9 79338.0 4541.02  19
   0   4 -10 22347.3 2208.01  15
   0   4  10 22984.6 2236.08  18
   0   4  10 23745.6 3312.45   9
   0   4 -10 19486.2 2069.81  13
   0   4  10 20737.0 3415.25  14
   0   4  10 24803.1 2138.29   7
   0   4  10 25185.6 3613.56  19
   0   4 -10 22772.9 2706.40   5
   0   4 -11-38.9041 976.551  15
   0   4  11 170.393 948.937  19
   0   4  11 263.986 671.851   7
   0   4  11 354.482 1122.24   9
   0   4  11 1009.44 732.677  18
   0   4 -11-269.888 876.667  13
   0   4  11-1722.51 1578.41  14
   0   4  12 56595.4 3306.71  19
   0   4  12 62926.6 3898.14  14
   0   4 -12 54699.2 3003.70  13
   0   4 -12 58837.8 3248.31  15
   0   4  12 54024.9 2849.26  18
   0   4  12 59037.5 3502.69   9
   0   4 -13 53800.7 2789.32  13
   0   4 -13 56450.7 3107.71  15
   0   4  13 53803.8 3323.72  14
   0   4  13 58751.5 3198.01   9
   0   4 -14 24752.0 2057.86  15
   0   4 -14 21881.6 1715.21  13
   0   4  14 23709.0 1941.05   9
   0   4  14 25502.1 2138.82  14
   0   4  15 1801.62 729.358   9
   0   4  15 2429.06 823.619  14
   0   4 -15 1910.47 688.772  13
   0   4 -15 2384.31 848.995  15
   0   4 -16 12925.9 1093.86  13
   0   4 -16 12424.3 1288.78  15
   0   4  16 13801.8 1191.69   9
   0   4  17 23295.7 1216.12   9
   0   4 -17 21973.6 1392.33  15
   0   5   0 673.660 651.035  18
   0   5   0 1999.37 857.449   4
   0   5   0 67.0566 561.776   7
   0   5  -1 89746.6 4268.34   4
   0   5   1 93015.2 4524.10   4
   0   5  -1 88702.1 3410.13  18
   0   5   1 84174.6 3466.09   9
   0   5  -1 86876.8 3642.88   5
   0   5  -1 89282.6 3474.29   7
   0   5   1 91838.0 3592.87  18
   0   5   1 84068.8 3470.92   7
   0   5   2 193324. 5316.19   9
   0   5   2 189342. 5268.55  18
   0   5  -2 197349. 5285.38  19
   0   5  -2 183387. 5477.04   5
   0   5  -2 191115. 4927.30  13
   0   5  -2 189619. 5023.09   7
   0   5  -2 190287. 4934.49  18
   0   5   2 203752. 6800.94   4
   0   5   2 189445. 5270.54   7
   0   5  -3 50341.5 2580.78  13
   0   5  -3 47083.0 2662.54  19
   0   5   3 47265.8 2666.85  19
   0   5   3 48187.8 3511.20   4
   0   5   3 44764.0 2654.40  18
   0   5  -3 46731.7 2970.36   5
   0   5   3 49192.5 2770.62   7
   0   5  -3 45280.5 2453.76  18
   0   5   3 48448.0 2763.27   9
   0   5   4 652.313 740.821   7
   0   5  -4 2945.01 1034.55  13
   0   5   4 1592.78 872.163  18
   0   5  -4 2292.35 780.954  19
   0   5  -4 2318.95 785.345  18
   0   5   4 808.522 839.844   4
   0   5   4 2528.82 894.247   9
   0   5   4 1796.28 719.086  19
   0   5  -4 3501.48 1072.87   5
   0   5  -5 26468.4 2417.29  15
   0   5   5 25076.4 2755.25   4
   0   5   5 23554.4 2164.82  18
   0   5  -5 26920.9 2563.78   5
   0   5   5 26859.3 2168.28  19
   0   5  -5 27934.3 2238.77  19
   0   5  -5 27838.3 2231.06  13
   0   5   5 23028.8 2073.91   9
   0   5   5 26052.4 2211.01   7
   0   5  -5 24022.6 1858.67  18
   0   5   6 76549.9 3597.43  19
   0   5   6 70971.8 3761.64  18
   0   5  -6 65337.6 4411.52   5
   0   5  -6 69201.9 3582.43  19
   0   5  -6 69967.4 3851.15  15
   0   5   6 67273.9 3642.05   9
   0   5   6 71391.9 3743.74   7
   0   5  -6 82966.6 3889.49  13
   0   5  -6 63492.3 3007.69  18
   0   5   7 105159. 4361.92  19
   0   5   7 101397. 4542.00   9
   0   5  -7 107623. 4759.46  13
   0   5  -7 99564.7 6019.81   5
   0   5   7 99691.8 4796.48   7
   0   5   7 112171. 4994.61  18
   0   5  -7 105226. 4585.85  19
   0   5  -7 97281.1 4362.90  15
   0   5  -8 42231.1 2923.52  15
   0   5  -8 39122.6 3123.80  19
   0   5   8 36708.9 3413.91   7
   0   5   8 34551.2 3236.45  18
   0   5   8 37362.3 3116.36   9
   0   5  -8 34984.3 3090.39  13
   0   5   9 20647.9 2370.43  18
   0   5  -9 19103.5 2657.07  19
   0   5  -9 23808.0 2175.63  15
   0   5   9 24697.8 2421.26   7
   0   5   9 23145.5 2859.00   9
   0   5  -9 21032.9 2348.86  13
   0   5 -10 78767.4 3683.10  15
   0   5  10 80338.9 5617.11   9
   0   5  10 80025.9 3610.00   7
   0   5 -10 76191.5 3766.22  13
   0   5  10 78392.9 3818.27  18
   0   5  11 58308.8 3793.26   9
   0   5 -11 55660.7 3027.85  15
   0   5  11 50445.0 2768.25  18
   0   5  11 53132.6 2682.17   7
   0   5 -11 54475.0 2996.25  13
   0   5  12 15259.3 1779.96   9
   0   5 -12 16043.0 1625.54  13
   0   5  12 16146.9 1376.77   7
   0   5 -12 17469.0 1766.11  15
   0   5  12 16482.7 1537.83  18
   0   5  13 2219.90 868.340   9
   0   5 -13 2988.25 851.216  13
   0   5 -13 1941.24 906.313  15
   0   5 -14 15505.2 1433.67  15
   0   5  14 16505.8 1431.28   9
   0   5 -14 13585.1 1248.46  13
   0   5 -15 18209.7 1336.32  15
   0   5 -15 20208.7 1291.07  13
   0   5  15 22679.5 1418.19   9
   0   5 -16 13233.1 981.558  15
   0   6   0 96737.4 4011.98   7
   0   6   0 101201. 3985.65  18
   0   6   0 97205.5 3979.93  19
   0   6  -1 56566.6 3062.03  19
   0   6   1 58788.4 3149.55  18
   0   6   1 57793.8 3094.29  19
   0   6  -1 67922.9 3256.06  13
   0   6  -1 57229.0 3049.23  18
   0   6   1 53871.8 3062.77   7
   0   6  -2 6253.55 1218.91  18
   0   6   2 7518.10 1348.68  19
   0   6   2 6197.12 1277.93   7
   0   6  -2 9045.24 1367.83  13
   0   6   2 8043.09 1415.56  18
   0   6  -2 8094.85 1350.62  19
   0   6   3 25584.5 2249.96   9
   0   6  -3 28676.2 2326.62  13
   0   6  -3 28938.1 2151.55  18
   0   6   3 26473.9 2318.48   7
   0   6   3 24606.3 2149.57  18
   0   6   3 25964.7 2178.57  19
   0   6  -3 23839.5 1821.62  16
   0   6  -3 26742.4 2252.94  19
   0   6  -4 166189. 5465.74  13
   0   6   4 148020. 5239.23   7
   0   6   4 148565. 5166.11  18
   0   6   4 142054. 5178.47   9
   0   6  -4 150400. 5165.24  19
   0   6  -4 152344. 4696.63  18
   0   6   4 154996. 5046.32  19
   0   6   5 86028.6 4039.63   9
   0   6  -5 91819.1 4319.54  13
   0   6  -5 80746.4 3414.45  18
   0   6   5 77726.6 4031.43   7
   0   6  -5 80883.0 3907.53  19
   0   6   5 84841.6 4083.80  18
   0   6  -6 1014.13 1129.45  13
   0   6   6 1511.41 1285.15  18
   0   6   6 1330.89 951.587   9
   0   6  -6 2089.84 1025.83  19
   0   6  -6 682.899 688.332  18
   0   6   6 2029.09 1169.76   7
   0   6   7 19733.0 2502.80   7
   0   6  -7 20815.4 2356.94  19
   0   6  -7 19259.3 1858.43  15
   0   6  -7 18568.8 2294.65  13
   0   6   7 24197.9 2575.22  18
   0   6   7 23491.4 2391.07   9
   0   6   8 64010.7 4078.71   9
   0   6  -8 56735.7 3898.14  19
   0   6   8 70001.4 4069.62   7
   0   6  -8 57103.6 2906.97  15
   0   6   8 59175.2 3735.42  18
   0   6  -8 57665.1 3420.44  13
   0   6   9 29584.5 3475.24   9
   0   6   9 28684.1 2220.79   7
   0   6   9 28161.4 2319.66  18
   0   6  -9 29499.5 2399.79  13
   0   6  -9 27783.5 2003.00  15
   0   6  10 7118.08 1078.16   7
   0   6 -10 7874.13 1351.05  13
   0   6  10 6609.38 1132.28  18
   0   6 -10 6187.55 1037.42  15
   0   6  10 6908.39 1786.07   9
   0   6 -11 3526.77 935.698  13
   0   6  11 3658.14 632.295   7
   0   6  11 2243.09 1077.88   9
   0   6 -11 3184.63 820.002  15
   0   6  11 3006.47 683.247  18
   0   6  12 15971.4 1502.92   9
   0   6 -12 14800.2 1336.14  13
   0   6 -12 13875.5 1237.28  15
   0   6  12 16413.3 1134.09  18
   0   6  13 31820.5 1681.39   9
   0   6 -13 31305.8 1624.62  13
   0   6  14 9777.87 815.983   9
   0   6 -14 10214.5 829.825  13
   0   7   0 38.3830 644.610  19
   0   7   0-439.787 814.864  18
   0   7   1 44175.8 2692.31  18
   0   7  -1 41740.6 2590.19  19
   0   7  -1 43398.3 2560.98  18
   0   7   1 37189.7 2382.16  19
   0   7  -1 41435.8 2285.70  16
   0   7  -2 58883.0 3401.39  13
   0   7  -2 55642.1 2981.92  19
   0   7  -2 61575.9 2598.67  16
   0   7  -2 56868.7 2874.77  18
   0   7   2 62872.4 3135.82  18
   0   7  -3 24145.7 1939.03  18
   0   7  -3 22515.0 2005.64  19
   0   7  -3 26899.3 2486.14  13
   0   7   3 25023.2 2112.85  18
   0   7  -4 2801.06 989.995  19
   0   7  -4 1435.47 751.932  18
   0   7  -4 2178.79 1137.60  13
   0   7   4 2634.84 1024.00  18
   0   7   4 1883.60 915.137   7
   0   7  -5 4958.17 1236.01  13
   0   7   5 6218.13 1321.02  18
   0   7  -5 6224.86 1397.18  19
   0   7   5 7192.17 1417.72   7
   0   7   6 36799.6 3002.35   7
   0   7   6 42099.4 3021.84  18
   0   7  -6 39712.1 2922.34  19
   0   7  -6 42176.0 2590.03  13
   0   7  -7 29222.1 2062.08  13
   0   7   7 32731.0 2606.69   7
   0   7  -8 7655.94 1122.85  13
   0   7   8 9558.61 1199.49   7
   0   7   8 8342.57 1214.84  18
   0   7  -9 2005.81 716.402  13
   0   7   9 1982.67 654.591  18
   0   7   9 2369.82 592.182   7
   0   7 -10 26261.9 1510.87  13
   0   7  10 26271.8 1339.15  18
   0   7 -11 32737.4 1456.11  13
   0   8   0 29865.6 1788.87  18
   0   8  -1 15546.9 1331.16  18
   0   8   1 16093.0 1197.43  16
   0   8   1 17859.2 1439.09  18
   0   8   2 1921.92 715.869  18
   0   8   2 80.6708 519.752  16
   0   8  -2 1863.60 644.470  18
   0   8   3 17387.7 1476.87  18
   0   8   3 14981.0 1196.44  16
   0   8   4 17853.4 1359.94  16
   0   8   4 23283.7 1788.27  18
   0   8   5 19882.6 1507.77  16
   0   8   5 20049.1 1779.40  18
   0   8   6 4221.28 780.380  18
   0   8   7 8812.27 764.896  18
  -1  -8   7 951.374 447.727  11
   1  -8  -7 50.8473 755.576  11
  -1  -8   6 4893.04 939.702  12
   1  -8  -6 6950.80 1107.28  12
  -1  -8   6 4905.59 932.958  11
  -1  -8   5 33350.2 1737.59  12
  -1  -8   5 36244.3 2371.28  11
   1  -8  -5 33225.1 2309.24  11
   1  -8  -5 39464.1 1984.04  12
  -1  -8   4 22380.8 1720.34  11
   1  -8  -4 19961.1 1742.53  11
  -1  -8   4 20446.2 1373.14  12
   1  -8  -4 24281.7 1514.60  12
   1  -8  -3-407.689 631.347  11
  -1  -8   3 913.755 694.789  11
  -1  -8   3 595.378 556.345  12
   1  -8  -3 2158.30 579.122  12
   1  -8  -2 9472.00 940.023  12
   1  -8  -2 11424.4 1276.89  11
  -1  -8   2 8709.68 1032.18  12
  -1  -8   2 10035.5 1150.10  11
  -1  -8   1 29058.2 1819.96  11
  -1  -8   1 31373.9 1758.38  12
   1  -8  -1 30592.8 1498.55  12
   1  -8  -1 29495.7 1886.00  11
  -1  -8   0 21491.1 1510.05  12
   1  -8   0 20188.2 1554.82  11
  -1  -8   0 19760.3 1500.37  11
  -1  -8  -1 4786.67 901.546  12
   1  -8   1 3679.80 831.856  11
  -1  -8  -1 3475.94 806.348  11
  -1  -8  -2 3049.51 782.229  11
   1  -8   2 2702.67 692.889  11
  -1  -8  -2 3128.75 860.303  12
  -1  -8  -3 16777.1 1442.28  11
  -1  -8  -3 20413.1 1589.22  12
  -1  -8  -4 26016.0 1885.11  12
   1  -8   4 27061.1 1601.22  11
   1  -8   5 4921.85 836.813  11
   1  -8   5 6073.13 989.368  14
  -1  -8  -5 5570.93 1187.13  12
   1  -8   6 467.534 709.767  14
  -1  -8  -6-207.932 515.673  12
   1  -7 -11 17682.2 1334.16  12
  -1  -7  11 18098.7 1045.01  11
   1  -7 -10 12120.8 1434.42  12
  -1  -7  10 10874.4 1046.41  11
  -1  -7  10 8725.65 891.392  12
  -1  -7   9 735.759 802.228  11
  -1  -7   9 1417.17 447.800  14
   1  -7  -9 270.194 1262.53  12
  -1  -7   9 1058.29 856.005  12
  -1  -7   8 24118.9 2605.42  11
   1  -7  -8 26733.5 3190.37  12
  -1  -7   8 25209.3 1837.60  14
  -1  -7   8 29497.3 2176.84  12
  -1  -7   7 38425.7 2285.53  12
   1  -7  -7 41229.8 3044.52  12
  -1  -7   7 35889.1 2682.66  11
  -1  -7   6 18559.9 1820.30  11
   1  -7  -6 20986.0 2055.53  12
  -1  -7   6 19861.8 1678.79  12
   1  -7  -5 1813.83 958.984  12
  -1  -7   5 1176.58 746.160  12
  -1  -7   5 2667.41 1008.73  11
  -1  -7   4 27393.7 2096.37  11
   1  -7  -4 25276.9 2079.19  12
  -1  -7   4 24756.7 1925.53  12
   1  -7  -3 36475.1 2763.56  11
  -1  -7   3 41758.3 2450.33  12
   1  -7  -3 43317.7 2578.20  12
  -1  -7   3 38344.3 2421.05  11
  -1  -7   2 36084.3 2383.57  12
   1  -7  -2 37495.7 2725.31  11
   1  -7  -2 36728.0 2361.11  12
  -1  -7   2 34203.5 2354.94  11
   1  -7  -1 3253.92 918.237  12
   1  -7  -1 4052.51 1227.74  11
  -1  -7   1 2778.50 980.430  11
  -1  -7   1 2455.58 1038.25  12
   1  -7   0 6057.84 1091.08  12
  -1  -7   0 7245.69 1316.26  11
   1  -7   0 6030.44 1288.28  11
  -1  -7   0 6443.03 1298.96  12
   1  -7   1 49043.9 2881.01  11
  -1  -7  -1 43137.8 2676.36  11
   1  -7   1 47920.5 2399.64  12
  -1  -7  -2 48192.2 2911.44  11
  -1  -7  -2 55286.7 3058.36  12
   1  -7   2 51401.0 2853.94  11
   1  -7   2 48047.1 2301.53  12
  -1  -7  -3 7452.50 1344.92  11
   1  -7   3 6645.86 1152.69  11
  -1  -7  -3 7244.44 1397.37  12
   1  -7   4 7447.41 1237.04  11
  -1  -7  -4 7261.20 1459.55  12
  -1  -7  -4 4535.11 1183.25  11
   1  -7   5 34810.1 2202.44  11
  -1  -7  -5 36118.7 2675.13  12
  -1  -7  -6 37405.1 2887.64  12
  -1  -7  -6 29491.5 2559.52  11
   1  -7   6 37076.3 2245.60  11
  -1  -7  -7 7215.26 1702.61  12
   1  -7   7 7115.04 1200.04  11
   1  -7   8-1703.64 1060.63  11
  -1  -7  -8 1053.22 886.665  12
   1  -7   8-1053.12 1062.13  14
   1  -7   9 13152.5 1355.27  14
  -1  -7  -9 12240.4 1211.22  12
   1  -7   9 10316.9 1048.99  11
   1  -7  10 28583.8 1517.85  14
  -1  -7 -10 22016.8 1277.54  12
   1  -7  11 11887.3 822.432  14
  -1  -6  14 13142.1 829.635  11
   1  -6 -14 14312.0 1108.49  12
   1  -6 -13 23345.3 1663.86  12
  -1  -6  13 22848.9 1330.17  11
   1  -6 -12 5057.43 1277.75  12
  -1  -6  12 5057.17 823.650  11
  -1  -6  12 5417.11 687.854  14
  -1  -6  12 6508.28 848.632  12
  -1  -6  11 3295.13 937.390  11
  -1  -6  11 2795.70 805.824  12
   1  -6 -11 2984.99 1280.77  12
  -1  -6  11 2245.07 613.330  14
  -1  -6  10 27457.6 2859.36  12
  -1  -6  10 33451.8 2125.49  14
  -1  -6  10 34424.7 2762.16  11
  -1  -6   9 37315.4 3550.33  11
  -1  -6   9 33841.9 2906.10  14
  -1  -6   9 42441.8 2959.03  12
   1  -6  -9 39298.1 4842.97  12
  -1  -6   8 24860.0 2480.70  11
   1  -6  -8 30531.1 3237.16  12
  -1  -6   8 26313.4 2116.78  12
  -1  -6   8 22760.7 2154.65  14
   1  -6  -7 4017.55 1482.03  12
  -1  -6   7 5080.48 1299.54  11
  -1  -6   7 4157.37 1123.70  12
  -1  -6   6 49114.7 2767.15  12
  -1  -6   6 44960.4 2871.34  11
   1  -6  -6 45000.6 3201.82  12
   1  -6  -5 48484.5 3137.61  12
  -1  -6   5 47274.6 2720.46  12
  -1  -6   5 44127.6 2777.15  11
  -1  -6   4 53102.7 3037.49  11
  -1  -6   4 48662.2 2800.56  12
   1  -6  -4 49886.0 3100.84  12
   1  -6  -3 1278.62 971.826  12
  -1  -6   3 2493.23 1038.08  12
  -1  -6   3 1646.28 973.147  11
   1  -6  -2 23695.4 2153.31  12
  -1  -6   2 20468.2 1984.34  11
  -1  -6   2 25236.3 2336.28   6
  -1  -6   2 22713.6 2060.95  12
   1  -6  -1 89487.7 3780.69  12
  -1  -6   1 95870.1 4029.98  11
  -1  -6   1 95244.7 4011.21  12
  -1  -6   1 96965.9 4428.58   6
  -1  -6   0 65318.9 3376.35  12
  -1  -6   0 56918.3 3205.66  11
   1  -6   0 64345.2 3540.67  11
   1  -6   0 65301.8 3172.68  12
   1  -6   1 7988.52 1221.32  12
   1  -6   1 7525.15 1445.10  11
  -1  -6  -1 8481.89 1513.89  12
  -1  -6  -1 7369.18 1368.36  11
   1  -6   2 18583.2 1964.16  11
  -1  -6  -2 15763.4 1936.90  11
  -1  -6  -2 19948.1 2050.94  12
   1  -6   2 16052.4 1617.31  12
   1  -6   3 33335.6 2524.33  11
  -1  -6  -3 28477.1 2408.12  11
  -1  -6  -3 32337.4 2555.38  12
   1  -6   3 29437.9 1990.17  12
   1  -6   4 61147.5 3201.47  11
  -1  -6  -4 66432.3 3606.48  12
  -1  -6  -5 32699.2 2694.22  12
   1  -6   5 25316.4 2132.71  11
  -1  -6  -6 1056.10 1189.07  12
   1  -6   6 263.530 802.552  11
   1  -6   7 35852.2 2456.86  11
  -1  -6  -7 34883.3 3066.43  12
   1  -6   8 59711.7 3293.21  11
  -1  -6  -8 64200.6 4262.35  12
   1  -6   9 13784.7 2136.40  11
   1  -6   9 16995.1 2433.66  14
  -1  -6  -9 16059.8 2064.61  12
  -1  -6 -10 1080.20 810.451  12
   1  -6  10 985.690 881.726  11
   1  -6  10 907.469 954.669  14
   1  -6  11 11614.1 1050.66  11
  -1  -6 -11 8856.43 1177.29  12
   1  -6  11 13307.4 1417.96  14
  -1  -6 -12 22750.6 1377.62  12
   1  -6  12 30187.9 1639.84  14
   1  -6  13 7925.81 782.272  14
   1  -6  13 8186.17 752.982   9
  -1  -5  16 14063.1 831.510  11
   1  -5 -16 12780.2 1007.51  12
  -1  -5  15 27261.1 1382.31  11
   1  -5 -15 26816.2 1720.43  12
  -1  -5  14 4785.83 821.322  11
  -1  -5  14 4477.58 676.223  14
  -1  -5  13 2630.42 813.257  11
  -1  -5  13 201.704 389.203  14
  -1  -5  12 33916.6 2305.05  11
  -1  -5  12 36724.6 2026.15  14
  -1  -5  12 38244.8 2311.19  12
  -1  -5  11 46554.9 3277.63  12
  -1  -5  11 52486.0 2739.67  14
  -1  -5  10 21881.6 2286.62  14
  -1  -5  10 19479.2 2934.47  11
  -1  -5  10 27043.2 2822.97  12
  -1  -5   9 4875.73 1503.94  14
  -1  -5   9 4529.83 1684.59  11
  -1  -5   9 3840.02 1166.27  10
  -1  -5   9 3160.61 1212.30  12
  -1  -5   8 26496.3 2444.32  10
  -1  -5   8 24224.6 2338.20  11
  -1  -5   8 28637.0 2231.00  12
  -1  -5   7 118900. 4505.50  11
   1  -5  -7 110220. 5433.76  21
  -1  -5   7 114105. 4894.80  10
  -1  -5   7 122392. 5828.49   3
  -1  -5   7 116921. 4154.09  12
  -1  -5   6 106217. 4834.90  10
  -1  -5   6 100163. 4978.74   3
   1  -5  -6 96065.9 4063.25   3
  -1  -5   6 100382. 3755.90  12
  -1  -5   6 93779.1 3862.80  11
   1  -5  -5 15470.2 1664.97   3
  -1  -5   5 17249.3 1935.10   6
  -1  -5   5 15012.1 1945.79   3
  -1  -5   5 14371.0 1564.08  12
  -1  -5   5 15903.7 1700.93  11
  -1  -5   4 66748.4 3496.84   6
   1  -5  -4 70116.3 3559.55   3
  -1  -5   4 62693.9 3731.76   3
   1  -5  -4 67885.4 3433.39  12
  -1  -5   4 63347.7 3146.58  11
  -1  -5   4 64055.6 3047.49  12
   1  -5  -3 122577. 4396.68  12
  -1  -5   3 123318. 4190.12  12
   1  -5  -3 131813. 4909.75   3
  -1  -5   3 133227. 5208.49   3
  -1  -5   3 127730. 4342.96  11
  -1  -5   3 125607. 4547.98   6
   1  -5  -2 112172. 4623.47   3
   1  -5  -2 103451. 3934.52  12
  -1  -5   2 101537. 4046.02   6
  -1  -5   2 107465. 4020.16  11
  -1  -5   2 108136. 4593.73   3
  -1  -5   2 98997.5 3773.23  12
  -1  -5   1 17300.9 1818.38   6
  -1  -5   1 15263.2 1770.85   3
  -1  -5   1 13646.3 1516.88  11
   1  -5  -1 15560.1 1584.05  12
   1  -5  -1 16281.7 1882.24   3
  -1  -5   1 16102.0 1679.17  12
  -1  -5   0 34243.9 2567.33   3
  -1  -5   0 35486.6 2364.95  11
   1  -5   0 30868.1 2093.78  12
   1  -5   0 36730.5 2804.03   3
  -1  -5   0 34480.9 2347.51  12
  -1  -5  -1 110596. 4365.53  17
   1  -5   1 124567. 5178.59   3
  -1  -5  -1 116243. 4638.61   3
   1  -5   1 105187. 3708.35  12
  -1  -5  -1 112357. 4132.72  12
  -1  -5  -1 107768. 4404.32  21
  -1  -5  -2 145784. 5322.33  21
  -1  -5  -2 141201. 5128.98   3
  -1  -5  -2 134820. 4935.12  17
   1  -5   2 151217. 4907.23  11
   1  -5   2 147692. 5730.04   3
  -1  -5  -2 141701. 4746.41  12
  -1  -5  -3 47704.1 3135.47  17
  -1  -5  -3 47923.9 3223.15  21
   1  -5   3 49435.9 2843.77  11
  -1  -5  -3 44410.9 2767.75  12
  -1  -5  -3 49416.7 3081.17   3
   1  -5   3 48587.6 3413.03   3
  -1  -5  -4 24587.5 2457.04  17
  -1  -5  -4 22044.5 2348.48  21
   1  -5   4 22055.3 2479.85   3
   1  -5   4 23154.2 1992.73  11
  -1  -5  -4 22875.3 2171.77  12
  -1  -5  -4 25318.7 2243.48   3
  -1  -5  -5 123127. 4935.76   3
  -1  -5  -5 106634. 5265.05  17
  -1  -5  -5 117398. 4677.96  12
   1  -5   5 116196. 5694.28   3
  -1  -5  -5 125596. 5930.01  21
   1  -5   5 121292. 4294.68  11
   1  -5   6 86343.3 3665.21  11
   1  -5   6 92901.7 5414.66   3
  -1  -5  -6 86415.5 4233.08  12
  -1  -5  -7 16212.3 2460.21  21
   1  -5   7 21756.3 1984.91  11
  -1  -5  -7 20157.5 2387.38  12
   1  -5   8 3375.71 1099.63  11
  -1  -5  -8-325.481 1251.07  12
   1  -5   9 29253.5 2780.63  14
   1  -5   9 32907.1 2765.03  11
  -1  -5  -9 28755.4 2924.89  12
   1  -5  10 58154.3 3932.50  11
  -1  -5 -10 55164.4 3509.25  12
   1  -5  10 55892.2 4310.46  14
   1  -5  11 27703.8 2043.89  11
  -1  -5 -11 31087.0 2378.39  12
   1  -5  11 34984.1 2660.17  14
  -1  -5 -12 971.843 719.954  12
   1  -5  12 822.434 726.978  14
   1  -5  12-527.027 449.803  11
   1  -5  13 14346.8 1341.08  14
  -1  -5 -13 13650.4 1229.66  12
   1  -5  14 31848.6 1626.74   9
   1  -5  14 32366.8 1698.11  14
   1  -5  15 9237.67 790.303   9
   1  -5  15 11189.6 909.893  14
  -1  -4  17 19098.9 1072.98  11
  -1  -4  16 2939.09 539.568  14
  -1  -4  16 2028.10 553.242  11
  -1  -4  15 10411.3 1111.01  11
  -1  -4  15 9564.78 968.251  14
  -1  -4  14 35143.9 2087.64  11
  -1  -4  14 32341.7 1835.17  14
  -1  -4  13 42384.0 2489.91  11
  -1  -4  13 38449.0 2168.44  14
  -1  -4  13 42843.7 2401.76  12
  -1  -4  12 19566.8 1924.51  11
  -1  -4  12 18138.8 1644.35  14
  -1  -4  12 21237.7 2021.45  12
  -1  -4  11 1626.85 896.850  14
  -1  -4  11 871.990 1327.53  12
  -1  -4  11 977.395 1097.02  11
  -1  -4  10 59544.7 3654.50  14
  -1  -4  10 69547.1 3887.20  10
  -1  -4  10 68237.0 4720.40  11
   1  -4 -10 59681.0 4433.02  21
   1  -4  -9 145901. 6317.41  21
  -1  -4   9 159649. 5222.83  12
  -1  -4   9 155583. 6612.28   1
  -1  -4   9 140726. 5526.16  10
  -1  -4   9 145351. 5588.71  14
  -1  -4   9 159173. 6168.71  11
   1  -4  -8 45557.8 3313.68  21
  -1  -4   8 43613.0 3250.49   3
  -1  -4   8 46471.4 2933.85  11
  -1  -4   8 48918.6 2741.15  12
  -1  -4   8 48746.1 3364.56  10
  -1  -4   8 43167.2 3194.60   1
   1  -4  -7 2097.15 722.858   3
   1  -4  -7 1932.71 928.975  21
  -1  -4   7 1589.09 990.556  10
  -1  -4   7 3085.21 1004.28   1
  -1  -4   7 1785.94 849.640  12
  -1  -4   7 2933.43 772.560   3
  -1  -4   7 1616.23 747.666  11
   1  -4  -6 65082.8 2922.61   3
  -1  -4   6 64949.4 2973.29  11
  -1  -4   6 70983.3 3667.45   3
  -1  -4   6 62802.7 3253.91   6
  -1  -4   6 73849.1 3481.78   1
  -1  -4   5 159801. 5279.59   3
  -1  -4   5 170126. 4972.89   1
   1  -4  -5 159822. 4584.28   3
  -1  -4   4 115269. 3897.66   1
  -1  -4   4 110733. 4222.37   3
   1  -4  -4 116655. 3911.94   3
  -1  -4   3 28677.1 1923.89   1
   1  -4  -3 26604.6 1940.38   3
  -1  -4   3 25319.0 2058.27   3
   1  -4  -2 112703. 4000.71   3
  -1  -4   2 113407. 4111.51   3
  -1  -4   2 107799. 3531.37   1
  -1  -4   1 200752. 4686.92   1
  -1  -4   1 196523. 5264.70   3
   1  -4   0 226101. 5813.88   3
  -1  -4   0 208778. 5385.66   3
   1  -4   1 17514.7 1780.25   3
  -1  -4  -1 17761.2 1645.05   3
   1  -4   2 26319.8 2198.03   3
  -1  -4  -2 26934.1 2035.11  21
  -1  -4  -2 27502.5 2022.86   3
  -1  -4  -3 226253. 5979.55  21
   1  -4   3 220233. 6277.13   3
  -1  -4  -3 230562. 5788.92   3
   1  -4   4 124199. 4957.29   3
  -1  -4  -4 118105. 4190.42   3
  -1  -4  -4 130387. 4848.85  21
  -1  -4  -5 37963.0 2951.23  21
   1  -4   5 40284.6 3006.33   3
  -1  -4  -5 42698.3 2614.84   3
  -1  -4  -6 2302.29 1012.16  21
   1  -4   6 2807.31 1079.95   3
   1  -4   7 148041. 7058.70   3
   1  -4   7 141924. 4366.90  11
  -1  -4  -7 132756. 5736.87  20
  -1  -4  -8 149829. 6823.33  20
  -1  -4  -8 133295. 6235.68  21
   1  -4   8 139797. 4618.03  11
  -1  -4  -9 46188.1 3661.03  21
   1  -4   9 47742.9 4784.32   3
   1  -4   9 53959.3 3405.21  11
  -1  -4  -9 40827.3 4606.41  20
   1  -4   9 49306.0 3493.85  14
   1  -4  10-254.885 1343.85  14
   1  -4  10 1452.69 1378.96  11
   1  -4  11 41069.1 2610.06  11
   1  -4  11 41790.9 2987.51  14
   1  -4  12 41310.3 2244.45  11
   1  -4  12 46924.2 2855.42  14
   1  -4  13 34592.0 2235.48  14
   1  -4  14 2748.71 809.264   9
   1  -4  14 2450.38 805.895  14
   1  -4  15 8442.73 1009.24   9
   1  -4  15 8145.20 1003.99  14
   1  -4  16 18735.8 1185.97   9
   1  -4  16 21448.1 1297.72  14
   1  -4  17 16824.0 942.493  14
  -1  -3  17 8108.80 823.955  14
  -1  -3  17 9273.82 985.696  11
  -1  -3  16 33121.8 1769.40  14
  -1  -3  16 30888.3 1857.19  11
  -1  -3  15 29253.6 1704.69   7
  -1  -3  15 32175.0 2016.85  11
  -1  -3  15 29477.9 1841.68  14
  -1  -3  14 20700.5 1629.98  14
  -1  -3  14 17509.3 1606.62  11
  -1  -3  13 18253.0 1722.45  11
  -1  -3  13 16345.3 1553.37  14
  -1  -3  12 81089.1 3528.57  11
  -1  -3  12 76721.3 3170.95  14
   1  -3 -12 69406.8 4353.93  21
  -1  -3  12 82100.8 3594.47  12
  -1  -3  11 84197.6 4158.86  12
  -1  -3  11 79427.9 3338.58  14
   1  -3 -11 72158.2 4683.41  21
  -1  -3  11 93319.7 4020.39  11
  -1  -3  11 83859.4 4175.34  10
  -1  -3  11 73296.8 5210.72   1
  -1  -3  10 21229.3 2340.43  11
  -1  -3  10 13778.8 2890.11   1
   1  -3 -10 17835.3 2359.13  21
  -1  -3  10 17135.1 1770.20  14
  -1  -3  10 17421.2 2050.01  10
  -1  -3  10 21894.3 2571.92  12
  -1  -3   9 6113.60 1485.90  10
  -1  -3   9 6083.12 1653.28   1
   1  -3  -9 4801.44 1314.82  21
  -1  -3   9 3316.78 1050.50  12
  -1  -3   9 3905.36 1556.09  11
   1  -3  -8 115994. 4689.71  21
  -1  -3   8 126830. 5263.37   1
  -1  -3   8 121178. 4646.65   3
  -1  -3   7 190113. 5340.34   3
   1  -3  -7 177367. 5397.02  21
  -1  -3   7 189512. 5717.84   1
  -1  -3   6 113610. 3888.53   3
   1  -3  -6 111090. 3236.53   3
  -1  -3   6 116490. 4146.18   1
  -1  -3   5 1338.42 625.258   3
   1  -3  -5 1335.30 508.056   3
  -1  -3   5 939.521 698.141   1
   1  -3  -4 72881.0 2577.85   3
  -1  -3   4 71613.9 2811.03   3
  -1  -3   4 73814.3 2906.35   1
   1  -3  -3 515084. 6897.16   3
  -1  -3   3 507737. 6998.93   1
  -1  -3   3 497304. 7248.16   3
  -1  -3   2 89026.9 2906.97   1
  -1  -3   2 87944.9 2992.22   3
   1  -3  -2 89951.5 2971.59   3
   1  -3  -1 31250.7 1809.11   3
  -1  -3   1 33698.4 1894.47   3
  -1  -3   1 34401.9 1778.95   1
   1  -3   0 31816.1 1881.70   3
  -1  -3   0 28172.2 1769.18   3
  -1  -3   0 29050.7 1637.34   1
  -1  -3  -1 259304. 4824.91   1
  -1  -3  -1 262386. 5057.65   3
   1  -3   1 257746. 5362.68   3
   1  -3   2 237718. 5294.94   3
  -1  -3  -2 235555. 4916.66  21
  -1  -3  -2 229965. 4776.88   3
   1  -3   3 77170.0 3232.23   3
  -1  -3  -3 78173.9 3085.31  21
  -1  -3  -3 79681.4 2907.59   3
  -1  -3  -4 2759.59 947.269  21
   1  -3   4 2570.40 846.372   3
  -1  -3  -4 1781.99 671.669   3
  -1  -3  -5 137603. 4949.35  21
   1  -3   5 138953. 4860.52   3
  -1  -3  -6 202987. 6826.51  21
   1  -3   6 211420. 6557.67   3
  -1  -3  -7 75598.2 4345.35  21
  -1  -3  -7 82768.1 4255.74  20
  -1  -3  -8 12087.8 1794.98  21
  -1  -3  -8 14511.9 2343.67  20
   1  -3   8 15018.7 3045.34   3
   1  -3   9 51803.6 4147.31   3
  -1  -3  -9 51838.3 4442.46  20
   1  -3   9 51246.8 3683.22  14
  -1  -3  -9 53904.3 3580.54  21
   1  -3  10 84884.6 4491.03  14
   1  -3  10 82752.4 4790.43   3
   1  -3  10 95987.1 4200.89  11
  -1  -3 -10 86776.9 4925.22  20
  -1  -3 -10 83098.8 4523.20  21
   1  -3  11 59674.3 2872.71  11
  -1  -3 -11 50644.7 3603.30  20
   1  -3  11 58716.7 3896.71   3
  -1  -3 -11 57692.6 3786.15  21
   1  -3  11 60352.3 3323.21  14
   1  -3  12 1956.46 925.273  14
   1  -3  13 22588.6 1931.47  14
   1  -3  14 47313.5 2579.73  14
   1  -3  14 43293.1 2444.95   9
   1  -3  15 32228.2 2029.19   9
   1  -3  15 34301.4 2090.33  14
   1  -3  16 5922.70 918.119  14
   1  -3  16 7047.15 976.295   9
   1  -3  17 7998.68 882.754   9
   1  -3  17 7937.79 863.569  14
   1  -3  18 14784.9 907.843  14
  -1  -2  18 23301.9 1317.86  14
  -1  -2  17 19119.4 1391.93  14
  -1  -2  17 21263.9 1525.15  11
  -1  -2  16 2278.20 793.072  11
  -1  -2  16 2393.13 649.250   8
  -1  -2  16 3229.54 777.809  14
  -1  -2  15 8732.12 1155.56   8
  -1  -2  15 8903.34 1026.00   7
  -1  -2  15 10503.5 1285.84  14
  -1  -2  15 9890.12 1307.99  11
  -1  -2  14 47128.0 2543.38  11
  -1  -2  14 48571.6 2632.60   8
  -1  -2  14 44573.3 2417.71  14
  -1  -2  13 102009. 3808.56   8
  -1  -2  13 93891.8 5321.91   1
  -1  -2  13 93738.8 3547.06  11
  -1  -2  13 93138.1 3442.36  14
  -1  -2  12 36749.8 2271.06  11
  -1  -2  12 37385.9 2389.18   8
   1  -2 -12 32174.4 2729.90  21
  -1  -2  12 33554.6 2055.91  14
  -1  -2  12 35116.8 3280.93   1
  -1  -2  11 9501.03 1766.27   1
  -1  -2  11 7961.80 1186.92  11
   1  -2 -11 5588.61 1422.83  21
  -1  -2  11 7415.17 1042.64  14
  -1  -2  11 7017.56 1175.49   8
  -1  -2  11 6772.57 1331.23  10
  -1  -2  11 7431.86 1227.35  12
   1  -2 -10 72088.9 4195.75  21
  -1  -2  10 77884.8 4777.09   1
   1  -2  -9 218816. 6830.63  21
  -1  -2   9 249724. 8228.80   1
  -1  -2   8 112465. 3846.10   3
  -1  -2   8 106209. 4998.65   1
   1  -2  -8 110728. 4238.50  21
   1  -2  -7 7818.37 1159.74  21
  -1  -2   7 7492.70 1310.89   1
  -1  -2   7 6544.38 963.732   3
  -1  -2   6 155613. 4583.28   1
  -1  -2   6 159284. 3788.18   3
  -1  -2   5 332631. 5993.77   1
  -1  -2   5 320937. 4980.08   3
   1  -2  -5 321053. 4340.43   3
  -1  -2   4 242034. 4075.04   3
   1  -2  -4 234937. 3651.20   3
  -1  -2   4 236648. 4742.11   1
  -1  -2   3 4057.11 767.580   1
   1  -2  -3 3719.96 574.576   3
  -1  -2   3 4457.78 670.969   3
   1  -2  -2 23459.7 1226.51   3
  -1  -2   2 25411.0 1311.73   3
  -1  -2   2 27592.4 1489.47   1
  -1  -2   1 503024. 5794.64   1
   1  -2  -1 507002. 5612.29   3
  -1  -2   1 502258. 5656.20   3
  -1  -2   0 627431. 6180.01   3
  -1  -2   0 620179. 6240.39   1
   1  -2   0 605189. 6331.75   3
   1  -2   1 23419.2 1353.89   3
  -1  -2  -1 23905.4 1284.58   3
  -1  -2  -1 22341.8 1304.49   1
  -1  -2  -1 23440.7 1252.09  21
   1  -2   2 110070. 2078.26   2
  -1  -2  -2 111560. 2790.80   3
   1  -2   2 112789. 2987.26   3
  -1  -2  -2 116785. 3021.78  21
  -1  -2  -3 366956. 6025.29  21
  -1  -2  -3 372134. 5251.30   3
   1  -2   3 339897. 4797.24   2
   1  -2   3 342455. 4379.82   1
   1  -2   3 355182. 5589.70   3
   1  -2   4 443265. 6652.83   1
  -1  -2  -4 438092. 7566.59  21
  -1  -2  -5 93533.8 4073.46  21
   1  -2   5 102192. 4291.61   1
  -1  -2  -5 97201.6 3538.94  20
   1  -2   6 78365.7 3792.81   1
   1  -2   6 86619.9 3652.63   2
  -1  -2  -6 102343. 4213.08  20
  -1  -2  -6 93030.4 4043.86  21
  -1  -2  -7 122444. 5656.99  20
   1  -2   7 115541. 4650.39   1
  -1  -2  -7 128047. 4721.79  21
   1  -2   8 197971. 5688.42   2
  -1  -2  -8 191094. 5877.76  21
  -1  -2  -8 200569. 7030.34  20
   1  -2   8 197068. 5857.37   1
   1  -2   9 97943.3 4227.08   2
   1  -2   9 97740.6 4342.08   1
  -1  -2  -9 94099.6 4277.35  21
  -1  -2  -9 99591.5 4640.29  20
  -1  -2 -10 1998.34 1058.19  16
  -1  -2 -10 3859.38 1279.88  15
   1  -2  10 2294.34 1113.10   1
  -1  -2 -10 2630.71 1058.25  20
   1  -2  10 4232.36 1081.52   2
  -1  -2 -10 2939.41 1001.50  21
   1  -2  10 2875.50 903.982  14
   1  -2  11 90692.1 4343.51   3
  -1  -2 -11 89920.9 4535.38  21
  -1  -2 -11 81935.7 3744.88  16
  -1  -2 -11 89528.8 4229.91  15
   1  -2  11 89254.5 3562.17  14
   1  -2  11 88224.2 4493.59   1
  -1  -2 -11 84387.8 4155.40  20
   1  -2  12 83481.6 4297.82   3
   1  -2  12 88389.8 3553.81  14
  -1  -2 -12 88481.7 4068.76  15
   1  -2  12 76983.3 4382.51   1
  -1  -2 -13 72962.2 3642.84  15
   1  -2  13 71845.4 3208.35  14
   1  -2  13 70841.5 3161.28   9
   1  -2  14 3957.47 956.751   9
  -1  -2 -14 4226.30 1138.21  15
   1  -2  14 5237.31 1054.25  14
  -1  -2 -15 9071.76 1385.30  15
   1  -2  15 11208.3 1348.29  14
   1  -2  15 10395.1 1384.15   9
   1  -2  16 22204.9 1703.05  14
   1  -2  16 22821.2 1696.73   9
   1  -2  17 16657.7 1349.16  14
   1  -2  17 16135.4 1327.80   9
   1  -2  18 3764.37 621.184   9
   1  -2  18 3009.24 577.155  14
  -1  -1  19 14758.0 1004.50  14
  -1  -1  18 2958.36 667.267  14
  -1  -1  17 4642.72 885.074   8
  -1  -1  17 5040.20 928.517  14
  -1  -1  16 46610.8 2476.22  11
  -1  -1  16 48139.1 2581.04   8
  -1  -1  16 43784.5 2375.86  14
  -1  -1  15 54608.7 2778.10  11
  -1  -1  15 55863.2 2860.41   8
  -1  -1  15 51094.2 2649.08  14
  -1  -1  15 52748.0 2466.23   7
  -1  -1  14 4732.03 869.620   7
  -1  -1  14 5982.01 1100.14  11
  -1  -1  14 5344.26 1049.59  14
  -1  -1  14 6236.16 1167.84   8
  -1  -1  13 6709.74 1507.20   1
  -1  -1  13 5008.70 971.052  14
  -1  -1  13 7991.56 1273.55   8
  -1  -1  13 5504.54 908.617   7
  -1  -1  13 6334.39 1081.13  11
  -1  -1  12 78896.4 4603.16   1
   1  -1 -12 72507.6 3627.87  21
  -1  -1  12 75257.8 3323.77   8
  -1  -1  12 77621.9 3066.81  11
  -1  -1  12 75191.1 3015.57  14
  -1  -1  11 133106. 5699.36   1
   1  -1 -11 118071. 4438.87  21
  -1  -1  11 128130. 3790.76  11
   1  -1 -10 60812.8 3132.72  21
  -1  -1  10 55416.4 3694.91   1
  -1  -1   9 14834.5 2015.56   1
   1  -1  -9 14386.9 1579.56  21
  -1  -1   8 174859. 6074.21   1
   1  -1  -8 160909. 5186.05  21
  -1  -1   8 166727. 4071.33   3
  -1  -1   7 300616. 7097.61   1
   1  -1  -7 303666. 6028.60  21
  -1  -1   7 305541. 4792.90   3
   1  -1  -7 284638. 4765.04  20
  -1  -1   6 174567. 4664.57   1
   1  -1  -6 163793. 3814.63  21
  -1  -1   6 165635. 3087.47   3
  -1  -1   5 14324.1 869.261   3
  -1  -1   5 14985.3 1355.61   1
  -1  -1   4 293265. 4867.12   1
  -1  -1   4 299715. 3306.94   3
  -1  -1   3 475505. 5598.42   1
  -1  -1   3 479806. 3849.58   3
   1  -1  -3 482781. 3543.08   3
   1  -1  -2 911586. 4936.44   3
  -1  -1   2 898226. 7011.77   1
  -1  -1   1 38990.9 1456.23   1
   1  -1  -1 40384.6 1148.99   3
  -1  -1   1 41084.2 1155.59   3
  -1  -1   0 283120. 3865.52  21
  -1  -1   0 274268. 3592.40   1
   1  -1   0 284393. 3167.95   3
  -1  -1   0 281529. 3093.00   3
   1  -1   0 284792. 2358.15   2
  -1  -1  -1 498345. 6083.79  21
  -1  -1  -1 475661. 4365.83   3
   1  -1   1 495765. 4168.92   2
  -1  -1  -1 478426. 4797.20   1
  -1  -1  -2 480687. 6256.94  21
   1  -1   2 437120. 5107.20   2
  -1  -1  -3 99660.6 3042.90  21
   1  -1   3 95166.6 2951.56   2
  -1  -1  -3 94180.6 3031.74  20
  -1  -1  -4 19328.5 1483.06  21
   1  -1   4 17780.5 1497.43   2
  -1  -1  -4 16292.9 1725.48  20
   1  -1   5 165495. 4320.82   2
  -1  -1  -5 167178. 4257.98  21
  -1  -1  -5 161774. 5412.20  20
   1  -1   6 379171. 6702.11   2
  -1  -1  -6 374136. 6669.14  21
   1  -1   7 122465. 4038.35   2
  -1  -1  -7 122423. 4062.47  21
  -1  -1  -7 117704. 4183.41  20
  -1  -1  -8 2077.92 870.076  20
   1  -1   8 2559.54 944.450   2
  -1  -1  -8 2629.98 928.136  21
  -1  -1  -9 149022. 4725.91  20
   1  -1   9 152129. 5043.20   2
  -1  -1  -9 149303. 5030.94  21
  -1  -1 -10 145530. 4858.22  20
   1  -1  10 143502. 5285.58   2
  -1  -1 -11 24229.0 2139.46  20
  -1  -1 -11 27473.2 2139.09  16
  -1  -1 -11 25234.4 2176.82  15
   1  -1  11 27611.4 1880.15  14
   1  -1  11 26351.2 2396.80   2
   1  -1  12 3112.18 1205.56   1
   1  -1  12 2489.72 852.535   9
  -1  -1 -12 3044.64 1072.43  16
  -1  -1 -12 2745.56 1030.01  15
   1  -1  12 2484.26 759.904  14
   1  -1  12 3883.88 1257.14   2
   1  -1  13 24870.3 1930.65  14
  -1  -1 -13 26398.7 2169.72  16
  -1  -1 -13 27450.3 2347.95  15
   1  -1  13 25496.0 2632.43   2
   1  -1  13 23535.0 2697.03   1
   1  -1  13 25496.7 1984.92   9
   1  -1  14 69483.4 3193.33   9
  -1  -1 -14 70297.3 3353.61  16
  -1  -1 -14 70048.9 3567.16  15
   1  -1  14 72845.6 3244.18  14
   1  -1  15 47178.1 2616.32  14
  -1  -1 -15 45058.2 2861.12  15
   1  -1  15 48273.9 2621.38   9
  -1  -1 -16 4971.54 1170.03  15
   1  -1  16 3263.81 849.650  14
   1  -1  16 4648.47 1015.77   9
   1  -1  17 6883.19 1021.52  14
   1  -1  17 8162.42 1049.90   9
  -1  -1 -17 7134.87 1101.93  15
   1  -1  18 31216.0 1684.22  14
   1  -1  18 32062.2 1672.14   9
   1  -1  19 14324.0 968.141  14
   1  -1  19 15441.3 934.026   9
  -1   0  19 7505.84 813.425  14
  -1   0  18 30429.9 1783.51  14
  -1   0  17 20468.9 1623.08  14
  -1   0  17 21520.8 1726.79   8
  -1   0  16 5029.07 1007.29  14
  -1   0  16 5491.71 1061.12   8
  -1   0  15 12507.7 1467.97   8
  -1   0  15 12581.4 1468.39  14
  -1   0  15 13564.7 1335.49   7
  -1   0  14 109331. 3933.86  11
  -1   0  14 102868. 3819.44  14
  -1   0  14 112156. 4147.33   8
  -1   0  14 101945. 3492.09   7
  -1   0  13 87894.1 4991.02   1
  -1   0  13 88861.8 3437.12  11
  -1   0  13 92594.7 3764.81   8
  -1   0  13 93397.4 3542.57  14
  -1   0  13 90977.5 3254.03   7
  -1   0  12 30547.3 2830.31   1
  -1   0  12 30559.9 1972.01  11
  -1   0  12 28379.8 1950.64  14
  -1   0  12 30743.3 2160.91   8
  -1   0  12 28721.1 1820.54   7
  -1   0  11 7949.88 1456.18   1
  -1   0  10 195016. 6416.70   1
   1   0  -9 143666. 3930.58  21
  -1   0   9 147074. 5307.88   1
   1   0  -8 184240. 4550.35   5
   1   0  -8 181692. 4110.46  21
  -1   0   8 182929. 5757.88   1
   1   0  -7 11861.1 1055.47  21
   1   0  -7 12916.1 1282.60   5
  -1   0   7 14751.5 1730.91   1
   1   0  -6 134510. 3118.07  21
   1   0  -6 137213. 3749.81   5
  -1   0   6 137932. 4212.10   1
   1   0  -5 305680. 4640.43   5
  -1   0   5 305323. 5371.95   1
   1   0  -4 199841. 3000.01  21
   1   0  -4 196788. 2953.35   5
  -1   0   4 192125. 3718.39   1
   1   0  -3 7544.05 498.326  21
  -1   0   3 7492.20 802.098   1
   1   0  -3 8062.46 570.507   5
  -1   0   2 284867. 1674.50  20
  -1   0   2 287399. 3428.79   1
   1   0  -2 283199. 2634.89   5
  -1   0   1 121621. 2016.85   1
  -1   0   1 119182. 1582.05  20
   1   0  -1 122865. 1672.48   5
  -1   0   0 94202.9 1697.78   1
   1   0   0 95660.0 1706.99   4
  -1   0   0 100089. 1987.77  20
  -1   0  -1 297767. 3183.20   1
   1   0   1 298832. 2846.38   4
   1   0   1 297005. 3608.07   2
   1   0   2 92765.8 2240.99   2
   1   0   2 93097.6 1679.44   4
   1   0   3 616580. 4826.66   4
  -1   0  -3 637656. 7394.74  20
   1   0   4 385872. 5767.50   2
  -1   0  -4 381561. 5752.84  20
   1   0   5 19455.0 1634.84   2
  -1   0  -5 20001.9 1501.21  20
   1   0   6 4002.44 1147.81   2
  -1   0  -6 4088.74 835.813  20
  -1   0  -7 158956. 4195.43  20
   1   0   7 166672. 5168.35   2
   1   0   8 209973. 5870.29   2
  -1   0  -8 206376. 5074.11  20
   1   0   9 122664. 4743.27   2
  -1   0  -9 122983. 4146.86  20
  -1   0 -10 5406.29 1103.59  20
   1   0  10 6293.32 1286.39   2
   1   0  11 13961.3 1784.54   2
  -1   0 -11 13962.3 1483.68  16
  -1   0 -11 12506.0 1541.06  15
   1   0  11 14973.3 1431.48  14
  -1   0 -11 11637.9 1347.10  13
  -1   0 -11 13754.5 1602.75  20
   1   0  11 13916.2 1386.05   9
   1   0  12 234774. 7387.66   2
   1   0  12 239392. 5577.49   9
  -1   0 -12 241460. 5753.61  16
   1   0  12 246565. 5618.68  14
  -1   0 -12 235782. 6270.26  15
  -1   0 -12 238175. 5648.75  13
   1   0  13 47062.2 3450.43   2
  -1   0 -13 52514.8 2793.57  16
   1   0  13 50665.2 2707.34   9
  -1   0 -13 47965.4 3026.05  15
   1   0  13 49130.1 2696.51  14
   1   0  13 46344.8 3734.99   1
   1   0  14 8008.69 1264.81   9
  -1   0 -14 6769.00 1393.56  15
   1   0  14 6994.16 1199.39  14
  -1   0 -14 6488.07 1164.64  16
   1   0  15 15257.1 1621.10   9
   1   0  15 13036.1 1566.93  14
  -1   0 -15 13630.3 1735.46  15
  -1   0 -15 12598.9 1471.03  16
   1   0  16 35549.1 2231.35   9
  -1   0 -16 35127.5 2435.83  15
   1   0  16 38605.0 2304.49  14
  -1   0 -17 16336.8 1654.43  15
   1   0  17 15456.6 1418.53  14
   1   0  17 17143.4 1517.80   9
   1   0  18 4674.54 773.196  14
  -1   0 -18 4081.61 823.041  15
   1   0  18 4833.32 823.357   9
   1   0  19-179.557 337.614  14
   1   0  19 128.339 337.574   9
  -1   1  19 15754.7 1083.70  14
  -1   1  18 2950.10 695.344  14
   1   1 -17 6144.46 1017.67  15
  -1   1  17 7683.19 1141.81  14
  -1   1  17 8645.50 1226.68   8
  -1   1  16 38674.1 2464.37   8
  -1   1  16 37754.5 2333.98  14
   1   1 -16 37078.2 2325.66  15
  -1   1  15 44174.6 2435.99   9
  -1   1  15 47057.7 2742.91   8
  -1   1  15 48498.5 2729.40  14
   1   1 -15 45261.4 2681.28  15
  -1   1  15 47415.9 2379.41   7
  -1   1  14 8040.04 1327.52   8
  -1   1  14 8592.83 1299.56  14
   1   1 -14 8216.78 1349.74  15
  -1   1  14 6998.00 1122.99   9
  -1   1  14 9245.58 1155.52   7
  -1   1  13 2931.45 911.849   8
  -1   1  13 4029.49 895.105   9
   1   1 -13 4223.78 1009.43  15
  -1   1  13 4065.85 1057.55  14
  -1   1  13 3158.52 652.281   7
  -1   1  13 3992.01 1275.34   1
   1   1 -12 65604.2 3177.36  15
  -1   1  12 67171.2 3128.85  14
  -1   1  12 64457.3 2904.10   9
  -1   1  12 68387.9 3163.47   8
  -1   1  12 64348.6 4159.07   1
  -1   1  12 62974.9 2756.22   7
  -1   1  11 132045. 4219.67  11
  -1   1  11 140739. 4305.80   8
  -1   1  11 137514. 5540.59   1
   1   1 -10 53105.8 3129.25   5
  -1   1  10 52511.3 3330.68   1
  -1   1   9 11629.0 1466.10   2
   1   1  -9 11791.4 1621.12   5
  -1   1   9 9187.83 1483.41   1
  -1   1   8 144492. 4571.63   2
   1   1  -8 162088. 5315.27   5
  -1   1   8 156788. 5058.79   1
  -1   1   7 352268. 7198.84   1
  -1   1   7 336474. 6619.75   2
  -1   1   6 161391. 4640.05   1
  -1   1   6 170403. 4285.17   2
   1   1  -6 166751. 3900.32   5
  -1   1   5 12350.5 1243.20   1
  -1   1   5 13929.1 1141.05   2
   1   1  -5 13866.9 1082.50   5
  -1   1   4 306444. 4548.85   1
   1   1  -4 296719. 4246.10   5
   1   1  -3 441373. 4851.98   5
  -1   1   3 449765. 4522.16   1
  -1   1   2 999999. 5339.92   1
   1   1  -2 989481. 7937.28   4
  -1   1   1 38443.9 1263.55  20
  -1   1   1 37290.1 803.164   1
   1   1  -1 37929.4 1609.38   4
  -1   1   0 258029. 3304.11  20
   1   1   0 254993. 3846.43   4
  -1   1  -1 585783. 5374.31  20
   1   1   1 599227. 5857.42   4
   1   1   2 485234. 5718.74   2
  -1   1  -2 495124. 5581.66  20
   1   1   3 103484. 2863.21   2
   1   1   3 103717. 2671.23   4
   1   1   4 34308.7 1694.11   4
   1   1   4 35030.2 1856.75   2
   1   1   5 165629. 4263.12   2
   1   1   5 158809. 3897.80   4
   1   1   6 393867. 7371.98   2
   1   1   6 408750. 6699.04   4
  -1   1  -6 399176. 7616.01  20
   1   1   7 97634.1 4224.41   2
  -1   1  -7 105139. 3820.01  20
  -1   1  -8 3012.01 945.862  20
   1   1   8 3038.53 1101.61   2
  -1   1  -9 143627. 4715.63  20
   1   1   9 160003. 5727.48   2
  -1   1 -10 135353. 4772.49  20
   1   1  10 146898. 5512.31   2
   1   1  11 41384.1 3065.14   2
  -1   1 -11 39863.2 2751.40  20
  -1   1 -11 44235.5 2448.58  16
   1   1  11 40343.7 2417.61   9
  -1   1 -11 41956.4 2654.20  15
   1   1  11 45313.5 2481.92  14
  -1   1 -11 40966.8 2311.31  13
  -1   1 -12 2462.84 1019.84  15
   1   1  12 2618.92 850.598   9
   1   1  12 3063.28 1066.10   2
   1   1  12 1343.18 824.261  14
  -1   1 -12 3916.67 1031.69  13
  -1   1 -12 2687.13 1000.16  16
  -1   1 -13 41510.7 2509.10  13
  -1   1 -13 37451.4 2655.22  15
  -1   1 -13 40212.4 2439.05  16
   1   1  13 41738.5 2544.21  14
   1   1  13 42524.0 2560.05   9
   1   1  13 36695.7 3006.76   2
   1   1  14 46603.3 2698.42   9
  -1   1 -14 46283.0 2674.47  13
   1   1  14 50339.0 2845.64  14
  -1   1 -14 51835.2 3154.46  15
  -1   1 -14 46232.1 2484.33  16
   1   1  15 45715.8 2462.26  18
   1   1  15 51749.0 2784.56   9
  -1   1 -15 47401.2 2948.97  15
   1   1  15 48730.3 2708.13  14
  -1   1 -16 2487.09 1050.66  15
   1   1  16 2125.73 784.884  14
   1   1  16 2565.49 897.235   9
  -1   1 -17 6628.33 1179.25  15
   1   1  17 6981.50 1116.14  14
   1   1  17 6086.17 1011.61   9
   1   1  18 32485.7 1697.30   9
  -1   1 -18 28801.5 1779.83  15
   1   1  18 29863.1 1683.19  14
   1   1  19 12043.6 882.109  14
  -1   1 -19 12675.4 990.790  15
   1   1  19 13412.9 896.343   9
  -1   2  19 6097.92 674.289  19
  -1   2  19 5763.92 666.220  14
  -1   2  18 24770.9 1587.73  19
  -1   2  18 24290.5 1546.64  14
   1   2 -18 22859.5 1487.35  15
   1   2 -17 16146.4 1479.92  15
  -1   2  17 15203.7 1463.25  14
  -1   2  16 5548.04 872.933   9
   1   2 -16 5156.79 1125.03  15
  -1   2  16 4338.71 1028.81  14
   1   2 -15 13319.5 1640.54  15
  -1   2  15 14229.3 1564.40   8
  -1   2  15 12123.4 1369.53   9
  -1   2  15 14891.0 1659.75  14
  -1   2  15 11125.2 1185.04   7
   1   2 -14 52368.4 3006.49  15
  -1   2  14 57087.5 3143.12  14
  -1   2  14 55913.8 2890.83   9
  -1   2  14 51168.2 2589.42   7
  -1   2  14 53184.5 3002.12   8
  -1   2  13 98247.5 3841.83   9
   1   2 -13 103334. 4191.78  15
  -1   2  13 101870. 3985.33   8
  -1   2  13 92523.3 3521.51   7
  -1   2  13 91403.9 4871.54   1
  -1   2  13 98285.9 4140.00  14
  -1   2  12 38359.4 2500.17   9
   1   2 -12 34239.8 2481.04  15
  -1   2  12 39344.4 2455.30   8
  -1   2  12 33503.3 2449.30  14
   1   2 -12 35673.9 3069.19   4
  -1   2  12 31686.5 2912.60   1
  -1   2  12 33280.4 2109.84   7
   1   2 -11 11948.6 1984.41   4
  -1   2  11 10433.3 1260.42   8
   1   2 -11 9548.65 1406.56  15
   1   2 -11 8907.91 1624.08   5
  -1   2  11 11829.2 1677.78  14
  -1   2  11 8417.99 1647.21   1
  -1   2  11 10360.6 1474.71   9
  -1   2  11 10784.3 1263.72   7
  -1   2  10 94086.1 4338.08   1
   1   2 -10 81146.5 4572.71   5
   1   2 -10 90399.8 5317.94   4
  -1   2   9 216171. 5707.41   2
   1   2  -9 226822. 7187.43   5
  -1   2   9 209338. 6244.28   1
  -1   2   8 94773.1 3610.45   2
   1   2  -8 107459. 4276.17   5
  -1   2   8 97596.4 4024.82   1
   1   2  -7 8152.60 1535.08   4
  -1   2   7 6593.32 1163.18   1
   1   2  -7 8462.65 1229.96   5
  -1   2   7 6882.30 1029.31   2
  -1   2   6 124419. 4001.58   1
   1   2  -6 130319. 4408.58   4
  -1   2   6 131667. 3640.61   2
   1   2  -5 361588. 6621.19   4
  -1   2   5 357173. 5869.02   1
  -1   2   5 358044. 4969.66   2
   1   2  -5 348555. 5773.46   5
   1   2  -4 219195. 4860.43   4
   1   2  -4 228337. 4404.87   5
  -1   2   4 231960. 3946.83   1
   1   2  -3 1348.09 516.613   5
  -1   2   3 845.846 365.159   1
   1   2  -3 1466.66 778.055   4
   1   2  -2 10374.2 980.122   5
   1   2  -2 10477.6 1185.77   4
   1   2  -1 582623. 7331.31   4
  -1   2   1 573979. 4143.49   5
  -1   2   0 504614. 5129.13   5
   1   2   0 494370. 5969.76   5
   1   2   0 495606. 6737.63   4
  -1   2  -1 12860.7 1122.50  20
  -1   2  -1 15911.4 1217.51   5
   1   2   1 13295.1 1299.89   4
  -1   2  -2 99022.6 3195.96   5
   1   2   2 97158.3 2957.21   2
  -1   2  -2 96467.6 2921.20  20
   1   2   2 102669. 3193.45   4
  -1   2  -3 299554. 5710.98   5
   1   2   3 309808. 5437.87   2
   1   2   3 312363. 5642.21   4
   1   2   4 425130. 6864.64   4
  -1   2  -4 415108. 6969.44   5
   1   2   4 425703. 6716.92   2
   1   2   5 118693. 3901.82   4
  -1   2  -5 111453. 3815.36   5
   1   2   5 113412. 3719.82   2
  -1   2  -6 104982. 5602.98  20
   1   2   6 95733.3 3723.16   4
   1   2   6 92155.1 3681.20   2
   1   2   7 155875. 5127.87   4
   1   2   7 140235. 5045.09   2
  -1   2  -7 140870. 5843.90  20
   1   2   8 187575. 6463.00   2
  -1   2  -8 188784. 6108.23  20
   1   2   9 101407. 4874.95   2
  -1   2  -9 94595.9 4317.22  20
  -1   2 -10 2548.08 975.509  20
   1   2  10 3433.20 1158.87   9
   1   2  10 3964.49 1185.64   2
  -1   2 -10 3098.40 882.691  13
  -1   2 -10 2461.35 879.297  15
   1   2  10 2856.33 1050.66  14
  -1   2 -11 68843.4 3825.84  20
   1   2  11 79956.9 3676.67  14
   1   2  11 74355.3 4150.25   2
   1   2  11 77165.7 3552.24   9
  -1   2 -11 76290.8 3251.61  16
  -1   2 -11 77538.6 3595.40  15
  -1   2 -11 70114.7 3140.82  13
   1   2  12 78995.5 4370.53   2
  -1   2 -12 80022.1 3755.79  15
  -1   2 -12 79552.1 3258.77  16
   1   2  12 82322.1 3671.79   9
  -1   2 -12 80994.5 3467.98  13
   1   2  12 80669.7 3696.20  14
   1   2  12 78710.2 3464.62  18
  -1   2 -13 73565.5 3294.68  13
   1   2  13 77417.9 3387.18  18
   1   2  13 74825.8 3498.92   9
  -1   2 -13 77673.1 3769.48  15
   1   2  13 75378.0 3533.18  14
   1   2  14 6830.16 1275.56  14
   1   2  14 7309.39 1272.94   9
  -1   2 -14 7073.28 1276.05  13
   1   2  14 5773.43 1073.80  18
  -1   2 -14 7808.58 1470.25  15
   1   2  15 11644.7 1291.13  18
  -1   2 -15 13178.6 1518.47  13
  -1   2 -15 13758.3 1701.01  15
   1   2  15 13439.6 1548.11  14
   1   2  15 14385.8 1598.04   9
   1   2  16 25149.7 1911.52   9
  -1   2 -16 23597.1 2032.91  15
   1   2  16 24679.2 1843.44  14
   1   2  17 19422.1 1474.25  14
  -1   2 -17 19216.9 1662.53  15
   1   2  17 19973.3 1496.05   9
   1   2  18 4104.67 693.419  14
   1   2  18 4150.58 667.190   9
  -1   2 -18 2902.45 705.177  15
  -1   3  18 946.478 399.225  19
   1   3 -18 2129.37 576.912  15
  -1   3  17 8644.38 1035.81  14
   1   3 -17 8662.94 1075.16  15
  -1   3  17 8740.88 1035.70  19
  -1   3  16 30673.7 1785.00   9
  -1   3  16 31135.8 2043.51  19
   1   3 -16 29289.5 2061.24  15
  -1   3  16 29180.8 2031.92  14
  -1   3  15 35428.6 2124.03   9
  -1   3  15 33435.6 2326.80  19
  -1   3  15 32303.6 2279.43  14
  -1   3  15 33051.2 1908.23   7
   1   3 -15 35618.5 2404.84  15
  -1   3  14 18573.8 1911.31  19
  -1   3  14 16657.9 1686.07   9
   1   3 -14 16418.9 1809.65  15
  -1   3  14 17095.5 1859.39  14
   1   3 -14 16911.4 1520.48  13
  -1   3  14 18828.3 1592.01   7
  -1   3  13 20573.9 2130.09  14
  -1   3  13 15057.9 1556.63   7
  -1   3  13 14717.8 1703.64   9
  -1   3  13 19337.6 1810.19   8
   1   3 -13 15906.0 1606.35  13
   1   3 -13 16222.0 1905.48  15
   1   3 -12 66022.6 3175.33  13
  -1   3  12 70066.2 3918.77  14
   1   3 -12 69877.8 3674.76  15
  -1   3  12 68891.8 3381.22   8
  -1   3  12 70460.0 3567.74   9
  -1   3  12 64780.5 3137.13   7
  -1   3  11 82061.2 4550.70  14
   1   3 -11 76594.1 4810.99   5
   1   3 -11 74955.8 3905.28  15
   1   3 -11 72213.7 3553.65  13
  -1   3  11 74334.1 3916.89   9
  -1   3  11 73683.4 3503.94   8
  -1   3  11 82510.3 3607.24   7
   1   3 -10 24938.5 3223.38   4
  -1   3  10 29411.7 2624.99   9
  -1   3  10 33938.3 2406.54   8
   1   3 -10 31422.3 3302.58   5
  -1   3  10 29390.7 2983.48  14
   1   3 -10 26055.5 2515.37  15
   1   3 -10 26763.8 2368.45  13
  -1   3  10 31428.3 2400.15   7
  -1   3   9 4045.94 1024.92   9
  -1   3   9 5881.55 1509.41   7
  -1   3   9 7706.05 1505.76  14
   1   3  -9 2635.51 1765.54   4
   1   3  -9 4350.14 1233.96  15
  -1   3   9 5425.71 1171.56   8
   1   3  -9 5161.20 1454.24   5
   1   3  -9 2576.73 1009.03  13
   1   3  -8 147177. 5395.77   5
   1   3  -8 151752. 6784.70   4
   1   3  -7 206697. 5817.90   5
   1   3  -7 197759. 6515.79   4
   1   3  -6 87897.7 3567.13   5
   1   3  -6 90911.4 4055.66   4
   1   3  -5 1829.82 859.692   4
   1   3  -5 365.320 601.819   5
   1   3  -4 86400.2 3592.76   4
   1   3  -4 92635.0 3325.36   5
   1   3  -3 497938. 7446.13   5
   1   3  -3 490493. 8297.26   4
   1   3  -2 79517.0 2942.89   5
   1   3  -2 74913.9 3235.96   4
  -1   3   1 47431.8 2386.17   4
   1   3  -1 53271.3 2383.73   5
  -1   3   1 50507.9 1605.10   5
   1   3  -1 51723.1 2686.72   4
  -1   3   0 18756.8 1475.84   4
  -1   3   0 20008.9 1179.23   5
   1   3   0 19950.1 1540.84   5
   1   3   0 18711.2 1727.19   4
  -1   3  -1 301398. 5012.45   5
   1   3   1 295550. 5606.50   5
   1   3   1 301985. 5774.27   2
   1   3   1 296473. 6316.48   4
   1   3   2 286386. 5668.36   2
   1   3   2 287484. 5762.44   5
   1   3   2 290063. 6387.46   4
   1   3   3 68727.7 2874.88   5
  -1   3  -3 66544.1 3218.61   5
   1   3   3 62365.1 2752.15   2
   1   3   3 69608.7 3241.21   4
   1   3   4 4949.19 1197.13   4
  -1   3  -4 6184.90 1265.96   5
   1   3   4 6401.32 1108.53   2
   1   3   5 146673. 4970.70   4
  -1   3  -5 152984. 5499.82  20
  -1   3  -5 131558. 4774.00   5
   1   3   5 132676. 4369.64   2
   1   3   6 153517. 5039.98   2
   1   3   6 166143. 5534.40   4
  -1   3  -6 166155. 5392.91   5
   1   3   7 88351.8 4300.32   4
  -1   3  -7 80087.0 3933.39   5
  -1   3  -7 68459.8 5293.18  20
   1   3   7 76827.4 3956.51   2
   1   3   8 10562.6 2108.26   9
   1   3   8 9699.22 1697.53   2
  -1   3  -8 8783.80 1219.67  13
  -1   3  -8 8362.17 2085.92  20
   1   3   9 63731.5 6126.10   9
  -1   3  -9 51494.4 2751.51  13
  -1   3  -9 57652.0 3573.01  19
  -1   3  -9 52645.1 2889.73  15
  -1   3  -9 50047.5 2892.16  16
   1   3   9 58412.7 3447.06  18
   1   3   9 58445.4 3816.43   2
   1   3   9 60187.3 4720.57  14
  -1   3  -9 48419.9 3690.18  20
  -1   3 -10 95721.4 3731.82  13
   1   3  10 112868. 5544.13   9
  -1   3 -10 94906.7 4064.03  16
  -1   3 -10 96157.1 3949.42  15
   1   3  10 113900. 6287.48  14
   1   3  10 97022.6 4155.43  18
   1   3  10 91536.5 4652.24   2
   1   3  11 70259.8 4046.44  14
  -1   3 -11 58167.4 2995.29  13
   1   3  11 63739.6 3755.10   9
   1   3  11 61396.0 3275.89  18
   1   3  11 59742.5 3733.87   2
  -1   3 -11 59576.6 3237.29  15
   1   3  12 334.615 949.916   9
   1   3  12 1071.25 788.950  18
  -1   3 -12 406.150 854.506  15
  -1   3 -12 741.126 744.230  13
   1   3  12 762.055 992.954  14
   1   3  13 25239.8 2069.43  18
   1   3  13 26266.6 2237.17   9
   1   3  13 27864.9 2278.96  14
  -1   3 -13 27526.2 2282.78  15
  -1   3 -13 24532.3 1998.66  13
   1   3  14 47576.9 2585.11  18
  -1   3 -14 54770.2 3021.97  15
  -1   3 -14 48926.0 2456.10  17
   1   3  14 56020.4 2982.78  14
   1   3  14 51644.1 2894.21   9
  -1   3 -14 50340.9 2656.92  13
   1   3  15 28421.6 1827.11  18
  -1   3 -15 30499.7 2225.05  15
   1   3  15 28835.5 2066.99  14
  -1   3 -15 27056.5 1899.18  13
   1   3  15 30616.2 2107.78   9
  -1   3 -16 4406.83 1017.75  15
   1   3  16 4876.52 926.990   9
   1   3  16 5628.59 972.478  14
  -1   3 -16 4304.84 843.705  13
   1   3  17 6060.15 855.019   9
   1   3  17 6498.72 831.857  14
  -1   3 -17 6863.50 980.900  15
   1   3  18 14967.5 938.277   9
  -1   3 -18 13320.5 1010.00  15
   1   4 -17 22524.8 1382.83  15
  -1   4  17 22482.2 1149.16  19
  -1   4  16 908.771 489.573  19
  -1   4  16 1449.40 479.310   9
   1   4 -16 1710.80 738.664  15
  -1   4  15 7270.28 1076.65  19
  -1   4  15 8717.63 1086.42   9
   1   4 -15 7545.61 1185.40  15
   1   4 -15 5993.77 862.916  13
  -1   4  15 7177.81 854.041   7
  -1   4  14 38283.1 2574.03  14
  -1   4  14 39556.6 2295.95   9
   1   4 -14 38358.0 2536.99  15
  -1   4  14 33848.7 1987.33   7
   1   4 -14 35500.4 2054.55  13
  -1   4  14 39098.4 2536.74  19
  -1   4  13 48138.4 3046.42  19
   1   4 -13 52132.0 3047.21  15
  -1   4  13 51519.1 3217.17  14
   1   4 -13 46317.7 2585.68  13
  -1   4  13 48973.2 2810.94   9
  -1   4  13 49198.1 2590.63   7
  -1   4  12 24781.5 2583.16  14
  -1   4  12 24504.2 2555.08  19
   1   4 -12 24183.8 2259.52  15
  -1   4  12 20056.9 2003.37   9
   1   4 -12 22464.9 2044.40  13
  -1   4  12 22094.2 1932.60   7
   1   4 -11 3728.66 1399.73  15
  -1   4  11 3475.02 1116.02   7
  -1   4  11 1655.30 1046.30   9
  -1   4  11 2336.02 1642.62  19
  -1   4  11 3812.64 1758.48  14
   1   4 -11 2114.10 1190.69  13
  -1   4  10 59791.1 4352.59  14
  -1   4  10 68634.4 5721.20  19
  -1   4  10 60609.3 3979.26   9
   1   4 -10 54537.2 4622.66   5
   1   4 -10 54351.1 3629.03  15
   1   4 -10 61878.8 3747.38  13
  -1   4  10 69381.0 3859.90   7
  -1   4   9 162599. 6543.47  19
  -1   4   9 152315. 5649.08   9
   1   4  -9 155618. 6965.46   5
  -1   4   9 151190. 5907.70  14
   1   4  -9 160534. 5338.13  13
  -1   4   9 176866. 7358.47   7
   1   4  -9 158078. 5995.09  15
  -1   4   8 57853.8 3533.14  19
  -1   4   8 55645.1 3181.88   9
   1   4  -8 61668.0 3096.26  13
   1   4  -8 56654.5 3795.36   5
   1   4  -8 61922.4 3479.09  15
  -1   4   8 54977.6 3301.03  14
  -1   4   8 56606.5 4127.78   7
  -1   4   7 463.206 858.256   7
  -1   4   7 2093.38 1012.78  14
   1   4  -7 1254.63 803.378  15
   1   4  -7-66.6314 577.570   4
   1   4  -7 2645.32 1090.50  19
  -1   4   7 2755.75 1047.44   9
  -1   4   7 51.9372 769.150  19
   1   4  -7 908.964 701.896   5
   1   4  -7 2716.36 992.764  13
  -1   4   6 57736.2 3048.23   7
   1   4  -6 59084.0 3362.76   5
   1   4  -6 55318.8 2620.83  13
   1   4  -6 55506.5 3621.19   4
   1   4  -5 167217. 5901.12   4
   1   4  -5 166876. 5306.94   5
   1   4  -4 150951. 4903.70   5
   1   4  -4 142745. 5267.75   4
   1   4  -3 28768.0 2133.80   5
   1   4  -3 31594.8 2486.10   4
   1   4  -2 139061. 4496.35   5
   1   4  -2 138436. 5011.26   4
  -1   4   1 180506. 5593.36   4
   1   4  -1 188282. 5197.28   5
   1   4  -1 196036. 5955.92   4
   1   4   0 222965. 5628.69   5
   1   4   0 218259. 5463.55   2
   1   4   0 229403. 6451.81   4
   1   4   1 12296.3 1450.99   5
   1   4   1 9553.60 1219.71   2
   1   4   1 11562.3 1655.87   4
  -1   4  -2 29501.5 2268.14   5
   1   4   2 30631.8 2203.31   5
   1   4   2 29817.1 2071.87   2
   1   4   2 30481.6 2502.57   4
   1   4   3 221209. 6577.48   4
  -1   4  -3 237456. 6715.96   5
   1   4   3 224621. 5880.15   5
  -1   4  -4 128689. 5190.86   5
   1   4   4 140132. 4788.89   5
   1   4   4 133078. 4490.37   2
   1   4   5 58880.4 3188.71   2
   1   4   5 61313.9 3749.11   4
  -1   4  -5 51773.9 3449.30   5
   1   4   5 57665.8 3214.33   5
   1   4   6 4047.09 965.154   2
   1   4   6 7711.62 1710.30   4
  -1   4  -6 6991.24 1165.31  19
   1   4   6 7695.92 1468.75  18
   1   4   6 7624.59 1347.34   9
  -1   4  -6 5774.38 1309.36   5
   1   4   6 5474.51 1143.66  14
   1   4   6 8174.88 1385.06   5
  -1   4  -6 6025.78 1285.29  13
   1   4   7 160908. 6049.22   5
  -1   4  -7 162092. 5117.53  19
   1   4   7 142717. 5154.38   9
  -1   4  -7 153838. 5854.78   5
   1   4   7 166751. 6312.68  18
  -1   4  -7 144582. 4078.55  16
  -1   4  -7 158398. 4786.02  15
   1   4   7 162953. 6552.68   4
   1   4   7 146910. 5100.21  14
  -1   4  -7 144467. 4984.39  13
  -1   4  -8 173134. 5736.63  19
   1   4   8 168517. 7034.65   5
   1   4   8 168066. 7651.71  18
  -1   4  -8 161805. 5096.95  13
  -1   4  -8 160717. 4525.19  16
   1   4   8 164711. 6264.24   9
   1   4   8 163376. 5885.77  14
  -1   4  -8 172371. 5127.27  15
   1   4   9 43763.6 3443.66  18
  -1   4  -9 44553.7 2714.23  15
  -1   4  -9 41350.1 2666.21  16
  -1   4  -9 44310.4 2754.03  13
   1   4   9 44603.0 4486.59   9
   1   4   9 40949.9 3688.62  14
  -1   4  -9 42719.1 3256.92  19
   1   4  10 798.111 1020.89  18
   1   4  10 1515.32 2097.73   9
  -1   4 -10 878.932 959.910  15
   1   4  10 1470.98 2731.27  14
  -1   4 -10 987.739 819.857  13
   1   4  11 40950.3 2800.62  18
   1   4  11 40283.6 3352.37   9
  -1   4 -11 37941.2 2577.40  15
   1   4  11 42634.4 3686.54  14
  -1   4 -11 39041.1 2528.09  13
   1   4  12 42899.4 2671.58  18
   1   4  12 45248.1 3094.22   9
   1   4  12 45820.8 3179.72  14
  -1   4 -12 41671.9 2554.98  13
  -1   4 -12 41761.8 2690.97  15
   1   4  13 34003.9 2251.31  18
  -1   4 -13 34343.7 2348.30  15
   1   4  13 32726.6 2533.06  14
   1   4  13 39288.9 2609.41   9
  -1   4 -13 34439.2 2280.20  13
  -1   4 -14 3790.90 991.974  13
   1   4  14 3422.51 928.166   9
  -1   4 -14 2220.15 701.244  17
  -1   4 -14 3255.45 963.120  15
   1   4  14 3785.00 1014.40  14
   1   4  14 3683.92 873.812  18
   1   4  15 6639.99 881.478  18
  -1   4 -15 7545.90 1100.43  15
   1   4  15 6955.21 1039.64   9
   1   4  15 5860.89 967.874  14
  -1   4 -15 5944.25 963.930  13
  -1   4 -16 21703.8 1470.28  15
  -1   4 -16 21674.0 1343.68  13
   1   4  16 25197.7 1483.54   9
   1   4  17 15064.9 933.821   9
  -1   4 -17 12255.0 911.684  15
   1   5 -16 18305.2 1145.93  15
  -1   5  15 24145.3 1304.13  19
   1   5 -15 22976.0 1511.95  15
   1   5 -15 23517.2 1275.55  13
  -1   5  15 20177.2 1188.11   9
  -1   5  14 3641.18 597.149   7
   1   5 -14 5548.58 836.394  13
  -1   5  14 4922.09 841.453  19
  -1   5  14 4927.08 808.022   9
   1   5 -14 5304.35 980.572  15
  -1   5  13 1608.47 600.346   7
   1   5 -13 2668.86 833.920  13
   1   5 -13 2954.54 922.157  15
  -1   5  13 4171.35 933.452   9
  -1   5  13 3513.03 932.777  19
  -1   5  12 36068.1 2629.01  19
  -1   5  12 34169.7 2395.35   9
   1   5 -12 34601.1 2497.31  15
   1   5 -12 31261.0 2222.29  13
  -1   5  12 31367.3 2131.87   7
   1   5 -11 57134.2 3361.03  15
   1   5 -11 57536.9 3325.60  13
  -1   5  11 55925.0 3417.36   9
  -1   5  11 60929.0 3185.12   7
   1   5 -10 17767.7 2286.64  13
   1   5 -10 19891.2 2288.17  15
  -1   5  10 18364.0 2488.84   9
  -1   5  10 24410.6 2420.81   7
  -1   5  10 22735.6 4294.35  19
  -1   5   9 3889.19 1807.86   7
  -1   5   9 5233.76 1695.00  19
  -1   5   9 4405.56 1164.64  18
  -1   5   9 3129.24 1127.82   9
   1   5  -9 3017.06 1404.35  15
   1   5  -9 2402.85 1181.90  13
  -1   5   8 40960.0 3213.40  19
  -1   5   8 41297.1 2927.58  18
  -1   5   8 41057.5 3008.34   9
   1   5  -8 43004.3 2939.92  13
   1   5  -8 42206.7 3311.18  15
  -1   5   8 45194.7 4051.50   7
  -1   5   7 115208. 4733.86  18
   1   5  -7 105108. 5024.68  19
  -1   5   7 112421. 4622.61   9
   1   5  -7 126436. 4558.28  13
   1   5  -7 125391. 5787.14   5
   1   5  -7 126290. 5113.73  15
  -1   5   7 115531. 4844.62  19
  -1   5   7 121496. 5356.93   7
   1   5  -6 105114. 5032.88   5
   1   5  -6 109674. 4085.61  13
  -1   5   6 107516. 4334.58  18
   1   5  -6 91242.0 4355.68  19
  -1   5   6 101008. 4248.87   9
  -1   5   6 107808. 4488.72  19
   1   5  -6 111239. 4503.87  15
  -1   5   6 101210. 4420.32   7
   1   5  -5 13523.8 1410.44  18
   1   5  -5 12367.4 1554.76  19
   1   5  -5 13999.0 1584.31  13
  -1   5   5 13602.4 1722.17  18
  -1   5   5 15142.2 1827.55  19
   1   5  -5 13367.4 1872.69   5
  -1   5   5 13492.3 1643.60   7
  -1   5   5 13493.9 1614.65   9
  -1   5   4 64400.1 3197.71   9
  -1   5   4 67384.7 3475.12  19
   1   5  -4 65425.5 3057.37  13
   1   5  -4 66590.3 2852.68  18
  -1   5   4 67046.6 3214.41  18
   1   5  -4 64775.9 3716.32   5
  -1   5   4 70654.8 3408.00   7
   1   5  -4 64825.1 4107.36   4
   1   5  -3 120823. 5419.33   4
  -1   5   3 118028. 4422.54  19
   1   5  -3 118596. 3826.19  18
  -1   5   3 120894. 4295.27   7
  -1   5   3 114639. 4220.29   9
  -1   5   3 118023. 4160.82  18
   1   5  -3 124314. 4931.27   5
   1   5  -3 117692. 3978.27  13
  -1   5   2 118811. 4433.93  19
  -1   5   2 111282. 3979.68  18
  -1   5   2 108925. 3995.07   9
   1   5  -2 110428. 4603.42   5
   1   5  -2 111986. 3857.57  13
  -1   5   2 121708. 4236.99   7
   1   5  -2 110634. 3785.11  18
   1   5  -2 113881. 5258.53   4
   1   5  -1 21419.3 2085.22   5
  -1   5   1 22112.9 1992.34  19
   1   5  -1 21279.9 1808.00  18
  -1   5   1 22999.9 1922.69  18
  -1   5   1 23833.7 1929.48   7
   1   5  -1 24306.2 1979.51  13
   1   5  -1 26435.6 2599.01   4
  -1   5   0 37703.2 2298.08  18
   1   5   0 35049.7 2260.99  18
  -1   5   0 41026.6 2576.42  19
   1   5   0 36204.5 2305.59   9
   1   5   0 41030.9 2840.01   5
   1   5   0 45208.7 3329.19   4
   1   5   0 38406.3 2373.41   7
   1   5   0 37662.8 2265.90  13
  -1   5   0 39840.3 2363.90   7
   1   5   1 127242. 5632.63   4
  -1   5  -1 128448. 4481.32  19
   1   5   1 116875. 4093.36   9
  -1   5  -1 120962. 4046.86   7
   1   5   1 118715. 4750.37   5
  -1   5  -1 125770. 4047.86  18
   1   5   1 118737. 4073.08   7
   1   5   1 113300. 4079.19  18
   1   5   2 158783. 6307.42   4
   1   5   2 136113. 4408.94   7
  -1   5  -2 148594. 4833.78  19
  -1   5  -2 149220. 4428.80  18
   1   5   2 148710. 4797.49  18
   1   5   2 145324. 4574.17   9
   1   5   2 142747. 5174.38   5
  -1   5  -2 145977. 4355.12   7
   1   5   3 56981.7 3877.12   4
  -1   5  -3 51571.1 2563.45  16
   1   5   3 51871.6 2863.19   9
   1   5   3 51914.3 3208.81   5
  -1   5  -3 53923.8 3338.65  13
   1   5   3 47439.5 2691.89   7
  -1   5  -3 52478.5 2956.12  19
   1   5   3 52018.1 2958.53  18
  -1   5  -3 49191.9 2657.78  18
   1   5   4 27202.7 2804.06   4
  -1   5  -4 26105.9 2120.54  19
   1   5   4 27656.9 2306.46  18
  -1   5  -4 27410.8 2008.63  18
  -1   5  -4 25925.7 1873.66  16
   1   5   4 21230.8 2166.63   5
   1   5   4 24145.1 2094.50   9
  -1   5  -4 22146.6 2341.81  13
   1   5   4 23311.2 2030.24   7
  -1   5  -5 95276.0 4320.23  13
   1   5   5 111685. 5671.66   4
  -1   5  -5 107854. 4313.86  19
  -1   5  -5 109642. 3996.99  18
   1   5   5 104134. 4237.96   9
  -1   5  -5 103739. 3548.58  16
   1   5   5 100585. 4441.04  18
   1   5   5 95973.1 4071.58   7
  -1   5  -6 82410.8 3204.28  16
  -1   5  -6 87268.8 4005.58  19
   1   5   6 84334.8 3988.03   9
  -1   5  -6 79739.4 3906.07  13
   1   5   6 84865.7 4339.01  18
   1   5   6 90474.3 5230.99   4
   1   5   6 72323.7 3689.97   7
   1   5   7 19158.4 2184.49   9
   1   5   7 17777.6 1954.71   7
   1   5   7 18918.7 2528.57  18
  -1   5  -7 19729.2 2095.24  19
  -1   5  -7 18101.4 1644.22  16
  -1   5  -7 19171.9 2058.72  13
   1   5   8 2889.62 1806.65  18
  -1   5  -8 2703.61 1303.85  19
   1   5   8 2476.06 1359.92   9
  -1   5  -8 1568.83 865.789  16
  -1   5  -8 1741.73 1052.04  13
  -1   5  -9 19116.9 2530.05  19
   1   5   9 24665.4 2731.25  18
   1   5   9 29280.9 3758.37   9
  -1   5  -9 23575.5 1975.64  15
  -1   5  -9 21138.0 2010.00  13
   1   5  10 68970.6 3732.81  18
  -1   5 -10 68195.4 3203.55  15
  -1   5 -10 68855.7 3302.04  13
   1   5  11 32266.8 2389.41  18
  -1   5 -11 35759.1 2320.03  15
  -1   5 -11 35888.6 2365.48  13
   1   5  12-790.685 839.448   9
  -1   5 -12 558.234 689.387  15
   1   5  12 282.536 678.312  18
  -1   5 -12 492.377 733.867  13
   1   5  13 18443.0 1607.30   9
  -1   5 -13 15266.3 1389.96  15
   1   5  13 16285.0 1413.79  18
  -1   5 -13 15878.0 1415.20  13
   1   5  14 33958.1 1632.70  18
  -1   5 -14 29178.7 1549.18  17
  -1   5 -14 33318.8 1761.61  15
   1   5  14 37315.1 1953.43   9
  -1   5 -14 35118.5 1812.38  13
   1   5  15 9307.43 870.038   9
  -1   5 -15 8017.35 823.136  15
  -1   5 -15 8981.71 857.008  13
   1   6 -14 19748.5 1141.36  15
   1   6 -14 20163.3 1047.81  13
   1   6 -13 30407.8 1552.92  13
  -1   6  13 27819.2 1346.57   7
   1   6 -13 26670.8 1565.99  15
  -1   6  12 7095.56 940.439  19
  -1   6  12 6442.62 968.967   9
   1   6 -12 5547.86 957.214  15
  -1   6  12 5863.02 848.292   7
   1   6 -12 4889.02 884.819  13
  -1   6  11 1376.84 617.948   7
  -1   6  11 3371.25 910.506  19
   1   6 -11 2193.43 897.698  13
  -1   6  11 2390.01 902.257   9
   1   6 -11 2491.21 852.323  15
   1   6 -10 37864.3 2457.05  15
   1   6 -10 39241.7 2662.05  13
  -1   6  10 40457.9 2574.95   7
  -1   6  10 32213.7 2658.79   9
  -1   6   9 48365.4 4873.98  19
  -1   6   9 39158.9 2241.17  18
  -1   6   9 41433.8 3250.40   9
   1   6  -9 43745.6 2806.16  15
   1   6  -9 40670.7 3082.91  13
  -1   6   9 50673.5 3587.87   7
  -1   6   8 28231.9 3718.68   7
  -1   6   8 25171.3 2502.40   9
   1   6  -8 21417.0 2312.87  15
  -1   6   8 23246.7 2075.00  18
   1   6  -8 29293.5 2683.92  13
  -1   6   8 25889.9 2830.04  19
  -1   6   7 3238.68 1582.30   7
  -1   6   7 3364.94 1108.80  19
  -1   6   7 2326.16 1139.03  18
  -1   6   7 4086.14 1312.48   9
   1   6  -7 4889.30 1385.63  13
   1   6  -7 1783.96 1136.25  15
  -1   6   6 56298.9 3361.42  18
  -1   6   6 45822.2 3087.92   9
   1   6  -6 52690.0 3496.13  15
   1   6  -6 38950.1 3140.23  19
   1   6  -6 58768.9 3283.05  13
  -1   6   6 52611.3 3431.85   7
  -1   6   6 50639.3 3236.37  19
   1   6  -6 47717.7 2459.02  18
   1   6  -5 46029.8 2445.66  18
   1   6  -5 53487.6 3297.10  15
   1   6  -5 55421.6 3110.22  13
  -1   6   5 52304.4 3236.80   7
  -1   6   5 51860.7 3223.55  19
  -1   6   5 56168.5 3282.30  18
   1   6  -4 50885.0 2655.66  18
  -1   6   4 55890.0 3285.16  19
  -1   6   4 60098.0 3226.08  18
   1   6  -4 59310.5 3260.37  15
   1   6  -4 59688.4 3123.45  13
  -1   6   4 55212.1 3238.50   7
  -1   6   3 2363.28 983.319   7
   1   6  -3 3706.19 935.639  18
  -1   6   3 2913.12 994.844  19
  -1   6   3 3415.39 1035.82  18
   1   6  -3 4725.12 1197.27  13
  -1   6   2 29773.3 2256.15  18
   1   6  -2 32091.2 2218.53  18
  -1   6   2 27966.9 2382.42  19
  -1   6   2 30789.3 2385.29   7
   1   6  -2 30300.4 2249.53  13
  -1   6   1 90089.5 3813.74  18
   1   6  -1 94447.5 3789.85  18
  -1   6   1 99896.6 4071.65   7
   1   6  -1 97931.3 3837.70  13
  -1   6   1 98687.5 4270.16  19
   1   6   0 66938.0 3291.42  18
  -1   6   0 63368.2 3162.13  18
  -1   6   0 61453.1 3173.69   7
   1   6   0 60525.5 3063.09  13
  -1   6   0 62771.9 3415.27  19
   1   6   1 6793.65 1311.52  18
  -1   6  -1 6676.28 1304.49  19
  -1   6  -1 7843.21 1380.78  18
  -1   6  -1 8197.96 1319.88   7
   1   6   1 7627.11 1259.46  13
   1   6   2 17435.4 1910.22  18
  -1   6  -2 20048.4 2037.33  19
  -1   6  -2 16647.5 1719.83  18
   1   6   2 18138.2 1757.12  13
  -1   6  -2 16120.3 1642.30  16
  -1   6  -3 42602.2 2469.54  16
  -1   6  -3 41410.8 2598.46  18
   1   6   3 37571.0 2665.92   9
   1   6   3 40058.8 2761.73  18
  -1   6  -3 44326.9 2899.67  19
   1   6   3 38756.1 2698.64   7
   1   6   3 42523.9 2680.95  13
   1   6   4 72030.6 3743.13  18
  -1   6  -4 73704.8 3737.93  19
   1   6   4 62493.6 3409.72   7
   1   6   4 72490.6 3690.71   9
  -1   6  -4 76283.3 3158.51  16
  -1   6  -4 72150.3 3355.32  18
  -1   6  -4 70680.9 3657.07  13
  -1   6  -5 29404.1 2004.67  16
   1   6   5 27281.3 2348.69   9
  -1   6  -5 27513.5 2436.39  19
  -1   6  -5 29749.1 2391.71  13
   1   6   5 23760.6 2274.06   7
   1   6   5 28858.6 2539.48  18
   1   6   6 458.897 978.218   7
   1   6   6-423.537 1111.69  18
   1   6   6 168.782 937.578   9
  -1   6  -6 495.273 607.613  16
  -1   6  -6-174.527 948.032  13
  -1   6  -6-113.911 927.181  19
   1   6   7 47104.1 3904.11  18
  -1   6  -7 41570.6 2310.80  16
  -1   6  -7 41432.8 3133.07  19
   1   6   7 41165.0 3079.97   9
   1   6   7 41938.9 2724.62   7
  -1   6  -7 43165.5 2684.33  13
   1   6   8 77432.2 4527.40   9
  -1   6  -8 70613.2 4147.34  19
  -1   6  -8 68714.5 3171.95  13
   1   6   8 69426.2 4715.46  18
   1   6   9 19748.7 2188.20  18
   1   6   9 18327.5 3473.46   9
  -1   6  -9 20260.7 1745.58  13
   1   6  10 730.536 728.421  18
   1   6  10 627.116 1099.37   9
  -1   6 -10 774.126 675.694  13
   1   6  11 17919.3 1749.48   9
   1   6  11 15575.8 1378.52  18
  -1   6 -11 16148.4 1424.84  13
   1   6  12 28755.8 1529.48  18
   1   6  12 28955.0 1783.39   9
  -1   6 -12 29703.3 1645.61  13
   1   6  13 12019.3 980.284   9
   1   6  13 11537.5 809.047  18
  -1   6 -13 12398.3 979.932  13
   1   7 -11 18882.0 1141.17  13
  -1   7  11 17776.8 1011.14   7
   1   7 -10 14953.9 1251.82  13
  -1   7  10 15337.5 1152.68   7
  -1   7   9 1395.11 633.114   7
   1   7  -9 1600.65 798.669  13
  -1   7   9 3024.29 743.681  19
  -1   7   8 28566.9 1634.28  18
   1   7  -8 26920.9 1669.74  15
   1   7  -8 27847.1 2118.55  13
  -1   7   8 35291.2 2750.64   7
  -1   7   8 38792.1 2927.23  19
  -1   7   7 43512.4 2315.83  18
   1   7  -7 41164.1 2167.54  15
   1   7  -7 41620.7 2794.25  13
  -1   7   6 15390.4 1748.99  18
   1   7  -6 18141.2 2027.84  13
  -1   7   6 19924.6 2196.93   7
  -1   7   6 19946.2 2137.20  19
  -1   7   5 4267.57 1204.46   7
  -1   7   5 4434.40 1075.77  19
  -1   7   5 4298.69 1217.64  18
   1   7  -5 3717.53 1192.59  13
   1   7  -5 2042.10 705.736  18
  -1   7   4 24614.9 2129.89  19
   1   7  -4 23011.6 1702.88  18
  -1   7   4 24846.8 2089.78  18
  -1   7   4 28759.5 2263.87   7
   1   7  -4 25815.2 2117.40  13
  -1   7   3 69864.3 3270.74  18
   1   7  -3 63814.9 2801.40  18
  -1   7   3 63684.8 3196.99   7
   1   7  -3 71596.3 3330.57  13
  -1   7   3 66541.1 3321.22  19
   1   7  -2 47728.2 2525.40  18
  -1   7   2 47116.1 2762.61   7
   1   7  -2 46364.1 2656.73  13
  -1   7   2 46122.7 2710.71  18
  -1   7   2 44055.5 2752.65  19
  -1   7   1 2862.31 906.301  18
  -1   7   1 3612.15 1099.65  19
   1   7  -1 2425.77 877.136  18
  -1   7   1 4694.55 1144.88  16
   1   7  -1 3370.05 1022.47  13
   1   7   0 7630.27 1244.45  18
  -1   7   0 6251.47 1214.90  18
  -1   7   0 5706.65 1068.70  16
  -1   7   0 5600.12 1194.20  19
   1   7   0 6508.37 1250.62  13
   1   7   1 64673.0 3164.17  18
  -1   7  -1 65878.5 2890.83  16
  -1   7  -1 63346.9 3273.44  19
   1   7   1 70317.1 3276.51  13
  -1   7  -1 64935.0 3096.23  18
  -1   7  -2 64574.5 3305.46  19
  -1   7  -2 61801.1 2736.06  16
   1   7   2 71459.9 3305.83  18
  -1   7  -2 63996.2 3068.70  18
  -1   7  -3 7787.70 1251.52  18
  -1   7  -3 8195.92 1377.33  19
   1   7   3 7039.43 1303.05  18
  -1   7  -3 8959.02 1151.36  16
  -1   7  -4 7518.40 1334.51  19
   1   7   4 8952.65 1409.70  18
  -1   7  -4 6891.41 1037.76  16
  -1   7  -5 38891.1 2660.70  19
   1   7   5 40684.5 2784.75  18
  -1   7  -5 41171.3 2070.69  16
  -1   7  -5 34975.6 2050.15  13
  -1   7  -6 43835.0 2942.97  19
   1   7   6 48674.4 3368.75  18
  -1   7  -6 40829.9 2112.79  13
  -1   7  -7 11682.6 1822.92  19
   1   7   7 13023.5 2200.13  18
  -1   7  -7 9364.95 1057.79  13
  -1   7  -8 1176.24 590.052  13
   1   7   8 1362.12 863.663  18
   1   7   9 18714.9 1431.90  18
  -1   7  -9 17343.2 1178.84  13
   1   7  10 23958.8 1301.92  18
  -1   7 -10 21867.7 1176.90  13
  -1   8   7-328.883 487.771  16
  -1   8   6 2962.77 943.807  16
   1   8  -6 6713.49 794.191  13
  -1   8   5 32900.6 1688.51  18
  -1   8   5 35650.6 1995.03  16
   1   8  -5 38617.0 1778.31  13
  -1   8   4 16364.6 1427.76  18
  -1   8   4 17858.1 1375.22  16
  -1   8   4 20905.7 1891.77  19
   1   8  -4 18492.8 1398.38  13
  -1   8   3 650.220 670.543  18
  -1   8   3 3038.45 808.926  19
   1   8  -3 1002.50 662.421  13
  -1   8   3 2047.06 678.357  16
  -1   8   2 9487.86 1186.59  19
  -1   8   2 7750.81 1049.14  18
   1   8  -2 6946.60 881.925  18
  -1   8   2 9308.22 999.642  16
   1   8  -2 6296.30 1038.05  13
  -1   8   1 32811.8 1950.27  19
   1   8  -1 30336.6 1656.89  18
  -1   8   1 31766.2 1663.23  16
  -1   8   1 30566.9 1821.17  18
  -1   8   0 24195.1 1703.13  19
   1   8   0 23428.2 1505.38  18
  -1   8   0 24760.4 1437.16  16
   1   8   1 3737.00 717.490  18
  -1   8  -1 4571.54 711.438  16
  -1   8  -1 5033.98 952.233  19
  -1   8  -2 6837.33 779.337  16
  -1   8  -2 4551.00 918.969  19
   1   8   2 4479.18 837.606  18
  -1   8  -3 23475.5 1749.79  19
   1   8   3 26306.2 1696.97  18
  -1   8  -4 28443.5 1972.02  19
   1   8   4 32342.5 2033.16  18
   1   8   5 6795.45 1358.26  18
   1   8   6 2352.69 784.099  18
   2  -8  -5 9584.24 1038.24  11
  -2  -8   5 6457.52 1051.40  12
   2  -8  -4 4131.69 712.168  11
  -2  -8   4 5455.41 824.467  12
   2  -8  -3 1666.87 535.957  11
  -2  -8   3 1593.37 616.176  12
   2  -8  -2 21481.3 1370.97  11
  -2  -8   2 18663.1 1320.53  12
   2  -8  -1 21994.6 1325.79  11
  -2  -8   1 13856.6 1179.45  12
   2  -8   0 5827.06 707.126  11
  -2  -8   0 4036.20 778.046  12
   2  -8   1 2952.89 531.463  11
  -2  -8  -1 576.087 516.184  12
  -2  -8  -2 7980.80 978.126  12
  -2  -7  10 756.664 327.463  11
  -2  -7  10 1771.04 446.539  12
   2  -7  -9 7576.44 1300.43  12
  -2  -7   9 8781.57 871.023  11
  -2  -7   9 8464.54 1102.60  12
  -2  -7   8 29386.0 1678.57  11
  -2  -7   8 30023.6 2509.92  12
   2  -7  -8 29454.1 2198.07  12
  -2  -7   7 26303.1 1914.59  11
  -2  -7   7 30050.6 2128.23  12
   2  -7  -7 28988.0 2030.53  12
   2  -7  -6 3806.42 864.188  12
  -2  -7   6 2486.93 1136.40  11
  -2  -7   6 5335.67 1086.76  12
  -2  -7   5 16501.7 1942.31  11
  -2  -7   5 19365.6 1680.65  12
   2  -7  -5 20162.8 1548.12  12
  -2  -7   4 26129.7 2117.46  11
   2  -7  -4 22513.3 2056.42  11
  -2  -7   4 27927.0 1988.55  12
   2  -7  -4 26651.6 1754.06  12
  -2  -7   3 29878.0 2109.08  11
   2  -7  -3 31140.9 2258.00  11
  -2  -7   3 34044.7 2163.24  12
  -2  -7   2 12450.8 1422.15  11
   2  -7  -2 12046.4 1475.17  11
  -2  -7   2 11468.5 1410.32  12
   2  -7  -1 1216.04 775.127  11
  -2  -7   1 376.445 626.058  11
  -2  -7   1-11.7834 771.145  12
  -2  -7   0 31031.8 2127.62  12
   2  -7   0 31191.2 2098.40  11
   2  -7   1 38411.9 2260.20  11
  -2  -7  -1 36167.1 2301.07  12
   2  -7   2 17081.9 1533.98  11
  -2  -7  -2 20270.1 1796.53  12
   2  -7   3 435.464 647.833  11
  -2  -7  -3 7.61923 804.068  12
   2  -7   4 25205.7 1661.45  11
  -2  -7  -4 22566.7 1918.15  12
   2  -7   5 25190.5 1635.53  11
  -2  -7  -5 23796.3 1982.38  12
   2  -7   6 14316.7 1607.84  14
  -2  -7  -6 11790.7 1288.14  12
   2  -7   7 1638.04 887.128  14
  -2  -7  -7 2352.51 586.832  12
   2  -7   8 12616.3 1141.08  14
   2  -7   9 13418.9 916.341  14
  -2  -6  13 8869.73 749.228  11
   2  -6 -13 7212.20 927.593  12
   2  -6 -12 2281.38 788.337  12
  -2  -6  12 1325.89 503.045  11
  -2  -6  12 1249.21 525.082  12
  -2  -6  11 15798.0 1267.93  11
  -2  -6  11 16648.0 1485.15  12
   2  -6 -11 13808.0 1776.49  12
  -2  -6  10 33476.6 1988.50  11
  -2  -6  10 29986.0 2538.49  12
   2  -6 -10 33871.0 3281.98  12
  -2  -6   9 28203.3 2252.66  11
  -2  -6   9 29151.6 2175.96  10
  -2  -6   9 32505.6 3009.64  12
   2  -6  -9 26932.1 3114.81  12
   2  -6  -8 616.796 1150.52  12
  -2  -6   8 1012.79 1128.33  11
  -2  -6   8 2171.37 816.698  10
  -2  -6   8 2177.53 1083.43  12
   2  -6  -7 87.1420 1100.31  12
  -2  -6   7 551.516 1161.56  11
  -2  -6   7 3537.25 1198.89  10
  -2  -6   7 2558.86 1043.06  12
  -2  -6   6 68261.1 3758.81  11
  -2  -6   6 67615.1 3884.41  10
  -2  -6   6 76983.2 3424.37  12
   2  -6  -6 71879.3 3522.98  12
  -2  -6   5 61740.4 3301.45  11
  -2  -6   5 67979.5 3731.25  10
  -2  -6   5 65850.0 3215.27  12
   2  -6  -5 66371.5 3337.13  12
  -2  -6   4 22459.4 2012.42  11
  -2  -6   4 21862.5 2221.68   6
  -2  -6   4 21496.1 1976.49  12
   2  -6  -4 18808.1 1909.87  12
   2  -6  -3 6980.37 1190.29  12
  -2  -6   3 6873.80 1231.54  11
  -2  -6   3 10280.8 1582.38   6
  -2  -6   3 11594.4 1524.92  12
  -2  -6   2 66446.9 3195.15  11
  -2  -6   2 71916.9 3863.56   6
  -2  -6   2 73339.2 3426.24  12
  -2  -6   1 80465.8 3962.49   6
  -2  -6   1 77754.1 3504.49  12
   2  -6   0 16699.5 1904.75  11
  -2  -6   0 19611.8 1918.20  12
  -2  -6  -1 483.664 837.898  12
   2  -6   1 53.4636 816.871  11
  -2  -6  -1 1897.34 1034.39   6
  -2  -6  -2 46895.7 3442.83   6
   2  -6   2 44800.3 2704.51  11
  -2  -6  -2 47980.5 2909.64  12
   2  -6   3 76731.2 3393.48  11
  -2  -6  -3 78402.5 3704.64  12
   2  -6   4 29724.6 2112.77  11
  -2  -6  -4 30526.8 2499.26  12
  -2  -6  -5 158.939 945.515  12
   2  -6   5 861.358 678.680  11
   2  -6   6 22238.8 1754.31  11
  -2  -6  -6 22637.0 2209.64  12
  -2  -6  -7 36536.1 2548.93  12
   2  -6   8 38052.8 3221.49  14
  -2  -6  -8 31164.0 2034.33  12
   2  -6   9 1683.68 853.879  14
   2  -6  10 9806.09 1123.72  14
   2  -6  11 21315.2 1294.64  14
   2  -6  12 18140.2 1047.13   9
   2  -6  12 16895.4 960.175  14
   2  -5 -15 5566.18 848.035  12
  -2  -5  15 4692.35 606.765  11
  -2  -5  15 4215.40 535.204   7
  -2  -5  14 536.251 456.722  11
  -2  -5  13 14616.7 1280.15  11
  -2  -5  12 41815.6 2202.94  11
  -2  -5  12 48044.2 2533.85  12
  -2  -5  11 26164.2 1977.93  11
  -2  -5  11 24019.0 2216.41  10
  -2  -5  11 26778.5 2448.90  12
  -2  -5  10 3834.49 1313.27  10
  -2  -5  10 4062.33 1188.40  11
  -2  -5  10 3024.35 1783.23  12
  -2  -5   9 22222.5 2558.22  10
  -2  -5   9 22834.9 2550.27  11
  -2  -5   9 28363.9 2680.87  12
  -2  -5   8 120171. 5340.53  10
  -2  -5   8 123303. 4660.14  12
  -2  -5   7 50439.6 3301.55   6
  -2  -5   7 45152.2 3399.83  11
  -2  -5   7 50563.2 3583.60  10
  -2  -5   7 46359.2 2819.90  12
  -2  -5   6 1325.81 1138.00  10
  -2  -5   6 1784.50 943.283   6
  -2  -5   6 1446.00 820.105  11
  -2  -5   6 1909.74 930.392  12
  -2  -5   5 9890.74 1461.96  11
  -2  -5   5 7787.09 1516.91  10
  -2  -5   5 7832.29 1497.85   6
  -2  -5   5 7689.21 1279.26  12
  -2  -5   4 91901.3 3706.49  12
  -2  -5   4 89687.0 3734.37  11
  -2  -5   4 94643.3 4193.16   6
  -2  -5   4 95400.1 4180.41  10
   2  -5  -4 95715.1 3893.28  12
  -2  -5   3 102997. 4393.95   6
  -2  -5   3 109359. 4395.70  10
  -2  -5   3 113032. 4677.89   3
  -2  -5   3 108964. 3975.26  11
  -2  -5   3 105995. 3993.96   8
  -2  -5   3 105740. 3959.04  12
   2  -5  -3 111010. 4040.21  12
  -2  -5   2 15914.4 1713.33  10
  -2  -5   2 15252.1 1612.95  11
  -2  -5   2 17824.3 1926.90   6
  -2  -5   2 13864.1 1698.11   3
   2  -5  -2 16179.0 1755.02   3
  -2  -5   2 18933.7 2034.05  17
  -2  -5   2 15450.1 1619.04  12
  -2  -5   1 1544.48 820.849  12
  -2  -5   1 1829.92 966.657  17
  -2  -5   1 993.876 797.900   6
   2  -5  -1 874.280 729.152   3
  -2  -5   1 1830.41 603.095   3
   2  -5   0 78697.6 4167.64   3
  -2  -5   0 74279.5 3802.02  17
  -2  -5   0 71580.1 3688.56   3
  -2  -5   0 69072.7 3507.84   6
  -2  -5   0 74539.0 3403.33  12
  -2  -5  -1 125471. 4786.60   6
  -2  -5  -1 127377. 5003.67  17
   2  -5   1 130468. 5441.25   3
  -2  -5  -1 130494. 4987.20   3
  -2  -5  -1 125361. 4437.69  12
  -2  -5  -2 44632.7 3143.55  17
   2  -5   2 48131.3 3393.50   3
   2  -5   2 44116.5 2686.99  11
  -2  -5  -2 44669.2 2994.78   3
  -2  -5  -2 46171.6 2792.43  12
  -2  -5  -2 49337.3 3115.31   6
  -2  -5  -3 2018.65 1028.33  12
  -2  -5  -3 3054.50 1316.33  17
   2  -5   3 2056.62 809.125  11
   2  -5   3 3056.94 954.962   3
  -2  -5  -3 3932.00 1155.68   6
  -2  -5  -4 29416.0 3003.68  20
   2  -5   4 29038.1 2122.29  11
  -2  -5  -4 33560.0 3187.82  17
   2  -5   4 29608.8 2875.04   3
  -2  -5  -4 27313.9 2250.76  12
   2  -5   5 86530.6 3426.32  11
  -2  -5  -5 92397.5 5816.59  17
  -2  -5  -5 82967.6 3915.09  12
  -2  -5  -6 63683.1 4540.28  17
  -2  -5  -6 51601.0 3210.94  12
  -2  -5  -7-1472.21 1015.89  12
  -2  -5  -7 1907.98 1164.59  17
   2  -5   8 15402.4 2182.06  14
  -2  -5  -8 11462.0 1655.08  17
   2  -5   9 48413.2 3708.61  14
   2  -5  10 46961.8 2818.14  14
   2  -5  11 5344.25 968.208  14
   2  -5  12 2573.03 678.248  14
   2  -5  13 17261.8 1249.47   9
   2  -5  13 18775.9 1228.76  14
   2  -5  14 24469.3 1222.52   9
   2  -5  14 20997.3 1085.76  14
  -2  -4  17 4354.35 532.381  11
  -2  -4  16-1091.24 364.703   7
  -2  -4  16-290.475 429.656  11
  -2  -4  15 16145.2 1289.89  11
  -2  -4  14 43360.3 2172.42  11
  -2  -4  13 28949.5 1977.74  11
  -2  -4  13 33682.5 2205.62  12
  -2  -4  12 3509.83 1276.37  10
  -2  -4  12 2755.60 1057.28  12
  -2  -4  12 3166.49 943.820  11
  -2  -4  11 38072.9 2656.37   8
  -2  -4  11 41914.6 2604.53  11
  -2  -4  11 35504.4 3067.06  10
  -2  -4  11 38343.9 3122.51  12
  -2  -4  10 75619.6 3848.29  11
  -2  -4  10 64442.6 4169.40  10
  -2  -4  10 67960.6 3724.41   8
   2  -4  -9 52633.3 3733.04  21
  -2  -4   9 54472.0 3684.80  11
  -2  -4   9 56747.5 3812.66  10
  -2  -4   9 58124.5 3309.25   8
  -2  -4   9 60117.4 4227.13   1
  -2  -4   9 58815.9 3602.50  12
   2  -4  -8 24415.9 2470.87  21
  -2  -4   8 17431.8 2559.89  11
  -2  -4   8 23160.8 2264.96   6
  -2  -4   8 26451.6 2579.67  10
  -2  -4   8 24395.7 2116.15   8
  -2  -4   8 25413.7 2180.56  12
  -2  -4   8 22738.7 2572.28   1
  -2  -4   7 64087.1 3726.06  11
  -2  -4   7 53902.0 3211.48   6
  -2  -4   7 58047.9 3031.66   8
  -2  -4   7 64264.1 3622.16  10
  -2  -4   7 57130.6 2980.58  12
  -2  -4   7 59223.2 3717.11   1
  -2  -4   6 99532.6 4578.00   1
  -2  -4   6 90675.6 3955.68   6
  -2  -4   6 93137.4 4145.96  10
  -2  -4   6 91537.2 3679.87   8
  -2  -4   6 92033.4 3901.02  11
  -2  -4   6 96656.5 3650.69  12
  -2  -4   5 153068. 4743.32  11
  -2  -4   5 166710. 5624.37   1
  -2  -4   5 164793. 5257.21  10
  -2  -4   5 160178. 5046.51   6
  -2  -4   5 169804. 4869.22   8
  -2  -4   5 154108. 4434.82  12
  -2  -4   4 22757.5 1937.63   6
  -2  -4   4 24771.5 2090.70  10
  -2  -4   4 24385.4 2160.57   1
  -2  -4   4 24384.5 1990.09  17
  -2  -4   4 26946.5 2056.54   3
  -2  -4   4 25826.0 1858.21  12
  -2  -4   3 39149.0 2504.85   6
  -2  -4   3 40586.6 2498.31   3
  -2  -4   3 41614.6 2717.56   1
   2  -4  -2 112735. 4091.51   3
  -2  -4   2 100909. 3831.49   3
  -2  -4   2 105744. 4251.75   1
   2  -4  -1 176053. 5272.37   3
  -2  -4   1 177655. 5328.65   1
  -2  -4   1 179622. 5052.58   3
   2  -4   0 53313.9 2997.19   3
  -2  -4   0 48706.3 2881.82   1
  -2  -4   0 48242.1 2686.32   3
   2  -4   1 2177.67 869.917   3
  -2  -4  -1 1617.84 694.151   3
   2  -4   2 86795.4 4082.68   3
  -2  -4  -2 77428.8 3634.43  17
  -2  -4  -2 78102.4 3501.50   3
   2  -4   3 156662. 5702.61   3
  -2  -4  -3 161704. 5395.96  17
  -2  -4  -4 96506.6 4418.24  21
  -2  -4  -4 93117.2 4903.02  20
  -2  -4  -4 95268.0 4574.92  17
  -2  -4  -4 90362.7 4052.77   6
   2  -4   4 92515.3 4602.05   3
  -2  -4  -4 91194.6 3667.74  12
  -2  -4  -5-1387.77 626.127  21
  -2  -4  -5 717.295 984.728  20
   2  -4   5 33.4544 981.947   3
  -2  -4  -5 108.160 1399.30  17
  -2  -4  -6 53252.2 3436.85  21
  -2  -4  -6 47159.1 4346.43  20
   2  -4   6 60683.4 4385.04   3
  -2  -4  -6 57636.4 4980.76  17
  -2  -4  -7 88194.9 4463.69  21
  -2  -4  -7 96669.8 6920.44  20
   2  -4   7 105200. 6805.25   3
  -2  -4  -7 89508.5 5001.20  17
  -2  -4  -8 35552.4 2881.26  21
   2  -4   8 42244.9 3244.52  14
  -2  -4  -8 41957.0 3171.42  17
  -2  -4  -9 15952.7 1840.00  17
   2  -4   9 19731.7 2657.70  14
   2  -4  10 16922.3 1959.25  14
   2  -4  11 57156.6 2886.77  14
   2  -4  12 45226.4 2423.72  14
   2  -4  13 4112.01 860.458   9
   2  -4  13 3935.38 842.057  14
   2  -4  14 704.337 569.906   9
   2  -4  14 1069.59 528.983  14
   2  -4  15 20846.9 1289.76   9
   2  -4  15 21281.1 1216.84  14
   2  -4  16 17638.0 958.718   9
  -2  -3  17 14230.9 1101.22  11
  -2  -3  17 13687.7 959.134   7
  -2  -3  16 31234.5 1776.58  11
  -2  -3  16 30957.9 1669.97   7
  -2  -3  15 14162.4 1332.80   7
  -2  -3  15 13564.4 1394.95  11
  -2  -3  15 17443.5 1429.64   8
  -2  -3  14 4.49253 705.115  11
  -2  -3  14 573.499 566.862   8
  -2  -3  13 28319.4 2066.48  11
  -2  -3  13 29284.9 2277.14   8
  -2  -3  12 60660.4 2914.64  11
  -2  -3  12 59766.6 3346.05   8
  -2  -3  12 62079.9 3802.98  10
  -2  -3  12 65700.7 3373.55  12
  -2  -3  11 100580. 3925.79  11
  -2  -3  11 89436.5 6091.14   1
  -2  -3  11 89470.3 4414.48   8
  -2  -3  11 86383.4 4671.54  10
  -2  -3  11 105180. 4575.89  12
   2  -3 -10 1235.09 1071.07  21
  -2  -3  10 1707.56 882.699  11
  -2  -3  10 3127.22 1433.97  10
  -2  -3  10 4812.81 1708.07   1
  -2  -3  10 2669.01 1104.43   8
  -2  -3  10 1536.63 1617.80  12
  -2  -3   9 48111.1 3063.84  11
   2  -3  -9 45213.9 3120.06  21
  -2  -3   9 41976.5 2774.22   6
  -2  -3   9 43169.2 3522.09   1
  -2  -3   9 44496.4 3118.57  10
  -2  -3   9 47227.9 3538.13  12
  -2  -3   9 43560.6 2788.81   8
   2  -3  -8 90422.8 4125.14  21
  -2  -3   8 89308.8 4718.11  11
  -2  -3   8 94261.3 4716.39   1
  -2  -3   8 96966.2 3843.36   8
  -2  -3   8 85127.9 3726.85   6
  -2  -3   8 89857.8 4160.63  10
  -2  -3   8 100526. 4091.00  12
  -2  -3   7 148041. 5519.75   1
  -2  -3   6 34731.3 2548.25   1
  -2  -3   5 34070.0 2430.98   1
  -2  -3   4 189052. 4372.68   3
  -2  -3   4 198092. 5440.92   1
  -2  -3   3 206451. 5402.19   1
  -2  -3   3 197425. 4473.82   3
  -2  -3   2 183538. 4925.09   1
   2  -3  -2 170180. 4176.98   3
  -2  -3   2 171979. 4181.59   3
  -2  -3   1 53280.5 2699.35   1
   2  -3  -1 51236.8 2396.95   3
  -2  -3   1 51277.5 2326.20   3
   2  -3   0 214176. 5076.11   3
  -2  -3   0 205896. 4655.68   3
  -2  -3   0 222379. 5322.73   1
  -2  -3  -1 263114. 5899.20   1
   2  -3   1 268821. 5920.32   3
  -2  -3  -1 276119. 5491.46   3
  -2  -3  -2 91221.0 3653.97  21
   2  -3   2 88642.4 3571.52   3
  -2  -3  -3 1444.04 683.859  21
  -2  -3  -3 1107.24 971.989  20
   2  -3   3 1601.08 768.878   3
  -2  -3  -4 143258. 4851.32  21
  -2  -3  -4 137450. 5632.84  20
   2  -3   4 136569. 4929.96   3
  -2  -3  -5 220120. 6184.62  21
   2  -3   5 225000. 6853.00   3
  -2  -3  -6 108905. 4545.01  21
   2  -3   6 118220. 5661.54   3
  -2  -3  -6 110162. 6753.85  20
  -2  -3  -7 4296.65 1082.82  21
  -2  -3  -7 3189.61 1471.54  20
  -2  -3  -7 5583.72 1405.87  10
  -2  -3  -7-403.427 891.294  17
   2  -3   7 4256.90 1642.25   3
  -2  -3  -8 31216.9 2600.04  21
  -2  -3  -8 30722.0 2668.10  17
   2  -3   8 30959.1 3993.50   3
  -2  -3  -8 32107.3 3250.08  20
   2  -3   8 30759.9 3059.02  14
  -2  -3  -9 166105. 6158.76  21
  -2  -3  -9 161105. 5503.21  17
   2  -3   9 164067. 7467.45   3
  -2  -3  -9 164335. 6781.20  20
   2  -3   9 158731. 5636.63  14
  -2  -3 -10 47209.6 2914.72  17
   2  -3  10 50528.9 2942.23  14
  -2  -3 -11 14464.3 1918.03  10
   2  -3  11 11558.3 1484.32  14
   2  -3  12 5217.53 1024.55  14
   2  -3  13 45891.9 2541.20   9
   2  -3  13 47878.9 2462.19  14
   2  -3  14 23883.5 1748.17   9
   2  -3  14 25616.3 1717.35  14
   2  -3  15 7603.55 1020.66   9
   2  -3  15 7024.58 895.163  14
   2  -3  16 167.710 450.964   9
   2  -3  16-79.0157 433.705  14
   2  -3  17 11209.7 800.818   9
  -2  -2  18 27128.9 1280.85   8
  -2  -2  18 24460.0 1135.21   7
  -2  -2  17 5224.55 911.351  11
  -2  -2  17 6880.69 886.943   8
  -2  -2  17 5952.74 788.739   7
  -2  -2  16 1482.63 627.391   7
  -2  -2  16 1303.82 651.659  11
  -2  -2  16 486.319 594.023   8
  -2  -2  15 39797.4 2303.02  11
  -2  -2  15 40306.8 2433.98   8
  -2  -2  15 38174.7 2181.34   7
  -2  -2  14 55032.3 2793.60  11
  -2  -2  14 52463.8 2950.16   8
  -2  -2  13 20739.4 1804.76  11
  -2  -2  13 17513.4 1870.87   8
  -2  -2  12 1492.30 1117.72   1
  -2  -2  12 1230.54 1111.35  10
  -2  -2  12 1292.27 743.072  11
  -2  -2  12 303.168 879.460   8
  -2  -2  11 42042.0 2409.91  11
  -2  -2  11 37417.5 2994.66  10
  -2  -2  11 38961.7 3775.50   1
  -2  -2  11 39164.6 2935.66   8
  -2  -2  11 41611.7 2641.33  12
  -2  -2  10 154791. 4446.90  11
  -2  -2  10 164615. 5943.24  10
  -2  -2  10 161317. 7218.82   1
  -2  -2  10 155768. 5629.30   8
  -2  -2  10 168866. 5336.98  12
   2  -2  -9 131951. 4981.09  21
  -2  -2   9 134072. 4983.07  10
  -2  -2   9 131567. 5940.31   1
  -2  -2   9 120141. 5208.74  12
   2  -2  -8 2715.07 792.618  21
  -2  -2   8 3685.76 1252.80   1
   2  -2  -7 77488.4 3194.69  21
  -2  -2   7 78684.0 3817.38   1
  -2  -2   6 238040. 6119.87   1
  -2  -2   5 198861. 5291.91   1
  -2  -2   4 44605.1 1661.63   3
  -2  -2   4 42506.6 2387.88   1
   2  -2  -3 51312.4 1715.99   3
  -2  -2   3 50371.0 1792.56   3
  -2  -2   3 55787.7 2589.49   1
  -2  -2   2 179061. 4443.66   1
  -2  -2   2 171280. 3383.18   3
   2  -2  -2 181415. 3398.62   3
  -2  -2   1 256830. 5185.89   1
  -2  -2   1 246951. 4195.21   3
   2  -2  -1 249633. 4276.70   3
  -2  -2   0 163319. 2816.25  21
  -2  -2   0 161837. 4548.23  20
   2  -2   0 151950. 3575.92   3
  -2  -2   0 152988. 3392.22   3
  -2  -2   0 142194. 3900.74   1
  -2  -2  -1 1433.86 477.896  21
  -2  -2  -1 1981.60 901.885  20
  -2  -2  -1 406.295 588.035   1
   2  -2   1 1598.41 589.903   3
  -2  -2  -2 136877. 3845.52  21
  -2  -2  -2 143032. 5004.11  20
   2  -2   2 140705. 3793.50   3
  -2  -2  -3 345358. 6541.08  21
  -2  -2  -3 327348. 8326.40  20
   2  -2   3 330183. 6272.27   3
   2  -2   3 346160. 5953.34   2
  -2  -2  -4 79898.3 3325.56  21
  -2  -2  -4 69616.3 4714.03  20
   2  -2   4 76063.1 2954.82   2
  -2  -2  -5 5037.13 1061.02  21
  -2  -2  -5 4852.76 1601.81  20
   2  -2   5 5742.34 1023.54   2
  -2  -2  -6 58162.0 3128.86  21
   2  -2   6 56278.3 2802.72   2
  -2  -2  -6 58448.7 3863.01  20
  -2  -2  -7 150177. 5244.12  21
  -2  -2  -7 157052. 5978.51  20
   2  -2   7 154084. 4866.92   2
  -2  -2  -8 97887.7 4923.60  15
  -2  -2  -8 97205.9 4683.38  20
   2  -2   8 101006. 4167.63   2
  -2  -2  -8 98969.0 4028.75  16
  -2  -2  -9 759.270 874.771  20
  -2  -2  -9 2962.90 1157.55  17
  -2  -2  -9 2206.09 1159.47   6
  -2  -2  -9 3012.19 1041.73  16
  -2  -2  -9 2778.37 1369.16  15
   2  -2   9 2145.38 811.974   2
   2  -2   9 734.981 732.217  14
  -2  -2 -10 9379.07 1666.97  20
  -2  -2 -10 7818.37 1357.57  17
  -2  -2 -10 6693.70 1449.51   6
  -2  -2 -10 8569.26 1491.52  16
  -2  -2 -10 10385.7 2097.30  15
   2  -2  10 9281.02 1276.71  14
   2  -2  10 9433.12 1509.03   2
  -2  -2 -11 76650.6 4278.84  20
  -2  -2 -11 85268.1 3969.83  16
   2  -2  11 82941.6 4472.34   3
   2  -2  11 82633.0 3326.73  14
  -2  -2 -11 83799.6 4443.25  15
  -2  -2 -12 88104.4 4038.40  16
   2  -2  12 85086.9 3458.35   9
  -2  -2 -12 79077.1 4165.58  15
   2  -2  12 85329.8 3374.95  14
  -2  -2 -13 10284.5 1686.24  15
   2  -2  13 12526.0 1453.86   9
   2  -2  13 11750.0 1380.11  14
   2  -2  14 3006.85 938.146   9
   2  -2  14 2970.83 822.553  14
   2  -2  15 39152.7 2167.17   9
   2  -2  15 34942.8 1958.35  14
   2  -2  16 31713.4 1801.94   9
   2  -2  16 31646.0 1692.29  14
   2  -2  17 10207.4 883.011  14
   2  -2  17 12421.8 1020.38   9
  -2  -1  18 2158.05 472.117   7
  -2  -1  18 2255.10 602.959   8
  -2  -1  17 16588.1 1447.85   8
  -2  -1  17 16465.3 1261.02   7
  -2  -1  16 40093.2 2341.50  11
  -2  -1  16 44745.2 2529.43   8
  -2  -1  16 44088.9 2253.13   7
  -2  -1  15 40707.4 2434.55  11
  -2  -1  15 40655.9 2561.42   8
  -2  -1  15 35330.8 2149.67   7
  -2  -1  14-390.862 619.737   7
  -2  -1  14-499.405 852.532  11
  -2  -1  14 558.884 840.458   8
  -2  -1  13 61504.2 2879.12   7
  -2  -1  13 64339.1 3019.97  11
  -2  -1  13 63883.6 3403.44   8
  -2  -1  12 164131. 4613.12  11
  -2  -1  12 159712. 5360.04  10
  -2  -1  12 147608. 6683.55   1
  -2  -1  12 158619. 5349.01   8
  -2  -1  11 48397.3 2496.04  11
  -2  -1  11 42906.0 3727.43   1
  -2  -1  11 40671.8 2845.91  10
  -2  -1  11 41589.8 2868.74   8
  -2  -1  10 1308.01 989.286   1
  -2  -1  10 576.409 542.986  11
  -2  -1  10 1250.22 829.261   8
  -2  -1  10 383.613 666.879  12
  -2  -1   9 50624.5 3548.42   1
   2  -1  -8 155578. 4749.53  21
  -2  -1   8 170308. 5783.07   1
   2  -1  -7 146586. 3874.18  21
  -2  -1   7 139865. 4803.89   1
   2  -1  -6 55263.2 2158.57  21
  -2  -1   6 56868.6 2879.33   1
  -2  -1   5 26148.2 1870.55   1
  -2  -1   4 282770. 5469.67   1
  -2  -1   3 360718. 3720.42  20
  -2  -1   3 378736. 5980.95   1
   2  -1  -2 44743.7 1210.51   3
  -2  -1   2 42687.0 1996.68   1
  -2  -1   1 30200.7 2068.30  20
  -2  -1   1 31087.7 1679.11   1
   2  -1  -1 31759.6 1211.53   3
   2  -1  -1 32028.8 906.504   5
   2  -1  -1 32333.2 1411.40   2
  -2  -1   0 310493. 7337.16  20
  -2  -1   0 312616. 5087.90   1
   2  -1   0 319617. 3634.67   4
   2  -1   0 318897. 4381.51   2
  -2  -1  -1 270333. 4841.12   1
   2  -1   1 278608. 4328.28   2
  -2  -1  -2 129283. 4543.52  20
   2  -1   2 118616. 3088.37   2
  -2  -1  -3 2470.16 928.582  20
   2  -1   3 1702.02 712.593   2
   2  -1   4 126518. 4008.70   2
  -2  -1  -4 128297. 4452.45  20
  -2  -1  -5 287147. 6682.44  20
   2  -1   5 253000. 6343.68   2
  -2  -1  -6 193492. 5628.83  20
   2  -1   6 201498. 5926.07   2
  -2  -1  -7 18666.6 1916.33  20
   2  -1   7 17955.4 1970.70   2
  -2  -1  -8 70894.3 3628.13  20
   2  -1   8 68436.5 3615.98   2
  -2  -1  -9 119113. 4829.06  20
  -2  -1  -9 128647. 5459.28  15
  -2  -1  -9 117255. 4192.91  16
   2  -1   9 117876. 4929.46   2
   2  -1  10 126802. 5233.71   2
  -2  -1 -10 140053. 5487.60  15
  -2  -1 -10 127426. 4715.75   6
  -2  -1 -10 129089. 5262.49  20
  -2  -1 -10 122655. 4430.72  17
  -2  -1 -10 125395. 4444.12  16
   2  -1  10 120520. 3860.19   9
   2  -1  10 125879. 3824.91  14
  -2  -1 -11 13070.7 1858.30  20
  -2  -1 -11 15633.3 1804.06   6
   2  -1  11 15787.7 2016.01   2
  -2  -1 -11 15457.2 1702.30  17
  -2  -1 -11 15778.5 1781.00  16
   2  -1  11 15133.5 1538.73   9
  -2  -1 -11 16530.5 2137.94  15
   2  -1  11 15452.2 1445.72  14
  -2  -1 -12 26110.3 2181.30   6
   2  -1  12 25243.7 1929.80   9
  -2  -1 -12 25820.5 2472.27  15
   2  -1  12 26816.8 1914.90  14
  -2  -1 -12 28703.9 2345.82  16
  -2  -1 -13 31515.7 2293.64   6
  -2  -1 -13 35291.5 2576.93  16
   2  -1  13 34926.6 2267.03   9
  -2  -1 -13 32683.0 2731.00  15
   2  -1  13 32998.9 2132.04  14
  -2  -1 -14 52944.3 2981.30  16
   2  -1  14 51828.0 2713.45   9
  -2  -1 -14 48644.0 3102.04  15
   2  -1  14 51063.0 2561.93  14
  -2  -1 -15 11881.4 1625.86  15
   2  -1  15 13328.6 1309.61  14
   2  -1  15 12181.7 1439.69   9
   2  -1  16 487.077 655.995   9
  -2  -1 -16 228.685 674.233  15
   2  -1  16 34.1303 527.563  14
   2  -1  17 10840.3 902.811  18
   2  -1  17 13148.4 1092.43  14
   2  -1  18 20995.1 1124.49   9
  -2   0  18 26876.8 1661.01   8
  -2   0  18 25309.6 1374.14   7
  -2   0  17 15540.6 1445.72   8
  -2   0  17 13596.5 1219.53   7
  -2   0  16 6760.10 980.404   7
  -2   0  16 7569.50 1272.46   8
  -2   0  15 23377.3 2028.59   8
  -2   0  15 21964.7 1781.06   7
  -2   0  14 32845.4 2289.34  11
  -2   0  14 37221.2 2535.97   8
  -2   0  14 34423.6 2213.42   7
  -2   0  13 35798.3 2390.64  11
  -2   0  13 36452.7 3281.83   1
  -2   0  13 39940.1 2679.83   8
  -2   0  13 37021.6 2275.06   7
  -2   0  12 525.094 606.019   7
  -2   0  12 1376.67 667.136  11
  -2   0  12 1645.40 781.075   1
  -2   0  12 852.613 697.018   8
  -2   0  11 27570.5 2010.40  11
  -2   0  11 28071.4 2881.00   1
  -2   0  11 27371.9 2279.49   8
  -2   0  11 25704.3 1825.53   7
  -2   0  10 161043. 6477.33   1
  -2   0   9 195166. 6680.42   1
  -2   0   8 13592.3 1730.87   1
   2   0  -8 11468.6 1264.89   5
  -2   0   7 83040.3 3544.60   1
   2   0  -7 84945.8 3197.38   5
  -2   0   6 443375. 7355.53   1
   2   0  -6 435642. 5892.09   5
  -2   0   5 198819. 4618.87   1
   2   0  -5 219956. 3594.21   5
   2   0  -4 44462.8 1194.64  21
  -2   0   4 46784.4 2084.96   1
   2   0  -4 49148.0 1586.16   5
   2   0  -3 751.946 355.963   5
  -2   0   3 789.318 556.800   1
  -2   0   3 887.903 232.293  20
  -2   0   2 366660. 3771.03  20
   2   0  -2 359917. 4100.52   5
  -2   0   2 369517. 5046.79   1
  -2   0   1 552203. 5268.14  20
  -2   0   1 546161. 5988.72   1
   2   0  -1 553574. 5234.85   5
   2   0  -1 556082. 6269.04   4
  -2   0   0 324119. 4688.31  20
  -2   0   0 330649. 4628.25   1
   2   0   0 327088. 4603.11   4
   2   0   1 2595.52 549.433   4
  -2   0  -1 2806.46 749.801  20
  -2   0  -1 3248.72 639.599   1
   2   0   1 2767.75 703.089   2
   2   0   2 319572. 5467.55   2
   2   0   2 311255. 4100.96   4
  -2   0  -3 248763. 6195.10  20
   2   0   3 260255. 5218.72   2
   2   0   3 260663. 3741.00   4
  -2   0  -4 332925. 6768.91  20
   2   0   4 316424. 6228.07   2
   2   0   5 9562.05 1387.56   2
  -2   0  -5 7738.41 1314.71  20
   2   0   6 138486. 4925.09   2
  -2   0  -6 136027. 4509.84  20
  -2   0  -7 150980. 4927.60  20
   2   0   7 138410. 5498.01   2
  -2   0  -8 98558.8 4152.20  20
   2   0   8 111227. 5183.93   2
  -2   0  -9 8284.20 1453.24  20
  -2   0  -9 8645.29 1290.68  16
  -2   0  -9 9268.41 1523.85  15
   2   0   9 8736.92 1668.31   2
  -2   0  -9 9746.48 1400.38  13
   2   0  10 43317.5 3301.06   2
  -2   0 -10 43994.6 2628.31  16
   2   0  10 42768.6 2337.32   9
  -2   0 -10 48521.9 3100.73  15
  -2   0 -10 45845.6 3183.94  20
   2   0  10 45467.3 2339.79  14
  -2   0 -10 45747.1 2706.65  17
  -2   0 -11 82467.9 4330.08  20
   2   0  11 89510.4 4745.16   2
  -2   0 -11 97540.4 3894.91  16
  -2   0 -11 98134.8 3955.72  17
   2   0  11 91047.8 3526.45   9
  -2   0 -11 94144.9 4313.23  15
   2   0  11 89354.9 3356.10  14
  -2   0 -12 56820.9 3028.71  17
   2   0  12 56450.3 2844.78   9
  -2   0 -12 58886.8 3159.33  16
  -2   0 -12 56749.3 3449.86  15
   2   0  12 56720.7 2769.12  14
  -2   0 -13 14417.7 1577.13  17
  -2   0 -13 16630.4 1860.85  16
   2   0  13 17472.3 1701.70   9
  -2   0 -13 17917.9 2081.88  15
   2   0  13 17106.5 1656.31  14
  -2   0 -14 11364.4 1434.15   6
  -2   0 -14 14531.0 1655.44  16
   2   0  14 15979.7 1610.31   9
  -2   0 -14 14559.4 1924.85  15
   2   0  14 13394.5 1439.23  14
  -2   0 -15 30376.3 2132.82  16
  -2   0 -15 30729.6 2013.84   6
   2   0  15 34189.4 2203.18   9
  -2   0 -15 29477.4 2397.42  15
   2   0  15 32306.1 2050.91  14
  -2   0 -16 35393.0 2331.78  15
   2   0  16 36586.9 1979.62  14
   2   0  16 38587.9 2132.54   9
   2   0  17 4746.47 698.928  18
  -2   0 -17 5176.28 986.439  15
   2   0  17 5599.29 845.667   9
   2   0  17 5622.53 792.586  14
   2   0  18-680.736 382.742   9
   2   0  18 437.028 255.410  14
  -2   1  19 992.444 442.186  19
  -2   1  18 1875.34 474.588   7
  -2   1  18 1809.31 608.912   8
  -2   1  17 18860.5 1631.96   8
  -2   1  17 18537.7 1371.18   7
  -2   1  16 46528.8 2362.21  14
  -2   1  16 49640.8 2416.00   7
  -2   1  15 36768.0 2446.79   8
  -2   1  15 36758.6 2212.53  14
  -2   1  15 33837.9 2151.90   7
  -2   1  14-173.226 605.486   7
  -2   1  14 355.269 715.577  14
  -2   1  14 103.593 836.186   8
  -2   1  13 65259.3 3239.11   8
  -2   1  13 59888.7 4003.62   1
  -2   1  13 64311.3 3025.10   7
  -2   1  12 156792. 6384.40   1
  -2   1  12 161966. 5024.35   8
  -2   1  12 152666. 4558.14   7
  -2   1  11 47598.7 3538.15   1
   2   1 -11 45059.9 3030.42   5
  -2   1  11 45645.5 2643.37   8
  -2   1  11 45206.2 2472.14   7
  -2   1  10 1643.74 961.949   1
  -2   1  10 960.308 628.460   7
   2   1 -10 2050.85 931.288   5
  -2   1  10 859.129 760.308   8
  -2   1   9 61135.7 3613.46   1
   2   1  -9 62756.7 3609.43   5
  -2   1   8 166125. 5327.29   1
   2   1  -8 165514. 4872.27   5
  -2   1   7 132967. 4279.75   1
   2   1  -7 129727. 3835.52   5
  -2   1   6 57168.8 2570.74   1
   2   1  -6 58939.9 2392.83   5
  -2   1   5 30051.3 1704.98   1
   2   1  -5 30989.3 1648.86   5
  -2   1   4 265661. 4377.04   1
   2   1  -4 253516. 4440.78   5
   2   1  -4 252049. 5569.48   4
   2   1  -3 381581. 5310.46   5
  -2   1   3 365235. 4715.31   1
   2   1  -3 378223. 6418.66   4
  -2   1   2 18682.5 1036.35   1
  -2   1   2 21086.1 1133.05  20
   2   1  -2 21934.5 1344.63   5
   2   1  -2 19833.3 1533.18   4
  -2   1   1 38676.6 1598.62  20
  -2   1   1 34152.1 1344.13   1
   2   1  -1 38145.0 1757.03   5
   2   1  -1 35207.9 1928.48   4
  -2   1   0 264742. 4342.20  20
   2   1   0 277934. 5099.80   4
   2   1   1 287584. 5699.94   2
   2   1   1 278992. 5118.99   4
   2   1   2 99125.2 3483.39   2
   2   1   2 100736. 3070.92   4
  -2   1  -3 2035.87 918.705  20
   2   1   3 1991.17 685.095   4
   2   1   3 2283.32 889.013   2
   2   1   4 109329. 3282.00   4
  -2   1  -4 118202. 5080.03  20
   2   1   4 112157. 3936.58   2
   2   1   5 314381. 5820.85   4
  -2   1  -5 306548. 8397.94  20
   2   1   5 309472. 6782.34   2
   2   1   6 183336. 5720.73   2
   2   1   6 165487. 4455.75   4
  -2   1  -6 178684. 5932.83  20
   2   1   7 21067.0 2241.28   2
  -2   1  -7 22274.1 2181.57  20
   2   1   8 57832.6 3961.36   2
  -2   1  -8 62068.5 3591.90  20
   2   1   9 122921. 6015.21   2
  -2   1  -9 122707. 4271.61  16
  -2   1  -9 108954. 4782.64  20
   2   1   9 118781. 4028.60   9
  -2   1  -9 118312. 4496.00  15
  -2   1  -9 111032. 3934.09  13
  -2   1  -9 120656. 4177.44  17
  -2   1 -10 123051. 5268.84  20
   2   1  10 127326. 4241.87   9
   2   1  10 139855. 6296.34   2
  -2   1 -10 134994. 4543.91  16
  -2   1 -10 131244. 4892.65  15
   2   1  10 128101. 4130.36  14
  -2   1 -10 131891. 4401.40  13
  -2   1 -10 134002. 4527.52  17
  -2   1 -11 13097.6 1564.14  17
  -2   1 -11 14872.4 1752.11  16
   2   1  11 13040.1 1535.84   9
  -2   1 -11 13725.6 1846.43  15
   2   1  11 12887.1 1557.77  14
   2   1  11 15652.9 2224.40   2
  -2   1 -11 14533.2 1661.93  13
  -2   1 -11 15053.9 2062.45  20
  -2   1 -12 16053.6 1789.99  17
  -2   1 -12 16087.9 1794.81  16
   2   1  12 15565.7 1647.43   9
  -2   1 -12 16862.8 1934.54  15
   2   1  12 19700.6 1778.69  14
  -2   1 -12 17003.9 1832.04  13
  -2   1 -13 39678.7 2542.85  17
  -2   1 -13 40413.0 2586.54  16
   2   1  13 42352.0 2561.05   9
  -2   1 -13 45211.7 3023.40  15
   2   1  13 43513.2 2541.88  14
  -2   1 -14 56073.0 2774.42  17
   2   1  14 57667.3 2943.42   9
  -2   1 -14 58134.3 3351.76  15
   2   1  14 58042.9 2792.05  14
  -2   1 -14 59934.7 2925.33  16
   2   1  15 10370.3 1262.22  18
  -2   1 -15 13644.5 1701.84  15
  -2   1 -15 12768.7 1422.16   6
  -2   1 -15 10506.5 1289.97  16
   2   1  15 11860.3 1359.66   9
   2   1  15 10530.1 1246.09  14
   2   1  16 448.739 539.180  18
  -2   1 -16 1779.25 648.644   6
  -2   1 -16-131.688 580.834  16
  -2   1 -16 417.512 840.007  15
   2   1  16-60.6914 532.082  14
   2   1  16 1094.09 711.599   9
   2   1  17 9679.96 912.582  18
   2   1  17 11448.2 1089.10   9
  -2   1 -17 10489.2 1229.06  15
   2   1  17 10025.1 936.024  14
   2   1  18 21974.8 1165.20   9
  -2   1 -18 17791.9 1202.75  15
  -2   2  19 12211.9 904.137  19
  -2   2  18 24558.6 1577.29  19
  -2   2  18 25112.2 1201.65   7
   2   2 -17 6017.80 898.753  15
  -2   2  17 7801.21 920.480   7
  -2   2  17 5851.95 1023.71  19
  -2   2  16 1045.46 545.773   7
   2   2 -16 687.448 597.192  15
  -2   2  16 647.064 726.471   8
  -2   2  16 1615.11 658.236  14
  -2   2  15 38655.0 2417.43   8
   2   2 -15 35091.6 2257.91  15
  -2   2  15 35309.4 2231.78  14
  -2   2  15 37735.5 2245.43   7
  -2   2  14 52538.0 2893.95  14
  -2   2  14 51539.7 2799.76   8
   2   2 -14 49367.9 2797.66  15
  -2   2  14 49489.4 2679.71   7
  -2   2  13 21646.0 1901.72   8
   2   2 -13 20209.8 1944.97  15
  -2   2  13 22327.2 1981.81  14
  -2   2  13 17934.3 1725.56   7
  -2   2  12 543.546 682.389   7
   2   2 -12-1572.54 916.765   4
   2   2 -12 571.469 793.962  15
   2   2 -12-1873.90 821.127   5
  -2   2  12 934.004 840.949  14
  -2   2  12 900.804 753.521   8
   2   2 -11 41744.4 3436.84   5
  -2   2  11 40892.0 2467.54   8
   2   2 -11 38100.8 2890.91  15
  -2   2  11 39629.3 2777.27  14
   2   2 -11 45178.2 4071.15   4
  -2   2  11 43457.2 2594.15   7
   2   2 -10 136524. 5981.34   5
  -2   2  10 131919. 4208.84   8
   2   2 -10 141317. 5131.24  15
   2   2 -10 119574. 7344.82   4
  -2   2  10 134367. 4575.42   7
   2   2  -9 165054. 5736.65   5
   2   2  -9 175547. 9560.29   4
  -2   2   9 164275. 5259.49   7
   2   2  -8 733.751 1163.26   4
   2   2  -8 1780.72 694.991   5
   2   2  -7 75917.4 3248.33   5
   2   2  -7 83908.3 4451.61   4
   2   2  -6 250762. 5577.28   5
   2   2  -6 246822. 6872.10   4
   2   2  -5 218815. 4986.40   5
   2   2  -5 213719. 5994.89   4
   2   2  -4 66156.0 2706.27   5
   2   2  -4 63480.7 3192.40   4
   2   2  -3 59645.7 2548.72   5
   2   2  -3 51553.3 2803.90   4
   2   2  -2 180286. 4377.71   5
   2   2  -2 178440. 4982.75   4
  -2   2   1 270252. 5013.08  20
   2   2  -1 272745. 5431.21   5
   2   2  -1 264232. 5933.22   4
   2   2   0 187877. 4520.28   5
  -2   2   0 180138. 4259.27  20
   2   2   0 175096. 4831.54   4
   2   2   1 2775.10 872.352   4
   2   2   1 3346.84 939.324   2
  -2   2  -1 3218.56 812.234  20
  -2   2  -2 167737. 4537.88  20
   2   2   2 171829. 4980.73   2
   2   2   2 168705. 4729.88   4
  -2   2  -3 355911. 7119.79  20
   2   2   3 337897. 7053.96   2
  -2   2  -4 74778.5 3823.28  20
   2   2   4 66488.8 3290.14   2
   2   2   4 67108.9 3128.14   4
   2   2   5 5292.69 1157.78   2
  -2   2  -5 6609.19 1998.05  20
   2   2   5 4721.81 1098.55   4
   2   2   6 49781.7 3145.40   2
   2   2   6 49061.1 2917.87   4
  -2   2  -6 48287.5 4901.79  20
   2   2   7 174543. 6228.38   2
   2   2   7 187590. 5811.55   4
  -2   2  -7 163723. 6945.22  20
   2   2   8 93102.9 4977.34   2
  -2   2  -8 97349.0 5008.56  20
  -2   2  -8 99859.4 4342.67  16
  -2   2  -8 108594. 4224.37  15
  -2   2  -8 105003. 3692.62  13
  -2   2  -9 2624.60 1193.46  20
  -2   2  -9 2661.99 1368.49  16
   2   2   9 2268.19 1087.78   9
  -2   2  -9 1964.32 920.304  15
   2   2   9 1399.44 1033.74   2
   2   2   9 2239.73 1423.01  14
  -2   2  -9 1913.03 895.969  13
  -2   2 -10 13582.7 1976.92  20
  -2   2 -10 11730.0 1742.72  16
   2   2  10 11600.0 1608.44   9
  -2   2 -10 9734.59 1475.83  15
   2   2  10 10149.0 2002.95   2
   2   2  10 14482.6 1769.90  14
  -2   2 -10 9450.09 1383.83  13
  -2   2 -11 95521.3 5053.44  20
   2   2  11 114193. 5763.32   2
  -2   2 -11 107868. 4220.05  17
   2   2  11 110283. 4358.04   9
  -2   2 -11 113950. 4289.16  16
  -2   2 -11 107802. 4459.64  15
   2   2  11 112527. 4346.29  14
  -2   2 -11 106094. 4139.89  13
   2   2  12 68124.9 3318.33  18
  -2   2 -12 70029.1 3384.03  17
   2   2  12 66168.2 3390.88   9
  -2   2 -12 68745.4 3305.06  16
  -2   2 -12 70880.0 3630.11  15
   2   2  12 72142.7 3387.81  14
  -2   2 -12 71205.7 3389.93  13
  -2   2 -13 7055.43 1270.25  17
  -2   2 -13 8960.41 1399.05  16
   2   2  13 9491.47 1396.82   9
  -2   2 -13 8245.53 1469.72  15
   2   2  13 8537.84 1338.73  18
   2   2  13 8917.16 1365.29  14
  -2   2 -13 9639.35 1459.54  13
  -2   2 -14 2080.96 797.687  17
  -2   2 -14 2496.26 878.695  16
   2   2  14 2420.19 811.416   9
  -2   2 -14 2963.70 1095.02  15
   2   2  14 4894.12 1045.32  14
  -2   2 -14 3338.00 1043.21  13
   2   2  14 4185.79 974.682  18
   2   2  15 31952.4 2045.15  18
  -2   2 -15 30191.2 1805.59  17
   2   2  15 32691.8 2048.24   9
  -2   2 -15 33177.4 1902.61  16
  -2   2 -15 33510.8 2298.34  15
   2   2  15 32477.8 1944.75  14
   2   2  16 26682.7 1631.13  18
  -2   2 -16 27305.8 1697.77   6
   2   2  16 29309.5 1772.68   9
  -2   2 -16 26036.3 1483.09  16
  -2   2 -16 29948.8 1969.74  15
   2   2  16 28574.9 1646.09  14
  -2   2 -17 10319.8 901.981   6
   2   2  17 10365.8 857.018  18
   2   2  17 12259.9 1030.72   9
  -2   2 -17 10895.9 1140.06  15
   2   2  17 10315.4 867.414  14
  -2   3  18 2971.30 543.896  19
  -2   3  17 17804.6 1413.12  19
   2   3 -17 16435.0 1200.97  15
  -2   3  17 17204.5 1108.08   7
  -2   3  16 28602.6 1955.23  19
   2   3 -16 29809.4 1837.81  15
  -2   3  16 28826.2 1677.31   7
  -2   3  15 17266.8 1758.98  19
   2   3 -15 13803.4 1469.59  15
  -2   3  15 15447.5 1512.62  14
  -2   3  15 17276.4 1500.92   7
  -2   3  14 731.244 677.750   7
  -2   3  14 16.5876 885.568  19
   2   3 -14 638.813 790.711  15
  -2   3  14 761.487 675.267   8
  -2   3  14-730.360 751.619  14
  -2   3  13 27313.4 2555.66  19
   2   3 -13 26408.7 2261.07  15
  -2   3  13 30322.3 2374.74  14
  -2   3  13 25287.1 2004.06   8
  -2   3  13 26007.6 2038.47   7
  -2   3  12 66665.2 3213.56   8
   2   3 -12 68080.7 3805.95  15
  -2   3  12 63677.0 3642.93  14
  -2   3  12 69842.4 4220.53  19
  -2   3  12 65387.6 3285.03   7
   2   3 -11 88633.8 6130.01   4
   2   3 -11 87287.1 5477.33   5
  -2   3  11 87152.4 5115.14  19
  -2   3  11 102479. 3882.57   8
   2   3 -11 99360.0 4804.89  15
  -2   3  11 87563.4 4595.55  14
   2   3 -11 85146.6 3919.97  13
  -2   3  11 96439.0 4174.07   7
  -2   3  10 3095.25 1107.49   7
  -2   3  10 2769.11 1523.18  19
   2   3 -10 3581.50 1250.03  15
  -2   3  10 2488.77 1196.20  14
  -2   3  10 5732.72 1069.07   8
   2   3 -10 6177.74 1448.24   5
   2   3 -10 528.730 771.296  13
  -2   3   9 40906.4 3146.20  19
   2   3  -9 42922.2 3169.25   5
   2   3  -9 47471.4 2904.64  15
  -2   3   9 42402.4 2775.71  14
   2   3  -9 40322.2 2330.62  13
   2   3  -9 53802.2 5498.71   4
  -2   3   9 50097.9 4016.12   7
  -2   3   8 93193.2 4187.85  19
   2   3  -8 96401.4 4338.36   5
   2   3  -8 91096.3 3251.18  13
   2   3  -8 102606. 6059.24   4
  -2   3   8 107623. 6294.85   7
   2   3  -7 162721. 5335.34   5
   2   3  -7 171008. 6823.52   4
   2   3  -6 38374.3 2545.26   5
   2   3  -6 36377.7 2965.99   4
   2   3  -5 47196.7 2686.47   5
   2   3  -5 48841.4 3232.20   4
   2   3  -4 165247. 4903.23   5
   2   3  -4 168724. 5772.15   4
   2   3  -3 219912. 5601.77   5
   2   3  -3 213663. 6336.77   4
   2   3  -2 171557. 4930.32   5
   2   3  -2 172693. 5635.12   4
   2   3  -1 53390.4 2785.54   5
   2   3  -1 53923.8 3182.83   4
   2   3   0 228936. 5730.30   5
   2   3   0 224501. 6244.37   4
   2   3   1 245517. 6467.24   2
   2   3   1 245010. 6573.12   4
  -2   3  -2 96744.1 3985.28  20
   2   3   2 103707. 4035.35   5
   2   3   2 102428. 4219.36   2
   2   3   2 96513.5 4247.51   4
  -2   3  -3 961.770 755.878  20
   2   3   3 968.334 892.152   4
   2   3   3 1027.55 696.392   2
   2   3   3 1054.42 822.537   5
   2   3   4 146301. 5321.17   4
  -2   3  -4 154730. 5829.28  20
   2   3   4 153557. 5333.65   2
   2   3   5 281692. 7445.60   4
  -2   3  -5 284250. 9106.14  20
   2   3   6 118562. 5092.58   2
   2   3   6 120342. 5093.92   4
  -2   3  -6 127992. 8467.14  20
  -2   3  -6 111536. 3699.68  16
   2   3   6 123418. 5373.08  18
   2   3   7 2741.49 1105.57   4
   2   3   7 3350.62 2268.33  18
  -2   3  -7 7048.64 2436.75  20
  -2   3  -7 1522.84 992.133  16
   2   3   7 4554.93 1145.43   9
  -2   3  -7 2818.59 886.409  19
   2   3   7 2350.97 986.819   2
  -2   3  -7 1755.16 716.483  13
   2   3   8 34538.6 2994.64   4
   2   3   8 35475.7 3254.18   2
  -2   3  -8 36181.7 3622.07  20
  -2   3  -8 37067.0 2806.74  19
   2   3   8 46010.3 3832.21  18
   2   3   8 37142.8 3383.20   9
  -2   3  -8 39217.4 2761.95  16
  -2   3  -8 39430.1 2662.95  15
  -2   3  -8 37804.0 2373.52  13
  -2   3  -9 145204. 6700.48  20
   2   3   9 133473. 6629.77   2
   2   3   9 166138. 6088.36  18
   2   3   9 180232. 8435.76   9
  -2   3  -9 138603. 5409.97  16
  -2   3  -9 156202. 5118.11  15
   2   3   9 127644. 5809.79  14
  -2   3  -9 155662. 6093.39  19
  -2   3  -9 150003. 4744.11  13
   2   3  10 40748.0 3684.97   2
   2   3  10 45985.7 3048.14  18
   2   3  10 48993.1 3557.43   9
  -2   3 -10 47888.5 3140.29  16
  -2   3 -10 45664.6 2909.68  15
   2   3  10 46845.3 3575.93  14
  -2   3 -10 44486.8 2693.77  13
  -2   3 -11 18819.6 1982.51  16
  -2   3 -11 17869.6 1936.38  15
   2   3  11 19585.3 2163.71  14
   2   3  11 16009.4 1903.30  18
  -2   3 -11 19178.8 1885.09  13
   2   3  11 20615.7 2163.99   9
   2   3  12 5406.32 1179.81  18
  -2   3 -12 5375.35 1170.22  17
  -2   3 -12 5791.83 1174.69  16
   2   3  12 4654.49 1190.09   9
  -2   3 -12 5100.49 1171.02  15
   2   3  12 5690.90 1233.88  14
  -2   3 -12 5794.39 1120.38  13
   2   3  13 44422.4 2660.29   9
   2   3  13 41543.7 2578.43  18
  -2   3 -13 42637.7 2548.11  17
  -2   3 -13 41276.8 2344.45  16
  -2   3 -13 41758.6 2647.48  15
   2   3  13 44951.4 2539.78  14
  -2   3 -13 43325.8 2572.81  13
   2   3  14 33267.2 2107.16  18
  -2   3 -14 32922.4 2059.01  17
   2   3  14 32063.3 2084.38   9
  -2   3 -14 30404.7 1831.63  16
  -2   3 -14 32281.0 2216.04  15
   2   3  14 34950.8 2080.12  14
  -2   3 -14 33515.7 2158.01  13
   2   3  15 6821.73 1010.53  18
  -2   3 -15 5364.92 871.632  17
   2   3  15 6873.39 988.649   9
  -2   3 -15 5875.75 1064.57  15
   2   3  15 5501.05 824.903  14
   2   3  16 497.495 467.746  18
   2   3  16 745.734 482.069   9
  -2   3 -16 209.074 553.161  15
   2   3  17 13650.3 897.354   9
  -2   4  17 5397.76 641.118  19
  -2   4  16 50.6501 326.560   7
   2   4 -16-303.387 495.658  15
  -2   4  16-215.535 495.741  19
   2   4 -15 20679.3 1607.80  15
  -2   4  15 20477.6 1677.33  19
  -2   4  15 21354.2 1464.09   7
  -2   4  14 45190.3 2689.41  19
   2   4 -14 42620.2 2500.45  15
  -2   4  14 43269.6 2265.33   7
  -2   4  13 29466.9 2479.92  19
   2   4 -13 26538.3 2197.11  15
   2   4 -13 25414.6 1782.33  13
  -2   4  13 27121.3 2031.03   7
  -2   4  12 2694.83 941.025   7
  -2   4  12 1894.61 1362.97  19
   2   4 -12 2189.08 1174.40  15
   2   4 -12 2104.91 997.461  13
  -2   4  11 38424.8 3778.91  19
   2   4 -11 34332.8 3047.21  15
   2   4 -11 33049.1 2669.91  13
  -2   4  11 42116.8 2928.26   7
   2   4 -10 94161.6 4701.36  15
   2   4 -10 94878.6 4083.50  13
  -2   4  10 102360. 5133.64   7
  -2   4  10 92344.6 5439.45  19
  -2   4   9 40014.7 3314.55  19
   2   4  -9 44448.8 6161.27   4
   2   4  -9 34635.7 3107.14   5
   2   4  -9 43065.7 3024.87  15
   2   4  -9 38323.0 2493.95  13
  -2   4   9 51788.2 5432.22   7
   2   4  -8 30427.5 3697.25   4
  -2   4   8 22421.2 2342.26  19
   2   4  -8 24679.0 1982.91  13
   2   4  -8 21074.8 2349.45   5
  -2   4   8 28192.9 3195.81   7
  -2   4   7 59562.4 3439.08  19
   2   4  -7 56177.6 3524.00   5
   2   4  -7 59420.0 2845.18  13
   2   4  -7 58879.8 4569.04   4
  -2   4   7 60840.2 3593.64   7
   2   4  -6 107085. 4699.79   5
   2   4  -6 104243. 3685.57  13
   2   4  -6 110173. 5719.58   4
  -2   4   6 110447. 4303.71   7
  -2   4   6 105746. 4303.97  19
   2   4  -5 180027. 5940.96   5
   2   4  -5 173726. 4681.62  13
  -2   4   5 176449. 5373.28  19
  -2   4   5 178304. 5102.16   7
   2   4  -5 177129. 6863.87   4
  -2   4   4 18266.9 1818.80  19
   2   4  -4 17912.4 1885.76   5
   2   4  -4 14229.7 1409.96  13
  -2   4   4 18138.9 1638.52   7
   2   4  -4 16039.4 2118.83   4
  -2   4   3 22575.0 1919.74  19
   2   4  -3 30127.7 2501.56   5
   2   4  -3 26443.0 2606.41   4
   2   4  -2 121108. 4760.46   5
   2   4  -2 127175. 5392.33   4
   2   4  -1 197780. 6071.85   5
   2   4  -1 190496. 6564.21   4
   2   4   0 44794.4 3003.84   5
   2   4   0 48681.2 3181.70   2
   2   4   0 52250.2 3466.47   4
   2   4   1 978.547 740.178   2
   2   4   1 1101.18 816.378   5
   2   4   1 1828.97 970.931   4
  -2   4  -2 76732.3 3292.49  19
  -2   4  -2 75821.9 3006.99  18
  -2   4  -2 70749.2 2878.81  16
   2   4   2 73613.5 3853.23   5
   2   4   2 69911.1 3819.07   2
   2   4   2 72412.3 4180.72   4
   2   4   3 154231. 6091.48   4
  -2   4  -3 143744. 4496.98  19
   2   4   3 148011. 4690.97  18
  -2   4  -3 144532. 4095.02  16
   2   4   3 146522. 5538.43   5
   2   4   3 143157. 5459.18   2
  -2   4  -3 158206. 4445.85  18
   2   4   4 95050.5 4871.60   4
  -2   4  -4 86450.6 3571.71  19
   2   4   4 88675.3 3506.95   9
   2   4   4 75168.2 3687.91  18
  -2   4  -4 86253.9 3251.10  16
   2   4   4 86634.8 4431.55   5
   2   4   4 86693.0 4346.77   2
  -2   4  -5 265.320 668.064  19
   2   4   5-1691.16 910.450  18
   2   4   5 455.338 827.848   4
   2   4   5 1047.63 775.130   9
  -2   4  -5 25.0872 670.816  16
   2   4   5 165.480 573.850   2
   2   4   5 1675.88 1016.84   5
  -2   4  -5 265.320 779.066  13
   2   4   6 34493.7 2971.96   2
   2   4   6 38499.8 3341.65   4
  -2   4  -6 42116.7 2657.72  19
   2   4   6 39291.0 3260.16  18
   2   4   6 38852.5 2625.58   9
  -2   4  -6 38228.1 2328.99  16
   2   4   6 46232.3 3543.58   5
  -2   4  -6 43589.0 2578.10  13
   2   4   7 84586.4 4908.26   2
   2   4   7 91143.9 5144.96   4
  -2   4  -7 88092.8 3979.91  19
   2   4   7 95777.6 6048.41  18
   2   4   7 79232.6 3972.76   9
  -2   4  -7 85374.5 3583.27  16
   2   4   7 87214.3 5216.31   5
  -2   4  -7 85866.9 3572.60  13
  -2   4  -8 60006.3 3517.21  19
   2   4   8 48266.7 3939.12   2
   2   4   8 54603.1 3789.02   9
  -2   4  -8 55711.1 3174.20  16
   2   4   8 55640.5 3377.31  14
  -2   4  -8 56980.0 3008.42  13
  -2   4  -9 12875.1 2035.56  19
   2   4   9 16729.0 2399.57  18
  -2   4  -9 15932.9 2102.38  16
   2   4   9 11861.8 2678.54   9
  -2   4  -9 17694.4 1792.82  15
   2   4   9 11910.4 2003.33  14
  -2   4  -9 17710.2 1834.04  13
   2   4  10 25602.0 2475.69  18
   2   4  10 27340.6 3121.84   9
  -2   4 -10 23489.4 2352.11  16
  -2   4 -10 22595.7 1983.74  15
   2   4  10 23045.3 2800.38  14
  -2   4 -10 23588.2 2018.37  13
   2   4  11 53827.4 3179.29  18
  -2   4 -11 48379.4 2862.91  16
   2   4  11 55822.6 3448.51   9
  -2   4 -11 48956.1 2766.53  15
   2   4  11 50292.0 3284.38  14
  -2   4 -11 55325.4 2886.82  13
  -2   4 -12 44136.0 2619.90  17
   2   4  12 49779.4 2855.29   9
  -2   4 -12 44909.0 2404.08  16
   2   4  12 49113.7 2784.41  18
  -2   4 -12 45605.1 2582.65  15
   2   4  12 48728.6 2720.08  14
  -2   4 -12 47761.0 2610.27  13
   2   4  13 4004.37 967.358  18
  -2   4 -13 3423.25 947.415  17
  -2   4 -13 2727.50 799.242  16
   2   4  13 2066.05 779.037   9
  -2   4 -13 3431.15 915.148  15
  -2   4 -13 3500.59 913.002  13
   2   4  14 1222.77 683.805  18
  -2   4 -14 2360.39 729.605  17
   2   4  14 1341.23 637.231   9
  -2   4 -14 1000.75 663.058  15
  -2   4 -14 921.633 638.106  13
  -2   4 -15 14411.9 1029.79  17
  -2   4 -15 14963.0 1166.46  15
   2   4  15 16761.4 1157.08  18
  -2   4 -16 15920.1 981.389   6
  -2   5  15 4781.31 585.257   7
   2   5 -15 5848.93 806.136  15
  -2   5  15 5031.44 737.539  19
  -2   5  14 428.252 487.438  19
   2   5 -14 135.114 628.934  15
   2   5 -14 550.251 321.054  13
  -2   5  13 14762.1 1564.99  19
   2   5 -13 15387.7 1586.64  15
   2   5 -13 12493.1 1194.66  13
  -2   5  13 15144.7 1372.36   7
  -2   5  12 43317.2 2950.00  19
   2   5 -12 39637.8 2595.25  15
   2   5 -12 37778.9 2294.23  13
  -2   5  12 42716.6 2464.59   7
  -2   5  11 35380.6 3285.47  19
   2   5 -11 29178.4 2603.55  15
   2   5 -11 28346.2 2384.49  13
  -2   5  11 36584.6 2610.39   7
  -2   5  10 5695.94 1548.45   7
   2   5 -10 4326.65 1517.38  15
  -2   5  10 5166.16 1958.70  19
   2   5 -10 5334.07 1373.96  13
  -2   5   9 20761.4 4013.67   7
  -2   5   9 23416.1 2743.86  19
  -2   5   9 15283.7 1853.21   9
   2   5  -9 21404.1 2472.09  15
   2   5  -9 18606.4 1973.87  13
  -2   5   8 120028. 5270.48  19
  -2   5   8 115262. 4596.64   9
   2   5  -8 137063. 5428.27  15
   2   5  -8 133190. 4616.87  13
  -2   5   8 149173. 7017.90   7
  -2   5   7 49787.4 2997.12   9
  -2   5   7 53558.9 3436.37  19
   2   5  -7 58119.9 3038.12  13
  -2   5   7 62136.7 3785.76   7
  -2   5   6 521.904 770.922   7
   2   5  -6 1834.55 1173.05   4
  -2   5   6 1176.45 964.759  19
   2   5  -6 8.24993 752.688  13
  -2   5   5 3797.80 1122.10   7
  -2   5   5 2474.83 1073.49  19
   2   5  -5 3285.74 1264.45   5
   2   5  -5 3796.15 1033.72  13
  -2   5   4 127329. 4334.88  18
   2   5  -4 125153. 5436.72   5
  -2   5   4 129863. 4911.29  19
   2   5  -4 128553. 4391.04  13
  -2   5   4 124587. 4482.85   7
   2   5  -4 123880. 6128.53   4
  -2   5   3 102726. 4341.31  19
  -2   5   3 102540. 3846.67  18
   2   5  -3 105982. 4976.45   5
   2   5  -3 102430. 4038.19  13
  -2   5   3 100219. 3937.59   7
   2   5  -3 92920.0 5286.45   4
  -2   5   2 15417.8 1800.38  19
  -2   5   2 17418.6 1663.59  18
   2   5  -2 16281.7 2015.40   2
   2   5  -2 17162.8 2161.00   5
  -2   5   2 17568.1 1703.76   7
   2   5  -2 18057.3 1794.51  13
   2   5  -2 20582.7 2474.08   4
  -2   5   1 1606.92 606.779   7
   2   5  -1 4153.98 1216.49   4
  -2   5   1 1721.81 804.533  19
   2   5  -1 1473.09 829.566  18
  -2   5   1 2523.11 966.343  18
   2   5  -1 2040.59 975.709   5
  -2   5   0 72766.2 3590.86  19
  -2   5   0 69395.7 3146.90  18
   2   5   0 71349.9 4139.01   5
   2   5   0 68576.9 3139.52  18
  -2   5   0 69891.8 3078.06   7
   2   5   0 78485.2 4748.50   4
  -2   5  -1 157425. 5196.90  19
  -2   5  -1 150094. 4619.44  18
   2   5   1 148545. 4769.54  18
  -2   5  -1 153711. 4614.65  16
   2   5   1 159276. 6108.48   5
  -2   5  -1 153961. 4417.29   7
   2   5   1 158245. 6668.63   4
   2   5   2 55704.4 4042.79   4
  -2   5  -2 53562.2 2863.00  18
   2   5   2 50059.1 3041.25  18
   2   5   2 50531.2 2764.84   9
  -2   5  -2 53966.4 2777.05  16
  -2   5  -2 56843.0 3173.53  19
   2   5   2 50028.5 3592.62   5
   2   5   3 808.982 677.125   4
  -2   5  -3 2142.67 981.578  19
  -2   5  -3 2241.98 851.813  18
   2   5   3 2509.61 1089.80  18
   2   5   3 2027.55 876.802   9
  -2   5  -3 2751.22 997.704  16
   2   5   3-437.028 941.329   5
   2   5   4 47885.7 3859.02   4
   2   5   4 49734.5 2849.54   9
  -2   5  -4 48848.7 2656.08  16
   2   5   4 47894.1 3592.50   5
  -2   5  -4 50950.4 3006.06  19
   2   5   4 46676.3 3039.36  18
  -2   5  -5 101559. 4255.17  19
   2   5   5 94960.8 4007.67   9
  -2   5  -5 100664. 3746.51  16
  -2   5  -5 99354.2 3842.81  13
   2   5   5 89399.6 4461.19  18
  -2   5  -6 76727.5 3837.60  19
   2   5   6 77689.3 3747.87   9
  -2   5  -6 75498.4 3318.53  16
   2   5   6 72522.2 4317.70  18
  -2   5  -6 79297.6 3436.60  13
   2   5   7 1635.69 1749.44  18
   2   5   7 392.385 1138.10   9
  -2   5  -7 194.477 857.405  16
  -2   5  -7 849.841 905.844  19
  -2   5  -7 1752.79 815.414  13
  -2   5  -8 17936.0 2233.62  19
   2   5   8 21882.1 4412.03  18
   2   5   8 19137.7 2354.18   9
  -2   5  -8 20546.2 2067.19  16
  -2   5  -8 20565.9 1822.95  13
  -2   5  -9 43878.0 3381.25  19
   2   5   9 41085.6 3979.33   9
  -2   5  -9 45699.6 3026.05  16
  -2   5  -9 49048.3 2631.86  13
   2   5  10 54096.8 3214.80  18
   2   5  10 56101.0 3917.07   9
  -2   5 -10 48827.7 2858.83  16
  -2   5 -10 47033.0 2528.26  13
   2   5  11 7770.03 1265.70   9
  -2   5 -11 5826.55 1016.70  16
   2   5  11 7857.03 1306.63  18
  -2   5 -11 5837.67 1059.89  13
   2   5  12 2939.45 852.942  18
  -2   5 -12 3009.86 860.892  17
   2   5  12 2819.15 823.630   9
  -2   5 -12 2553.42 775.737  13
   2   5  13 18687.1 1340.21  18
   2   5  13 19950.8 1376.38   9
  -2   5 -13 17499.9 1335.25  17
  -2   5 -13 17826.9 1317.64  13
   2   5  14 24060.6 1241.32   9
   2   5  14 23586.1 1216.70  18
  -2   6  13 11772.2 985.538  19
   2   6 -13 11522.6 1005.63  15
   2   6 -13 11720.2 832.710  13
  -2   6  13 13777.1 962.743   7
  -2   6  12 1604.68 544.092   7
  -2   6  12 929.597 636.158  19
   2   6 -12 1681.37 674.772  15
   2   6 -12 1346.06 602.463  13
   2   6 -11 20796.0 1705.29  15
  -2   6  11 20849.2 1868.94  19
   2   6 -11 21279.6 1684.76  13
  -2   6  11 21028.7 1633.30   7
   2   6 -10 36260.4 2492.46  15
   2   6 -10 33039.7 2397.61  13
  -2   6  10 41628.9 3285.35  19
  -2   6  10 45636.7 2780.46   7
  -2   6   9 36679.8 3550.38  19
   2   6  -9 26638.1 2458.24  15
   2   6  -9 31462.2 2496.52  13
  -2   6   9 34412.8 3483.88   7
  -2   6   8 1707.98 1832.50   7
  -2   6   8 1848.58 1268.56  19
   2   6  -8 2491.62 1284.03  15
   2   6  -8 2346.69 1095.37  13
  -2   6   7 10697.5 1818.62   7
  -2   6   7 9927.07 1682.20  19
   2   6  -7 10045.3 1742.02  15
   2   6  -7 11617.5 1641.61  13
  -2   6   6 70013.6 3752.68  19
   2   6  -6 71621.1 3746.79  15
   2   6  -6 76949.1 3514.89  13
  -2   6   6 74165.9 3789.31   7
  -2   6   5 74849.6 3833.52  19
  -2   6   5 76564.6 3475.48  18
   2   6  -5 80316.4 3552.38  13
  -2   6   5 76855.7 3697.84   7
  -2   6   4 30401.6 2302.07  18
  -2   6   4 34827.3 2750.85  19
   2   6  -4 32537.9 2368.37  13
  -2   6   4 28697.8 2334.54   7
  -2   6   3 10978.2 1658.30  19
  -2   6   3 11340.0 1486.29  18
  -2   6   3 12422.2 1573.38   7
   2   6  -3 11903.9 1604.81  13
  -2   6   2 82730.2 3557.64  18
   2   6  -2 84341.4 3284.01  18
  -2   6   2 81215.0 3963.56  19
  -2   6   2 82306.3 3588.96   7
   2   6  -2 86285.3 3745.11  13
  -2   6   1 90642.8 3713.45  18
   2   6  -1 89064.9 3507.90  18
  -2   6   1 93927.4 3807.73  16
  -2   6   1 89089.1 4131.10  19
  -2   6   1 88656.7 3630.12   7
   2   6  -1 90380.1 3795.04  13
  -2   6   0 25834.6 2319.88  19
  -2   6   0 24498.9 2035.23  18
   2   6   0 24627.0 2004.00  18
  -2   6   0 26755.6 2118.48  16
  -2   6   0 24582.3 1923.22   7
   2   6   0 22572.8 2030.51  13
  -2   6  -1 419.191 883.567  19
  -2   6  -1 1671.82 905.988  18
   2   6   1 954.237 858.185  18
  -2   6  -1 564.897 899.764  16
   2   6   1 585.900 903.145  13
  -2   6  -2 49784.6 3102.29  19
  -2   6  -2 49640.0 2931.67  18
   2   6   2 49418.3 2883.49  18
  -2   6  -2 50189.9 2771.42  16
   2   6   2 49151.8 2965.62  13
  -2   6  -3 79882.7 3833.53  19
   2   6   3 76375.2 3651.64  18
  -2   6  -3 83600.2 3432.67  16
   2   6   4 35280.7 2651.39  18
   2   6   4 34779.9 2405.03   9
  -2   6  -4 33609.6 2210.21  16
  -2   6  -4 36464.1 2698.16  19
  -2   6  -5 3867.41 1200.67  19
   2   6   5 2875.38 1117.74  18
   2   6   5 4846.19 1218.23   9
  -2   6  -5 3149.51 952.329  16
  -2   6  -6 32089.1 2599.65  19
   2   6   6 39931.3 3211.80  18
   2   6   6 33582.4 2468.67   9
  -2   6  -6 32658.7 2204.42  16
  -2   6  -6 34781.0 2109.42  13
   2   6   7 49166.1 4574.84  18
  -2   6  -7 47907.6 3117.31  19
  -2   6  -7 47492.2 2653.02  16
   2   6   7 49365.1 3058.17   9
  -2   6  -7 48272.9 2410.85  13
  -2   6  -8 38456.7 2949.38  19
   2   6   8 38314.9 3032.60   9
  -2   6  -8 39987.9 2515.69  16
  -2   6  -8 38517.7 2091.12  13
   2   6   9 406.958 868.860  18
   2   6   9 670.916 1076.99   9
  -2   6  -9 954.763 762.644  16
  -2   6  -9 127.258 606.174  13
   2   6  10 13944.5 1447.38  18
   2   6  10 13439.6 1424.28   9
  -2   6 -10 10949.4 1094.48  16
  -2   6 -10 12126.1 1128.58  13
   2   6  11 20583.1 1401.18  18
   2   6  11 19520.0 1340.26   9
  -2   6 -11 16211.9 1294.94  17
  -2   6 -11 19416.6 1248.59  13
   2   6  12 15631.3 1020.44  18
   2   6  12 14974.1 949.424   9
  -2   6 -12 16487.8 1005.76  13
  -2   7  10 1163.05 422.283   7
  -2   7  10 1826.84 555.012  19
   2   7 -10 1113.21 462.019  13
  -2   7   9 9716.83 1219.77  19
  -2   7   9 8930.57 904.263  16
   2   7  -9 8242.26 955.544  15
   2   7  -9 10795.8 1153.12  13
  -2   7   9 10141.5 1191.49   7
  -2   7   8 35030.4 3031.59  19
  -2   7   8 25701.3 1711.13  16
   2   7  -8 31288.1 1849.42  15
   2   7  -8 32584.8 2152.80  13
  -2   7   8 40597.0 3056.53   7
  -2   7   7 39013.5 2937.12  19
  -2   7   7 30804.8 2084.25  16
   2   7  -7 27030.1 1946.35  15
   2   7  -7 38329.3 2427.46  13
  -2   7   7 37347.7 2947.85   7
  -2   7   6 4726.77 1121.47   7
  -2   7   6 3923.80 1083.89  19
  -2   7   6 3136.67 1086.05  16
   2   7  -6 3139.93 954.343  15
   2   7  -6 5540.30 1216.89  13
  -2   7   5 17444.1 1435.33  18
  -2   7   5 24132.7 1939.17  16
   2   7  -5 21614.5 1962.12  15
  -2   7   5 24329.2 1957.00   7
   2   7  -5 25984.1 1987.34  13
  -2   7   5 24793.7 2116.09  19
  -2   7   4 24805.3 2101.69  19
  -2   7   4 20915.9 1656.94  18
  -2   7   4 24839.5 2002.37  16
   2   7  -4 26362.2 2080.94  15
  -2   7   4 27015.8 1962.83   7
   2   7  -4 27969.4 2004.54  13
  -2   7   3 31550.4 2304.64  19
  -2   7   3 24904.8 1930.42  18
  -2   7   3 26622.1 1969.25  16
   2   7  -3 27281.5 2067.72  15
  -2   7   3 28991.4 1984.13   7
   2   7  -3 32286.0 2147.73  13
  -2   7   2 11038.0 1416.63  18
   2   7  -2 13203.3 1253.86  18
  -2   7   2 14907.7 1678.25  19
  -2   7   2 13893.5 1538.94  16
   2   7  -2 13555.0 1514.97  15
  -2   7   2 13457.7 1414.05   7
   2   7  -2 15288.2 1543.06  13
  -2   7   1 309.750 836.288  19
  -2   7   1 644.182 768.336  18
   2   7  -1 646.343 622.672  18
  -2   7   1 307.030 835.778  16
   2   7  -1 399.723 664.352  13
  -2   7   0 41961.4 2626.66  19
   2   7   0 42429.4 2237.95  18
  -2   7   0 41955.1 2345.14  16
   2   7   0 42341.2 2477.81  13
  -2   7  -1 40787.0 2606.88  19
   2   7   1 40672.0 2218.30  18
  -2   7  -1 41002.1 2258.60  16
   2   7   1 45362.5 2557.84  13
  -2   7  -2 24785.4 2060.97  19
   2   7   2 24065.9 1805.27  18
  -2   7  -2 25063.7 1789.04  16
   2   7   2 25054.1 2080.32  13
   2   7   3 1049.09 666.627  18
  -2   7  -3 918.455 652.846  16
   2   7   3 1443.84 1095.67  13
  -2   7  -3 1488.20 856.216  19
  -2   7  -4 27992.1 2174.32  19
   2   7   4 27520.1 2030.85  18
  -2   7  -4 31706.6 1924.24  16
   2   7   4 29723.9 2210.23  13
  -2   7  -5 34732.9 2364.14  19
   2   7   5 36101.8 2465.56  18
  -2   7  -5 33926.9 1937.53  16
  -2   7  -6 10516.9 1530.58  19
   2   7   6 10976.2 1806.23  18
  -2   7  -6 13529.5 1312.33  16
  -2   7  -7 2686.09 973.094  19
   2   7   7 2153.51 1274.50  18
  -2   7  -7 4559.99 911.727  16
   2   7   8 9091.84 1125.17  18
   2   7   9 21126.8 1235.21  18
  -2   7  -9 9366.84 873.625  17
  -2   8   5 16053.8 1202.79  16
  -2   8   4 5456.53 804.162  16
   2   8  -4 5610.41 874.799  13
  -2   8   3 2549.19 758.783  19
  -2   8   3 2691.85 634.633  16
   2   8  -3 2702.94 838.686  13
  -2   8   2 31002.8 1754.92  19
  -2   8   2 30043.0 1528.90  16
   2   8  -2 27056.4 1816.09  13
  -2   8   1 27925.2 1673.03  19
  -2   8   1 28266.3 1456.47  16
   2   8  -1 26160.6 1873.29  13
  -2   8   0 5288.79 862.889  19
  -2   8   0 6263.15 774.084  16
  -2   8  -1 2022.85 660.727  19
   2   8   1 762.809 397.452  18
  -2   8  -1 1842.55 559.028  16
  -2   8  -2 10092.1 1119.50  19
   2   8   2 8667.51 825.652  18
  -2   8  -2 8477.20 816.886  16
  -2   8  -3 18430.3 1422.44  19
  -2   8  -4 14011.0 1327.39  19
  -3  -7   8 22574.2 1257.87  12
   3  -7  -7 5524.17 881.590  11
  -3  -7   7 8226.09 1057.12  12
   3  -7  -6 1077.83 612.399  11
  -3  -7   6 1139.48 1012.29  12
   3  -7  -5 8856.99 1022.81  11
  -3  -7   5 12286.3 1559.63  12
   3  -7  -4 36894.8 1860.22  11
  -3  -7   4 43000.6 2325.98  12
   3  -7  -3 10987.3 1065.22  11
  -3  -7   3 14887.9 1425.70  12
  -3  -7   2 1803.55 715.720  12
  -3  -7   1 6102.03 943.309  12
  -3  -7   0 19193.1 1517.33  12
  -3  -7  -1 18225.1 1420.45  12
  -3  -7  -2 3485.27 700.312  12
   3  -7   3 7964.98 1058.48  14
  -3  -7  -3 7680.59 904.387   8
  -3  -7  -4 23889.2 1623.76   8
   3  -7   4 21143.9 1471.98  14
  -3  -6  10 26525.7 1225.57  11
  -3  -6  10 29749.8 1709.30  12
  -3  -6   9 4910.54 678.441  11
  -3  -6   9 7033.08 1088.28  10
  -3  -6   9 5643.42 1150.13  12
  -3  -6   8 9884.43 1370.56  10
  -3  -6   8 5369.44 1685.60  12
  -3  -6   7 32603.3 2483.34  10
  -3  -6   7 32556.6 2738.12  12
  -3  -6   6 28140.6 2361.78  10
  -3  -6   6 29454.1 2339.15  12
  -3  -6   5 20009.5 2003.87   6
  -3  -6   5 20411.4 2061.49  10
  -3  -6   5 17693.4 1556.84   8
  -3  -6   5 18385.3 1805.90  12
  -3  -6   4 2085.90 814.840  10
  -3  -6   4 1030.61 854.968   6
  -3  -6   4 686.371 580.174   8
  -3  -6   4 323.184 755.228  12
  -3  -6   3 19107.2 2005.94   6
  -3  -6   3 18135.7 1890.45  10
  -3  -6   3 14598.1 1526.35   8
  -3  -6   3 16321.5 1648.47  12
  -3  -6   2 66836.9 3543.56   6
   3  -6  -2 57461.8 2798.96  11
  -3  -6   2 62345.7 3343.75  10
  -3  -6   2 57105.1 2889.13   8
  -3  -6   2 53742.6 2769.92  12
  -3  -6   1 33695.3 2607.67   6
  -3  -6   1 33205.8 2417.16  10
  -3  -6   1 28321.0 2166.98   8
  -3  -6   1 26351.7 2020.78  12
  -3  -6   0 1464.42 971.044   6
  -3  -6   0 918.719 718.760   8
  -3  -6   0 3498.58 962.437  12
  -3  -6  -1 20226.5 2262.56   6
  -3  -6  -1 20161.6 1870.64   8
  -3  -6  -1 16027.4 1612.96  12
  -3  -6  -2 39827.0 3089.28  17
  -3  -6  -2 38173.3 3365.73   6
  -3  -6  -2 29476.9 2079.69  12
  -3  -6  -3 30285.3 3106.42  17
  -3  -6  -3 26926.8 3623.95   6
  -3  -6  -4 2984.85 1021.13   6
  -3  -6  -4 2462.65 2310.43  17
  -3  -6  -5 2248.61 1402.24  17
   3  -6   5 2221.37 1021.40  14
  -3  -6  -6 36634.2 2577.92  17
   3  -6   6 31083.0 2245.06  14
   3  -6   7 20999.1 1432.38  14
   3  -6   8 11283.0 904.110  14
  -3  -5  14 7427.55 701.928   7
   3  -5 -14 7348.89 847.734  12
  -3  -5  13 16786.4 1038.73  11
   3  -5 -13 20707.3 1530.62  12
  -3  -5  12 19588.0 1231.74  11
  -3  -5  11 8192.23 928.393  11
  -3  -5  11 8396.77 1403.61  10
  -3  -5  11 9123.21 1261.13  12
  -3  -5  10 4685.23 814.845  11
  -3  -5  10 4535.72 1331.97  10
  -3  -5  10 2083.85 949.154   8
  -3  -5  10 2603.71 1101.25  12
  -3  -5   9 28144.4 1791.42  11
  -3  -5   9 25740.2 2568.46  10
  -3  -5   9 24823.4 2135.80   8
  -3  -5   9 20467.2 2678.81  12
  -3  -5   8 57913.9 3668.06  10
  -3  -5   8 49536.9 2501.93  11
  -3  -5   8 51071.8 2909.98   8
  -3  -5   7 36556.8 2312.88  11
  -3  -5   7 36732.6 2741.63   6
  -3  -5   7 40899.7 3154.92  10
  -3  -5   7 33214.7 2407.64   8
  -3  -5   7 42206.8 3008.07  12
  -3  -5   6 4565.95 1329.43  10
  -3  -5   6 4316.72 1280.99   6
  -3  -5   6 5393.48 1201.13   8
  -3  -5   6 4881.29 1343.45  12
  -3  -5   5 71476.6 3746.57   6
  -3  -5   5 80623.7 4093.33  10
  -3  -5   5 75638.6 3577.40   8
  -3  -5   5 85510.1 3716.53  12
  -3  -5   4 65730.0 3654.65   6
  -3  -5   4 72693.6 3804.88  10
  -3  -5   4 67209.5 3434.78   8
  -3  -5   4 71389.3 3325.64  12
  -3  -5   3 44654.3 2994.45   6
  -3  -5   3 44386.1 3043.56  10
  -3  -5   3 43077.4 2873.23   8
  -3  -5   3 45469.2 2649.33  12
  -3  -5   2 46.0778 889.321  10
  -3  -5   2 648.254 959.864   6
  -3  -5   2-123.180 832.007  17
  -3  -5   2 337.213 883.364   8
  -3  -5   2 291.325 776.090  12
  -3  -5   1 37738.5 2824.12   6
  -3  -5   1 39471.9 2832.82  10
  -3  -5   1 37782.0 2794.31  17
  -3  -5   1 38128.9 2406.03  12
  -3  -5   0 99261.1 4454.17   6
  -3  -5   0 93442.4 4423.83  17
  -3  -5   0 96743.4 4338.65  10
  -3  -5   0 84005.1 3522.72  12
  -3  -5  -1 53491.3 3345.25   6
  -3  -5  -1 53089.2 3312.79  10
  -3  -5  -1 55405.2 3507.32  17
  -3  -5  -1 44541.9 2587.49  12
  -3  -5  -2 9991.91 1600.84   6
  -3  -5  -2 9115.14 1705.35  17
  -3  -5  -2 9270.92 1542.86  10
  -3  -5  -3 21406.0 2490.98   6
  -3  -5  -3 18900.1 2155.11  10
  -3  -5  -3 19409.7 2481.06  17
  -3  -5  -4 107732. 5694.62   6
  -3  -5  -4 100073. 4646.84  10
  -3  -5  -4 106798. 5934.25  17
  -3  -5  -5 48284.5 5450.87   6
  -3  -5  -5 49577.7 5596.84  17
  -3  -5  -6 12986.5 2222.56   6
  -3  -5  -6 10988.7 2330.18  17
   3  -5   6 5280.42 1394.97  14
  -3  -5  -7 3177.68 1284.19  17
   3  -5   7 4882.95 1127.97  14
  -3  -5  -8 44915.2 2760.65  17
   3  -5   8 45776.6 2362.55  14
  -3  -5  -9 38256.6 2294.83  17
   3  -5   9 36781.2 1877.36  14
   3  -5  10 4428.02 653.646  14
   3  -5  11-45.5737 389.414   9
   3  -5  11 1587.38 397.424  14
   3  -5  12 15493.6 960.871   9
  -3  -4  16 3427.64 453.657   7
  -3  -4  15 24164.8 1279.96  11
  -3  -4  15 26422.3 1389.32   7
  -3  -4  14 13127.5 1081.90  11
  -3  -4  14 14671.8 1145.92   8
  -3  -4  13 6866.44 905.766  11
  -3  -4  13 7227.91 1310.82  10
  -3  -4  13 6303.33 960.483   8
  -3  -4  12 4597.99 878.656  11
  -3  -4  12 4162.16 1311.17  10
  -3  -4  12 4450.87 1146.90   8
  -3  -4  12 4394.75 1038.42  12
  -3  -4  11 44688.1 2272.56  11
  -3  -4  11 46184.2 3362.55  10
  -3  -4  11 43318.7 3002.50   8
  -3  -4  11 50423.9 2884.16  12
  -3  -4  10 72534.6 2982.59  11
  -3  -4  10 72565.4 4306.69  10
  -3  -4  10 75602.3 3938.40   8
  -3  -4  10 75613.2 4026.13  12
  -3  -4   9 13300.2 1392.60  11
  -3  -4   9 14020.0 1809.61   6
  -3  -4   9 14271.2 2093.12  10
  -3  -4   9 14599.2 1928.03   8
  -3  -4   9 11931.8 2359.84  12
  -3  -4   8 10359.4 1599.11   6
  -3  -4   8 10636.0 1349.92  11
  -3  -4   8 10531.3 1837.79  10
  -3  -4   8 9816.97 1604.52   8
  -3  -4   8 11545.2 2203.56  12
  -3  -4   7 47875.4 3031.41   6
  -3  -4   7 45268.6 3162.28  10
  -3  -4   7 45855.5 2926.48   8
  -3  -4   7 51660.3 3327.49  12
  -3  -4   6 109987. 4504.48   6
  -3  -4   6 107820. 4680.22  10
  -3  -4   6 109484. 5248.21   1
  -3  -4   6 99447.7 4196.89   8
  -3  -4   6 108306. 4311.50  12
  -3  -4   5 39502.9 2748.66   6
  -3  -4   5 40923.3 3068.85  10
  -3  -4   5 40500.6 3238.38   1
  -3  -4   5 46165.3 2892.89   8
  -3  -4   5 42289.7 2642.58  12
  -3  -4   4 2168.67 1202.92  10
  -3  -4   4 550.940 820.421   6
  -3  -4   4 959.381 777.352  17
  -3  -4   4 3191.26 1122.42   1
  -3  -4   4 2046.68 931.829   8
  -3  -4   4 3253.32 1043.24  12
  -3  -4   3 67306.7 3534.28   6
  -3  -4   3 70875.2 3692.47  10
  -3  -4   3 64033.4 3352.89  17
  -3  -4   3 64510.5 3429.01   8
  -3  -4   3 68595.8 3082.24  12
  -3  -4   2 116029. 4599.46   6
  -3  -4   2 125695. 5209.28   1
  -3  -4   2 117328. 4498.55  17
  -3  -4   2 128216. 4905.89  10
  -3  -4   2 117149. 3952.69  12
  -3  -4   1 83367.6 3906.84   6
  -3  -4   1 91104.8 4185.09  10
  -3  -4   1 87720.3 3990.82  17
  -3  -4   1 80384.0 4318.52   1
  -3  -4   1 89930.7 3457.33  12
  -3  -4   0 2968.10 1129.68  10
  -3  -4   0 3488.80 1061.01   6
  -3  -4   0 3411.39 1107.41  17
  -3  -4  -1 44201.8 4922.01  20
  -3  -4  -1 39573.2 2807.21  10
  -3  -4  -1 44316.8 3006.86  17
  -3  -4  -1 43058.8 2953.41   6
  -3  -4  -2 140405. 7973.35  20
  -3  -4  -2 142186. 5238.94  10
  -3  -4  -2 130937. 5025.99   6
  -3  -4  -2 136006. 5282.57  17
   3  -4   2 144769. 5485.76   3
  -3  -4  -3 81811.3 5806.59  20
  -3  -4  -3 72869.7 3900.51   6
  -3  -4  -3 79211.5 4033.28  10
   3  -4   3 75081.7 4185.84   3
  -3  -4  -3 77528.3 4279.74  17
  -3  -4  -4 11975.2 2206.02  20
  -3  -4  -4 19408.5 2301.13   6
  -3  -4  -4 19233.7 2158.38  10
   3  -4   4 19914.2 2243.02   3
  -3  -4  -4 21528.6 2616.41  17
  -3  -4  -5 25425.0 2538.33  10
  -3  -4  -5 29140.7 3700.71  17
  -3  -4  -5 32304.4 3256.13   6
  -3  -4  -6 52659.1 4915.41   6
  -3  -4  -6 53715.8 3726.50  10
  -3  -4  -6 60316.9 5870.26  17
   3  -4   6 42884.0 3202.24  14
  -3  -4  -7 100060. 5561.13  10
  -3  -4  -7 99697.7 5468.63  17
   3  -4   7 89307.2 4210.35  14
  -3  -4  -8 23803.0 2386.61   6
  -3  -4  -8 18361.1 3202.56  10
  -3  -4  -8 21848.8 2399.50  17
   3  -4   8 17557.3 1676.71  14
  -3  -4  -9 7537.23 1729.87  10
  -3  -4  -9 7373.70 1392.21  17
   3  -4   9 7326.98 1091.78  14
  -3  -4 -10 20626.1 1853.05  17
   3  -4  10 19808.9 1450.30  14
  -3  -4 -11 38440.3 2175.65  17
   3  -4  11 41992.5 2089.31   9
   3  -4  11 40077.4 1846.68  14
   3  -4  12 12942.6 1148.21   9
   3  -4  12 14270.6 1044.25  14
   3  -4  13 152.519 408.941   9
   3  -4  14 12801.5 852.454   9
  -3  -3  17 17657.4 963.443   7
  -3  -3  16 12407.7 988.195   8
  -3  -3  16 12187.7 1010.67   7
  -3  -3  15 3354.44 703.240   7
  -3  -3  15 3601.93 757.382  11
  -3  -3  15 1892.28 652.883   8
  -3  -3  14 14384.9 1409.88   7
  -3  -3  14 12773.0 1256.77  11
  -3  -3  14 15115.8 1531.83   8
  -3  -3  13 53402.6 2479.23  11
  -3  -3  13 52373.6 3150.45  10
  -3  -3  13 51531.7 2952.81   8
  -3  -3  12 59601.1 2705.18  11
  -3  -3  12 58476.4 3674.78  10
  -3  -3  12 56985.5 3459.45   8
  -3  -3  11 1865.08 719.485  11
  -3  -3  11 2494.75 1241.09  10
  -3  -3  11 749.032 1104.49   8
  -3  -3  11 1150.49 989.200  12
  -3  -3  10 4472.21 914.234  11
  -3  -3  10 3605.78 1211.33  10
  -3  -3  10 4333.72 1383.70   8
  -3  -3  10 3772.36 1274.40  12
  -3  -3   9 116299. 3910.87  11
  -3  -3   9 109787. 4330.52   6
  -3  -3   9 111481. 4978.76  10
  -3  -3   9 113742. 4755.25   8
  -3  -3   9 106760. 5089.97  12
  -3  -3   9 117462. 5963.55   1
  -3  -3   8 109132. 3766.32  11
  -3  -3   8 93962.2 3967.60   6
  -3  -3   8 99713.9 4477.99  10
  -3  -3   8 103890. 4343.41   8
  -3  -3   8 110273. 6042.48  12
  -3  -3   8 96826.1 5146.00   1
  -3  -3   7 18482.9 2239.96   1
  -3  -3   7 18530.6 1868.16   6
  -3  -3   7 18419.5 2068.57  10
  -3  -3   7 19199.2 1965.41   8
  -3  -3   7 21008.3 2394.87  12
  -3  -3   6 5099.96 1239.78  10
  -3  -3   6 5271.35 1179.34   6
  -3  -3   6 6064.50 1496.62   1
  -3  -3   6 5507.14 1264.63   8
  -3  -3   6 4402.20 1116.31  12
  -3  -3   5 82656.6 3626.94   6
  -3  -3   5 89983.0 4008.19  10
  -3  -3   5 98946.0 4653.48   1
  -3  -3   5 94735.3 3907.78   8
  -3  -3   5 93488.4 3663.40  12
  -3  -3   4 141440. 4669.44   6
  -3  -3   4 142872. 4968.02  10
  -3  -3   4 140013. 4382.14  17
  -3  -3   4 151262. 5519.97   1
  -3  -3   4 135294. 4637.58   8
  -3  -3   4 145890. 4301.85  12
  -3  -3   3 68017.8 3245.07   6
  -3  -3   3 70174.5 3437.50  10
  -3  -3   3 70900.8 3767.60   1
  -3  -3   3 78772.8 3488.40   8
  -3  -3   2-112.067 738.584  10
  -3  -3   2 1246.45 705.643   6
  -3  -3   2-3.47207 799.904   1
  -3  -3   1 63921.6 3157.29   6
  -3  -3   1 66247.2 3333.98  10
  -3  -3   0 131128. 6733.83  20
  -3  -3   0 117481. 4315.92   6
  -3  -3   0 120518. 4487.47  10
  -3  -3   0 118452. 4770.18   1
  -3  -3   0 114123. 4241.98  17
  -3  -3  -1 152339. 7186.81  20
  -3  -3  -1 136591. 4666.18   6
  -3  -3  -1 136080. 4802.59  10
   3  -3   1 145916. 4733.73   3
  -3  -3  -1 140260. 4806.02  17
  -3  -3  -2 1824.71 1281.25  20
  -3  -3  -2 2285.98 1007.15  10
  -3  -3  -2 1625.34 764.010   6
  -3  -3  -2 3102.91 980.544  17
   3  -3   2 1243.83 641.209   3
  -3  -3  -3 36488.1 3428.59  20
  -3  -3  -3 33689.6 2582.59   6
   3  -3   3 32677.6 2489.31   3
  -3  -3  -3 30097.5 2464.19  10
  -3  -3  -3 36254.4 2747.25  17
  -3  -3  -4 65573.7 4456.52  20
  -3  -3  -4 59612.0 3461.99   6
   3  -3   4 60204.8 3625.04   3
  -3  -3  -4 68654.7 3719.39  10
  -3  -3  -4 61825.3 3914.34  17
  -3  -3  -5 113475. 5722.27  20
  -3  -3  -5 123024. 5238.95   6
   3  -3   5 119167. 5499.22   3
  -3  -3  -5 112529. 4849.44  10
  -3  -3  -5 129421. 6448.23  17
  -3  -3  -6 19132.0 2429.46  20
  -3  -3  -6 17253.6 2239.04  10
  -3  -3  -6 16658.7 3567.96  17
  -3  -3  -6 17873.2 2498.72   6
   3  -3   6 16957.1 2337.41   3
  -3  -3  -7 9827.65 1921.08  20
  -3  -3  -7 5639.34 1742.56  10
  -3  -3  -7 8786.34 2235.40  17
  -3  -3  -7 9633.92 2811.41   6
   3  -3   7 2608.31 1365.25   3
  -3  -3  -8 61354.8 4316.58   6
  -3  -3  -8 53236.2 4341.39  10
  -3  -3  -8 51578.9 3665.84  17
  -3  -3  -9 56349.3 3523.63   6
  -3  -3  -9 65557.0 4892.20  10
  -3  -3  -9 58034.6 3591.54  17
   3  -3   9 56596.6 2607.00  14
  -3  -3 -10 38026.7 2612.35   6
  -3  -3 -10 39763.5 3367.89  10
  -3  -3 -10 35649.9 2642.96  17
   3  -3  10 37781.4 2059.82  14
  -3  -3 -11 2614.60 1158.25  10
  -3  -3 -11 2787.03 1012.00  17
  -3  -3 -11 2966.27 901.013   6
   3  -3  11 1713.04 743.136   9
   3  -3  11 4607.18 819.347  14
  -3  -3 -12 18995.8 1863.77  10
  -3  -3 -12 19971.5 1654.71  17
   3  -3  12 19842.5 1536.94   9
   3  -3  12 16241.6 1228.27  14
  -3  -3 -13 29870.7 1959.44  10
   3  -3  13 33778.5 1599.53  14
   3  -3  14 18238.8 1238.56   9
   3  -3  15 632.108 271.979   9
  -3  -2  17 1615.08 444.004   7
  -3  -2  17 1525.84 486.101   8
  -3  -2  16 14539.8 1322.27   8
  -3  -2  16 12777.4 1177.89   7
  -3  -2  15 39547.8 2124.46  11
  -3  -2  15 38896.0 2280.41   8
  -3  -2  15 36027.2 2046.79   7
  -3  -2  14 35150.2 2106.82  11
  -3  -2  14 34341.1 2175.96   7
  -3  -2  13 5236.57 1023.47  11
  -3  -2  13 5095.43 1290.79  10
  -3  -2  13 4821.99 1339.75   8
  -3  -2  12 10583.0 1318.45  11
  -3  -2  12 9763.18 1738.04  10
  -3  -2  12 8154.85 1606.57   8
  -3  -2  11 79942.9 3217.53  11
  -3  -2  11 75616.9 4276.95  10
  -3  -2  11 76122.8 4426.06   8
  -3  -2  10 48804.2 2519.78  11
  -3  -2  10 47591.1 3283.22  10
  -3  -2  10 45472.2 3280.77   8
  -3  -2  10 52429.2 4065.09   1
  -3  -2  10 49010.3 2826.32  12
  -3  -2   9 73536.9 2980.16  11
  -3  -2   9 67079.7 3648.71  10
  -3  -2   9 69072.6 3732.87   8
  -3  -2   9 66955.1 4324.92   1
  -3  -2   9 73695.3 3557.82  12
  -3  -2   8 424.201 886.599   1
  -3  -2   8 546.665 461.789  11
  -3  -2   8-2264.32 1016.37  10
  -3  -2   8 920.783 799.066   8
  -3  -2   8 223.804 1102.54  12
  -3  -2   7 109178. 4274.19  10
  -3  -2   7 109878. 4207.12   8
  -3  -2   7 117147. 5030.96   1
  -3  -2   6 205986. 5690.47  10
  -3  -2   6 215820. 5662.12   8
  -3  -2   6 219534. 6589.95   1
  -3  -2   5 49691.9 3078.80   1
  -3  -2   4 119.824 646.461   1
  -3  -2   3 119795. 4430.66   1
  -3  -2   2 234707. 6127.92   1
  -3  -2   1 99214.3 4035.30  20
  -3  -2   1 97397.7 3915.76   1
  -3  -2   0 16075.4 1938.48  20
  -3  -2   0 14632.5 1659.49   1
  -3  -2  -1 75519.7 4148.42  20
   3  -2   1 76187.0 2992.30   3
  -3  -2  -2 218806. 6941.83  20
   3  -2   2 209488. 5260.31   3
  -3  -2  -3 219540. 6932.66  20
   3  -2   3 209366. 5636.67   3
  -3  -2  -4 26432.8 2592.62  20
   3  -2   4 26632.3 2266.74   3
  -3  -2  -4 27391.8 2429.41  17
  -3  -2  -5 40708.6 3154.30  20
  -3  -2  -5 46018.2 3104.66   6
   3  -2   5 45365.3 3215.06   3
  -3  -2  -5 52353.7 3154.36  10
  -3  -2  -5 51464.4 3978.03  17
  -3  -2  -5 52048.8 4204.24  16
  -3  -2  -6 144182. 5784.79  20
   3  -2   6 149603. 6577.19   3
  -3  -2  -6 153785. 6063.60   6
  -3  -2  -6 169421. 8340.72  17
  -3  -2  -6 162168. 5840.98  16
  -3  -2  -7 96551.0 4872.69  20
   3  -2   7 106936. 6052.14   3
  -3  -2  -7 111826. 6100.75   6
  -3  -2  -7 111224. 5552.39  17
  -3  -2  -7 108604. 4502.06  16
   3  -2   8 29739.8 2933.92   3
  -3  -2  -8 26442.4 2984.17   6
  -3  -2  -8 18566.7 2187.72  20
  -3  -2  -8 23016.9 2517.88  17
  -3  -2  -8 21425.7 2163.17  16
  -3  -2  -9 1384.34 1092.36  17
  -3  -2  -9 3670.39 1317.49   6
  -3  -2  -9 1847.52 1125.75  16
  -3  -2 -10 53264.4 3316.38   6
  -3  -2 -10 51026.2 3191.32  17
  -3  -2 -10 51595.9 3157.16  16
   3  -2  10 51663.6 2592.99   9
  -3  -2 -11 55898.1 3175.08   6
  -3  -2 -11 58030.0 3249.19  17
  -3  -2 -11 58322.4 3303.84  16
   3  -2  11 56608.9 2696.18   9
  -3  -2 -12 18725.4 1755.58   6
  -3  -2 -12 20996.0 1947.18  17
   3  -2  12 20698.6 1676.46   9
   3  -2  12 18718.5 1425.23  14
  -3  -2 -13-1109.25 792.534  10
  -3  -2 -13-134.043 551.513  17
  -3  -2 -13-833.805 520.959   6
   3  -2  13-85.6209 589.697   9
   3  -2  13-1177.66 432.629  14
  -3  -2 -14 9243.16 1272.21  10
   3  -2  14 9885.22 1074.35   9
  -3  -2 -15 26162.3 1648.39  10
   3  -2  15 31336.0 1553.47   9
   3  -2  16 7724.10 699.914   9
  -3  -1  18 11523.0 922.998   8
  -3  -1  18 8260.16 743.315   7
  -3  -1  17 22252.8 1476.89   8
  -3  -1  17 20916.3 1336.91   7
  -3  -1  16 13922.8 1409.42   8
  -3  -1  16 13429.6 1260.62   7
  -3  -1  15 1100.74 697.385   7
  -3  -1  15 1158.56 765.253   8
  -3  -1  14 7723.86 1187.56   7
  -3  -1  14 6331.44 1135.82  11
  -3  -1  14 8778.15 1432.60   8
  -3  -1  13 51643.4 2728.13  11
  -3  -1  13 51855.2 3154.34   8
  -3  -1  13 46497.2 2580.46   7
  -3  -1  12 82472.1 3475.38   7
  -3  -1  12 91519.6 3545.05  11
  -3  -1  12 82980.1 3972.35  10
  -3  -1  12 87457.7 4292.44   8
  -3  -1  11 29977.0 2139.93  11
  -3  -1  11 26780.7 2494.79  10
  -3  -1  11 25845.5 2992.93   1
  -3  -1  11 28838.7 2761.73   8
  -3  -1  10 43453.5 2424.97  11
  -3  -1  10 40992.0 3423.41   1
  -3  -1  10 38814.0 2831.46  10
  -3  -1  10 41317.8 3223.87   8
  -3  -1   9 122804. 3866.65  11
  -3  -1   9 116443. 4470.00  10
  -3  -1   9 125350. 5617.17   1
  -3  -1   9 122625. 4942.66   8
  -3  -1   8 127448. 4451.64  10
  -3  -1   8 138901. 5579.26   1
  -3  -1   8 141604. 4920.85   8
  -3  -1   8 143582. 4337.79  12
  -3  -1   7 43179.0 2906.83   1
  -3  -1   6 5639.88 1153.33   1
  -3  -1   5 80307.7 3575.96   1
  -3  -1   4 236496. 5858.67   1
  -3  -1   3 216522. 5445.15   1
  -3  -1   2 28260.9 2004.38   1
   3  -1  -2 24640.8 1690.63   2
   3  -1  -2 26194.6 1676.64   4
  -3  -1   1 124995. 3507.81  20
  -3  -1   1 128091. 4086.03   1
   3  -1  -1 130090. 3698.13   2
  -3  -1   0 342747. 6576.97  20
  -3  -1   0 344542. 6665.40   1
   3  -1   0 347365. 6111.21   2
  -3  -1  -1 129987. 4610.58  20
   3  -1   1 130575. 3918.63   2
  -3  -1  -2 5999.31 1268.90  20
   3  -1   2 5483.18 1046.81   2
   3  -1   3 47512.8 2685.96   2
  -3  -1  -3 44015.8 2977.46  20
   3  -1   4 156079. 5261.33   2
  -3  -1  -4 163328. 5629.12  20
  -3  -1  -5 91781.0 4374.12  20
   3  -1   5 96466.2 4542.87   2
  -3  -1  -6 34029.2 2746.52  20
   3  -1   6 33909.1 2979.04   2
  -3  -1  -6 33805.4 2839.25   6
  -3  -1  -6 38370.5 3308.53  17
  -3  -1  -6 36912.7 2364.70  16
  -3  -1  -6 35159.7 2599.06  15
  -3  -1  -7 7564.37 1531.73  20
  -3  -1  -7 10797.2 1776.12  17
  -3  -1  -7 9195.82 2020.61   6
  -3  -1  -7 12360.6 1556.75  16
  -3  -1  -7 10715.7 1789.06  15
   3  -1   7 8922.11 1656.23   2
  -3  -1  -8 96116.9 4770.00  20
   3  -1   8 99353.3 4819.40   2
  -3  -1  -8 108049. 5258.19   6
  -3  -1  -8 95671.7 4429.82  17
  -3  -1  -8 97040.3 3976.45  16
   3  -1   8 96379.0 3373.38   9
  -3  -1  -8 93917.8 4969.44  15
  -3  -1  -9 105114. 5100.53  20
   3  -1   9 101737. 4899.84   2
  -3  -1  -9 118368. 5185.31   6
  -3  -1  -9 115853. 4772.13  17
  -3  -1  -9 115911. 4380.97  16
   3  -1   9 110547. 3682.76   9
  -3  -1  -9 123404. 5831.82  15
  -3  -1 -10 16369.4 2104.58   6
  -3  -1 -10 19711.5 2070.82  17
  -3  -1 -10 18758.7 1901.40  16
   3  -1  10 18625.4 1617.37   9
  -3  -1 -10 18819.8 2411.00  15
  -3  -1 -11 1290.56 911.847  17
  -3  -1 -11 3002.68 1183.99   6
  -3  -1 -11 3715.09 1233.60  16
   3  -1  11 2936.86 905.621   9
  -3  -1 -11 3111.39 1387.35  15
  -3  -1 -12 45670.8 2894.35   6
  -3  -1 -12 43407.9 2827.44  17
  -3  -1 -12 47741.0 2940.10  16
   3  -1  12 46637.4 2440.81   9
  -3  -1 -12 43275.8 3162.38  15
  -3  -1 -13 44665.4 2621.76   6
  -3  -1 -13 44525.7 2590.67  17
  -3  -1 -13 44864.3 2743.07  16
   3  -1  13 49505.9 2453.19   9
  -3  -1 -14 16015.1 1466.26   6
  -3  -1 -14 16678.2 1446.33  17
  -3  -1 -14 18018.4 1655.36  16
   3  -1  14 17573.3 1422.52   9
   3  -1  15 332.420 430.164   9
  -3  -1 -16 5731.38 846.129  10
   3  -1  16 6890.45 754.881   9
  -3   0  18 12702.3 1030.41  19
  -3   0  18 14060.6 1060.27   8
  -3   0  18 13137.5 946.100   7
  -3   0  17 1197.59 464.819   7
  -3   0  17 856.914 577.911   8
  -3   0  16 14783.9 1476.13   8
  -3   0  16 16469.5 1384.67   7
  -3   0  15 65983.9 3091.62   8
  -3   0  15 64145.4 2831.46   7
  -3   0  14 57221.4 3079.28   8
  -3   0  14 59232.5 2890.39   7
  -3   0  13 303.286 678.951   7
  -3   0  13 824.387 880.401   8
  -3   0  12 30260.0 2470.26   8
  -3   0  12 27238.7 2007.71   7
  -3   0  11 37773.1 2408.46  11
  -3   0  11 45541.8 3695.65   1
  -3   0  11 40038.5 2894.21   8
  -3   0  11 39485.1 2408.96   7
  -3   0  10 133941. 4446.45  11
  -3   0  10 131153. 5908.74   1
  -3   0  10 117993. 4969.68   8
  -3   0  10 128033. 4181.76   7
  -3   0   9 21278.2 1907.37  11
  -3   0   9 24752.9 2528.74   1
  -3   0   9 21087.4 2202.62   8
  -3   0   9 22060.3 1779.22   7
  -3   0   8 3164.51 743.015   7
  -3   0   8 6202.45 1344.80   8
  -3   0   8 4500.58 1115.34   1
  -3   0   7 127577. 4689.16   1
  -3   0   6 180915. 5214.82   1
  -3   0   5 128453. 4155.68   1
   3   0  -4 60834.9 3054.13   4
  -3   0   4 60169.7 2729.81   1
   3   0  -3 158663. 4653.51   4
  -3   0   3 156797. 4224.40   1
  -3   0   2 119393. 3600.97   1
   3   0  -2 119664. 3005.45   5
   3   0  -2 119202. 3837.62   4
  -3   0   1 82108.1 2663.06  20
   3   0  -1 77782.6 2534.11   5
   3   0  -1 80955.0 3357.74   2
   3   0  -1 81624.4 3044.00   4
  -3   0   1 78398.9 2906.41   1
   3   0   0 5031.97 797.880   4
  -3   0   0 5495.51 908.522  20
  -3   0   0 3909.10 799.942   1
   3   0   0 4951.65 1025.99   2
   3   0   0 4896.97 741.618   5
  -3   0  -1 38660.5 2320.06  20
   3   0   1 40077.3 2486.04   2
  -3   0  -2 249993. 6334.17  20
   3   0   2 249000. 6167.07   2
  -3   0  -3 208166. 6579.23  20
   3   0   3 213008. 5847.52   2
  -3   0  -4 18382.0 2195.03  20
   3   0   4 15871.1 1850.71   2
   3   0   5 16559.2 2071.68   2
  -3   0  -5 17908.5 2103.81  20
   3   0   6 172644. 6437.71   2
  -3   0  -6 180157. 6218.88  20
  -3   0  -6 166377. 5832.03   6
  -3   0  -7 110882. 5100.48  20
   3   0   7 109500. 5573.13   2
  -3   0  -7 122217. 5418.15   6
  -3   0  -7 126731. 4847.78  17
  -3   0  -7 120528. 4177.62  16
  -3   0  -7 119397. 4955.88  15
  -3   0  -8 24100.6 2543.14  20
   3   0   8 26284.2 3028.10   2
  -3   0  -8 28827.3 2598.13   6
  -3   0  -8 25455.3 2354.23  17
  -3   0  -8 29917.2 2289.08  16
   3   0   8 23202.5 1718.02   9
  -3   0  -8 25862.8 2719.04  15
  -3   0  -9-1527.46 1041.31  20
  -3   0  -9 1230.32 915.755  17
  -3   0  -9 1468.10 1056.16   6
  -3   0  -9 1401.33 1013.47  16
   3   0   9-151.584 643.439   9
  -3   0  -9 1658.13 1190.48  15
   3   0   9 898.087 1064.11   2
  -3   0 -10 40505.2 2962.74   6
  -3   0 -10 40234.4 2790.88  17
  -3   0 -10 43803.6 2774.31  16
   3   0  10 42821.1 2455.87   9
  -3   0 -10 42943.0 3249.58  15
  -3   0 -11 54389.3 3282.27   6
  -3   0 -11 57503.5 3276.53  17
  -3   0 -11 62695.8 3266.79  16
   3   0  11 55554.2 2784.18   9
  -3   0 -11 59048.6 3673.48  15
  -3   0 -12 41281.3 2844.23   6
  -3   0 -12 38225.9 2641.04  17
  -3   0 -12 42831.8 2721.50  16
   3   0  12 40182.9 2345.35   9
  -3   0 -12 43463.0 3083.48  15
  -3   0 -13 1782.77 820.121  17
  -3   0 -13 1831.74 868.887   6
  -3   0 -13 905.872 895.664  16
   3   0  13 1378.47 772.359   9
  -3   0 -13 1734.23 1154.55  15
  -3   0 -14 17498.3 1613.05   6
  -3   0 -14 18911.6 1601.30  17
  -3   0 -14 20423.6 1777.81  16
   3   0  14 20106.2 1534.49   9
  -3   0 -14 20001.5 1964.55  15
  -3   0 -15 23608.6 1616.84   6
  -3   0 -15 23745.9 1716.58  16
   3   0  15 21747.1 1436.02   9
  -3   0 -15 23577.4 1850.46  15
   3   0  16 20338.4 1297.02  18
   3   0  16 21993.5 1259.38   9
  -3   1  18 10647.9 961.701  19
  -3   1  18 12320.9 945.626   8
  -3   1  18 10840.2 830.090   7
  -3   1  17 17309.0 1415.38  19
  -3   1  17 20573.0 1424.74   8
  -3   1  17 21200.4 1367.86   7
  -3   1  16 15400.2 1526.93  19
  -3   1  16 13649.6 1343.17   8
  -3   1  16 12748.3 1230.41   7
  -3   1  15 889.967 647.727   7
  -3   1  15 561.320 633.070   8
  -3   1  14 9151.12 1307.25   8
  -3   1  14 8533.67 1273.50   7
  -3   1  13 59608.4 3110.72   8
  -3   1  13 55868.4 2915.67   7
  -3   1  12 70812.1 3409.26   8
  -3   1  12 65698.9 3163.00   7
  -3   1  11 32514.7 2380.08   8
   3   1 -11 30384.3 3466.10   4
  -3   1  11 29560.0 2172.79   7
  -3   1  10 36295.4 2526.60   8
   3   1 -10 30964.4 3965.43   4
  -3   1  10 35009.8 2351.99   7
  -3   1   9 119654. 4449.71   8
   3   1  -9 132035. 7429.10   4
  -3   1   9 121624. 4315.68   7
  -3   1   8 157812. 5148.29   1
  -3   1   8 140996. 4859.30   8
  -3   1   8 150297. 4905.90   7
  -3   1   7 48381.6 2688.22   1
   3   1  -7 48415.2 3612.44   4
   3   1  -6 5882.34 1340.58   4
  -3   1   6 4489.02 884.088   1
   3   1  -6 5425.78 851.105   5
   3   1  -5 88700.3 3057.74   5
   3   1  -5 86317.8 4143.72   4
  -3   1   5 87790.9 3113.76   1
  -3   1   4 241750. 4858.02   1
   3   1  -4 256401. 5156.65   5
   3   1  -4 248510. 6566.71   4
  -3   1   3 185055. 4081.91   1
   3   1  -3 196050. 4525.48   5
   3   1  -3 190091. 5526.50   4
  -3   1   2 31516.9 1688.81  20
   3   1  -2 30388.0 1853.36   5
   3   1  -2 30984.9 2278.26   4
  -3   1   2 28504.8 1616.35   1
  -3   1   1 128992. 3583.34  20
  -3   1   1 123449. 3253.26   1
   3   1  -1 128178. 3810.38   5
   3   1  -1 125104. 4279.55   4
  -3   1   0 356381. 6334.57  20
   3   1   0 361951. 6583.36   5
   3   1   0 355845. 7722.76   2
   3   1   0 364141. 7099.11   4
  -3   1  -1 142600. 4307.47  20
   3   1   1 139387. 4975.04   2
   3   1   1 145866. 4413.94   4
  -3   1  -2 11099.1 1467.17  20
   3   1   2 8653.78 1225.77   4
   3   1   2 11094.0 1556.87   2
  -3   1  -3 54380.2 3397.88  20
   3   1   3 54133.9 3244.00   2
   3   1   3 55516.3 2712.93   4
  -3   1  -4 164875. 6516.79  20
   3   1   4 175666. 5917.55   2
  -3   1  -5 104550. 5790.31  20
   3   1   5 116019. 5019.96   2
   3   1   6 32764.9 2909.15   2
  -3   1  -6 32007.9 3015.21  20
  -3   1  -6 32287.0 2475.06  17
  -3   1  -6 33730.8 2507.13  16
  -3   1  -7 13520.7 1908.58  20
  -3   1  -7 13588.1 1663.98  17
  -3   1  -7 13570.3 1763.52  16
  -3   1  -7 13797.3 1881.09  15
   3   1   7 12245.0 2003.19   2
   3   1   8 94303.4 5580.77   2
  -3   1  -8 94602.1 5075.98  20
  -3   1  -8 105349. 4331.72  17
   3   1   8 108573. 4280.60   9
  -3   1  -8 103268. 4194.49  16
  -3   1  -8 104474. 4844.14  15
  -3   1  -9 114918. 5564.23  20
   3   1   9 131230. 6905.67   2
  -3   1  -9 118679. 4642.20  17
   3   1   9 123568. 4358.76   9
  -3   1  -9 122189. 4536.70  16
  -3   1  -9 126112. 5295.78  15
  -3   1 -10 20101.1 2056.20  17
  -3   1 -10 20151.8 2006.83  16
   3   1  10 19739.5 1758.26   9
  -3   1 -10 19753.1 2299.33  15
  -3   1 -11 5331.90 1299.87  17
  -3   1 -11 4493.55 1267.95  16
   3   1  11 6571.21 1221.07   9
  -3   1 -11 4712.94 1405.01  15
  -3   1 -12 51150.2 3047.25   6
  -3   1 -12 49699.5 2926.03  17
   3   1  12 47277.4 2585.33   9
  -3   1 -12 52326.8 2918.76  16
  -3   1 -12 49213.4 3165.74  15
  -3   1 -13 47560.0 2782.28   6
  -3   1 -13 48020.0 2710.47  17
   3   1  13 43479.1 2346.59   9
  -3   1 -13 44012.4 2574.83  16
  -3   1 -13 46053.4 2873.61  15
   3   1  14 13824.2 1373.15  18
  -3   1 -14 13688.2 1493.83   6
  -3   1 -14 12673.2 1365.56  17
  -3   1 -14 13603.0 1497.35  16
   3   1  14 14385.3 1299.19   9
  -3   1 -14 14851.3 1645.01  15
   3   1  15 126.252 550.060  18
  -3   1 -15 2116.28 623.218  17
  -3   1 -15 1113.52 650.189   6
  -3   1 -15-314.902 662.174  16
   3   1  15-22.0721 419.826   9
  -3   1 -15 913.290 750.139  15
   3   1  16 5807.16 751.956  18
   3   1  16 6809.91 714.155   9
  -3   1 -16 6560.64 761.732   6
  -3   2  18 9130.04 781.173  19
  -3   2  17 1600.75 497.471   7
  -3   2  17 1784.08 638.254  19
  -3   2  16 10698.0 1284.35  19
  -3   2  16 13938.1 1229.34   8
  -3   2  16 11962.1 1187.90   7
  -3   2  15 35964.5 2407.58  19
  -3   2  15 37320.9 2100.65   8
  -3   2  15 37058.5 2164.48   7
  -3   2  14 44684.0 2911.24  19
  -3   2  14 42960.2 2386.93   8
  -3   2  14 47375.9 2568.02   7
  -3   2  13 4958.07 1094.62   7
  -3   2  13 6785.25 1380.81  19
  -3   2  13 5342.74 1073.93   8
  -3   2  12 8367.56 1342.21   7
  -3   2  12 7495.33 1601.98  19
   3   2 -12 6065.56 1203.74  15
  -3   2  12 8153.26 1253.88   8
  -3   2  11 92921.8 5003.77  19
  -3   2  11 98125.2 3732.99   8
   3   2 -11 91589.2 4240.03  15
  -3   2  11 99671.3 4105.36   7
  -3   2  10 59687.9 3781.71  19
  -3   2  10 54528.1 2823.80   8
   3   2 -10 60840.6 3364.37  15
  -3   2  10 57250.3 3228.58   7
  -3   2   9 61597.1 3583.69  19
  -3   2   9 52925.3 2753.60   8
   3   2  -9 57804.2 3009.06  15
   3   2  -9 63379.9 5487.27   4
  -3   2   9 52749.2 3329.77   7
  -3   2   8 1295.52 1479.55   7
  -3   2   8 1237.87 1015.19  19
   3   2  -8 1438.85 572.387   5
  -3   2   7 112299. 4196.47  19
   3   2  -7 109913. 4192.26   5
   3   2  -7 120683. 5955.41   4
  -3   2   7 124223. 4830.92   7
   3   2  -6 198036. 5414.74   5
   3   2  -6 203517. 7151.92   4
   3   2  -5 53016.2 2806.35   5
   3   2  -5 49153.3 3424.54   4
   3   2  -4 691.558 944.686   4
   3   2  -4 62.9643 424.471   5
   3   2  -3 123891. 4179.81   5
   3   2  -3 120653. 4927.62   4
   3   2  -2 244237. 5911.86   5
   3   2  -2 244548. 6857.27   4
  -3   2   1 94989.6 3525.00  20
   3   2  -1 94429.9 3741.10   5
   3   2  -1 95637.7 4245.63   4
  -3   2   0 12246.3 1412.49  20
   3   2   0 11192.6 1430.25   5
   3   2   0 10432.8 1648.84   2
   3   2   0 11190.9 1576.33   4
  -3   2  -1 82175.6 3601.41  20
   3   2   1 84594.0 3751.33   5
   3   2   1 82341.1 4145.39   2
   3   2   1 88260.8 3980.55   4
  -3   2  -2 165602. 5383.29  20
   3   2   2 171693. 5477.13   5
   3   2   2 180348. 6140.76   2
   3   2   2 170085. 5521.69   4
  -3   2  -3 224452. 6757.17  20
   3   2   3 226033. 6983.22   2
   3   2   3 234047. 6445.93   4
   3   2   4 22970.2 2096.22   4
  -3   2  -4 27464.4 2831.37  20
   3   2   4 23812.7 2479.86   2
   3   2   5 39822.7 2762.83   4
  -3   2  -5 36241.7 3705.30  20
  -3   2  -5 38713.3 2645.58  17
  -3   2  -5 38399.1 2563.70  16
  -3   2  -5 36775.3 2530.97  13
   3   2   5 44422.3 3313.70   2
   3   2   6 141096. 6087.87   2
  -3   2  -6 143786. 7589.03  20
  -3   2  -6 152654. 5139.60  17
  -3   2  -6 135828. 5076.70  16
  -3   2  -6 146902. 4931.40  13
   3   2   7 110158. 5719.66   2
  -3   2  -7 107254. 5946.34  20
  -3   2  -7 113600. 4506.80  17
  -3   2  -7 111674. 5020.38  16
  -3   2  -7 107160. 4542.77  15
  -3   2  -7 112427. 4393.20  13
   3   2   8 23869.1 3001.99   2
  -3   2  -8 23704.1 2878.26  20
  -3   2  -8 29735.4 2413.72  17
  -3   2  -8 29689.9 2666.01  16
  -3   2  -8 26832.3 2438.25  15
  -3   2  -8 29644.1 2336.15  13
  -3   2  -9 4250.52 1230.09  17
  -3   2  -9 2815.95 1257.75  16
   3   2   9 4332.80 1306.48   9
  -3   2  -9 3578.85 1222.54  15
  -3   2  -9 2479.88 1003.23  13
  -3   2 -10 45897.3 2944.56  17
   3   2  10 45506.6 2888.56   9
  -3   2 -10 50334.0 3045.51  16
  -3   2 -10 48826.9 3176.24  15
  -3   2 -10 47288.3 2927.72  13
   3   2  11 57499.8 3096.86  18
  -3   2 -11 55404.0 3133.94  17
   3   2  11 54594.9 2939.78   9
  -3   2 -11 53670.9 3058.44  16
  -3   2 -11 57865.3 3321.02  15
   3   2  12 28477.0 2204.88  18
  -3   2 -12 28937.6 2247.45  17
   3   2  12 29030.0 2098.98   9
  -3   2 -12 27401.6 2198.05  16
  -3   2 -12 29848.2 2365.51  15
   3   2  13 408.116 706.480  18
  -3   2 -13 406.571 706.331  17
  -3   2 -13 338.174 806.097  16
   3   2  13 481.678 559.389   9
  -3   2 -13 1001.64 836.191  15
   3   2  14 12149.0 1321.55  18
  -3   2 -14 9748.01 1228.66   6
  -3   2 -14 9596.12 1196.44  17
   3   2  14 11583.5 1150.51   9
  -3   2 -14 11189.1 1277.12  16
  -3   2 -14 10586.6 1347.28  15
   3   2  15 30062.6 1678.66  18
  -3   2 -15 30207.0 1738.17   6
  -3   2 -15 25916.6 1462.68  17
   3   2  15 30192.9 1515.77   9
  -3   2 -15 29813.6 1618.45  16
  -3   2 -15 31868.4 1830.02  15
   3   2  16 6778.04 721.028  18
  -3   2 -16 6531.59 726.069   6
  -3   3  17 25909.7 1369.21  19
  -3   3  17 25765.5 1198.54   7
  -3   3  16 18717.1 1453.00  19
  -3   3  16 18191.7 1246.34   7
  -3   3  15 3215.57 756.405   7
  -3   3  15 2558.82 865.913  19
   3   3 -15 2116.11 663.720  15
  -3   3  14 18198.7 1869.72  19
  -3   3  14 18920.6 1445.67   8
   3   3 -14 15055.4 1434.84  15
  -3   3  14 17820.1 1580.55   7
  -3   3  13 49979.0 3181.75  19
  -3   3  13 50527.5 2385.64   8
   3   3 -13 47041.6 2673.12  15
  -3   3  13 51166.2 2763.53   7
  -3   3  12 55342.3 3685.74  19
   3   3 -12 46224.9 3019.99  15
  -3   3  12 49399.5 2887.19   7
  -3   3  11 2047.33 981.101   7
  -3   3  11 3613.68 1582.80  19
   3   3 -11 1612.39 1150.32  15
  -3   3  10 5948.11 1457.14   7
  -3   3  10 5281.54 1641.89  19
   3   3 -10 4028.38 1358.60  15
  -3   3   9 114358. 5001.95  19
   3   3  -9 109358. 5040.37   5
  -3   3   9 113539. 5843.49   7
  -3   3   8 120766. 4846.31  19
   3   3  -8 127153. 5178.75   5
   3   3  -8 131642. 7331.45   4
  -3   3   8 136747. 5767.21   7
  -3   3   7 29516.3 2364.37  19
   3   3  -7 25380.0 2322.73   5
   3   3  -7 21985.7 1643.92  13
   3   3  -7 25588.3 2990.16   4
  -3   3   7 27889.9 2376.87   7
  -3   3   6 7633.82 1215.14   7
   3   3  -6 10916.2 1851.24   4
  -3   3   6 7513.73 1338.68  19
   3   3  -6 8670.76 1378.68   5
   3   3  -6 5881.87 956.738  13
  -3   3   5 110881. 4117.10  19
   3   3  -5 110890. 4506.80   5
   3   3  -5 104890. 3542.97  13
   3   3  -5 112483. 5595.13   4
  -3   3   5 106107. 3750.52   7
  -3   3   4 158787. 4762.12  19
   3   3  -4 155654. 5329.87   5
   3   3  -4 153176. 6301.47   4
   3   3  -3 69705.8 3588.71   5
   3   3  -3 71950.6 4240.47   4
   3   3  -2 87.1896 801.272   4
   3   3  -2-34.4251 587.437   5
   3   3  -1 57098.7 3333.04   5
   3   3  -1 48888.9 3454.00   2
   3   3  -1 52499.3 3548.03   4
   3   3   0 123541. 4918.26   5
   3   3   0 123276. 5450.54   2
   3   3   0 120916. 5296.96   4
  -3   3  -1 158887. 4231.47  16
   3   3   1 159827. 5738.86   5
   3   3   1 161060. 6217.26   2
   3   3   1 161482. 6074.99   4
  -3   3  -2 2593.05 992.106  20
   3   3   2 4204.71 1218.27   4
  -3   3  -2 4025.80 874.959  16
   3   3   2 3134.67 1117.61   2
   3   3   2 3499.51 998.884   5
  -3   3  -3 39137.9 3224.97  20
   3   3   3 43482.3 2551.99  18
  -3   3  -3 42158.6 2348.92  16
   3   3   3 45088.9 3198.19   5
   3   3   3 38955.0 3148.37   2
   3   3   3 41884.9 3174.14   4
   3   3   4 72018.1 4124.90   4
  -3   3  -4 65960.4 4396.99  20
   3   3   4 60711.9 3361.83  18
  -3   3  -4 67530.0 3103.47  16
   3   3   4 73310.4 4215.31   5
   3   3   4 62188.6 4027.00   2
   3   3   5 109244. 5106.27   4
  -3   3  -5 116092. 6635.04  20
   3   3   5 106837. 4603.46  18
  -3   3  -5 110773. 4184.16  16
   3   3   5 111565. 5422.28   5
  -3   3  -5 109838. 4263.28  13
   3   3   5 109366. 5427.72   2
   3   3   6 20032.6 2460.07   2
  -3   3  -6 19970.0 3470.41  20
   3   3   6 15653.9 2041.87   4
   3   3   6 18023.1 2404.94  18
  -3   3  -6 17058.2 1978.35  16
  -3   3  -6 23238.0 2049.15  13
  -3   3  -7 7712.12 2357.91  20
   3   3   7 13693.1 3047.98  18
  -3   3  -7 10800.8 1846.13  16
   3   3   7 9614.14 1876.66   2
  -3   3  -7 10277.5 1531.09  13
  -3   3  -8 47013.0 2998.74  17
  -3   3  -8 48669.2 3527.20  16
  -3   3  -8 47579.9 2837.38  13
   3   3   9 74756.0 4025.98  18
  -3   3  -9 67901.2 3571.50  17
   3   3   9 74371.4 4447.58   9
  -3   3  -9 71339.4 3867.13  16
  -3   3  -9 71399.1 3428.53  13
   3   3  10 36229.9 2744.48  18
  -3   3 -10 38718.4 2694.26  17
   3   3  10 38890.4 2782.46   9
  -3   3 -10 38674.0 2717.65  16
  -3   3 -10 39111.4 2621.90  15
  -3   3 -10 38596.2 2552.09  13
   3   3  11 3479.95 1121.02  18
  -3   3 -11 3895.64 1120.68  17
  -3   3 -11 4219.65 1208.61  16
   3   3  11 3654.31 996.444   9
  -3   3 -11 4708.34 1120.50  15
  -3   3 -11 4281.26 1121.06  13
   3   3  12 21177.5 1889.02  18
  -3   3 -12 21747.6 1854.78  17
   3   3  12 23567.4 1762.90   9
  -3   3 -12 23015.6 1848.58  16
  -3   3 -12 18854.7 1718.69  15
   3   3  13 35547.8 2111.45  18
  -3   3 -13 36697.7 2135.64  17
   3   3  13 37806.9 1971.46   9
  -3   3 -13 37078.5 2040.77  16
  -3   3 -13 32182.0 2001.53  15
   3   3  14 18718.3 1394.47  18
  -3   3 -14 18152.5 1443.12   6
  -3   3 -14 18159.9 1357.99  17
   3   3  14 18487.0 1213.78   9
  -3   3 -14 15915.5 1281.64  16
  -3   3 -14 15695.6 1276.30  15
   3   3  15 446.593 435.364  18
  -3   3 -15 1172.46 460.860  17
  -3   3 -15 1448.69 474.611   6
  -3   3 -15 925.862 480.383  16
  -3   4  16 4363.16 519.143   7
  -3   4  16 4400.92 646.127  19
  -3   4  15 25359.5 1603.11  19
   3   4 -15 21669.1 1307.66  15
  -3   4  15 25789.0 1419.51   7
  -3   4  14 20695.3 1692.57  19
   3   4 -14 16977.7 1423.31  15
  -3   4  14 18565.1 1409.59   7
  -3   4  13 13100.0 1619.98  19
   3   4 -13 10053.8 1337.05  15
  -3   4  13 10073.2 1224.54   7
  -3   4  12 3952.68 1041.22   7
  -3   4  12 5938.12 1558.07  19
   3   4 -12 5146.99 1228.69  15
  -3   4  11 49039.6 3716.60  19
   3   4 -11 50977.7 3411.15  15
  -3   4  11 49348.4 3096.82   7
  -3   4  10 79760.3 4564.24  19
   3   4 -10 78721.8 4057.04  15
   3   4 -10 74668.5 3295.50  13
  -3   4  10 77213.6 4424.76   7
  -3   4   9 16961.3 2189.40  19
   3   4  -9 21268.3 2223.46  15
   3   4  -9 18021.8 1666.68  13
  -3   4   9 21393.3 2861.50   7
  -3   4   8 12414.1 1942.34   7
  -3   4   8 12663.1 1862.92  19
   3   4  -8 11232.1 1381.27  13
  -3   4   7 43387.6 2982.92  19
   3   4  -7 41878.6 2403.23  13
  -3   4   7 41637.5 2844.30   7
  -3   4   6 98557.5 4309.99  19
   3   4  -6 103968. 4910.63   5
   3   4  -6 98599.3 3694.06  13
  -3   4   6 94798.6 3984.14   7
   3   4  -6 95450.3 5817.18   4
  -3   4   5 48791.1 3002.42  19
   3   4  -5 50938.1 3408.21   5
   3   4  -5 52728.1 2792.08  13
  -3   4   5 51659.1 2823.07   7
   3   4  -5 51979.7 4082.97   4
  -3   4   4 727.399 608.001   7
   3   4  -4 2006.31 920.364   4
  -3   4   4 916.899 797.353  19
  -3   4   4 2103.20 927.641  16
   3   4  -4 1194.35 696.110   5
   3   4  -4 842.153 854.029  13
  -3   4   3 78072.1 3642.82  19
  -3   4   3 81054.9 3373.79  16
   3   4  -3 80903.1 4308.59   5
  -3   4   3 82582.1 3288.87   7
   3   4  -3 82334.9 4938.58   4
  -3   4   2 141540. 4793.42  19
  -3   4   2 146869. 4414.94  16
   3   4  -2 153056. 5918.01   5
   3   4  -2 137212. 6163.78   2
   3   4  -2 149611. 6524.23   4
  -3   4   1 95904.6 3879.74  19
  -3   4   1 97740.0 3619.15  16
   3   4  -1 98946.8 4813.75   5
   3   4  -1 89598.3 4960.51   2
   3   4  -1 92078.9 5148.74   4
   3   4   0 1280.80 1163.93   4
  -3   4   0 1538.03 805.143  16
   3   4   0 1286.39 877.106   5
  -3   4  -1 51018.6 2836.82  19
  -3   4  -1 54466.4 2732.88  16
   3   4   1 55254.7 3722.00   5
   3   4   1 46359.5 3546.99   2
   3   4   1 52232.0 3897.82   4
   3   4   2 159664. 4893.71  18
  -3   4  -2 161204. 4664.59  16
   3   4   2 173069. 6618.51   5
  -3   4  -2 160292. 4912.84  19
   3   4   2 162204. 6651.10   2
   3   4   2 166515. 6791.91   4
   3   4   3 76943.2 4635.64   4
  -3   4  -3 68997.5 3235.43  19
   3   4   3 68296.1 3384.31  18
  -3   4  -3 72103.8 3245.47  16
   3   4   3 76618.9 4529.82   5
   3   4   3 65125.9 4267.63   2
  -3   4  -4 22749.7 1935.46  19
   3   4   4 21722.9 2561.34   4
   3   4   4 25417.6 2205.18  18
  -3   4  -4 22267.5 2007.64  16
   3   4   4 18068.5 2462.16   5
   3   4   4 21499.7 2481.39   2
  -3   4  -5 24051.9 2083.96  19
   3   4   5 21834.1 2249.89  18
  -3   4  -5 25807.4 2177.51  16
  -3   4  -6 70182.2 3414.58  19
   3   4   6 71646.3 4287.81  18
  -3   4  -6 73383.2 3642.12  16
  -3   4  -6 77221.4 3517.71  13
  -3   4  -7 97517.8 4245.88  19
   3   4   7 92796.4 5999.99  18
  -3   4  -7 104571. 4578.14  16
  -3   4  -7 108224. 4114.46  13
  -3   4  -8 12022.9 1728.67  19
  -3   4  -8 13217.1 2077.51  16
  -3   4  -8 15745.0 1641.13  13
   3   4   9 5734.88 1469.73  18
  -3   4  -9 5256.00 1250.96  17
   3   4   9 6720.67 1642.01   9
  -3   4  -9 6698.39 1568.02  16
  -3   4  -9 7730.32 1270.84  13
   3   4  10 30278.8 2402.16  18
   3   4  10 29628.2 2317.47   9
  -3   4 -10 24577.1 2101.25  17
  -3   4 -10 26518.6 2226.39  16
  -3   4 -10 26338.6 1953.30  13
   3   4  11 46779.8 2623.86  18
   3   4  11 48812.3 2485.32   9
  -3   4 -11 43514.9 2495.09  17
  -3   4 -11 46729.4 2501.54  16
  -3   4 -11 41895.0 2301.50  13
   3   4  12 12480.4 1315.19  18
   3   4  12 12102.5 1100.76   9
  -3   4 -12 12266.3 1354.82  17
  -3   4 -12 12605.0 1251.56  16
   3   4  13 607.466 514.499  18
  -3   4 -13 541.807 535.108  17
   3   4  13 516.803 316.947   9
  -3   4 -13-133.980 583.824  16
  -3   4 -14 10781.8 935.866   6
  -3   4 -14 10473.4 858.012  17
  -3   5  14 13355.1 1062.51  19
   3   5 -14 13673.9 1025.63  15
  -3   5  14 14115.7 983.366   7
  -3   5  13 24519.6 1680.14  19
   3   5 -13 22420.2 1552.37  15
  -3   5  13 25110.4 1518.62   7
  -3   5  12 26148.4 2041.76  19
   3   5 -12 24627.7 1837.59  15
  -3   5  12 28505.2 1840.32   7
  -3   5  11 6782.90 1182.02   7
  -3   5  11 5578.89 1391.67  19
   3   5 -11 6610.66 1334.88  15
   3   5 -11 4593.10 890.150  13
  -3   5  10 5110.01 1463.20   7
  -3   5  10 4877.36 1529.72  19
   3   5 -10 4348.80 1468.44  15
   3   5 -10 5057.39 1106.95  13
  -3   5   9 31741.5 2817.77  19
   3   5  -9 36834.3 2800.14  15
   3   5  -9 33319.9 2219.18  13
  -3   5   9 37127.2 3466.67   7
  -3   5   8 63632.0 3691.03  19
   3   5  -8 63172.2 3551.76  15
   3   5  -8 60421.8 2950.42  13
  -3   5   8 66829.8 3900.77   7
  -3   5   7 50002.0 3264.13  19
  -3   5   7 40202.2 2585.41  16
   3   5  -7 47991.3 2649.35  13
  -3   5   7 46220.7 2967.52   7
  -3   5   6 19203.4 2229.48  19
  -3   5   6 20410.5 1966.29  16
  -3   5   6 16811.1 1949.91   7
  -3   5   5 85870.6 4052.96  19
  -3   5   5 91949.1 3806.14  16
   3   5  -5 88480.4 3674.38  13
  -3   5   5 84038.3 3641.47   7
  -3   5   4 75231.5 3771.87  19
  -3   5   4 72452.4 3384.74  16
   3   5  -4 71988.1 3357.76  13
  -3   5   4 69612.3 3228.98   7
  -3   5   3 50723.7 3077.99  19
  -3   5   3 49317.1 2798.62  16
  -3   5   3 43867.5 2534.10   7
   3   5  -3 47649.7 2797.72  13
  -3   5   2-149.852 775.126  19
  -3   5   2 1483.39 944.778  16
  -3   5   1 36522.6 2639.63  19
  -3   5   1 39441.0 2468.52  16
  -3   5   0 85020.8 3862.94  19
  -3   5   0 90552.1 3643.37  16
  -3   5  -1 51617.5 3002.95  19
  -3   5  -1 53242.4 2853.25  16
  -3   5  -2 11714.5 1545.27  19
   3   5   2 10706.0 1395.27  18
  -3   5  -2 12599.2 1580.03  16
  -3   5  -3 12328.2 1564.71  19
   3   5   3 13794.8 1658.33  18
  -3   5  -3 14704.8 1742.09  16
  -3   5  -4 97073.7 3999.83  19
   3   5   4 99172.8 4172.45  18
  -3   5  -4 102729. 3988.11  16
  -3   5  -5 48841.8 2923.91  19
   3   5   5 46879.3 3147.91  18
  -3   5  -5 52147.5 2943.80  16
  -3   5  -6 2917.80 1064.38  19
   3   5   6 4753.50 1361.82  18
  -3   5  -6 4125.40 1267.95  16
  -3   5  -7 2726.18 1095.65  19
   3   5   7 2473.54 1756.71  18
  -3   5  -7 1556.75 1143.91  16
  -3   5  -8 46308.4 2714.69  17
  -3   5  -8 51112.0 3243.24  16
  -3   5  -8 51686.4 2467.60  13
   3   5   9 35624.2 2654.96  18
  -3   5  -9 32257.5 2190.12  17
  -3   5  -9 33526.2 2343.54  16
  -3   5  -9 32504.6 1908.13  13
   3   5  10 9371.55 1287.78  18
  -3   5 -10 6815.12 1072.80  17
  -3   5 -10 5859.02 1073.84  16
   3   5  11 99.7556 511.275  18
  -3   5 -11-1108.95 567.471  17
  -3   5 -11 96.4631 563.901  16
   3   5  12 15832.2 1112.03  18
  -3   5 -12 11267.1 968.081   6
  -3   5 -12 14356.0 1093.09  17
  -3   5 -12 11773.0 910.976  16
  -3   6  12 5016.77 668.227  19
   3   6 -12 3986.34 645.401  15
  -3   6  12 5684.04 645.315   7
  -3   6  11 24311.1 1607.36  19
   3   6 -11 24277.4 1552.71  15
   3   6 -11 22827.3 1213.50  13
  -3   6  11 25740.1 1506.59   7
  -3   6  10 32179.3 2263.07  19
   3   6 -10 33557.6 2137.11  15
   3   6 -10 28150.2 1742.98  13
  -3   6  10 35751.8 2062.61   7
  -3   6   9 7255.94 1419.69   7
  -3   6   9 7782.02 1525.06  19
   3   6  -9 7064.22 1381.39  15
   3   6  -9 8106.48 1226.17  13
  -3   6   8 10984.3 1632.70   7
  -3   6   8 9972.09 1586.51  19
  -3   6   8 10069.1 1094.46  16
   3   6  -8 13566.5 1741.09  15
   3   6  -8 11141.6 1377.39  13
  -3   6   7 30830.9 2424.89  19
  -3   6   7 25985.1 1868.24  16
   3   6  -7 32805.3 2500.77  15
   3   6  -7 32284.1 2105.98  13
  -3   6   7 32093.8 2279.87   7
  -3   6   6 37876.0 2622.21  19
  -3   6   6 34324.0 2290.53  16
   3   6  -6 44456.1 2767.39  15
   3   6  -6 36382.6 2281.58  13
  -3   6   6 37753.1 2356.28   7
  -3   6   5 17672.1 1904.03  19
  -3   6   5 16811.7 1688.26  16
   3   6  -5 19474.7 1727.33  13
  -3   6   5 17447.5 1621.80   7
  -3   6   4 1261.38 678.654   7
  -3   6   4 1732.52 908.508  19
  -3   6   4 1476.16 931.904  16
   3   6  -4 1173.14 761.764  13
  -3   6   3 14746.9 1747.58  19
  -3   6   3 13467.3 1533.98  16
  -3   6   3 14998.6 1438.20   7
   3   6  -3 15388.0 1641.59  13
  -3   6   2 71200.8 3470.87  19
  -3   6   2 76777.8 3296.08  16
  -3   6   2 67965.7 2775.12   7
   3   6  -2 76852.6 3367.46  13
  -3   6   1 40212.6 2649.95  19
  -3   6   1 43408.9 2500.72  16
   3   6  -1 39991.7 2524.60  13
  -3   6   0 1558.09 1002.25  19
  -3   6   0 1405.55 951.145  16
   3   6   0 766.221 874.818  13
  -3   6  -1 27377.6 2197.68  19
  -3   6  -1 28641.0 2091.32  16
   3   6   1 28135.2 2205.23  13
  -3   6  -2 45864.0 2708.04  19
   3   6   2 49527.5 2530.54  18
  -3   6  -2 44256.3 2520.55  16
   3   6   2 43044.4 2725.26  13
  -3   6  -3 33206.3 2304.54  19
   3   6   3 36447.1 2248.50  18
  -3   6  -3 36436.7 2320.39  16
  -3   6  -4 1899.24 823.819  19
   3   6   4 2172.69 807.010  18
  -3   6  -4 2103.61 968.180  16
  -3   6  -5 2677.45 944.909  19
   3   6   5 3651.31 1055.14  18
  -3   6  -5 2365.50 1049.02  16
  -3   6  -6 29722.3 2220.98  19
   3   6   6 34729.7 2674.60  18
  -3   6  -6 31160.1 2203.27  16
  -3   6  -7 21259.7 2031.25  19
  -3   6  -7 21381.0 1605.63  17
  -3   6  -7 24990.4 2075.82  16
  -3   6  -8 13934.2 1254.25  17
  -3   6  -8 15986.0 1487.60  16
   3   6   8 16597.2 1131.43  13
   3   6   9 1267.94 541.273  18
  -3   6  -9-133.839 488.938  17
  -3   6  -9-35.2588 556.856  16
   3   6  10 20010.2 1146.27  18
  -3   6 -10 13733.8 1002.42  17
  -3   7   8 29234.2 1769.38  19
   3   7  -8 27567.9 1468.09  15
   3   7  -8 25353.1 1425.10  13
  -3   7   7 12878.1 1475.35  19
  -3   7   7 9210.33 829.408  16
   3   7  -7 9166.73 1082.59  15
  -3   7   7 12505.5 1209.76   7
   3   7  -7 11874.3 1263.20  13
  -3   7   6 2253.06 704.579   7
  -3   7   6 2378.63 911.222  19
  -3   7   6 1758.47 606.946  16
   3   7  -6 960.258 792.898  15
   3   7  -6 2825.81 780.039  13
  -3   7   5 19168.5 1618.54  19
  -3   7   5 17138.9 1382.12  16
   3   7  -5 20090.4 1665.09  15
  -3   7   5 18357.3 1269.93   7
   3   7  -5 20982.1 1513.28  13
  -3   7   4 58466.6 2661.72  19
  -3   7   4 59198.4 2461.09  16
   3   7  -4 61364.2 2752.01  15
   3   7  -4 64476.5 2593.28  13
  -3   7   3 19057.4 1596.72  19
  -3   7   3 20803.0 1542.11  16
   3   7  -3 17649.6 1544.71  15
   3   7  -3 19737.1 1527.33  13
  -3   7   2 1114.97 709.990  19
  -3   7   2 1282.65 749.624  16
   3   7  -2 1372.40 681.583  13
  -3   7   1 9825.27 1195.68  19
  -3   7   1 13596.2 1293.37  16
   3   7  -1 10608.5 1191.53  13
  -3   7   0 27952.5 1898.70  19
  -3   7   0 34203.5 1889.51  16
   3   7   0 30964.2 1911.93  13
  -3   7  -1 32650.3 1998.31  19
  -3   7  -1 30701.1 1812.70  16
   3   7   1 33326.8 2050.15  13
  -3   7  -2 2361.43 772.805  19
  -3   7  -2 2367.96 752.961  16
   3   7   2 2787.22 902.804  13
  -3   7  -3 6653.01 1040.10  19
   3   7   3 5854.27 783.916  18
  -3   7  -3 6874.41 1022.64  16
   3   7   3 5113.53 1423.21  13
  -3   7  -4 28454.7 1867.25  19
   3   7   4 28966.2 1593.97  18
  -3   7  -4 32570.0 1837.37  16
   3   7   4 31436.5 1907.89  13
  -3   7  -5 30325.2 1927.93  19
   3   7   5 30118.5 1739.97  18
  -3   7  -5 32462.6 1874.34  16
   3   7   5 30258.9 1352.24  13
  -3   7  -6 4794.15 815.093  16
  -4  -6   9 2364.17 493.581  10
  -4  -6   8 9639.17 1034.33  10
  -4  -6   7 22477.2 1485.90   8
  -4  -6   7 17723.3 1189.91  12
  -4  -6   6 21648.9 1794.65  10
  -4  -6   6 19221.5 1424.69   8
  -4  -6   5 3395.97 934.700  10
  -4  -6   5 1814.63 859.519   6
  -4  -6   5 2579.60 693.752   8
  -4  -6   5 2832.84 707.971  12
  -4  -6   4 9668.49 1318.87  10
  -4  -6   4 7621.30 1135.19   6
  -4  -6   4 7266.13 1040.92   8
  -4  -6   3 31372.2 2114.79   6
  -4  -6   3 27613.3 2032.74  10
  -4  -6   3 25843.9 1738.21   8
  -4  -6   2 43682.1 2529.57   6
  -4  -6   2 41722.3 2485.15  10
  -4  -6   2 35345.3 2074.33   8
  -4  -6   1 9649.30 1331.30   6
  -4  -6   1 8409.72 1240.28  10
  -4  -6   1 9259.64 1218.51   8
  -4  -6   0 3554.52 914.590  10
  -4  -6   0 4973.53 1163.05   6
  -4  -6   0 3849.76 958.911   8
  -4  -6  -1 34749.4 2492.72   6
  -4  -6  -1 32407.0 2393.51  10
  -4  -6  -1 29688.1 2031.38   8
  -4  -6  -2 41159.3 3092.22   6
  -4  -6  -2 38250.8 2272.97   8
  -4  -6  -3 9058.08 1575.56   6
  -4  -6  -3 8067.15 1192.70   8
  -4  -6  -4 2112.32 633.661   6
  -4  -6  -4 1605.92 786.936   8
  -4  -6  -5 12746.2 1401.85   8
  -4  -6  -6 20675.9 1625.53   8
  -4  -6  -7 14686.2 1157.95   8
  -4  -5  12 3634.73 484.150   7
  -4  -5  11 1369.89 586.200  10
  -4  -5  11-1966.08 478.625   8
  -4  -5  10 19865.5 1752.34  10
  -4  -5  10 17187.6 1420.48   8
  -4  -5   9 29044.3 2053.21   8
  -4  -5   9 29240.7 1696.41  12
  -4  -5   8 19798.0 2039.74  10
  -4  -5   8 18672.2 1711.98   8
  -4  -5   8 16790.8 1484.12  12
  -4  -5   7 1317.20 881.246  10
  -4  -5   7 726.605 750.430   6
  -4  -5   7 2030.64 903.255   8
  -4  -5   7 920.076 692.331  12
  -4  -5   6 16978.1 1781.25   6
  -4  -5   6 16144.8 1895.00  10
  -4  -5   6 16272.7 1679.60   8
  -4  -5   6 11069.2 1537.49  12
  -4  -5   5 45562.4 2822.40   6
  -4  -5   5 48058.1 2971.54  10
  -4  -5   5 42061.0 2581.64   8
  -4  -5   4 42679.3 2773.33   6
  -4  -5   4 43546.5 2837.97  10
  -4  -5   4 42818.2 2656.26   8
  -4  -5   4 36125.3 3054.63  12
  -4  -5   3 2509.28 960.032  10
  -4  -5   3 1365.76 959.016   6
  -4  -5   3 3195.62 1070.80   8
  -4  -5   2 18020.1 1922.10   6
  -4  -5   2 19138.2 2018.73  10
  -4  -5   2 17326.1 1797.94  17
  -4  -5   2 16919.5 1893.60   8
  -4  -5   1 36082.4 2701.33   6
  -4  -5   1 38084.1 2734.53  10
  -4  -5   1 32034.9 2433.40  17
  -4  -5   1 36022.9 2589.76   8
  -4  -5   0 46259.0 2992.99   6
  -4  -5   0 38906.6 2807.17  10
  -4  -5   0 43113.7 2818.69  17
  -4  -5   0 40431.1 2806.38   8
  -4  -5  -1 13438.1 1738.91   6
  -4  -5  -1 14821.4 1799.77  10
  -4  -5  -1 13328.5 1821.22  17
  -4  -5  -1 11237.7 1689.03   8
  -4  -5  -2 3770.70 1125.81  10
  -4  -5  -2 3727.13 1223.25   6
  -4  -5  -2 4203.78 1304.58  17
  -4  -5  -3 24587.6 2644.06   6
  -4  -5  -3 23195.6 2300.52  10
  -4  -5  -3 31525.7 2866.05  17
  -4  -5  -4 44376.5 3790.32   6
  -4  -5  -4 43241.3 3128.77  10
  -4  -5  -4 45647.4 3803.64  17
  -4  -5  -5 24745.8 2585.17   6
  -4  -5  -5 19620.3 2514.58  10
  -4  -5  -5 25128.7 3010.61  17
  -4  -5  -6 1965.24 920.097  10
  -4  -5  -6 925.924 813.848   6
  -4  -5  -6 2477.07 1161.04  17
  -4  -5  -7 18770.3 1451.14   6
  -4  -5  -7 23702.2 1888.33  17
  -4  -5  -8 16685.5 1367.94  17
  -4  -5  -9 16574.9 1138.29  17
  -4  -4  14 5680.73 634.716   7
  -4  -4  13 2672.80 575.536   7
  -4  -4  13 2877.55 596.361   8
  -4  -4  12 17640.2 1294.30   7
  -4  -4  12 21285.8 1754.39  10
  -4  -4  12 19505.2 1546.21   8
  -4  -4  11 34632.0 2503.75  10
  -4  -4  11 31623.5 2243.42   8
  -4  -4  10 22169.3 2286.92  10
  -4  -4  10 20091.8 2013.66   8
  -4  -4   9 619.668 986.853  10
  -4  -4   9 699.790 933.205   8
  -4  -4   9 763.852 764.243  12
  -4  -4   8 23236.6 1993.65   6
  -4  -4   8 22493.0 2312.75  10
  -4  -4   8 22847.4 2139.82   8
  -4  -4   8 21764.0 1907.35  12
  -4  -4   7 77063.4 3586.63   6
  -4  -4   7 74821.7 3987.13  10
  -4  -4   7 76992.8 3698.54   8
  -4  -4   7 67795.8 3410.56  12
  -4  -4   6 39358.4 2667.24   6
  -4  -4   6 46071.3 3147.92  10
  -4  -4   6 39537.5 2730.92   8
  -4  -4   5 3426.79 1342.26  10
  -4  -4   5 3427.01 1081.11   6
  -4  -4   5 3604.58 1100.40   8
  -4  -4   5 3497.06 1752.48  12
  -4  -4   4 11210.6 1752.26  10
  -4  -4   4 9792.11 1394.25  17
  -4  -4   4 9654.90 1548.80   6
  -4  -4   4 9695.48 1580.38   8
  -4  -4   3 88366.8 4073.33   6
  -4  -4   3 83053.3 4141.61  10
  -4  -4   3 82773.3 3713.29  17
  -4  -4   3 89668.7 4167.46   8
  -4  -4   2 61598.5 3468.44   6
  -4  -4   2 62018.6 3657.93  10
  -4  -4   2 55556.9 3137.17  17
  -4  -4   2 60900.9 3498.97   8
  -4  -4   1 11886.3 1740.09   6
  -4  -4   1 12858.2 1904.45  10
  -4  -4   1 11787.0 1586.31  17
  -4  -4   1 9257.56 1629.85   8
  -4  -4   0 8658.88 1726.55  10
  -4  -4   0 9228.57 1557.62   6
  -4  -4   0 9073.44 1583.17  17
  -4  -4  -1 60554.9 3583.26   6
  -4  -4  -1 55262.6 3558.85  10
  -4  -4  -1 55816.2 3404.25  17
  -4  -4  -2 61023.9 3656.41   6
  -4  -4  -2 64760.0 3786.16  10
  -4  -4  -2 62845.2 3761.52  17
  -4  -4  -3 25295.2 2499.03   6
  -4  -4  -3 24336.7 2469.65  10
  -4  -4  -3 24633.2 2634.77  17
  -4  -4  -4 5757.23 1495.36  10
  -4  -4  -4 4013.90 1425.07   6
  -4  -4  -4 5607.37 1920.78  17
  -4  -4  -5 32735.9 3434.37   6
  -4  -4  -5 32143.5 2967.83  10
  -4  -4  -5 32984.1 3829.09  17
  -4  -4  -6 72556.7 4884.28   6
  -4  -4  -6 57191.5 3981.43  10
  -4  -4  -6 63673.0 4532.36  17
  -4  -4  -7 17407.5 2061.13   6
  -4  -4  -7 13157.2 2301.93  10
  -4  -4  -7 17339.4 2132.83  17
  -4  -4  -8 794.035 768.795  10
  -4  -4  -8 1242.58 730.666   6
  -4  -4  -8 800.686 765.365  17
  -4  -4  -9 14875.6 1419.50   6
  -4  -4  -9 14898.2 1591.97  10
  -4  -4  -9 16133.4 1579.03  17
  -4  -4 -10 24385.1 1620.46  10
  -4  -4 -10 26924.6 1687.47  17
  -4  -4 -11 14033.0 1013.32  17
  -4  -3  15 1535.69 458.515   7
  -4  -3  15 2190.86 491.219   8
  -4  -3  14 8645.00 1031.19   8
  -4  -3  14 8231.65 899.657   7
  -4  -3  13 35768.4 2184.91  10
  -4  -3  13 35899.4 2155.05   8
  -4  -3  13 35077.5 1868.33   7
  -4  -3  12 19142.5 1501.49   7
  -4  -3  12 19209.3 1896.04  10
  -4  -3  12 19167.7 1894.70   8
  -4  -3  11 1889.08 1096.84  10
  -4  -3  11 1440.65 1060.16   8
  -4  -3  10 29226.7 2593.29  10
  -4  -3  10 29454.5 2652.93   8
  -4  -3   9 56511.8 2917.60   6
  -4  -3   9 64413.2 3673.40  10
  -4  -3   9 61139.1 3579.34   8
  -4  -3   8 49141.4 2804.08   6
  -4  -3   8 52629.1 3387.08  10
  -4  -3   8 54910.0 3342.70   8
  -4  -3   8 51567.8 2804.71  12
  -4  -3   7 411.293 1051.96  10
  -4  -3   7-280.973 706.674   6
  -4  -3   7 1638.19 1119.74   8
  -4  -3   7-558.909 804.031  12
  -4  -3   6 28966.2 2292.63   6
  -4  -3   6 29299.6 2497.45  10
  -4  -3   6 29513.0 2486.53   8
  -4  -3   5 81207.9 3719.10   6
  -4  -3   5 85011.5 4149.06  10
  -4  -3   5 78490.5 3843.17   8
  -4  -3   4 74152.7 3634.34   6
  -4  -3   4 73968.3 3921.80  10
  -4  -3   4 79296.1 3834.69   8
  -4  -3   3 17235.0 1888.81   6
  -4  -3   3 14761.5 1873.78  10
  -4  -3   3 15775.5 1706.35  17
  -4  -3   3 15650.7 1895.07   8
  -4  -3   3 12972.2 1781.14   1
  -4  -3   2 17735.2 1954.43   6
  -4  -3   2 17889.2 2107.65  10
  -4  -3   2 17787.6 1847.01  17
  -4  -3   2 19808.2 2152.13   1
  -4  -3   2 17845.0 1997.99   8
  -4  -3   1 113555. 4628.19   6
  -4  -3   1 110225. 4733.76  10
  -4  -3   1 105889. 4293.29  17
  -4  -3   0 125465. 4967.38   6
  -4  -3   0 133287. 5214.59  10
  -4  -3   0 127172. 4812.61  17
  -4  -3  -1 17236.6 2079.70   6
  -4  -3  -1 17350.3 2174.64  10
  -4  -3  -1 16092.1 1922.51  17
  -4  -3  -2 3536.70 1325.17  10
  -4  -3  -2 3302.81 1134.47   6
  -4  -3  -2 3585.13 1265.18  17
  -4  -3  -3 117377. 5023.28   6
  -4  -3  -3 114405. 5036.58  10
  -4  -3  -3 116081. 5171.33  17
  -4  -3  -4 98219.0 4887.53   6
  -4  -3  -4 105251. 4921.55  10
  -4  -3  -4 100849. 5244.11  17
  -4  -3  -5 26022.0 2857.58   6
  -4  -3  -5 25193.4 2670.61  10
  -4  -3  -5 21843.1 3068.78  17
  -4  -3  -6 1473.27 1312.25  10
  -4  -3  -6 2853.53 1995.14  17
  -4  -3  -6 317.672 1562.02   6
  -4  -3  -7 40171.4 3541.37   6
  -4  -3  -7 32969.2 3312.35  10
  -4  -3  -7 39951.8 3352.42  17
  -4  -3  -8 59038.6 3721.78   6
  -4  -3  -8 63760.9 4466.85  10
  -4  -3  -8 64142.9 3708.05  17
  -4  -3  -9 28697.7 2331.12   6
  -4  -3  -9 28157.4 2798.08  10
  -4  -3  -9 26124.1 2272.22  17
  -4  -3 -10 745.511 828.037  10
  -4  -3 -10-1828.32 707.049   6
  -4  -3 -10 354.896 698.831  17
  -4  -3 -11 11825.9 1214.81   6
  -4  -3 -11 10706.3 1311.00  10
  -4  -3 -11 11101.5 1236.49  17
  -4  -3 -12 21907.6 1483.16  10
  -4  -3 -12 22418.7 1374.09  17
  -4  -2  16 20650.5 1176.14   8
  -4  -2  16 19126.9 1112.58   7
  -4  -2  15 25575.4 1576.23   8
  -4  -2  15 24020.8 1461.28   7
  -4  -2  14 14586.8 1457.18   8
  -4  -2  14 15909.2 1347.12   7
  -4  -2  13 8228.62 1163.44  10
  -4  -2  13 7870.48 1285.12   8
  -4  -2  13 9512.33 1196.77   7
  -4  -2  12 26999.6 2259.22  10
  -4  -2  12 29525.0 2496.15   8
  -4  -2  12 33336.3 2082.95   7
  -4  -2  11 59529.9 2864.39   7
  -4  -2  11 53323.4 3384.57  10
  -4  -2  11 54131.7 3677.81   8
  -4  -2  10 35125.2 2752.40  10
  -4  -2  10 37476.2 3078.51   8
  -4  -2   9 1501.73 1014.80  10
  -4  -2   9 1569.84 1186.84   8
  -4  -2   8 40665.4 2841.21  10
  -4  -2   8 39048.2 2888.17   8
  -4  -2   7 75345.1 3819.34  10
  -4  -2   7 81641.0 4571.85   1
  -4  -2   7 77188.2 3835.31   8
  -4  -2   6 80964.1 3432.04   6
  -4  -2   6 80811.8 3865.77  10
  -4  -2   6 91606.1 4689.84   1
  -4  -2   6 89195.4 4052.26   8
  -4  -2   5 13305.6 1727.51  10
  -4  -2   5 10786.2 1398.10   6
  -4  -2   5 14438.4 1904.79   1
  -4  -2   5 13671.3 1754.69   8
  -4  -2   4 55203.4 2945.87   6
  -4  -2   4 57746.5 3286.48  10
  -4  -2   4 63665.9 3360.05   8
  -4  -2   4 64343.1 3723.98   1
  -4  -2   3 111462. 4215.04   6
  -4  -2   3 116645. 4588.97  10
  -4  -2   3 110495. 4389.41   8
  -4  -2   3 119989. 5122.45   1
  -4  -2   2 78352.8 3574.74   6
  -4  -2   2 82645.1 3897.96  10
  -4  -2   2 85515.6 4307.40   1
  -4  -2   2 75239.4 3356.37  17
  -4  -2   2 78219.7 3706.17   8
  -4  -2   1 16204.1 1761.74   6
  -4  -2   1 16425.8 1895.14  10
  -4  -2   1 18874.6 1899.77  17
  -4  -2   1 13361.4 1753.98   1
  -4  -2   1 19333.5 2019.13   8
  -4  -2   0 10242.8 1542.44  10
  -4  -2   0 8998.35 1441.39   6
  -4  -2   0 7172.32 1302.93  17
  -4  -2  -1 101084. 4248.26   6
  -4  -2  -1 104086. 4552.33  10
  -4  -2  -1 100644. 4285.57  17
  -4  -2  -2 70646.1 3715.74   6
  -4  -2  -2 76777.9 3956.96  10
  -4  -2  -2 73638.8 3814.10  17
  -4  -2  -3 50109.9 3674.85  20
  -4  -2  -3 53538.7 3343.40   6
  -4  -2  -3 53448.7 3449.56  10
  -4  -2  -3 54078.7 3496.21  17
  -4  -2  -4 938.452 891.570  20
  -4  -2  -4 346.154 1004.13  10
  -4  -2  -4 1194.11 1248.20  17
  -4  -2  -4 1520.66 1172.23   6
  -4  -2  -5 60860.4 3899.52   6
  -4  -2  -5 60669.1 3935.60  10
  -4  -2  -5 59479.3 4400.11  17
  -4  -2  -6 88197.0 5047.62   6
  -4  -2  -6 93742.3 4870.49  10
  -4  -2  -6 102980. 5923.11  17
  -4  -2  -6 98229.0 4720.60  16
  -4  -2  -7 35392.2 3545.61   6
  -4  -2  -7 30053.8 3092.45  10
  -4  -2  -7 34809.4 3332.89  17
  -4  -2  -7 35435.1 2692.83  16
  -4  -2  -8 817.517 1322.17  10
  -4  -2  -8 1354.44 1192.56  17
  -4  -2  -8-261.474 1196.21   6
  -4  -2  -8 3025.31 1083.70  16
  -4  -2  -9 22774.0 2327.94   6
  -4  -2  -9 26953.1 2943.11  10
  -4  -2  -9 24960.6 2352.27  17
  -4  -2 -10 47967.7 2937.27   6
  -4  -2 -10 47183.8 3358.03  10
  -4  -2 -10 41411.1 2708.34  17
  -4  -2 -11 22895.6 1871.41   6
  -4  -2 -11 22820.8 2131.81  10
  -4  -2 -11 22075.4 1876.78  17
  -4  -2 -12 5961.41 1102.12  10
  -4  -2 -12 4654.97 891.758  17
  -4  -2 -12 4731.02 920.579   6
  -4  -2 -13 6856.77 986.247  10
  -4  -2 -13 8382.92 884.827  17
  -4  -2 -13 6341.41 759.552   6
  -4  -1  17 16139.7 943.631   8
  -4  -1  17 13576.3 850.512   7
  -4  -1  16 4402.84 719.331   8
  -4  -1  16 4576.01 686.347   7
  -4  -1  15 1736.35 629.875   7
  -4  -1  15 1534.63 646.836   8
  -4  -1  14 29477.2 2025.63   8
  -4  -1  14 30188.1 1899.46   7
  -4  -1  13 37403.0 2515.77   8
  -4  -1  13 38598.9 2231.20   7
  -4  -1  12 23870.7 2283.64   8
  -4  -1  12 26189.1 1966.69   7
  -4  -1  11 10807.2 1882.13   8
  -4  -1  11 11258.4 1387.81   7
  -4  -1  10 39828.7 2831.40  10
  -4  -1  10 41161.7 3330.01   8
  -4  -1  10 40147.7 2499.33   7
  -4  -1   9 109272. 4387.51  10
  -4  -1   9 111638. 5051.07   8
  -4  -1   9 101801. 3927.61   7
  -4  -1   8 46834.7 3401.45   1
  -4  -1   8 42784.5 2736.60  10
  -4  -1   8 45403.3 3153.56   8
  -4  -1   8 45660.8 2630.47   7
  -4  -1   7-2373.95 808.218   7
  -4  -1   7 1190.44 819.255  10
  -4  -1   7 798.094 789.513   8
  -4  -1   7-3087.88 846.603   1
  -4  -1   6 47519.9 2858.62  10
  -4  -1   6 50069.4 3271.17   1
  -4  -1   6 51996.5 3045.57   8
  -4  -1   5 94576.0 3916.79  10
  -4  -1   5 103989. 4609.52   1
  -4  -1   5 101736. 4145.46   8
  -4  -1   4 62517.3 3224.73  10
  -4  -1   4 65497.2 3296.15   8
  -4  -1   4 65306.4 3576.15   1
  -4  -1   3 18719.0 1607.69   6
  -4  -1   3 16954.0 1756.15  10
  -4  -1   3 16224.2 1676.11   8
  -4  -1   3 14161.9 1677.92   1
  -4  -1   2 21683.7 2035.69   1
  -4  -1   2 23015.7 1892.09   6
  -4  -1   2 21710.3 1986.57  10
  -4  -1   2 21111.1 1898.86   8
  -4  -1   1 123539. 4239.34   6
  -4  -1   1 131630. 4663.78  10
  -4  -1   1 130297. 4923.20   1
  -4  -1   1 127719. 4481.28   8
  -4  -1   0 162795. 5039.70   6
  -4  -1   0 167590. 5323.93  10
  -4  -1   0 165357. 4927.12  17
  -4  -1  -1 39379.4 2622.11   6
  -4  -1  -1 39135.5 2741.69  10
  -4  -1  -1 39960.5 2649.65  17
  -4  -1  -2 25559.8 2565.62  20
  -4  -1  -2 25146.0 2237.40   6
  -4  -1  -2 27774.0 2378.63  10
  -4  -1  -2 26755.3 2286.00  17
  -4  -1  -3 77170.1 4576.30  20
  -4  -1  -3 81643.7 3884.59   6
  -4  -1  -3 84561.3 4114.17  10
  -4  -1  -3 80430.6 4061.88  17
  -4  -1  -4 111868. 5637.09  20
  -4  -1  -4 112158. 4759.06   6
  -4  -1  -4 112040. 4866.72  10
  -4  -1  -4 106585. 5043.80  17
  -4  -1  -5 45693.8 3594.15  20
  -4  -1  -5 47003.0 3390.69   6
  -4  -1  -5 47491.0 3366.53  10
  -4  -1  -5 40193.2 3588.83  17
  -4  -1  -5 47136.6 2979.79  16
  -4  -1  -6 1196.20 1139.18  10
  -4  -1  -6 427.776 1158.05  17
  -4  -1  -6 692.196 1292.86   6
  -4  -1  -6-1219.67 943.763  16
  -4  -1  -7 28797.6 3297.83   6
  -4  -1  -7 24742.7 2839.66  10
  -4  -1  -7 25715.3 2705.63  17
  -4  -1  -7 25404.8 2227.11  16
  -4  -1  -8 79447.9 4598.63   6
  -4  -1  -8 73398.7 4664.14  10
  -4  -1  -8 70962.3 4049.78  17
  -4  -1  -8 69538.5 3418.42  16
  -4  -1  -9 54571.2 3586.78   6
  -4  -1  -9 59432.0 4171.88  10
  -4  -1  -9 51572.0 3320.77  17
  -4  -1  -9 51700.2 2929.19  16
  -4  -1 -10 3972.78 1579.75  10
  -4  -1 -10 2338.41 1080.89  17
  -4  -1 -10 3106.28 1087.11   6
  -4  -1 -10 2568.38 1001.15  16
  -4  -1 -11 12916.8 1551.15   6
  -4  -1 -11 14969.5 2022.24  10
  -4  -1 -11 13461.0 1650.99  17
  -4  -1 -11 11412.2 1453.80  16
  -4  -1 -12 33074.8 2138.66   6
  -4  -1 -12 31899.4 2366.38  10
  -4  -1 -12 31108.8 2077.31  17
  -4  -1 -12 32778.1 2041.68  16
  -4  -1 -13 16965.9 1387.94   6
  -4  -1 -13 16115.6 1533.25  10
  -4  -1 -13 13473.1 1267.99  17
  -4  -1 -14 2260.03 618.336  10
  -4  -1 -14 1090.57 390.472   6
  -4   0  17 2218.03 449.020   7
  -4   0  17 1451.88 388.021   8
  -4   0  16 16446.0 1206.86   8
  -4   0  16 14020.5 1107.00   7
  -4   0  15 37256.1 1987.71   8
  -4   0  15 37169.6 1944.55   7
  -4   0  14 2503.63 734.168   7
  -4   0  14 4495.12 971.630   8
  -4   0  13 155.395 614.807   7
  -4   0  13 1364.82 807.248   8
  -4   0  12 65017.7 3315.92   8
  -4   0  12 63437.5 3007.33   7
  -4   0  11 59461.6 3329.21   8
  -4   0  11 65891.6 3123.72   7
  -4   0  10 17414.4 2038.86   8
  -4   0  10 20565.0 1831.60   7
  -4   0   9 4983.84 1068.56   7
  -4   0   9 6227.64 1613.16   8
  -4   0   8 31925.2 2794.41   8
   4   0  -8 35667.5 3700.43   4
  -4   0   8 34982.3 2444.10   7
  -4   0   7 137260. 5142.41   8
   4   0  -7 135669. 6162.43   4
  -4   0   7 141099. 5005.76   7
  -4   0   6 107316. 4459.32   1
  -4   0   6 112280. 4425.01   8
   4   0  -6 110261. 5225.05   4
   4   0  -5 9462.12 1538.32   4
  -4   0   5 11152.0 1401.83   8
  -4   0   5 8544.44 1227.03   1
  -4   0   4 18367.2 1716.78   1
  -4   0   3 182849. 5376.74   1
   4   0  -3 174733. 5948.55   2
  -4   0   2 155713. 4960.83   1
   4   0  -2 151344. 5516.16   2
   4   0  -1 13685.3 1820.15   2
  -4   0   0 23588.2 1921.08   6
  -4   0   0 25131.9 2098.50  10
   4   0   0 25370.1 2347.43   2
  -4   0  -1 45863.1 2867.77  20
  -4   0  -1 50298.2 2758.78   6
  -4   0  -1 50129.8 2897.65  10
  -4   0  -1 53394.8 2872.18  17
   4   0   1 47808.0 3243.72   2
  -4   0  -2 186616. 6256.12  20
  -4   0  -2 175165. 5488.14  10
  -4   0  -2 181259. 5352.26   6
  -4   0  -2 187709. 5606.92  17
   4   0   2 180910. 6202.44   2
  -4   0  -3 45368.8 3490.47  20
  -4   0  -3 43013.2 2810.28  10
  -4   0  -3 43225.0 2818.08   6
  -4   0  -3 45143.9 3059.50  17
   4   0   3 34639.8 2892.69   2
  -4   0  -4 3209.25 1215.32  20
  -4   0  -4 3497.67 1195.09  10
  -4   0  -4 1120.98 1024.18  17
  -4   0  -4 1620.61 936.300   6
  -4   0  -4 3852.78 1165.60  16
   4   0   4 5145.04 1372.96   2
   4   0   5 81304.6 4739.85   2
  -4   0  -5 86903.6 5208.93  20
  -4   0  -5 93325.1 4475.25  10
  -4   0  -5 89200.8 4428.12   6
  -4   0  -5 89176.1 4943.11  17
  -4   0  -5 90177.6 3726.91  16
  -4   0  -6 109541. 5727.27  20
  -4   0  -6 111672. 5231.13   6
  -4   0  -6 124659. 5557.17  17
  -4   0  -6 115242. 4215.17  16
  -4   0  -7 42548.9 3568.58   6
  -4   0  -7 47376.8 3386.32  17
  -4   0  -7 41592.1 2711.23  16
  -4   0  -8 2218.25 1258.59  17
  -4   0  -8 1295.48 1274.65   6
  -4   0  -8 2804.60 1017.40  16
  -4   0  -9 31596.4 2789.98   6
  -4   0  -9 30673.7 2609.99  17
  -4   0  -9 32208.4 2370.39  16
  -4   0 -10 55353.9 3414.75   6
  -4   0 -10 53555.1 3216.66  17
  -4   0 -10 58412.9 3034.95  16
  -4   0 -11 37345.3 2581.71   6
  -4   0 -11 35232.7 2473.44  17
  -4   0 -11 36421.3 2378.77  16
  -4   0 -12 265.724 833.288  10
  -4   0 -12 542.854 712.522  17
  -4   0 -12 376.492 667.875   6
  -4   0 -12 12.9891 833.767  16
  -4   0 -13 4893.95 1042.29  10
  -4   0 -13 5869.83 946.468  17
  -4   0 -13 4865.53 858.497   6
  -4   0 -13 4728.40 1011.30  16
  -4   0 -14 24279.4 1433.28   6
  -4   0 -14 23608.1 1601.57  10
   4   0  14 27154.0 1474.36  18
  -4   0 -14 23984.6 1366.19  17
  -4   1  17 16836.7 958.561   7
  -4   1  16 5881.81 673.001  19
  -4   1  16 6330.38 730.302   8
  -4   1  16 5578.95 744.671   7
  -4   1  15 2641.31 720.629   7
  -4   1  15 3328.10 734.399  19
  -4   1  15 3434.68 716.966   8
  -4   1  14 27747.0 1875.81  19
  -4   1  14 28122.5 1807.44   8
  -4   1  14 31281.5 1917.29   7
  -4   1  13 36791.0 2375.35  19
  -4   1  13 39198.5 2231.22   8
  -4   1  13 40612.7 2329.00   7
  -4   1  12 36064.3 2297.15   8
  -4   1  12 38283.6 2387.15   7
  -4   1  11 13234.3 1527.23   8
  -4   1  11 16268.2 1681.31   7
  -4   1  10 40077.2 2583.08   8
  -4   1  10 41043.8 2677.80   7
  -4   1   9 104453. 4143.57   8
  -4   1   9 105144. 4420.59   7
  -4   1   8 35468.0 2543.99   8
   4   1  -8 32616.8 3575.81   4
  -4   1   8 36396.4 2776.99   7
  -4   1   7 382.427 556.398   7
   4   1  -7-2338.71 1217.15   4
   4   1  -6 55970.9 3951.69   4
   4   1  -5 103611. 5120.64   4
   4   1  -4 76873.6 4268.55   4
   4   1  -3 8812.38 1556.02   4
   4   1  -3 10304.4 1761.07   2
   4   1  -2 28780.0 2706.32   2
   4   1  -2 31226.8 2601.44   4
   4   1  -1 130959. 5567.69   2
   4   1   0 135402. 5656.99   2
  -4   1  -1 42114.9 2769.64  20
   4   1   1 48300.8 2957.26   5
   4   1   1 41067.1 3250.69   2
  -4   1  -2 22317.6 2190.67  20
  -4   1  -2 23177.6 1948.41   6
  -4   1  -2 24716.3 2183.70  17
   4   1   2 26597.0 2309.85   5
   4   1   2 27521.9 2668.85   2
  -4   1  -3 80889.0 4541.25  20
  -4   1  -3 84358.6 3860.22  10
  -4   1  -3 85294.1 3792.34   6
  -4   1  -3 84353.9 4083.01  17
  -4   1  -3 81448.7 3693.17  16
   4   1   3 89719.2 4288.51   5
   4   1   3 83945.2 4646.71   2
  -4   1  -4 95626.2 5443.67  20
  -4   1  -4 103276. 4355.02  10
  -4   1  -4 101069. 4353.03   6
  -4   1  -4 100781. 4792.73  17
  -4   1  -4 106282. 4166.35  16
   4   1   4 95784.4 5098.56   2
   4   1   5 54548.0 4005.69   2
  -4   1  -5 58473.3 4635.33  20
  -4   1  -5 48731.2 3273.56   6
  -4   1  -5 50144.0 3593.18  17
  -4   1  -5 49818.4 3012.38  16
  -4   1  -6-414.531 1088.54  17
  -4   1  -6-600.183 1039.67   6
  -4   1  -6-1746.29 1010.74  16
  -4   1  -7 27926.3 2820.59   6
  -4   1  -7 32173.5 2729.87  17
  -4   1  -7 28098.1 2311.25  16
  -4   1  -8 80940.7 4376.12   6
  -4   1  -8 74925.7 3964.39  17
  -4   1  -8 79018.6 3624.69  16
  -4   1  -9 41152.0 3058.05   6
  -4   1  -9 43376.5 2958.92  17
  -4   1  -9 42898.3 2675.88  16
  -4   1 -10 3831.05 1205.35  17
  -4   1 -10 4914.63 1412.32   6
  -4   1 -10 5140.24 1156.13  16
  -4   1 -11 12232.8 1620.69   6
  -4   1 -11 10569.3 1485.77  17
  -4   1 -11 10786.2 1435.40  16
  -4   1 -12 30026.7 2119.38   6
   4   1  12 31738.2 1966.95  18
  -4   1 -12 32317.3 2151.62  17
  -4   1 -12 35105.4 2080.29  16
  -4   1 -13 20219.2 1560.22   6
  -4   1 -13 18983.2 1615.67  10
   4   1  13 19852.5 1433.78  18
  -4   1 -13 19710.1 1520.65  17
  -4   1 -13 19815.8 1522.94  16
   4   1  14 3018.97 568.014  18
  -4   1 -14 3606.63 691.506  10
  -4   1 -14 3338.07 615.086  17
  -4   1 -14 2004.19 510.074   6
  -4   1 -14 2827.41 612.786  16
  -4   2  16 20606.8 1141.87   7
  -4   2  15 27504.8 1593.04  19
  -4   2  15 23253.1 1218.78   8
  -4   2  15 26192.7 1554.43   7
  -4   2  14 11202.1 1282.11  19
  -4   2  14 12504.2 1069.09   8
  -4   2  14 11634.2 1229.55   7
  -4   2  13 6949.88 1191.59  19
  -4   2  13 8239.49 971.894   8
  -4   2  13 9053.83 1202.43   7
  -4   2  12 24963.4 2183.15  19
  -4   2  12 26053.3 2005.07   7
  -4   2  11 60873.0 3596.68  19
  -4   2  11 59755.4 3138.29   7
  -4   2  10 44830.0 3009.64  19
  -4   2  10 45476.7 2989.90   7
  -4   2   9 2867.74 1146.89   7
  -4   2   9 1018.78 781.044  19
  -4   2   8 55284.1 3308.93   7
  -4   2   7 97889.0 3990.15   7
   4   2  -6 96901.7 5485.82   4
   4   2  -5 8690.07 1735.26   4
   4   2  -4 57191.1 3969.07   4
   4   2  -3 100999. 5305.36   2
   4   2  -3 99286.4 5103.19   4
   4   2  -2 104322. 4367.70   5
   4   2  -2 92892.6 5052.47   2
   4   2  -2 88117.2 4647.80   4
   4   2  -1 25581.1 2259.80   5
   4   2  -1 23729.1 2645.27   2
   4   2  -1 27296.3 2548.65   4
   4   2   0 6867.60 1428.57   4
   4   2   0 7072.46 1384.54   5
  -4   2  -1 122563. 5033.60  20
  -4   2  -1 124064. 4548.69  16
   4   2   1 130354. 5267.55   5
   4   2   1 125557. 5895.62   2
  -4   2  -2 94686.1 4730.08  20
  -4   2  -2 88570.0 3983.47  17
  -4   2  -2 92036.0 4115.44  16
   4   2   2 93799.0 4644.53   5
   4   2   2 88541.2 4985.33   2
  -4   2  -3 37521.0 3177.81  20
  -4   2  -3 36900.8 2535.52   6
  -4   2  -3 37731.0 2822.38  17
  -4   2  -3 33356.6 2796.09  16
   4   2   3 40590.5 3117.50   5
   4   2   3 37874.5 3338.67   2
  -4   2  -4-1236.03 902.640  20
  -4   2  -4 189.904 1099.33  17
  -4   2  -4 3591.89 1041.86   6
  -4   2  -4 961.329 1398.05  16
   4   2   4-2741.33 1167.27   2
   4   2   4 4808.71 1236.32   5
   4   2   5 60450.9 3573.54  18
  -4   2  -5 66160.3 3697.81   6
  -4   2  -5 67064.8 3896.58  17
  -4   2  -5 66488.7 3766.63  16
  -4   2  -6 84020.7 4322.96   6
  -4   2  -6 88175.3 4328.16  17
  -4   2  -6 84186.9 3996.32  16
   4   2   7 40023.4 3191.83  18
  -4   2  -7 34380.6 2872.15   6
  -4   2  -7 36639.7 2797.41  17
  -4   2  -7 32976.6 2618.56  16
   4   2   8 1877.57 1051.15  18
  -4   2  -8 596.983 951.313  17
  -4   2  -8 1204.69 1110.63   6
  -4   2  -8-219.258 992.978  16
   4   2   9 30215.3 2323.84  18
  -4   2  -9 29554.4 2547.54   6
  -4   2  -9 30054.6 2425.39  17
  -4   2  -9 27846.6 2196.18  16
   4   2  10 58742.6 2968.07  18
  -4   2 -10 54681.0 3079.53   6
  -4   2 -10 54790.4 2999.69  17
  -4   2 -10 57179.3 2889.14  16
   4   2  11 26018.5 1875.63  18
  -4   2 -11 23904.4 1993.27   6
  -4   2 -11 25076.6 1981.47  17
  -4   2 -11 24777.2 1898.45  16
   4   2  12 5252.26 903.233  18
  -4   2 -12 4446.10 912.927  17
  -4   2 -12 5769.56 1031.47   6
  -4   2 -12 4398.75 936.714  16
   4   2  13 9385.90 979.384  18
  -4   2 -13 8635.06 1053.71   6
  -4   2 -13 7149.05 957.623  10
  -4   2 -13 8783.61 1004.20  17
  -4   2 -13 10326.1 1088.76  16
  -4   2 -14 16442.2 1088.65   6
   4   2  14 15109.1 986.768  18
  -4   2 -14 15274.2 1002.65  16
  -4   3  15 915.823 393.611   7
  -4   3  15 1471.78 461.335  19
  -4   3  14 13731.3 1231.78  19
  -4   3  14 14813.8 1179.65   7
  -4   3  13 47898.1 2509.27  19
  -4   3  13 47451.3 2288.35   7
  -4   3  12 18367.8 1845.57  19
  -4   3  12 19225.5 1675.33   7
  -4   3  11 2147.69 857.453   7
  -4   3  11 3844.04 1091.70  19
   4   3 -11 2839.09 801.916  15
  -4   3  10 25339.0 2338.86  19
   4   3 -10 26372.2 2228.78  15
  -4   3  10 24727.8 2314.97   7
  -4   3   9 54313.4 3208.66  19
   4   3  -9 55799.8 3031.01  15
  -4   3   9 54754.5 3463.50   7
  -4   3   8 53202.6 3106.02  19
  -4   3   8 51866.3 3129.57   7
  -4   3   7 331.852 646.942   7
  -4   3   7 298.109 715.963  19
  -4   3   6 18866.7 1807.46  19
  -4   3   5 111166. 4128.22  19
   4   3  -3 11427.5 2066.86   4
   4   3  -3 12141.5 2118.06   2
   4   3  -3 9657.19 1427.57   5
   4   3  -2 26366.6 2494.19   5
   4   3  -2 26112.6 2922.69   2
   4   3  -2 31136.1 2934.23   4
  -4   3   1 129582. 4247.79  16
   4   3  -1 122314. 5297.21   5
   4   3  -1 124590. 6161.33   2
   4   3  -1 119876. 5833.62   4
  -4   3   0 120697. 4158.22  16
   4   3   0 125067. 5459.90   5
   4   3   0 117194. 6001.87   2
   4   3   0 105241. 5383.67   4
  -4   3  -1 17209.9 1815.86  16
   4   3   1 14729.0 2273.76   2
   4   3   1 15856.1 2039.90   5
  -4   3  -2 258.787 993.650  16
  -4   3  -3 101523. 4438.18  17
  -4   3  -3 101467. 4325.37  16
  -4   3  -4 138286. 5443.81  17
  -4   3  -4 115151. 4866.39  16
   4   3   5 33573.9 2647.72  18
  -4   3  -5 32131.6 2590.45   6
  -4   3  -5 31558.9 2692.84  17
  -4   3  -5 27140.7 2748.87  16
   4   3   6 587.737 1038.70  18
  -4   3  -6 1505.51 1048.96  17
  -4   3  -6 1022.77 950.041   6
  -4   3  -6 1592.52 1356.99  16
   4   3   7 40445.4 3524.04  18
  -4   3  -7 43400.4 3025.81   6
  -4   3  -7 41482.3 2850.04  17
  -4   3  -7 42596.4 2930.28  16
   4   3   8 63458.1 3735.75  18
  -4   3  -8 60723.6 3362.31   6
  -4   3  -8 58208.6 3190.01  17
  -4   3  -8 64128.0 3319.82  16
   4   3   9 24268.9 2154.80  18
  -4   3  -9 23962.5 2145.97   6
  -4   3  -9 26932.0 2171.43  17
  -4   3  -9 26414.0 2072.84  16
   4   3  10 995.536 676.128  18
  -4   3 -10 392.597 729.168  17
  -4   3 -10 159.474 736.112   6
  -4   3 -10 409.269 804.170  16
   4   3  11 9064.92 1143.88  18
  -4   3 -11 10330.8 1225.63   6
  -4   3 -11 9329.43 1211.22  17
  -4   3 -11 9038.05 1134.29  16
   4   3  12 23644.6 1470.51  18
  -4   3 -12 22876.8 1524.50   6
  -4   3 -12 23265.3 1535.09  17
  -4   3 -12 25774.1 1527.38  16
   4   3  13 17687.8 1058.40  18
  -4   3 -13 18368.9 1170.46   6
  -4   3 -13 19301.1 1190.80  17
  -4   3 -13 18668.7 1108.21  16
  -4   4  14 6829.05 684.649   7
  -4   4  13 2412.45 569.862   7
  -4   4  13 2156.78 602.198  19
   4   4 -13 1321.06 514.480  15
  -4   4  12 20058.9 1677.35  19
   4   4 -12 18421.5 1391.63  15
  -4   4  12 21566.4 1528.19   7
  -4   4  11 36758.6 2493.71  19
   4   4 -11 33283.1 2199.13  15
  -4   4  10 27190.5 2315.35  19
   4   4 -10 26795.3 2184.86  15
  -4   4  10 24119.5 2131.50   7
  -4   4   9 3.34216 692.168   7
  -4   4   9 378.490 816.105  19
   4   4  -9 533.252 803.429  15
  -4   4   8 31140.7 2434.43  19
  -4   4   8 33456.9 2412.59   7
  -4   4   7 90998.9 3947.72  19
   4   4  -7 93362.8 3201.91  13
  -4   4   7 93198.9 3678.14   7
  -4   4   6 42328.8 2706.02  19
   4   4  -6 36223.9 2081.62  13
  -4   4   6 37735.4 2260.38   7
  -4   4   5 2535.43 1003.00  19
   4   4  -5 1457.03 768.537  13
  -4   4   4 9362.07 1405.53  19
   4   4  -4 8379.46 1284.75  13
  -4   4   3 73824.5 3345.93  19
  -4   4   3 74369.1 3214.99  16
  -4   4   2 66896.0 3136.85  19
  -4   4   2 66739.3 3111.23  16
  -4   4   1 20207.4 1796.22  19
  -4   4   1 19472.6 1846.74  16
  -4   4   0 10334.0 1486.29  16
  -4   4  -1 57618.9 3032.91  16
  -4   4  -2 66511.3 3378.39  16
  -4   4  -3 17396.6 1954.35  17
  -4   4  -3 23492.2 2184.35  16
  -4   4  -4 7539.67 1394.72  17
  -4   4  -4 7507.86 1608.47  16
   4   4   5 23799.0 2053.20  18
  -4   4  -5 25725.9 2284.29  17
  -4   4  -5 22801.2 2449.61  16
   4   4   6 47519.8 3110.58  18
  -4   4  -6 53284.3 3023.81  17
  -4   4  -6 48959.3 3320.32  16
   4   4   7 18431.3 2257.50  18
  -4   4  -7 19741.4 1857.57   6
  -4   4  -7 21929.5 1927.37  17
  -4   4  -7 21373.3 2113.42  16
   4   4   8 1326.80 963.329  18
  -4   4  -8 1892.62 853.265  17
  -4   4  -8 770.781 673.970   6
  -4   4  -8 2041.66 1079.54  16
   4   4   9 16478.2 1600.59  18
  -4   4  -9 16904.0 1523.18   6
  -4   4  -9 16676.9 1540.70  17
  -4   4  -9 17904.4 1571.55  16
   4   4  10 34023.9 1857.22  18
  -4   4 -10 30771.8 1774.49   6
  -4   4 -10 30997.9 1866.01  17
  -4   4 -10 33794.3 1865.28  16
   4   4  11 20908.0 1280.23  18
  -4   4 -11 17201.6 1180.25   6
  -4   4 -11 20300.4 1328.82  17
  -4   4 -11 21211.5 1335.26  16
  -4   5  12 6649.52 720.961  19
  -4   5  11 725.285 420.786   7
  -4   5  11-260.964 495.532  19
   4   5 -11-534.425 471.919  15
  -4   5  10 18221.2 1661.64  19
   4   5 -10 18052.2 1608.28  15
  -4   5  10 21689.8 1588.09   7
  -4   5   9 32805.4 2261.63  19
   4   5  -9 31885.6 2256.89  15
  -4   5   9 31022.0 2094.69   7
  -4   5   8 20869.6 1898.23  19
   4   5  -8 20833.7 1877.91  15
   4   5  -8 18632.1 1404.82  13
  -4   5   8 19769.1 1685.57   7
  -4   5   7 2412.21 720.561   7
  -4   5   7 2819.43 893.518  19
   4   5  -7 3074.02 699.970  13
  -4   5   6 18207.4 1749.98  19
   4   5  -6 18163.6 1504.68  13
  -4   5   5 55672.7 2888.30  19
   4   5  -5 54843.6 2555.43  13
  -4   5   4 52622.2 2794.39  19
  -4   5   4 55441.9 2681.76  16
   4   5  -4 52812.8 2646.76  13
  -4   5   3 4127.49 946.847  19
  -4   5   3 3574.12 1006.34  16
   4   5  -3 1300.17 800.543  13
  -4   5   2 21591.2 1807.68  19
  -4   5   2 25686.7 1930.60  16
   4   5  -2 26377.7 2014.01  13
  -4   5   1 34952.0 2223.45  19
  -4   5   1 39213.3 2379.76  16
  -4   5   0 50093.9 2600.44  19
  -4   5   0 54409.8 2788.49  16
  -4   5  -1 14241.1 1460.94  19
  -4   5  -1 13771.9 1577.29  16
  -4   5  -2 3011.10 799.079  19
  -4   5  -2 5064.35 1172.19  16
  -4   5  -3 29402.7 1920.39  19
  -4   5  -3 30508.7 2307.03  16
  -4   5  -4 44269.9 2558.00  17
  -4   5  -4 52658.3 3001.71  16
   4   5   5 28657.9 1914.08  18
  -4   5  -5 26874.8 1930.61  17
  -4   5  -5 25322.7 2285.93  16
   4   5   6-743.230 656.956  18
  -4   5  -6 828.758 676.038  17
  -4   5  -6 1635.31 1051.05  16
   4   5   7 25351.6 2042.75  18
  -4   5  -7 23043.8 1610.19  17
  -4   5  -7 24219.6 1871.07  16
   4   5   8 23456.7 1635.26  18
  -4   5  -8 21411.4 1442.76  17
  -4   5  -8 22305.8 1557.79  16
   4   5   9 17497.5 1137.38  18
  -4   5  -9 14257.7 1095.99  17
  -4   5  -9 16156.7 1170.55  16
   4   6  -9 837.701 435.802  15
  -4   6   8 10531.7 1165.01  19
   4   6  -8 11615.2 1285.99  15
  -4   6   7 37469.4 2035.23  19
   4   6  -7 39608.3 2190.50  15
   4   6  -7 39798.1 1815.64  13
  -4   6   6 21967.2 1611.79  19
   4   6  -6 24074.3 1788.84  15
   4   6  -6 22107.5 1432.68  13
  -4   6   5 4271.04 860.573  19
   4   6  -5 4596.68 832.394  13
  -4   6   4 7992.29 1056.61  19
  -4   6   4 8020.09 1020.89  16
   4   6  -4 9934.06 1109.77  13
  -4   6   3 34390.2 1993.19  19
  -4   6   3 32710.0 1901.84  16
   4   6  -3 35741.5 1940.87  13
  -4   6   2 39695.7 2121.12  19
  -4   6   2 42010.6 2183.78  16
   4   6  -2 46380.5 2241.58  13
  -4   6   1 8801.43 1066.94  19
  -4   6   1 9538.92 1184.99  16
   4   6  -1 8718.89 1068.65  13
  -4   6   0 4693.62 830.311  19
  -4   6   0 3316.82 901.122  16
   4   6   0 3729.56 879.049  13
  -4   6  -1 33226.7 1833.92  19
  -4   6  -1 34579.8 2118.71  16
   4   6   1 36677.1 2098.97  13
  -4   6  -2 41938.8 2340.99  16
   4   6   2 45688.4 2378.59  13
  -4   6  -3 8116.54 972.906  19
  -4   6  -3 8121.41 1259.99  16
   4   6   3 8930.77 1298.90  13
  -4   6  -4 2365.83 1017.23  16
   4   6   4 1803.27 968.231  13
  -4   6  -5 17151.8 1484.65  16
   4   6   5 14895.9 1404.37  13
  -4   6  -6 28966.4 1572.90  16
   4   6   6 25845.3 1361.84  13
  -4   6  -7 13888.9 959.298  16
  -5  -5   8 3318.11 702.809  10
  -5  -5   8 3417.81 595.211   8
  -5  -5   7 3689.64 790.209  10
  -5  -5   7 2987.07 735.067   8
  -5  -5   6 15851.1 1434.83  10
  -5  -5   6 15214.9 1342.69   8
  -5  -5   5 32943.8 1813.40   6
  -5  -5   5 28851.3 1884.30  10
  -5  -5   5 28114.1 1765.38   8
  -5  -5   4 15972.0 1356.36   6
  -5  -5   4 16937.5 1518.07  10
  -5  -5   4 13529.1 1346.56   8
  -5  -5   3 257.718 646.549  10
  -5  -5   3 105.437 616.784   6
  -5  -5   3-151.353 653.689   8
  -5  -5   2 28303.9 1873.51   6
  -5  -5   2 25595.1 1899.90  10
  -5  -5   2 23694.6 1717.99   8
  -5  -5   1 47107.6 2393.98   6
  -5  -5   1 43252.0 2375.48  10
  -5  -5   1 38851.9 2178.32   8
  -5  -5   0 16211.1 1521.24   6
  -5  -5   0 13373.5 1423.49  10
  -5  -5   0 13740.7 1401.97   8
  -5  -5  -1-433.174 603.131  10
  -5  -5  -1 300.387 646.749   6
  -5  -5  -1 372.553 657.026   8
  -5  -5  -2 14622.9 1573.31   6
  -5  -5  -2 13348.0 1475.60  10
  -5  -5  -2 13800.5 1394.37  17
  -5  -5  -2 12846.2 1347.82   8
  -5  -5  -3 26627.6 2114.73   6
  -5  -5  -3 21403.2 1804.87  10
  -5  -5  -3 23317.3 1808.01  17
  -5  -5  -3 20628.5 1643.93   8
  -5  -5  -4 20956.9 1514.62   6
  -5  -5  -4 16020.6 1360.47  10
  -5  -5  -4 19886.5 1650.83  17
  -5  -5  -4 14517.2 1373.09   8
  -5  -5  -5 1774.89 578.512  17
  -5  -5  -5 1207.60 529.529   8
  -5  -4  11 13665.9 992.006   8
  -5  -4  10 1874.34 617.700  10
  -5  -4  10 2141.83 682.233   8
  -5  -4   9 4077.19 1037.61  10
  -5  -4   9 2802.05 934.158   8
  -5  -4   8 32505.9 2232.46  10
  -5  -4   8 27034.8 1989.87   8
  -5  -4   7 25553.1 1685.91   6
  -5  -4   7 26342.9 2053.71  10
  -5  -4   7 25558.3 1987.57   8
  -5  -4   6 13207.5 1330.94   6
  -5  -4   6 13598.1 1599.41  10
  -5  -4   6 13079.5 1486.68   8
  -5  -4   5 4791.22 1143.50  10
  -5  -4   5 5143.37 970.595   6
  -5  -4   5 5238.61 1117.43   8
  -5  -4   4 39198.5 2328.69   6
  -5  -4   4 35777.5 2448.97  10
  -5  -4   4 36351.1 2375.50   8
  -5  -4   3 36519.4 2333.37   6
  -5  -4   3 38954.7 2600.62  10
  -5  -4   3 36166.5 2390.67   8
  -5  -4   2 16650.9 1659.31   6
  -5  -4   2 16852.6 1860.77  10
  -5  -4   2 18504.3 1550.15  17
  -5  -4   2 17351.2 1763.42   8
  -5  -4   1 821.960 845.511  10
  -5  -4   1 256.709 713.172   6
  -5  -4   1-1131.42 693.040  17
  -5  -4   1-474.246 795.994   8
  -5  -4   0 21077.6 1995.78   6
  -5  -4   0 21347.3 2035.35  10
  -5  -4   0 21142.0 1815.17  17
  -5  -4   0 19022.5 1848.19   8
  -5  -4  -1 55023.7 3074.21   6
  -5  -4  -1 51054.1 3029.33  10
  -5  -4  -1 53547.5 2855.40  17
  -5  -4  -1 52058.3 2903.29   8
  -5  -4  -2 33243.0 2485.74   6
  -5  -4  -2 32293.1 2487.32  10
  -5  -4  -2 30056.1 2293.68  17
  -5  -4  -2 29339.0 2234.23   8
  -5  -4  -3-204.099 808.849  10
  -5  -4  -3 327.824 916.587   6
  -5  -4  -3 566.149 856.690  17
  -5  -4  -3 417.172 804.544   8
  -5  -4  -4 12265.8 1761.00   6
  -5  -4  -4 11647.6 1655.45  10
  -5  -4  -4 12089.5 1708.23  17
  -5  -4  -4 10300.0 1461.97   8
  -5  -4  -5 40870.3 2717.82   6
  -5  -4  -5 33049.8 2555.16  10
  -5  -4  -5 38844.8 2707.54  17
  -5  -4  -5 31749.4 2225.86   8
  -5  -4  -6 19606.5 1669.20   6
  -5  -4  -6 20239.2 1851.95  10
  -5  -4  -6 23333.8 1837.63  17
  -5  -4  -6 16906.0 1526.35   8
  -5  -4  -7 958.504 530.250   6
  -5  -4  -7 1205.51 582.574  17
  -5  -4  -7 1058.72 586.811   8
  -5  -4  -8 714.884 431.996  17
  -5  -3  12 2034.14 524.501   8
  -5  -3  11 11320.6 1124.39  10
  -5  -3  11 10510.1 1216.10   8
  -5  -3  11 9069.21 825.063   7
  -5  -3  10 35083.0 2262.87  10
  -5  -3  10 32596.8 2240.16   8
  -5  -3   9 32474.1 2257.54  10
  -5  -3   9 30129.0 2321.08   8
  -5  -3   8 5469.22 1131.95  10
  -5  -3   8 4943.56 1319.41   8
  -5  -3   7 9205.68 1403.14  10
  -5  -3   7 8323.23 1424.54   8
  -5  -3   6 40532.4 2286.89   6
  -5  -3   6 42284.1 2697.42  10
  -5  -3   6 39796.6 2668.10   8
  -5  -3   5 44781.2 2490.63   6
  -5  -3   5 43031.7 2830.76  10
  -5  -3   5 42024.4 2708.10   8
  -5  -3   4 11466.1 1411.84   6
  -5  -3   4 11249.6 1607.70  10
  -5  -3   4 9449.97 1445.16   8
  -5  -3   3 3310.27 1215.69  10
  -5  -3   3 2471.16 889.358   6
  -5  -3   3 4188.10 1126.65   8
  -5  -3   2 23510.2 2075.10   6
  -5  -3   2 24374.5 2283.27  10
  -5  -3   2 22568.7 1834.23  17
  -5  -3   2 21545.9 2053.43   8
  -5  -3   1 60088.1 3236.20   6
  -5  -3   1 58383.4 3398.17  10
  -5  -3   1 56861.8 2911.85  17
  -5  -3   1 56573.4 3172.99   8
  -5  -3   0 22076.2 2106.98   6
  -5  -3   0 24305.7 2324.25  10
  -5  -3   0 21175.9 1935.00  17
  -5  -3   0 21016.9 2095.21   8
  -5  -3  -1-121.613 1045.06  10
  -5  -3  -1 1201.55 1074.30   6
  -5  -3  -1 1726.44 909.192  17
  -5  -3  -1 472.270 820.106   8
  -5  -3  -2 23634.9 2276.06   6
  -5  -3  -2 22085.3 2258.54  10
  -5  -3  -2 23275.1 2171.20  17
  -5  -3  -2 20409.1 2051.14   8
  -5  -3  -3 43089.7 3007.47   6
  -5  -3  -3 44069.5 3092.50  10
  -5  -3  -3 44534.0 3013.84  17
  -5  -3  -3 37632.0 2692.86   8
  -5  -3  -4 32951.8 2733.72   6
  -5  -3  -4 39519.5 2950.11  10
  -5  -3  -4 33147.7 2804.95  17
  -5  -3  -4 31514.9 2450.09   8
  -5  -3  -5 1220.32 1076.65  10
  -5  -3  -5 900.265 1115.43   6
  -5  -3  -5 139.606 1145.89  17
  -5  -3  -5 1214.50 861.700   8
  -5  -3  -6 8098.15 1461.67  10
  -5  -3  -6 12129.0 1782.65  17
  -5  -3  -6 8314.22 1565.31   6
  -5  -3  -6 9331.92 1356.92   8
  -5  -3  -7 30871.4 2218.61   6
  -5  -3  -7 28762.9 2414.53  10
  -5  -3  -7 29071.5 2173.26  17
  -5  -3  -7 25753.8 1813.60   8
  -5  -3  -8 22463.1 1695.88   6
  -5  -3  -8 25816.2 1975.75  10
  -5  -3  -8 21816.2 1691.01  17
  -5  -3  -9 4842.46 834.745  10
  -5  -3  -9 6468.31 839.700   6
  -5  -3  -9 4082.62 740.190  17
  -5  -2  14 2361.65 440.790   8
  -5  -2  13 7598.01 875.323   8
  -5  -2  13 6434.19 648.263   7
  -5  -2  12 31082.7 1832.53   8
  -5  -2  12 31451.5 1538.27   7
  -5  -2  11 18789.5 1737.27   8
  -5  -2  11 20998.8 1414.71   7
  -5  -2  10 2227.01 687.529   7
  -5  -2  10 3071.02 911.296  10
  -5  -2  10 2132.39 1010.62   8
  -5  -2   9 7304.48 1249.04  10
  -5  -2   9 8094.50 1509.52   8
  -5  -2   8 31561.7 2258.93  10
  -5  -2   8 32211.3 2585.86   8
  -5  -2   7 53629.3 3008.76  10
  -5  -2   7 58540.0 3311.83   8
  -5  -2   6 8912.02 1470.26  10
  -5  -2   6 8455.81 1427.83   8
  -5  -2   5 3527.97 1180.27  10
  -5  -2   5 2838.88 1124.24   8
  -5  -2   4 42038.4 2484.89   6
  -5  -2   4 46037.2 2910.45  10
  -5  -2   4 47420.7 2942.52   8
  -5  -2   3 90418.8 3754.81   6
  -5  -2   3 88416.5 4076.03  10
  -5  -2   3 85907.6 3872.14   8
  -5  -2   2 45795.1 2772.87   6
  -5  -2   2 44755.7 3015.31  10
  -5  -2   2 45503.4 2910.48   8
  -5  -2   1 8217.42 1583.56  10
  -5  -2   1 8195.87 1341.09   6
  -5  -2   1 8667.80 1364.61  17
  -5  -2   1 7634.50 1388.55   8
  -5  -2   0 38859.3 2702.20   6
  -5  -2   0 41890.8 2981.92  10
  -5  -2   0 35904.3 2434.83  17
  -5  -2   0 36853.0 2617.66   8
  -5  -2  -1 71187.8 3648.02   6
  -5  -2  -1 71042.4 3826.12  10
  -5  -2  -1 67310.5 3461.92  17
  -5  -2  -1 65245.4 3434.61   8
  -5  -2  -2 47392.1 3123.52   6
  -5  -2  -2 49290.0 3308.93  10
  -5  -2  -2 47791.4 3063.97  17
  -5  -2  -2 46581.6 2898.16   8
  -5  -2  -3 570.050 1066.72  10
  -5  -2  -3 1377.74 1115.85   6
  -5  -2  -3 140.417 925.911  17
  -5  -2  -3-281.722 696.112   8
  -5  -2  -4 16094.9 2041.46   6
  -5  -2  -4 17960.1 2163.97  10
  -5  -2  -4 15121.6 2046.44  17
  -5  -2  -4 13614.4 1748.56   8
  -5  -2  -5 49707.8 3419.72   6
  -5  -2  -5 48214.6 3363.72  10
  -5  -2  -5 48958.3 3582.93  17
  -5  -2  -6 46439.2 3460.51   6
  -5  -2  -6 46909.7 3345.09  10
  -5  -2  -6 46142.6 3371.34  17
  -5  -2  -7 7794.43 1726.26  10
  -5  -2  -7 9674.47 1618.34   6
  -5  -2  -7 7369.17 1392.64  17
  -5  -2  -8 15969.0 1729.57   6
  -5  -2  -8 12443.8 1745.37  10
  -5  -2  -8 11720.0 1463.43  17
  -5  -2  -9 26782.6 1898.51   6
  -5  -2  -9 25848.9 2048.01  10
  -5  -2  -9 27218.9 1875.52  17
  -5  -2 -10 24399.1 1528.24   6
  -5  -2 -10 19992.2 1533.45  10
  -5  -2 -10 20831.5 1421.87  17
  -5  -2 -11 693.456 324.679  10
  -5  -1  14 19211.7 1123.35   8
  -5  -1  14 15655.0 950.898   7
  -5  -1  13 20901.3 1383.15   8
  -5  -1  13 20890.6 1257.61   7
  -5  -1  12-1018.11 486.268   7
  -5  -1  12 367.286 548.517   8
  -5  -1  11 7614.86 1178.36   8
  -5  -1  11 8339.46 1034.08   7
  -5  -1  10 38209.3 2585.80   8
  -5  -1  10 44629.8 2295.73   7
  -5  -1   9 47902.5 3132.52   8
  -5  -1   8 12016.1 1826.67   8
  -5  -1   7 7173.50 1418.72   8
  -5  -1   6 66890.5 3239.29  10
  -5  -1   6 69915.0 3618.04   8
  -5  -1   5 62685.1 3212.77  10
  -5  -1   5 67079.1 3488.86   8
  -5  -1   4 15706.2 1713.30  10
  -5  -1   4 16314.0 1770.00   8
  -5  -1   3 905.803 792.206  10
  -5  -1   3-1932.00 946.896   8
  -5  -1   2 41322.8 2539.36   6
  -5  -1   2 37901.5 2653.69  10
  -5  -1   2 38575.1 2575.82   8
  -5  -1   1 61867.2 3159.62   6
  -5  -1   1 63331.5 3468.53  10
  -5  -1   0 52005.4 3016.74   6
  -5  -1   0 51388.0 3190.52  10
  -5  -1   0 52837.3 2901.96  17
  -5  -1  -1 7656.98 1514.22  10
  -5  -1  -1 7062.30 1253.53   6
  -5  -1  -1 6932.18 1316.22  17
  -5  -1  -2 45251.4 3008.75   6
  -5  -1  -2 46796.1 3112.82  10
  -5  -1  -2 44682.6 2969.77  17
  -5  -1  -3 97142.3 4388.78   6
  -5  -1  -3 97431.4 4505.32  10
  -5  -1  -3 94737.1 4413.74  17
  -5  -1  -4 35940.0 2884.52   6
  -5  -1  -4 37888.9 2955.69  10
  -5  -1  -4 35284.6 2921.03  17
  -5  -1  -5 442.346 1005.41  10
  -5  -1  -5 17.6694 1173.65  17
  -5  -1  -5 118.874 1103.37   6
  -5  -1  -6 17877.6 2218.47   6
  -5  -1  -6 18085.2 2165.95  10
  -5  -1  -6 16775.3 2208.25  17
  -5  -1  -7 41550.7 3091.58   6
  -5  -1  -7 39503.4 3077.77  10
  -5  -1  -7 38997.1 2884.29  17
  -5  -1  -8 29084.8 2371.45   6
  -5  -1  -8 29569.9 2628.97  10
  -5  -1  -8 31278.9 2387.19  17
  -5  -1  -9 9036.64 1309.47   6
  -5  -1  -9 7566.52 1430.07  10
  -5  -1  -9 8135.52 1199.35  17
  -5  -1 -10 2440.47 816.478  10
  -5  -1 -10 2386.56 764.513  17
  -5  -1 -10 1846.08 656.283   6
  -5  -1 -11 22577.4 1393.77   6
  -5  -1 -11 21788.4 1503.70  10
   5  -1  11 23420.7 1169.48  18
  -5  -1 -11 19878.6 1313.49  17
  -5   0  14-234.132 422.868   7
  -5   0  14 458.580 323.490   8
  -5   0  13 17318.2 1196.02   8
  -5   0  13 19094.6 1251.49   7
  -5   0  12 33422.7 1811.72   8
  -5   0  12 33688.3 1780.34   7
  -5   0  11 34668.7 2035.20   8
  -5   0  11 37334.0 2046.18   7
  -5   0  10 1242.31 706.613   7
  -5   0  10 710.332 712.785   8
  -5   0   9 18375.9 1773.20   8
  -5   0   8 38594.6 2602.56   8
  -5   0   7 29865.5 2491.12   8
  -5   0   0 85031.8 3589.28   6
  -5   0   0 79954.9 3696.02  10
  -5   0  -1 70399.6 3392.62   6
  -5   0  -1 68684.4 3522.17  10
  -5   0  -1 73306.9 3471.67  17
  -5   0  -2 14361.7 1717.09   6
  -5   0  -2 14008.8 1734.39  10
  -5   0  -2 14855.5 1733.66  17
  -5   0  -3 10189.0 1618.06  10
  -5   0  -3 9439.23 1651.17  17
  -5   0  -3 8862.73 1516.50   6
  -5   0  -4 12676.2 1771.22   6
  -5   0  -4 12699.9 1703.99  10
  -5   0  -4 12821.5 1902.97  17
  -5   0  -5 55222.0 3455.59   6
  -5   0  -5 56045.3 3451.22  10
  -5   0  -5 51617.2 3519.75  17
  -5   0  -6 51676.4 3427.63   6
  -5   0  -6 53827.0 3468.27  10
  -5   0  -6 57351.5 3583.75  17
  -5   0  -7 5676.17 1424.65  10
  -5   0  -7 6424.13 1423.40  17
  -5   0  -7 6079.01 1440.73   6
  -5   0  -7 6145.35 1117.42  16
  -5   0  -8 4980.50 1289.72  10
  -5   0  -8 5244.26 1218.86  17
  -5   0  -8 6046.12 1329.38   6
  -5   0  -8 6238.56 957.817  16
  -5   0  -9 37438.4 2422.80   6
  -5   0  -9 37293.6 2573.95  10
   5   0   9 36501.5 1877.68  18
  -5   0  -9 35917.4 2283.42  17
  -5   0  -9 31516.1 1805.28  16
  -5   0 -10 19313.2 1629.55   6
  -5   0 -10 16928.3 1616.35  10
   5   0  10 16582.1 1192.86  18
  -5   0 -10 17613.3 1523.75  17
  -5   0 -10 17905.4 1312.49  16
   5   0  11 4066.33 607.354  18
  -5   0 -11 4231.25 784.959  10
  -5   0 -11 3692.07 731.871  17
  -5   0 -11 4340.16 762.561   6
  -5   1  14 18519.9 1021.21   7
  -5   1  13 17784.9 1189.62   7
  -5   1  12 617.996 484.436   7
  -5   1  11 4446.03 831.859   7
  -5   1  10 39848.4 2281.65   7
  -5   1  -2 36801.4 2486.54  17
  -5   1  -3 107950. 4218.74   6
  -5   1  -3 103230. 4387.25  17
  -5   1  -4 45019.6 2883.88   6
  -5   1  -4 38162.2 2827.47  17
  -5   1  -5 6.41236 614.663  10
  -5   1  -5 1645.14 1134.91  17
  -5   1  -5-289.586 1018.24   6
  -5   1  -5 560.893 731.566  16
  -5   1  -6 20648.2 2145.99   6
  -5   1  -6 17258.1 1883.34  10
  -5   1  -6 21620.1 2238.63  17
  -5   1  -6 18377.6 1601.62  16
  -5   1  -7 42512.8 2966.39   6
  -5   1  -7 36792.5 2630.68  10
  -5   1  -7 37610.4 2647.68  17
  -5   1  -7 38172.5 2160.06  16
  -5   1  -8 37262.7 2505.66   6
  -5   1  -8 32626.3 2471.40  10
   5   1   8 37867.9 2114.35  18
  -5   1  -8 33745.8 2345.43  17
  -5   1  -8 36217.7 2045.67  16
  -5   1  -9 10682.8 1343.57   6
   5   1   9 9154.96 1031.39  18
  -5   1  -9 7985.55 1171.41  10
  -5   1  -9 8804.83 1221.73  17
  -5   1  -9 7460.04 1022.91  16
   5   1  10 5611.19 775.948  18
  -5   1 -10 3743.09 750.891  10
  -5   1 -10 4040.58 855.866  17
  -5   1 -10 5806.59 983.429   6
  -5   1 -10 4350.57 778.483  16
  -5   1 -11 24546.1 1466.33   6
  -5   1 -11 25470.4 1478.14  17
  -5   1 -11 26135.8 1314.52  16
  -5   2  13 10392.2 823.448   7
  -5   2  12 37711.5 1751.42   7
  -5   2  11 20788.2 1438.78   7
  -5   2  -3 1175.52 964.006  17
  -5   2  -4 16643.4 1920.61  17
  -5   2  -4 16633.1 1625.23  16
  -5   2  -5 53986.8 2955.34   6
  -5   2  -5 57872.8 3338.81  17
  -5   2  -5 52498.6 2604.20  16
  -5   2  -6 45929.3 2784.74   6
  -5   2  -6 45229.2 2853.60  17
  -5   2  -6 42146.9 2325.61  16
  -5   2  -7 5211.55 1173.22  17
  -5   2  -7 7856.24 1306.68   6
  -5   2  -7 5386.94 1061.39  16
  -5   2  -8 12845.6 1439.16   6
  -5   2  -8 12147.4 1412.28  17
  -5   2  -8 11729.3 1200.07  16
  -5   2  -9 24506.4 1716.93   6
   5   2   9 21934.2 1380.99  18
  -5   2  -9 22551.2 1668.65  17
  -5   2  -9 21902.7 1436.82  16
  -5   2 -10 22002.5 1422.04   6
  -5   2 -10 21067.4 1431.04  17
  -5   2 -10 21958.5 1295.72  16
  -5   2 -11 2950.52 562.393  17
  -5   3  -2 23763.5 1893.76  16
  -5   3  -3 36319.5 2242.61  16
  -5   3  -4 26232.1 2012.05  17
  -5   3  -4 28776.8 1988.16  16
  -5   3  -5 2435.72 889.255  17
  -5   3  -5 1494.54 743.329  16
  -5   3  -6 6678.09 1136.20  17
  -5   3  -6 5937.66 996.050  16
  -5   3  -7 37762.3 2135.03  17
  -5   3  -7 33772.4 1857.62  16
  -5   3  -8 27245.2 1685.41  17
  -5   3  -8 26055.4 1512.10  16
  -5   3  -9 4419.43 697.558  17
  -5   3  -9 3626.61 630.055  16
   5   4  -8 29543.7 1816.40  15
   5   4  -7 36761.2 2019.82  15
   5   4  -3 40073.5 1926.52  13
   5   4  -2 20060.8 1486.69  13
  -5   4  -1 51375.2 2619.71  16
  -5   4  -2 33261.6 2083.19  16
  -5   4  -3 1031.06 720.748  16
  -5   4  -4 15591.1 1381.09  16
  -5   4  -5 41618.0 1986.27  16
  -5   4  -6 20420.3 1337.36  16
  -5   4  -7 913.959 476.780  16
   5   5  -7 4110.73 714.520  15
   5   5  -6 16575.0 1288.78  15
   5   5  -4 17408.3 1071.22  13
   5   5  -3-633.679 412.030  13
   5   5  -2 30263.4 1554.53  13
   5   5  -1 45195.0 1905.27  13
   5   5   0 10919.2 1037.42  13
  -5   5  -1 554.192 492.006  16
   5   5   1-567.442 533.469  13
  -5   5  -2 13443.6 1116.61  16
   5   5   2 12418.2 1166.50  13
  -5   5  -3 18657.3 1220.49  16
   5   5   3 18719.4 1434.88  13
  -5   5  -4 13421.8 1001.42  16
   5   5   4 14771.7 1222.10  13
   5   5   5 2982.30 558.172  13
  -6  -3   6 31396.8 1636.21  10
  -6  -3   6 25802.3 1655.90   8
  -6  -3   5 14920.9 1207.28  10
  -6  -3   5 10280.6 1150.27   8
  -6  -3   4 1506.86 565.075  10
  -6  -3   4 481.760 609.601   8
  -6  -3   3 14129.0 1296.80  10
  -6  -3   3 13481.9 1316.45   8
  -6  -3   2 33858.8 1637.91   6
  -6  -3   2 30664.7 1849.94  10
  -6  -3   2 28182.1 1727.69   8
  -6  -3   1 17282.9 1292.99   6
  -6  -3   1 18763.4 1496.79  10
  -6  -3   1 15033.4 1331.42   8
  -6  -3   0 9843.63 1007.30   6
  -6  -3   0 9192.93 1138.09  10
  -6  -3   0 8230.70 963.164   8
  -6  -3  -1 6930.12 1023.13  10
  -6  -3  -1 7060.85 923.379   6
  -6  -3  -2 30661.8 1761.59   6
  -6  -3  -2 26537.8 1767.00  10
  -6  -3  -3 25658.9 1617.25   6
  -6  -3  -3 23362.2 1649.28  10
  -6  -3  -4 6077.24 898.142  10
  -6  -2   8 18093.4 1208.46   8
  -6  -2   7 8092.87 968.701   8
  -6  -2   6 1911.16 796.992   8
  -6  -2   5 15378.5 1267.49  10
  -6  -2   5 13928.7 1386.46   8
  -6  -2   4 34134.4 1900.42  10
  -6  -2   4 29482.1 1938.67   8
  -6  -2   3 18910.5 1520.73  10
  -6  -2   3 17869.2 1561.53   8
  -6  -2   2 2326.06 763.982  10
  -6  -2   1 7332.66 1061.55  10
  -6  -2   1 6545.97 969.406   6
  -6  -2   0 41240.3 2085.77   6
  -6  -2   0 40102.3 2261.49  10
  -6  -2  -1 18875.6 1488.07   6
  -6  -2  -1 19521.1 1642.77  10
  -6  -2  -2 2973.61 824.939  10
  -6  -2  -2 1638.05 699.526   6
  -6  -2  -2 945.262 463.546  17
  -6  -2  -3 4529.81 953.636  10
  -6  -2  -3 4469.93 892.021   6
  -6  -2  -3 2274.72 612.140  17
  -6  -2  -4 17531.8 1510.57   6
  -6  -2  -4 14900.7 1432.78  10
  -6  -2  -4 15131.7 1296.44  17
  -6  -2  -5 26699.1 1688.40   6
  -6  -2  -5 24767.4 1723.53  10
  -6  -2  -5 28502.1 1596.25  17
  -6  -1   1 33610.4 2009.20  10
  -6  -1   0 873.016 572.268  10
  -6  -1  -1 4627.36 954.652  10
  -6  -1  -1 4056.67 833.141   6
  -6  -1  -2 28971.2 1876.93   6
  -6  -1  -2 25799.2 1846.99  10
  -6  -1  -3 32419.3 1988.44   6
  -6  -1  -3 32185.5 2031.03  10
  -6  -1  -3 32805.8 1866.25  17
  -6  -1  -4 7537.38 1082.15  10
  -6  -1  -4 7961.44 1159.76   6
  -6  -1  -4 8062.29 1063.84  17
  -6  -1  -5 391.740 502.926  10
  -6  -1  -5 1191.78 552.711  17
  -6  -1  -6 24172.9 1547.49   6
  -6  -1  -6 20342.0 1413.88  10
  -6  -1  -6 23861.8 1466.19  17
  -6   0  -3 11253.2 1173.72   6
  -6   0  -4 34330.4 1984.96   6
  -6   0  -4 31172.9 1807.43  17
  -6   0  -5 20581.9 1519.47   6
  -6   0  -5 20648.4 1495.74  17
  -6   0  -6 9983.05 1008.39   6
  -6   0  -6 8329.86 966.918  17
   0   0   0    0.00    0.00   0

TITL PN050916o_10442_A3_D2_eph_I in P2(1)
REM P2(1) (#4 in standard setting)
CELL 1.54184   5.405420   6.948982  16.070062  90.0000  95.8642  90.0000
ZERR    2.00   0.000179   0.000182   0.000426   0.0000   0.0026   0.0000
LATT -1
SYMM -x, y+1/2,-z
SFAC C H N O I
UNIT 20.00 40.00 2.00 2.00 2.00
TREF
HKLF 4
END
;
_shelx_hkl_checksum              19683
loop_
_space_group_symop_operation_xyz
'x, y, z'
'-x, y+1/2, -z'
loop_
_atom_site_label
_atom_site_type_symbol
_atom_site_fract_x
_atom_site_fract_y
_atom_site_fract_z
_atom_site_U_iso_or_equiv
_atom_site_adp_type
_atom_site_occupancy
_atom_site_site_symmetry_order
_atom_site_calc_flag
_atom_site_refinement_flags_posn
_atom_site_refinement_flags_adp
C1 C 0.6870(14) 1.1846(9) 0.7363(4) 0.0257(14) Uani 1 1 d . .
H1 H 0.6032 1.0924 0.6948 0.031 Uiso 1 1 calc R U
C2 C 0.5505(16) 1.3767(10) 0.7279(4) 0.0294(15) Uani 1 1 d . .
H2 H 0.3717 1.3551 0.7361 0.035 Uiso 1 1 calc R U
C3 C 0.657(2) 1.5292(11) 0.7900(5) 0.045(2) Uani 1 1 d . .
H3A H 0.6205 1.4941 0.8465 0.067 Uiso 1 1 calc R U
H3B H 0.5822 1.6543 0.7748 0.067 Uiso 1 1 calc R U
H3C H 0.8378 1.5370 0.7885 0.067 Uiso 1 1 calc R U
C4 C 0.4752(17) 1.3307(11) 0.5702(4) 0.044(2) Uani 1 1 d . .
H4C H 0.4660 1.4038 0.5178 0.066 Uiso 1 1 calc R U
H4B H 0.3098 1.2814 0.5786 0.066 Uiso 1 1 calc R U
H4A H 0.5906 1.2226 0.5673 0.066 Uiso 1 1 calc R U
C5 C 0.6804(15) 1.1010(10) 0.8235(4) 0.0280(15) Uani 1 1 d . .
C6 C 0.4752(14) 0.9971(9) 0.8412(4) 0.0317(14) Uani 1 1 d . .
H6 H 0.3412 0.9794 0.7988 0.038 Uiso 1 1 calc R U
C7 C 0.4608(16) 0.9181(10) 0.9197(5) 0.0401(17) Uani 1 1 d . .
H7 H 0.3175 0.8478 0.9313 0.048 Uiso 1 1 calc R U
C8 C 0.6578(17) 0.9425(12) 0.9811(5) 0.045(2) Uani 1 1 d . .
H8 H 0.6516 0.8857 1.0346 0.054 Uiso 1 1 calc R U
C9 C 0.8612(16) 1.0481(12) 0.9649(4) 0.0423(18) Uani 1 1 d . .
H9 H 0.9938 1.0670 1.0077 0.051 Uiso 1 1 calc R U
C10 C 0.8742(14) 1.1280(11) 0.8858(4) 0.0349(16) Uani 1 1 d . .
H10 H 1.0158 1.2009 0.8747 0.042 Uiso 1 1 calc R U
N1 N 0.5656(11) 1.4589(8) 0.6415(3) 0.0303(12) Uani 1 1 d . .
H1A H 0.4757 1.5698 0.6370 0.036 Uiso 1 1 calc R U
H1B H 0.7269 1.4901 0.6364 0.036 Uiso 1 1 calc R U
O1 O 0.9333(9) 1.2201(7) 0.7150(3) 0.0320(10) Uani 1 1 d . .
H1C H 0.9953 1.1169 0.6994 0.048 Uiso 1 1 calc R U
I1 I 1.07602(6) 0.79247(7) 0.61731(2) 0.03336(12) Uani 1 1 d . .
loop_
_atom_site_aniso_label
_atom_site_aniso_U_11
_atom_site_aniso_U_22
_atom_site_aniso_U_33
_atom_site_aniso_U_23
_atom_site_aniso_U_13
_atom_site_aniso_U_12
C1 0.025(4) 0.024(3) 0.028(3) -0.003(2) 0.004(3) 0.002(3)
C2 0.031(4) 0.030(3) 0.028(3) -0.001(2) 0.007(3) 0.003(3)
C3 0.067(6) 0.027(4) 0.040(4) -0.006(3) 0.009(4) 0.003(4)
C4 0.057(5) 0.042(6) 0.031(3) 0.000(3) 0.000(3) -0.001(3)
C5 0.030(4) 0.026(3) 0.029(3) -0.003(3) 0.010(3) 0.008(3)
C6 0.032(4) 0.028(3) 0.036(3) 0.002(3) 0.005(3) 0.002(3)
C7 0.042(5) 0.035(4) 0.046(4) 0.010(3) 0.016(3) 0.006(3)
C8 0.062(6) 0.045(4) 0.030(3) 0.008(3) 0.012(3) 0.023(4)
C9 0.039(5) 0.054(5) 0.032(3) -0.004(3) 0.000(3) 0.009(4)
C10 0.033(4) 0.039(4) 0.033(3) -0.002(3) 0.000(3) 0.002(3)
N1 0.028(3) 0.028(3) 0.036(3) 0.003(2) 0.006(2) 0.006(2)
O1 0.024(3) 0.033(2) 0.040(2) -0.0006(18) 0.0103(19) 0.0048(18)
I1 0.0299(2) 0.03183(18) 0.03832(18) -0.0028(3) 0.00350(12) 0.0027(3)
loop_
_atom_type_symbol
_atom_type_description
_atom_type_scat_dispersion_real
_atom_type_scat_dispersion_imag
_atom_type_scat_source
C C 0.0181 0.0091 'International Tables Vol C Tables 4.2.6.8 and 6.1.1.4'
H H 0.0000 0.0000 'International Tables Vol C Tables 4.2.6.8 and 6.1.1.4'
N N 0.0311 0.0180 'International Tables Vol C Tables 4.2.6.8 and 6.1.1.4'
O O 0.0492 0.0322 'International Tables Vol C Tables 4.2.6.8 and 6.1.1.4'
I I -0.3257 6.8362 'International Tables Vol C Tables 4.2.6.8 and 6.1.1.4'
loop_
_geom_angle_atom_site_label_1
_geom_angle_atom_site_label_2
_geom_angle_atom_site_label_3
_geom_angle
O1 C1 C5 113.4(6)
O1 C1 C2 106.4(5)
C5 C1 C2 111.1(6)
O1 C1 H1 108.6
C5 C1 H1 108.6
C2 C1 H1 108.6
N1 C2 C1 110.0(6)
N1 C2 C3 106.6(6)
C1 C2 C3 113.7(6)
N1 C2 H2 108.8
C1 C2 H2 108.8
C3 C2 H2 108.8
C2 C3 H3A 109.5
C2 C3 H3B 109.5
H3A C3 H3B 109.5
C2 C3 H3C 109.5
H3A C3 H3C 109.5
H3B C3 H3C 109.5
N1 C4 H4C 109.5
N1 C4 H4B 109.5
H4C C4 H4B 109.5
N1 C4 H4A 109.5
H4C C4 H4A 109.5
H4B C4 H4A 109.5
C6 C5 C10 119.2(7)
C6 C5 C1 119.0(7)
C10 C5 C1 121.8(7)
C5 C6 C7 121.1(7)
C5 C6 H6 119.4
C7 C6 H6 119.4
C6 C7 C8 119.3(8)
C6 C7 H7 120.4
C8 C7 H7 120.4
C9 C8 C7 120.3(7)
C9 C8 H8 119.8
C7 C8 H8 119.8
C8 C9 C10 120.1(7)
C8 C9 H9 119.9
C10 C9 H9 119.9
C5 C10 C9 120.0(7)
C5 C10 H10 120.0
C9 C10 H10 120.0
C4 N1 C2 115.8(6)
C4 N1 H1A 108.3
C2 N1 H1A 108.3
C4 N1 H1B 108.3
C2 N1 H1B 108.3
H1A N1 H1B 107.4
C1 O1 H1C 109.5
loop_
_geom_bond_atom_site_label_1
_geom_bond_atom_site_label_2
_geom_bond_distance
C1 O1 1.430(9)
C1 C5 1.521(9)
C1 C2 1.524(8)
C1 H1 1.0000
C2 N1 1.511(9)
C2 C3 1.528(11)
C2 H2 1.0000
C3 H3A 0.9800
C3 H3B 0.9800
C3 H3C 0.9800
C4 N1 1.494(9)
C4 H4C 0.9800
C4 H4B 0.9800
C4 H4A 0.9800
C5 C6 1.377(11)
C5 C10 1.386(10)
C6 C7 1.385(10)
C6 H6 0.9500
C7 C8 1.387(12)
C7 H7 0.9500
C8 C9 1.368(13)
C8 H8 0.9500
C9 C10 1.396(10)
C9 H9 0.9500
C10 H10 0.9500
N1 H1A 0.9100
N1 H1B 0.9100
O1 H1C 0.8400
loop_
_geom_torsion_atom_site_label_1
_geom_torsion_atom_site_label_2
_geom_torsion_atom_site_label_3
_geom_torsion_atom_site_label_4
_geom_torsion
O1 C1 C2 N1 54.7(7)
C5 C1 C2 N1 178.5(7)
O1 C1 C2 C3 -64.7(8)
C5 C1 C2 C3 59.1(8)
O1 C1 C5 C6 -156.6(6)
C2 C1 C5 C6 83.6(7)
O1 C1 C5 C10 24.0(9)
C2 C1 C5 C10 -95.7(8)
C10 C5 C6 C7 -0.7(11)
C1 C5 C6 C7 180.0(6)
C5 C6 C7 C8 -0.7(11)
C6 C7 C8 C9 1.8(11)
C7 C8 C9 C10 -1.6(12)
C6 C5 C10 C9 0.9(11)
C1 C5 C10 C9 -179.7(7)
C8 C9 C10 C5 0.2(11)
C1 C2 N1 C4 55.0(8)
C3 C2 N1 C4 178.7(7)
