#------------------------------------------------------------------------------
#$Date: 2019-11-17 08:12:14 +0200 (Sun, 17 Nov 2019) $
#$Revision: 228818 $
#$URL: file:///home/coder/svn-repositories/cod/cif/1/54/90/1549061.cif $
#------------------------------------------------------------------------------
#
# This file is available in the Crystallography Open Database (COD),
# http://www.crystallography.net/
#
# All data on this site have been placed in the public domain by the
# contributors.
#
data_1549061
loop_
_publ_author_name
'Nievergelt, Philipp P.'
'Babor, Martin'
'\<Cejka, Jan'
'Spingler, Bernhard'
_publ_section_title
;
 A high throughput screening method for the nano-crystallization of salts
 of organic cations.
;
_journal_issue                   15
_journal_name_full               'Chemical science'
_journal_page_first              3716
_journal_page_last               3722
_journal_paper_doi               10.1039/c8sc00783g
_journal_volume                  9
_journal_year                    2018
_chemical_absolute_configuration rmad
_chemical_formula_sum            'C10 H16 Br N O'
_chemical_formula_weight         246.15
_space_group_crystal_system      monoclinic
_space_group_IT_number           4
_space_group_name_Hall           'P 2yb'
_space_group_name_H-M_alt        'P 1 21 1'
_symmetry_space_group_name_Hall  'P 2yb'
_symmetry_space_group_name_H-M   'P 1 21 1'
_atom_sites_solution_hydrogens   geom
_audit_creation_method           SHELXL-2014/7
_audit_update_record
;
2018-02-09 deposited with the CCDC.
2018-03-06 downloaded from the CCDC.
;
_cell_angle_alpha                90
_cell_angle_beta                 101.176(3)
_cell_angle_gamma                90
_cell_formula_units_Z            2
_cell_length_a                   7.4467(2)
_cell_length_b                   6.20961(16)
_cell_length_c                   12.5863(4)
_cell_measurement_reflns_used    5008
_cell_measurement_temperature    160(2)
_cell_measurement_theta_max      31.387
_cell_measurement_theta_min      3.296
_cell_volume                     570.97(3)
_computing_cell_refinement       'CrysAlis PRO (Rigaku, 2015)'
_computing_data_collection       'CrysAlis PRO (Rigaku, 2015)'
_computing_data_reduction        'CrysAlis PRO (Rigaku, 2015)'
_computing_molecular_graphics    'ORTEP-3 (Farrugia, 1997)'
_computing_publication_material  'SHELXL-2014/7 (Sheldrick, 2014)'
_computing_structure_refinement  'SHELXL-2014/7 (Sheldrick, 2014)'
_computing_structure_solution    'SIR-97 (Altomare, 1999)'
_diffrn_ambient_temperature      160(2)
_diffrn_detector_area_resol_mean 10.3801
_diffrn_measured_fraction_theta_full 0.998
_diffrn_measured_fraction_theta_max 0.923
_diffrn_measurement_device_type  'Agilent SuperNova dual radiation CCD'
_diffrn_measurement_method       '\w scans'
_diffrn_radiation_monochromator  mirror
_diffrn_radiation_source         'SuperNova (Mo) X-ray Source'
_diffrn_radiation_type           MoK\a
_diffrn_radiation_wavelength     0.71073
_diffrn_reflns_av_R_equivalents  0.0227
_diffrn_reflns_av_unetI/netI     0.0336
_diffrn_reflns_Laue_measured_fraction_full 0.998
_diffrn_reflns_Laue_measured_fraction_max 0.923
_diffrn_reflns_limit_h_max       11
_diffrn_reflns_limit_h_min       -11
_diffrn_reflns_limit_k_max       9
_diffrn_reflns_limit_k_min       -9
_diffrn_reflns_limit_l_max       18
_diffrn_reflns_limit_l_min       -18
_diffrn_reflns_number            9436
_diffrn_reflns_point_group_measured_fraction_full 0.999
_diffrn_reflns_point_group_measured_fraction_max 0.890
_diffrn_reflns_theta_full        25.242
_diffrn_reflns_theta_max         32.888
_diffrn_reflns_theta_min         2.952
_exptl_absorpt_coefficient_mu    3.565
_exptl_absorpt_correction_T_max  1.000
_exptl_absorpt_correction_T_min  0.543
_exptl_absorpt_correction_type   gaussian
_exptl_absorpt_process_details
;
CrysAlisPro 1.171.38.46 (Rigaku Oxford Diffraction, 2015)
Numerical absorption correction based on gaussian integration over
a multifaceted crystal model
Empirical absorption correction using spherical harmonics,
 implemented in SCALE3 ABSPACK scaling algorithm.
;
_exptl_crystal_colour            colourless
_exptl_crystal_density_diffrn    1.432
_exptl_crystal_description       needle
_exptl_crystal_F_000             252
_exptl_crystal_size_max          0.410
_exptl_crystal_size_mid          0.070
_exptl_crystal_size_min          0.050
_refine_diff_density_max         0.387
_refine_diff_density_min         -0.280
_refine_diff_density_rms         0.074
_refine_ls_abs_structure_details
;
 Flack x determined using 1363 quotients [(I+)-(I-)]/[(I+)+(I-)]
 (Parsons, Flack and Wagner, Acta Cryst. B69 (2013) 249-259).
;
_refine_ls_abs_structure_Flack   -0.009(5)
_refine_ls_extinction_method     none
_refine_ls_goodness_of_fit_ref   1.045
_refine_ls_hydrogen_treatment    constr
_refine_ls_matrix_type           full
_refine_ls_number_parameters     121
_refine_ls_number_reflns         3804
_refine_ls_number_restraints     1
_refine_ls_restrained_S_all      1.045
_refine_ls_R_factor_all          0.0380
_refine_ls_R_factor_gt           0.0303
_refine_ls_shift/su_max          0.000
_refine_ls_shift/su_mean         0.000
_refine_ls_structure_factor_coef Fsqd
_refine_ls_weighting_details
'w=1/[\s^2^(Fo^2^)+(0.0403P)^2^+0.0346P] where P=(Fo^2^+2Fc^2^)/3'
_refine_ls_weighting_scheme      calc
_refine_ls_wR_factor_gt          0.0716
_refine_ls_wR_factor_ref         0.0749
_reflns_Friedel_coverage         0.787
_reflns_Friedel_fraction_full    1.000
_reflns_Friedel_fraction_max     0.852
_reflns_number_gt                3388
_reflns_number_total             3804
_reflns_threshold_expression     'I > 2\s(I)'
_cod_data_source_file            c8sc00783g2.cif
_cod_data_source_block           MB7_100_A3_180202_EphBr_Mo
_cod_depositor_comments
'Adding full bibliography for 1549042--1549063.cif.'
_cod_original_cell_volume        570.96(3)
_cod_database_code               1549061
_shelx_shelxl_version_number     2014/7
_shelx_space_group_comment
;
The symmetry employed for this shelxl refinement is uniquely defined
by the following loop, which should always be used as a source of
symmetry information in preference to the above space-group names.
They are only intended as comments.
;
_shelx_estimated_absorpt_t_min   0.323
_shelx_estimated_absorpt_t_max   0.842
_shelx_res_file
;

    C:\data\BSp\MB7_100_A3_180202_EphBr\num_abs\MB7_100_A3_180202_EphBr_Mo.res created by SHELXL-2014/7

TITL MB7_100_A3_180202_EPHBR_MO IN P2(1)
CELL  0.71073  7.44666  6.20961 12.58631 90.00000 101.17600 90.00000
ZERR 2  0.00020  0.00016  0.00042  0.00000  0.00300  0.00000
LATT -1
SYMM -X, Y+ 0.50000, -Z
SFAC C H N O BR
UNIT 20 32 2 2 2
TEMP -113
SIZE 0.05 0.07 0.41
PLAN 30
FMAP 2
L.S. 4
BOND $H
CONF
HTAB
ACTA
EQIV $1 X, Y+1, Z
EQIV $2 -X+1, Y+1/2, -Z
HTAB N1 BR1_$2
HTAB N1 BR1_$1
HTAB O1 BR1
REM COLOURLESS NEEDLE
REM P2(1) (#4 IN STANDARD SETTING)
REM P2(1) (#4 IN STANDARD SETTING)
REM OLD TITL MB7_100_A3_180202_EPHBR IN P2(1)
REM SHELXT SOLUTION IN P2(1)
REM R1 0.083,  RWEAK 0.026,  ALPHA 0.141,  ORIENTATION AS INPUT
REM FLACK X    0.272 ( 0.027 ) FROM PARSONS' QUOTIENTS
REM FORMULA FOUND BY SHELXT:  C8 N4 BR
WGHT    0.040300    0.034600
FVAR       7.04466
C1    1    0.637570    0.567994    0.236407    11.00000    0.02050    0.02972 =
         0.02502   -0.00061    0.00701   -0.00522
AFIX  13
H1    2    0.516314    0.642708    0.223063    11.00000   -1.20000
AFIX   0
C2    1    0.778816    0.716235    0.199135    11.00000    0.02168    0.02400 =
         0.02193   -0.00253    0.00478   -0.00379
AFIX  13
H2    2    0.804851    0.839736    0.250819    11.00000   -1.20000
AFIX   0
C3    1    0.958246    0.603078    0.194470    11.00000    0.02063    0.03090 =
         0.03265    0.00197    0.00685   -0.00427
AFIX 137
H3A   2    0.936910    0.491614    0.138310    11.00000   -1.50000
H3B   2    1.006838    0.536545    0.264769    11.00000   -1.50000
H3C   2    1.046613    0.708158    0.177324    11.00000   -1.50000
AFIX   0
C4    1    0.794445    0.982741    0.049524    11.00000    0.03320    0.03019 =
         0.03395    0.00615    0.01061   -0.00433
AFIX 137
H4A   2    0.917700    0.934517    0.044205    11.00000   -1.50000
H4B   2    0.803278    1.103909    0.100162    11.00000   -1.50000
H4C   2    0.728741    1.028555   -0.022021    11.00000   -1.50000
AFIX   0
C5    1    0.692249    0.519803    0.355849    11.00000    0.01989    0.02580 =
         0.02708    0.00131    0.00936   -0.00492
C6    1    0.784785    0.332099    0.395094    11.00000    0.03332    0.02867 =
         0.03048    0.00211    0.01009    0.00262
AFIX  43
H6    2    0.814836    0.229028    0.345559    11.00000   -1.20000
AFIX   0
C7    1    0.832722    0.294611    0.503783    11.00000    0.03503    0.03926 =
         0.03938    0.01194    0.01079    0.00578
AFIX  43
H7    2    0.894020    0.164893    0.529127    11.00000   -1.20000
AFIX   0
C8    1    0.792322    0.445510    0.577959    11.00000    0.03141    0.06081 =
         0.02952    0.01005    0.01069   -0.00169
AFIX  43
H8    2    0.827968    0.419653    0.653505    11.00000   -1.20000
AFIX   0
C9    1    0.701266    0.630721    0.541578    11.00000    0.03810    0.05042 =
         0.03448   -0.00860    0.02075    0.00080
AFIX  43
H9    2    0.672710    0.733165    0.591856    11.00000   -1.20000
AFIX   0
C10   1    0.650108    0.669236    0.430000    11.00000    0.03089    0.03273 =
         0.03317    0.00035    0.01339    0.00721
AFIX  43
H10   2    0.586486    0.797660    0.404845    11.00000   -1.20000
AFIX   0
N1    3    0.693775    0.802650    0.089293    11.00000    0.02150    0.02753 =
         0.02357   -0.00060    0.00502   -0.00227
AFIX  23
H1A   2    0.684048    0.692892    0.040604    11.00000   -1.20000
H1B   2    0.578384    0.848276    0.091386    11.00000   -1.20000
AFIX   0
O1    4    0.625144    0.384764    0.168137    11.00000    0.04006    0.03597 =
         0.03139   -0.00760    0.01181   -0.02136
AFIX 147
H1C   2    0.536796    0.307694    0.177466    11.00000   -1.50000
AFIX   0
BR1   5    0.311366    0.024482    0.132529    11.00000    0.02423    0.03410 =
         0.03116    0.00244    0.00657   -0.00652
HKLF 4

REM  MB7_100_A3_180202_EPHBR_MO IN P2(1)
REM R1 =  0.0303 for    3388 Fo > 4sig(Fo)  and  0.0380 for all    3804 data
REM    121 parameters refined using      1 restraints

END

WGHT      0.0403      0.0346

REM Instructions for potential hydrogen bonds
HTAB C1 Br1_$1
EQIV $3 x+1, y+1, z
HTAB C3 Br1_$3
HTAB C4 Br1_$3
HTAB C4 O1_$1
HTAB N1 Br1_$2
HTAB N1 Br1_$1
HTAB O1 Br1

REM Highest difference peak  0.387,  deepest hole -0.280,  1-sigma level  0.074
Q1    1   0.2380  0.0453  0.1773  11.00000  0.05    0.39
Q2    1   0.7153  0.5811  0.3658  11.00000  0.05    0.37
Q3    1   0.5882  0.4385  0.1617  11.00000  0.05    0.36
Q4    1   0.3948 -0.0022  0.1001  11.00000  0.05    0.36
Q5    1   0.7210  0.4324  0.3739  11.00000  0.05    0.36
Q6    1   0.2624  0.1501  0.1396  11.00000  0.05    0.34
Q7    1   0.6633  0.5456  0.2977  11.00000  0.05    0.33
Q8    1   0.6968  0.4249  0.2250  11.00000  0.05    0.33
Q9    1   0.3516 -0.0858  0.1044  11.00000  0.05    0.33
Q10   1   0.2409 -0.0948  0.1402  11.00000  0.05    0.32
Q11   1   0.6314  0.5892  0.3886  11.00000  0.05    0.31
Q12   1   0.8733  0.3482  0.5201  11.00000  0.05    0.30
Q13   1   0.8079  0.2450  0.5193  11.00000  0.05    0.30
Q14   1   0.6993  0.7237  0.0800  11.00000  0.05    0.30
Q15   1   0.6909  0.6941  0.5369  11.00000  0.05    0.29
Q16   1   0.7525  0.5718  0.5485  11.00000  0.05    0.29
Q17   1   0.7243  0.8914  0.0670  11.00000  0.05    0.29
Q18   1   0.3865  0.0666  0.1833  11.00000  0.05    0.29
Q19   1   0.6617  0.4764  0.3849  11.00000  0.05    0.28
Q20   1   0.7649  0.3728  0.5241  11.00000  0.05    0.28
Q21   1   0.7714  0.6858  0.5386  11.00000  0.05    0.28
Q22   1   0.7536  0.7721  0.1366  11.00000  0.05    0.28
Q23   1   0.7146  0.6490  0.2116  11.00000  0.05    0.27
Q24   1   0.2592  0.0979  0.0646  11.00000  0.05    0.27
Q25   1   0.3769 -0.0253  0.1865  11.00000  0.05    0.27
Q26   1   0.6416  0.3394  0.2031  11.00000  0.05    0.27
Q27   1   0.8273  0.3199  0.4452  11.00000  0.05    0.27
Q28   1   0.2976  0.0251  0.0476  11.00000  0.05    0.26
Q29   1   0.9523  0.5384  0.2212  11.00000  0.05    0.26
Q30   1   0.6392  0.8178  0.0625  11.00000  0.05    0.26
;
_shelx_res_checksum              97383
_shelx_hkl_file
;
   0  -8   0 3690.50 507.633   3
   0  -8   1 1900.43 452.402   3
   0  -8  -1 1554.90 423.551   3
   0  -8   2 233.624 372.043   3
   0  -8  -2-420.801 377.831   3
   0  -8   3 3831.84 559.693   3
   0  -8  -3 2412.49 450.069   3
   0  -8   4 5026.76 633.292   3
   0  -8  -4 5770.04 585.916   3
   0  -8  -5 3038.50 465.384   3
   0  -8   5 2520.58 515.255   3
   0  -8  -6 1929.04 399.409   3
   0  -8   6 1040.05 469.525   3
   0  -8  -7 3545.86 492.086   3
   0  -8   7 2097.23 546.113   3
   0  -7   0 185.465 292.379   3
   0  -7   1 5466.97 553.247   3
   0  -7  -1 4355.21 507.157   3
   0  -7   2 11862.7 794.380   3
   0  -7  -2 12309.7 780.255   3
   0  -7   3-21.0540 319.129   3
   0  -7  -3-266.406 343.446   3
   0  -7   4 513.391 351.559   3
   0  -7  -4 363.667 290.141   3
   0  -7   4 819.213 209.098   1
   0  -7  -5 6034.32 538.566   3
   0  -7   5 5347.78 429.522   1
   0  -7   5 5390.05 612.681   3
   0  -7   6 3389.21 540.385   3
   0  -7   6 4177.06 421.207   1
   0  -7  -6 4361.26 477.475   3
   0  -7  -7 1584.97 361.754   3
   0  -7   7 1289.26 405.395   3
   0  -7   7 1129.21 284.630   1
   0  -7   8 1303.93 439.078   3
   0  -7   8 574.392 267.777   1
   0  -7   9 3296.11 471.584   1
   0  -7   9 4188.16 657.113   3
   0  -7  10 2704.36 563.642   3
   0  -7  10 2627.98 456.447   1
   0  -6   0 23821.7 529.300   1
   0  -6   0 22175.6 900.303   3
   0  -6   1 8025.68 359.971   1
   0  -6  -1 7778.20 283.882   1
   0  -6  -1 6912.94 379.237   2
   0  -6   1 8458.23 598.383   3
   0  -6  -1 8966.44 595.719   3
   0  -6  -2 6654.29 527.387   3
   0  -6  -2 5653.12 207.047   1
   0  -6   2 4710.92 478.009   3
   0  -6   2 6062.73 347.107   1
   0  -6   3 6999.10 404.326   1
   0  -6  -3 6780.60 515.593   3
   0  -6  -3 6685.16 325.455   2
   0  -6   3 8053.82 605.213   3
   0  -6   4 23475.7 1044.50   3
   0  -6   4 21459.5 772.084   1
   0  -6  -4 22790.5 643.352   2
   0  -6  -4 23372.5 926.324   3
   0  -6  -5 3385.80 263.004   2
   0  -6  -5 2730.84 366.443   3
   0  -6   5 3113.60 338.583   1
   0  -6   5 2602.71 420.348   3
   0  -6  -6 2401.94 247.944   2
   0  -6   6 2063.02 308.297   1
   0  -6   6 2336.79 414.220   3
   0  -6  -6 2984.37 374.457   3
   0  -6   7 8503.36 711.793   3
   0  -6  -7 9474.88 583.874   3
   0  -6  -7 8946.04 472.102   2
   0  -6   8 8109.79 715.474   3
   0  -6  -8 7884.08 478.125   2
   0  -6   9 797.759 393.462   3
   0  -6  -9 708.111 237.138   2
   0  -6  10 2098.54 512.021   3
   0  -6 -10 2339.18 328.566   2
   0  -6 -11 3423.34 405.576   2
   0  -6  11 3805.37 602.492   3
   0  -6  12 2682.70 535.835   3
   0  -6  13 744.033 475.966   3
   0  -5   0 14.7213 195.003   3
   0  -5   0 88.5279 82.0096   1
   0  -5   0-76.6600 115.601   2
   0  -5  -1 18211.6 448.875   1
   0  -5   1 17986.4 531.921   1
   0  -5   1 17638.0 769.323   3
   0  -5  -1 18019.3 745.550   3
   0  -5   1 17703.3 602.053   2
   0  -5  -1 17940.9 596.224   2
   0  -5   2 63236.0 1256.78   1
   0  -5  -2 65786.4 1541.45   3
   0  -5   2 62787.0 1321.45   2
   0  -5   2 68833.5 1635.72   3
   0  -5  -2 66925.0 1035.02   1
   0  -5   2 67540.1 1404.12   5
   0  -5   3 8281.16 452.047   5
   0  -5   3 10177.8 606.286   3
   0  -5   3 8668.72 431.968   1
   0  -5  -3 8882.77 273.633   1
   0  -5  -3 9215.12 536.220   3
   0  -5   4-27.0912 223.743   3
   0  -5   4 54.2243 138.477   1
   0  -5  -4 69.8870 187.367   3
   0  -5  -4 68.8803 96.9170   2
   0  -5  -5 16600.2 541.581   2
   0  -5  -5 17171.7 706.174   3
   0  -5   5 17583.6 835.715   3
   0  -5  -6 25339.8 881.331   3
   0  -5  -6 25988.8 740.058   2
   0  -5   6 27706.3 1085.04   3
   0  -5  -7 3783.35 305.274   2
   0  -5   7 3563.53 463.732   3
   0  -5  -8 2989.53 295.865   2
   0  -5   8 2294.10 405.114   3
   0  -5  -9 8386.11 501.211   2
   0  -5   9 9582.47 719.480   3
   0  -5 -10 7135.26 507.690   2
   0  -5  10 7351.00 673.473   3
   0  -5  11 134.746 343.421   3
   0  -5 -11 25.9515 219.663   2
   0  -5 -12 2902.70 417.601   2
   0  -5  12 2333.29 465.740   3
   0  -5  13 2209.28 493.261   3
   0  -5 -13 2553.94 403.036   2
   0  -5  14 1308.82 438.811   3
   0  -5 -14 1230.04 348.427   2
   0  -5 -15 811.270 380.386   2
   0  -4   0 59205.1 1147.87   2
   0  -4   0 60695.6 1363.78   3
   0  -4   0 60545.4 1025.28   1
   0  -4   1 34263.2 804.865   2
   0  -4   1 33641.9 970.330   3
   0  -4   1 33709.9 733.030   1
   0  -4  -1 34539.7 642.532   1
   0  -4  -1 33567.4 942.473   3
   0  -4  -2 924.331 185.051   4
   0  -4  -2 1112.45 220.936   3
   0  -4   2 1038.81 145.386   2
   0  -4   2 967.442 147.446   1
   0  -4  -2 1111.99 97.7494   1
   0  -4   2 1436.66 242.858   3
   0  -4   2 1064.58 152.539   5
   0  -4   3 12625.9 491.032   2
   0  -4  -3 12796.4 333.179   1
   0  -4  -3 12013.2 526.470   3
   0  -4   3 12120.6 505.020   5
   0  -4   3 12412.6 596.871   3
   0  -4   4 46223.1 1112.79   5
   0  -4  -4 45052.9 901.373   2
   0  -4  -4 45895.2 1092.45   3
   0  -4   4 45679.6 1230.70   3
   0  -4   5 25344.6 911.581   3
   0  -4  -5 26170.6 672.948   2
   0  -4  -5 25345.5 789.960   3
   0  -4  -6 1895.06 198.810   2
   0  -4   6 1663.09 280.342   3
   0  -4  -6 2125.77 266.952   3
   0  -4   7 9229.57 579.629   3
   0  -4  -7 8222.12 410.520   2
   0  -4  -8 40948.2 1057.66   2
   0  -4   8 41033.9 1284.76   3
   0  -4  -8 37313.1 1025.69   4
   0  -4   9 1697.63 341.992   3
   0  -4  -9 2302.07 290.096   2
   0  -4  10 2184.51 419.201   3
   0  -4 -10 2617.93 339.948   2
   0  -4 -11 14765.5 747.461   2
   0  -4  11 12774.0 806.437   3
   0  -4 -12 6338.36 537.506   2
   0  -4  12 7626.84 670.415   3
   0  -4  13 1788.72 433.293   3
   0  -4 -13 1717.23 355.308   2
   0  -4  14 3520.54 558.352   3
   0  -4 -14 4006.30 512.473   2
   0  -4 -15 3074.51 502.571   2
   0  -4  15 3116.32 544.173   3
   0  -4  16 732.814 381.179   3
   0  -4 -16 1452.01 426.570   2
   0  -3   0-95.3356 107.126   4
   0  -3   0-12.9638 120.454   3
   0  -3   0 92.7744 73.8850   2
   0  -3   0 3.52881 56.1335   1
   0  -3  -1 72918.5 1071.29   1
   0  -3   1 72802.9 1183.01   1
   0  -3   1 72482.4 1406.13   3
   0  -3  -1 73291.1 1477.57   4
   0  -3   1 73821.7 1248.20   2
   0  -3  -1 71357.2 1370.84   3
   0  -3   1 74863.0 1261.78   5
   0  -3   2 118406. 2036.62   3
   0  -3  -2 121084. 1633.31   1
   0  -3  -2 123063. 2086.55   4
   0  -3   2 123905. 1888.07   2
   0  -3  -2 120743. 1967.32   3
   0  -3   2 118529. 1877.56   5
   0  -3   3 39610.7 910.574   5
   0  -3  -3 40641.6 701.937   1
   0  -3  -3 40340.3 919.104   3
   0  -3  -3 43343.5 1012.04   4
   0  -3   3 41716.8 903.677   2
   0  -3  -3 41174.6 761.954   2
   0  -3   3 39480.2 986.837   3
   0  -3  -4 28295.6 636.648   2
   0  -3   4 27851.4 823.720   3
   0  -3  -4 28247.5 778.983   4
   0  -3   4 28318.5 769.864   5
   0  -3  -4 27502.9 728.366   3
   0  -3   4 28732.2 754.370   2
   0  -3  -5 48298.0 1017.65   3
   0  -3  -5 48672.3 967.992   2
   0  -3   5 49681.4 1123.12   5
   0  -3  -5 47641.6 1070.85   4
   0  -3   5 45945.4 1161.10   3
   0  -3   6 34903.8 995.533   3
   0  -3  -6 35337.5 846.329   2
   0  -3  -6 35414.7 874.685   4
   0  -3  -7 2886.91 239.237   4
   0  -3   7 2983.83 325.278   3
   0  -3  -7 2864.26 260.985   2
   0  -3   8 26896.9 924.874   3
   0  -3  -8 26601.6 732.089   4
   0  -3  -8 25354.0 807.395   2
   0  -3  -9 11043.5 443.189   4
   0  -3   9 9718.14 603.955   3
   0  -3  -9 10848.4 554.088   2
   0  -3  10 22959.0 953.808   3
   0  -3 -10 24051.4 889.422   2
   0  -3 -10 22937.0 647.126   4
   0  -3  11 1697.61 360.224   3
   0  -3 -11 1459.15 307.027   2
   0  -3 -12 4942.14 486.483   2
   0  -3  12 4929.65 520.899   3
   0  -3 -13 10083.1 701.994   2
   0  -3  13 10878.0 765.858   3
   0  -3 -14 8928.52 713.933   2
   0  -3  14 8663.18 711.578   3
   0  -3 -15 1069.28 382.219   2
   0  -3  15 586.541 363.544   3
   0  -3  16 2422.13 486.117   3
   0  -3 -16 2551.97 508.141   2
   0  -3  17 2427.07 502.818   3
   0  -3 -17 2214.26 494.079   2
   0  -2   0 132611. 1741.73   1
   0  -2   0 131920. 1950.58   3
   0  -2   0 128229. 2038.34   4
   0  -2   1 97245.7 1438.68   5
   0  -2   1 95193.2 1545.13   3
   0  -2  -1 96778.9 1523.93   3
   0  -2  -1 99428.4 1602.87   4
   0  -2  -1 98359.0 1301.98   1
   0  -2   1 97889.9 1445.24   2
   0  -2   2 13520.9 391.888   2
   0  -2  -2 12648.7 283.172   1
   0  -2   2 13257.3 391.022   5
   0  -2  -2 13403.7 429.502   4
   0  -2  -2 13339.5 399.808   3
   0  -2   2 12483.6 420.600   3
   0  -2   3 27211.5 758.077   4
   0  -2  -3 26831.6 548.123   2
   0  -2   3 25134.4 660.647   3
   0  -2   3 27694.8 639.452   5
   0  -2  -3 27050.4 635.795   4
   0  -2   3 26454.1 634.627   2
   0  -2  -3 26438.2 606.992   3
   0  -2   4 103921. 1727.50   3
   0  -2  -4 104749. 1631.42   4
   0  -2   4 108488. 1715.94   5
   0  -2  -4 103400. 1586.61   2
   0  -2   4 106537. 1719.08   2
   0  -2   4 101378. 1839.29   4
   0  -2  -5 13288.9 436.190   2
   0  -2   5 12999.2 496.793   3
   0  -2   5 13101.3 484.070   2
   0  -2  -5 13827.6 419.010   4
   0  -2   5 13075.8 483.201   5
   0  -2   5 13642.7 547.029   4
   0  -2  -6 6086.07 326.146   2
   0  -2  -6 6039.63 269.955   4
   0  -2   6 6010.09 352.407   3
   0  -2   6 6232.77 378.991   4
   0  -2   6 6337.11 358.330   5
   0  -2  -7 57757.1 1214.07   2
   0  -2  -7 56552.9 1036.29   4
   0  -2   7 54020.5 1268.73   4
   0  -2  -8 45201.5 901.151   4
   0  -2  -8 42595.6 1093.90   2
   0  -2  -9 14262.2 458.037   4
   0  -2  -9 13740.3 628.364   2
   0  -2 -10 27440.2 965.822   2
   0  -2 -10 28358.4 692.383   4
   0  -2 -11 26602.2 1005.10   2
   0  -2 -11 27116.0 676.091   4
   0  -2 -11 25743.1 631.892   4
   0  -2 -12 19281.6 902.714   2
   0  -2 -12 17730.4 507.640   4
   0  -2 -13 1224.80 347.374   2
   0  -2 -14 4235.37 539.396   2
   0  -2 -15 5590.83 619.442   2
   0  -2  16 3447.06 493.067   3
   0  -2 -16 3044.70 565.872   2
   0  -2  17 1434.81 405.438   3
   0  -2 -17 1498.87 460.324   2
   0  -1   0 36.7447 47.9487   3
   0  -1   0 43.9791 25.0618   1
   0  -1   0 57.5360 33.9511   5
   0  -1   1 26486.5 496.466   3
   0  -1   1 26621.3 480.151   2
   0  -1  -1 26316.5 396.316   1
   0  -1  -1 26357.3 501.545   4
   0  -1  -1 27257.0 485.672   3
   0  -1   1 26338.9 466.374   5
   0  -1   2 177628. 2347.95   2
   0  -1  -2 176814. 2260.97   2
   0  -1  -2 176765. 2284.42   4
   0  -1   2 176270. 2434.58   4
   0  -1   2 174610. 2331.78   3
   0  -1   2 174624. 2329.81   5
   0  -1  -2 176408. 2286.57   3
   0  -1   3 189686. 2676.13   4
   0  -1   3 190532. 2605.70   5
   0  -1  -3 192284. 2544.76   2
   0  -1   3 195207. 2634.48   2
   0  -1  -3 194328. 2662.62   6
   0  -1  -3 194379. 2484.09   4
   0  -1  -4 6117.29 294.304   6
   0  -1   4 6119.53 281.202   2
   0  -1  -4 6176.59 262.480   2
   0  -1   4 6238.99 275.467   5
   0  -1   4 6088.68 283.816   4
   0  -1   5 37485.2 836.116   5
   0  -1  -5 36806.8 803.528   2
   0  -1  -5 37742.1 896.625   6
   0  -1   6 148524. 2317.13   5
   0  -1  -6 145541. 2283.29   2
   0  -1  -7 13574.1 608.543   6
   0  -1  -7 11963.8 506.042   2
   0  -1  -8 14818.1 614.193   2
   0  -1  -9 39146.4 832.863   4
   0  -1  -9 38554.0 1104.26   2
   0  -1 -10 34489.5 1091.63   2
   0  -1 -10 33628.0 791.395   4
   0  -1 -11 2090.47 200.772   4
   0  -1 -11 1677.15 324.457   2
   0  -1 -12 9742.03 425.644   4
   0  -1 -12 9242.83 644.597   2
   0  -1 -13 16725.9 898.136   2
   0  -1 -13 15938.4 560.696   4
   0  -1 -14 9185.07 726.516   2
   0  -1 -15 576.966 347.424   2
   0  -1 -16 3054.07 523.986   2
   0  -1 -17 4043.13 616.506   2
   0   0   2 2107.71 109.901   5
   0   0  -2 1825.94 104.425   2
   0   0  -3 356560. 4559.22   2
   0   0   3 362954. 4537.42   5
   0   0  -4 179491. 2387.17   4
   0   0   4 177184. 2491.40   5
   0   0  -4 180661. 2527.73   2
   0   0  -5 270.052 74.6682   4
   0   0   5 361.404 104.243   5
   0   0  -5 278.318 103.654   2
   0   0  -6 1828.49 204.056   2
   0   0  -6 2105.03 166.407   4
   0   0   6 1881.04 185.904   5
   0   0  -7 24886.5 776.070   2
   0   0  -7 25845.8 649.922   4
   0   0   7 25507.3 733.355   5
   0   0  -8 22752.0 788.720   2
   0   0  -8 23316.2 648.278   4
   0   0  -9 3091.54 247.256   4
   0   0  -9 4015.24 361.853   2
   0   0 -10 6348.08 368.752   4
   0   0 -10 6288.49 488.160   2
   0   0 -11 21296.4 914.720   2
   0   0 -11 20707.0 711.929   4
   0   0 -12 9204.65 481.326   4
   0   0 -12 8788.31 632.441   2
   0   0 -13 1854.52 249.540   4
   0   0 -13 1904.88 376.079   2
   0   0 -14 4546.64 375.118   4
   0   0 -14 4975.94 571.503   2
   0   0 -15 5475.57 655.506   2
   0   0 -16 2945.13 571.386   2
   0   0 -17 385.760 415.652   2
   0   1   0 102.805 35.5545   5
   0   1   0 60.7407 55.7295   4
   0   1   1 15570.0 349.231   4
   0   1  -1 15186.9 309.112   5
   0   1  -1 15261.0 398.122   4
   0   1  -1 16051.2 333.865   2
   0   1   1 15052.9 264.205   1
   0   1   2 162267. 2147.39   3
   0   1   2 162580. 2077.88   1
   0   1   2 161626. 2209.48   6
   0   1  -2 163427. 2199.08   2
   0   1  -2 163112. 2275.76   4
   0   1  -2 159643. 2141.81   5
   0   1   2 163734. 2106.87   4
   0   1   3 190740. 2470.53   1
   0   1   3 188207. 2482.98   3
   0   1  -3 186078. 2527.49   5
   0   1  -3 182067. 2595.06   2
   0   1   3 186247. 2565.50   6
   0   1  -3 191013. 2645.37   4
   0   1   3 190054. 2481.97   2
   0   1   4 6926.38 294.640   6
   0   1  -4 7081.08 322.992   4
   0   1   4 6766.63 260.783   2
   0   1  -4 6838.56 317.617   2
   0   1  -4 6375.16 282.135   5
   0   1  -5 51256.2 1088.68   2
   0   1   5 51207.4 978.731   2
   0   1  -5 52744.2 1075.15   4
   0   1  -5 53581.2 1038.90   5
   0   1   6 150900. 2264.51   2
   0   1   6 147576. 2284.23   5
   0   1  -6 146961. 2413.59   2
   0   1  -6 148163. 2351.77   4
   0   1  -7 11800.7 540.294   2
   0   1  -7 11916.2 499.124   4
   0   1   7 11867.1 480.802   5
   0   1   7 11740.2 464.979   2
   0   1  -8 17673.7 644.648   4
   0   1  -8 17145.8 707.660   2
   0   1  -9 43618.8 1128.69   4
   0   1  -9 46150.3 1275.51   2
   0   1 -10 29601.7 934.541   4
   0   1 -10 31580.4 1092.31   2
   0   1 -11 2267.71 291.033   4
   0   1 -11 2400.51 358.707   2
   0   1 -12 11353.3 617.076   4
   0   1 -12 10686.2 718.152   2
   0   1 -13 14425.9 712.313   4
   0   1 -13 15230.8 907.394   2
   0   1 -14 8516.84 728.748   2
   0   1 -14 9263.55 592.712   4
   0   1 -15 535.769 417.556   2
   0   1 -16 3322.47 583.334   2
   0   1 -17 2924.95 571.505   2
   0   2   0 130848. 2039.36   4
   0   2   0 131094. 1806.75   5
   0   2  -1 90751.6 1330.14   5
   0   2   1 88759.7 1226.10   1
   0   2  -1 92362.2 1591.16   4
   0   2   1 89512.8 1499.48   4
   0   2   1 92515.0 1458.82   3
   0   2  -2 12836.2 400.832   2
   0   2   2 13471.6 305.587   1
   0   2  -2 13298.9 504.927   4
   0   2   2 14241.6 437.099   4
   0   2   2 13889.3 430.863   3
   0   2  -2 13981.3 381.896   5
   0   2   3 33173.2 604.489   1
   0   2   3 32744.3 733.181   3
   0   2  -3 31797.6 750.977   2
   0   2   3 33394.7 702.391   4
   0   2  -3 33997.7 884.778   4
   0   2  -3 32315.1 687.837   5
   0   2  -4 88551.3 1582.52   2
   0   2   4 90177.3 1366.02   1
   0   2  -4 90308.8 1705.96   4
   0   2   4 88952.4 1500.20   3
   0   2  -4 90358.2 1470.13   5
   0   2   4 89034.8 1566.32   6
   0   2  -5 11236.3 429.793   5
   0   2  -5 11353.1 485.266   2
   0   2   5 11933.4 474.175   6
   0   2  -5 12021.5 543.725   4
   0   2   5 12146.4 437.471   3
   0   2   5 11621.9 382.760   1
   0   2  -6 5297.64 318.746   5
   0   2   6 5264.30 329.238   6
   0   2  -6 5613.77 371.846   2
   0   2   6 5349.43 280.898   1
   0   2   6 5375.63 307.725   3
   0   2  -6 5607.29 393.768   4
   0   2  -7 53804.8 1200.23   5
   0   2  -7 55189.6 1350.18   4
   0   2   7 53520.5 1117.44   1
   0   2  -7 51461.3 1308.78   2
   0   2  -8 39071.1 1145.69   4
   0   2  -8 40787.3 1077.25   5
   0   2  -8 41335.1 1193.69   2
   0   2  -9 17739.4 806.866   2
   0   2  -9 16587.9 744.203   4
   0   2 -10 26133.5 984.049   4
   0   2 -10 27576.6 1064.95   2
   0   2 -11 24710.5 981.550   4
   0   2 -11 24307.4 1057.04   2
   0   2 -12 20829.6 927.164   4
   0   2 -12 19999.2 1015.20   2
   0   2 -13 699.426 266.440   4
   0   2 -13 753.178 326.396   2
   0   2 -14 4158.31 471.325   4
   0   2 -14 4361.68 568.204   2
   0   2 -15 5213.84 537.585   4
   0   2 -15 5071.18 649.320   2
   0   2 -16 2587.01 554.688   2
   0   2 -17 1494.29 480.065   2
   0   3   0 45.8031 81.5785   5
   0   3   0 124.043 145.010   4
   0   3   1 68758.2 1184.13   5
   0   3  -1 69048.8 1165.96   5
   0   3  -1 69683.1 1487.83   4
   0   3   1 69503.7 1420.14   4
   0   3   2 125740. 2149.70   4
   0   3  -2 128775. 1931.30   5
   0   3  -2 125681. 2303.60   4
   0   3   2 130793. 2122.94   3
   0   3   2 131109. 1769.37   1
   0   3   3 43210.5 1011.11   3
   0   3  -3 41301.4 954.871   2
   0   3   3 41583.4 737.792   1
   0   3  -3 41789.1 1157.16   4
   0   3  -3 42646.9 879.546   5
   0   3   3 41573.0 978.847   4
   0   3  -4 26629.7 779.258   2
   0   3  -4 26362.8 918.525   4
   0   3   4 27099.5 585.012   1
   0   3   4 27898.6 787.981   3
   0   3   4 26749.6 727.596   4
   0   3  -4 27900.6 702.350   5
   0   3  -5 51839.9 1094.62   5
   0   3   5 55469.8 1254.49   6
   0   3   5 53364.0 1070.26   4
   0   3  -5 50918.8 1214.29   2
   0   3  -5 50439.2 1369.00   4
   0   3   5 52198.4 976.290   1
   0   3  -6 42173.2 1010.28   5
   0   3  -6 40967.3 1233.24   4
   0   3  -6 41249.0 1125.32   2
   0   3   6 43452.7 1112.90   6
   0   3   6 40979.6 882.648   1
   0   3  -7 1629.06 296.671   4
   0   3   7 1955.59 269.586   6
   0   3  -7 1734.18 238.973   5
   0   3  -7 1789.13 280.845   2
   0   3   7 1912.40 192.657   1
   0   3  -8 24171.0 819.797   5
   0   3  -8 24216.4 942.546   2
   0   3  -8 23914.3 982.475   4
   0   3   8 24460.9 857.267   6
   0   3  -9 12293.5 725.117   4
   0   3  -9 11635.0 596.273   5
   0   3  -9 10690.6 676.243   2
   0   3 -10 19109.9 927.743   4
   0   3 -10 19030.8 802.421   5
   0   3 -10 20329.5 970.416   2
   0   3 -11 1037.58 324.944   2
   0   3 -11 1235.94 317.091   4
   0   3 -12 4416.73 544.853   2
   0   3 -12 3936.35 490.582   4
   0   3 -13 10659.5 765.061   4
   0   3 -13 10252.5 816.055   2
   0   3 -14 6673.03 711.916   2
   0   3 -14 7135.75 655.729   4
   0   3 -15 611.554 326.085   4
   0   3 -15 652.564 413.818   2
   0   3 -16 4173.19 680.749   2
   0   4   0 65164.8 1573.32   4
   0   4   0 65751.1 1213.02   5
   0   4   1 33573.1 783.841   5
   0   4  -1 31735.1 1059.02   4
   0   4  -1 32154.5 763.240   5
   0   4   1 33052.1 1035.80   4
   0   4  -2 1228.61 156.699   5
   0   4  -2 1474.54 269.636   4
   0   4   2 1490.54 173.856   5
   0   4   2 993.896 210.259   4
   0   4  -3 15708.7 523.236   5
   0   4   3 15346.6 641.758   4
   0   4   3 15646.3 400.734   1
   0   4  -3 15530.4 762.513   4
   0   4   4 44181.3 1143.46   4
   0   4  -4 44996.3 1007.17   5
   0   4  -4 46109.8 1393.99   4
   0   4   4 46315.1 847.895   1
   0   4  -5 26251.0 875.735   2
   0   4  -5 26172.4 757.630   5
   0   4   5 25957.6 804.426   4
   0   4   5 25406.3 613.919   1
   0   4  -5 26759.2 1066.43   4
   0   4  -6 1799.69 232.955   5
   0   4  -6 1490.20 323.827   4
   0   4  -6 1752.42 266.595   2
   0   4   6 1447.56 161.868   1
   0   4   6 1499.94 260.488   6
   0   4   7 6103.21 330.272   1
   0   4   7 6157.45 469.834   6
   0   4  -7 6115.53 553.175   4
   0   4  -7 5615.30 460.947   2
   0   4  -7 5735.84 395.240   5
   0   4  -8 42596.4 1344.15   2
   0   4  -8 44055.0 1185.07   5
   0   4  -8 42836.1 1484.90   4
   0   4   8 43891.7 1273.37   6
   0   4   8 42354.1 1022.55   1
   0   4  -9 2072.14 369.431   2
   0   4  -9 1616.37 276.203   5
   0   4  -9 2327.94 411.900   4
   0   4   9 1726.66 322.006   6
   0   4 -10 1595.22 332.873   2
   0   4 -10 1535.45 314.803   5
   0   4 -10 1644.02 388.822   4
   0   4 -11 13307.6 872.990   2
   0   4 -11 12480.3 854.219   4
   0   4 -12 6192.56 654.965   2
   0   4 -12 5727.37 631.646   4
   0   4 -13 2027.62 480.819   2
   0   4 -13 1922.87 450.536   4
   0   4 -14 3309.01 510.130   4
   0   4 -14 2290.81 503.455   2
   0   4 -15 2235.98 464.483   4
   0   4 -15 4038.44 673.963   2
   0   4 -16 1482.23 547.427   2
   0   5   0 22.2135 113.162   5
   0   5   0 48.4253 212.405   4
   0   5  -1 16461.2 832.047   4
   0   5  -1 14137.8 511.432   5
   0   5   1 13689.6 511.386   5
   0   5   1 14347.0 751.587   4
   0   5  -2 60102.7 1227.46   5
   0   5   2 60181.3 1592.47   4
   0   5   2 61738.9 1261.58   5
   0   5  -2 57715.1 1696.85   4
   0   5   3 8766.98 440.558   5
   0   5  -3 9286.60 430.019   5
   0   5   3 8811.19 565.046   4
   0   5  -3 8769.01 649.611   4
   0   5  -4 141.379 138.100   5
   0   5   4 73.2189 188.099   4
   0   5   4-105.725 149.758   5
   0   5   4 14.4775 62.0341   1
   0   5  -4-9.85797 247.413   4
   0   5  -5 17416.4 952.508   4
   0   5   5 17126.3 477.396   1
   0   5  -5 17061.4 629.502   5
   0   5   5 17596.3 747.963   4
   0   5  -6 29156.1 879.390   5
   0   5   6 28169.0 1057.62   6
   0   5   6 27163.7 911.821   4
   0   5   6 27518.8 676.635   1
   0   5  -6 27531.6 1229.49   4
   0   5  -7 2815.22 372.523   2
   0   5   7 3442.68 406.554   6
   0   5  -7 3553.47 503.489   4
   0   5  -7 3156.28 335.356   5
   0   5  -8 2091.14 447.236   4
   0   5   8 2212.39 369.650   6
   0   5  -8 2201.06 295.983   5
   0   5  -8 2565.75 374.697   2
   0   5  -9 9206.63 575.086   5
   0   5  -9 9641.31 802.310   4
   0   5   9 9035.99 642.098   6
   0   5  -9 7891.33 637.126   2
   0   5 -10 6782.13 527.953   5
   0   5 -10 7890.19 731.278   4
   0   5 -10 7147.00 661.412   2
   0   5  10 7674.69 604.057   6
   0   5 -11 570.552 345.636   2
   0   5 -11 83.3019 333.539   4
   0   5 -12 2368.38 501.921   4
   0   5 -12 2226.36 483.363   2
   0   5 -13 3648.38 602.516   2
   0   5 -13 4131.82 644.003   4
   0   5 -14 1372.15 411.089   4
   0   5 -14 943.376 426.138   2
   0   5 -15-41.7122 364.549   4
   0   5 -15 1245.25 528.298   2
   0   6   0 21974.6 1059.10   4
   0   6   0 20233.2 665.764   5
   0   6   1 8654.35 432.576   5
   0   6  -1 8747.00 700.620   4
   0   6  -1 7710.57 398.131   5
   0   6   1 7057.62 615.080   4
   0   6  -2 6521.96 377.339   5
   0   6   2 7023.53 591.475   4
   0   6   2 6820.64 400.066   5
   0   6  -2 5746.04 613.764   4
   0   6   3 8169.83 615.155   4
   0   6   3 8542.96 459.437   5
   0   6  -3 8801.72 445.206   5
   0   6  -3 8475.45 727.353   4
   0   6  -4 21271.6 1135.63   4
   0   6  -4 20181.8 701.695   5
   0   6   4 20431.3 936.570   4
   0   6   4 21244.9 757.666   5
   0   6  -5 1715.52 427.140   4
   0   6  -5 2020.17 262.181   5
   0   6   5 2358.06 361.544   4
   0   6   5 1938.10 273.870   5
   0   6   6 1730.93 340.399   6
   0   6  -6 2430.89 286.124   5
   0   6   6 3186.15 347.757   5
   0   6   6 2731.28 361.282   4
   0   6  -6 1969.74 448.956   4
   0   6  -7 8369.91 518.179   5
   0   6  -7 7903.73 785.230   4
   0   6   7 8637.12 654.870   6
   0   6   8 8215.01 651.113   6
   0   6  -8 8730.94 817.109   4
   0   6  -8 8191.04 536.458   5
   0   6  -9 505.982 380.658   4
   0   6  -9 920.068 286.327   5
   0   6   9 875.439 332.225   6
   0   6 -10 3276.88 591.067   4
   0   6  10 2533.95 433.122   6
   0   6 -10 2577.46 387.055   5
   0   6 -11 2848.73 513.233   2
   0   6 -11 4258.27 658.377   4
   0   6 -12 2121.26 442.027   2
   0   6 -12 3309.36 618.789   4
   0   6 -13 145.186 424.404   4
   0   6 -13 501.132 384.012   2
   0   6 -14 55.0517 409.756   2
   0   6 -14 1450.04 531.351   4
   0   7   0 156.576 321.831   4
   0   7   0-149.312 149.054   5
   0   7  -1 3993.57 555.375   4
   0   7  -1 3818.59 302.991   5
   0   7   1 3732.94 514.503   4
   0   7   1 4050.34 314.481   5
   0   7   2 9460.12 752.648   4
   0   7  -2 10842.9 496.171   5
   0   7  -2 10345.8 850.607   4
   0   7  -3 1135.76 394.031   4
   0   7   3 767.326 298.565   4
   0   7  -3 858.102 180.042   5
   0   7  -4 921.347 207.657   5
   0   7  -4 1521.67 452.945   4
   0   7   4 1212.48 355.236   4
   0   7   5 6548.20 590.262   4
   0   7  -5 7620.66 820.593   4
   0   7  -5 6332.77 430.954   5
   0   7  -6 3361.39 343.691   5
   0   7   6 4061.61 479.069   4
   0   7   6 3544.90 502.001   6
   0   7  -6 4527.49 683.508   4
   0   7  -7 2002.60 310.144   5
   0   7   7 1181.05 374.788   6
   0   7  -7 1164.90 412.324   4
   0   7  -8 829.888 253.291   5
   0   7   8 538.806 304.235   6
   0   7  -8 918.638 467.418   4
   0   7   9 2864.34 468.557   6
   0   7  -9 2873.10 618.803   4
   0   7  -9 2970.05 380.353   5
   0   7  10 2586.13 483.458   6
   0   7 -10 2320.70 600.870   4
   0   7 -11 265.242 416.028   4
   0   7  11 1925.87 461.599   6
   0   8   0 4744.28 638.052   4
   0   8  -1 926.226 431.136   4
   0   8   1 1398.68 422.823   4
   0   8   2 37.2106 336.849   4
   0   8  -2 299.504 366.553   4
   0   8  -3 2262.68 584.130   4
   0   8   3 2466.59 493.615   4
   0   8  -4 5220.50 726.506   4
   0   8   4 4943.47 602.945   4
   0   8   5 2803.01 468.840   4
   0   8  -5 3646.08 636.360   4
   0   8  -6 866.507 556.406   4
   0   8   6 1093.36 388.041   6
   0   8   6 1223.49 364.718   4
   0   8   7 2802.14 474.167   6
   0   8  -7 1955.74 604.194   4
   0   8   8 3673.10 549.325   6
   0   9   0-508.042 460.848   4
   0   9   1 688.965 445.556   4
   0   9  -1 2475.19 576.246   4
   0   9   2 2816.46 585.779   4
   0   9   3 788.255 399.576   4
   0   9   4 274.785 366.107   4
  -1  -8   7 2541.23 572.996   3
   1  -8  -7 3066.00 456.552   3
   1  -8  -6 3782.47 503.117   3
  -1  -8   6 4085.66 632.899   3
   1  -8  -5 1868.05 396.272   3
  -1  -8   5 1042.75 393.921   3
   1  -8  -4 89.1289 296.762   3
  -1  -8   4 50.1099 382.724   3
  -1  -8   3 2743.37 514.150   3
   1  -8  -3 3416.14 492.717   3
  -1  -8   2 5655.51 641.518   3
   1  -8  -2 4779.95 557.693   3
  -1  -8   1 1532.60 429.133   3
   1  -8  -1 1518.18 401.740   3
   1  -8   0 1465.32 404.754   3
  -1  -8   0 2614.88 484.721   3
   1  -8   1 5689.49 610.975   3
  -1  -8  -1 3778.01 535.729   3
  -1  -8  -2 4392.10 540.730   3
   1  -8   2 5375.71 643.846   3
  -1  -8  -3-205.191 309.913   3
   1  -8   3 121.173 351.256   3
   1  -8   4 2747.28 529.792   3
  -1  -8  -4 2267.70 435.712   3
  -1  -8  -5 1521.25 412.470   3
   1  -8   5 1921.75 457.462   3
   1  -8   6 509.364 423.845   3
  -1  -8  -6 718.988 349.476   3
   1  -8   7 451.082 441.938   3
  -1  -7  12 2288.01 507.775   1
  -1  -7  11 530.595 330.992   1
  -1  -7  11 331.897 384.950   3
  -1  -7  10 796.529 356.275   1
  -1  -7  10 708.943 405.599   3
  -1  -7   9 4613.40 636.824   3
  -1  -7   9 3601.68 491.909   1
  -1  -7   8 4993.36 646.271   3
  -1  -7   8 4782.10 526.244   1
  -1  -7   7 1594.71 346.318   1
   1  -7  -7 2327.41 391.438   3
  -1  -7   6-240.600 326.718   3
  -1  -7   6 371.592 255.015   1
   1  -7  -6 74.0426 258.220   3
   1  -7  -5 4996.47 497.133   3
  -1  -7   5 5292.14 580.126   3
  -1  -7   5 5484.67 455.111   1
   1  -7  -4 11068.7 698.559   3
  -1  -7   4 10621.2 585.171   1
  -1  -7   4 12221.2 827.529   3
   1  -7  -3 1837.46 354.271   3
  -1  -7   3 2018.46 269.441   1
  -1  -7   3 2187.79 423.871   3
   1  -7  -2 1456.31 371.486   3
  -1  -7   2 1061.88 208.397   1
   1  -7  -1 7403.08 613.718   3
  -1  -7   1 6980.73 618.112   3
  -1  -7   1 6970.57 397.739   1
  -1  -7   0 11386.1 758.165   3
   1  -7   0 12186.0 761.835   3
  -1  -7  -1 5785.46 550.107   3
   1  -7   1 5152.94 537.037   3
  -1  -7  -2 288.390 296.452   3
   1  -7   2 646.842 324.901   3
  -1  -7  -3 6056.16 394.780   2
  -1  -7  -3 4708.35 501.701   3
   1  -7   3 4585.11 552.126   3
  -1  -7  -4 11914.5 548.318   2
  -1  -7  -4 12652.3 766.028   3
   1  -7   4 14094.5 890.879   3
  -1  -7  -5 1170.22 350.693   3
  -1  -7  -5 1529.12 240.567   2
   1  -7   5 1723.46 407.767   3
  -1  -7  -6 2822.18 434.339   3
   1  -7   6 2527.13 509.236   3
   1  -7   7 7854.01 777.391   3
   1  -7   8 1710.73 530.295   3
   1  -7   9 58.1769 408.288   3
   1  -7  10 3118.78 625.223   3
  -1  -6  13 250.268 403.222   3
  -1  -6  12 561.967 410.591   3
  -1  -6  11 1071.84 435.484   3
  -1  -6  10 6395.79 682.485   3
  -1  -6   9 4083.92 564.401   3
  -1  -6   9 5156.72 530.773   1
  -1  -6   8-55.7811 249.227   1
  -1  -6   8 155.585 348.487   3
   1  -6  -7 6018.49 354.736   2
   1  -6  -7 7052.19 503.007   3
  -1  -6   7 7463.71 654.083   3
  -1  -6   7 6264.19 520.586   1
  -1  -6   6 18787.0 981.232   3
  -1  -6   6 19175.6 845.150   1
   1  -6  -6 19909.9 820.713   3
   1  -6  -6 19195.1 584.797   2
  -1  -6   5 6913.77 611.499   3
   1  -6  -5 5327.48 461.073   3
  -1  -6   5 6489.22 471.650   1
   1  -6  -5 6757.54 299.369   2
  -1  -6   4 3163.62 326.309   1
   1  -6  -4 2644.56 350.190   3
  -1  -6   4 3124.29 428.301   3
   1  -6  -4 3251.99 190.263   2
   1  -6  -3 14235.6 702.026   3
  -1  -6   3 12792.6 759.913   3
  -1  -6   3 12428.6 574.836   1
   1  -6  -3 12060.4 339.558   2
   1  -6  -2 28902.2 1041.42   3
   1  -6  -2 26394.5 531.607   2
  -1  -6   2 29090.3 843.396   1
  -1  -6   2 28417.7 1095.57   3
   1  -6  -1 1283.28 288.348   3
  -1  -6   1 1514.69 206.179   1
  -1  -6   1 1429.99 324.206   3
   1  -6   0 4147.95 149.090   1
  -1  -6   0 5754.39 330.334   1
   1  -6   0 5259.73 476.213   3
  -1  -6   0 5680.19 502.260   3
  -1  -6  -1 10015.2 419.734   1
  -1  -6  -1 8985.94 620.124   3
   1  -6   1 9659.62 644.108   3
   1  -6   1 8862.36 321.186   1
   1  -6   2 22017.0 618.924   1
   1  -6   2 21928.3 978.708   3
  -1  -6  -2 23004.8 932.822   3
  -1  -6  -2 23682.7 644.159   1
  -1  -6  -3 1678.80 180.236   1
   1  -6   3 1733.93 378.385   3
  -1  -6  -3 1432.62 307.592   3
   1  -6   3 1639.30 209.036   1
  -1  -6  -4 4645.95 330.558   2
   1  -6   4 4071.92 331.685   1
  -1  -6  -4 3897.02 410.223   3
   1  -6   4 3631.87 465.854   3
  -1  -6  -4 4274.97 267.185   1
  -1  -6  -5 10230.0 498.346   2
  -1  -6  -5 10535.5 640.170   3
   1  -6   5 9017.53 689.853   3
  -1  -6  -6 7031.15 431.508   2
  -1  -6  -6 7384.87 533.799   3
   1  -6   6 8408.62 690.862   3
   1  -6   7 633.943 333.782   3
  -1  -6  -7 617.786 201.218   2
  -1  -6  -8 2511.76 317.931   2
   1  -6   8 3237.93 520.492   3
  -1  -6  -9 7877.95 532.224   2
   1  -6   9 8911.08 771.034   3
   1  -6  10 2375.90 514.432   3
  -1  -6 -10 2885.12 391.836   2
   1  -6  11 159.422 362.647   3
  -1  -6 -11 416.743 255.992   2
   1  -6  12 3463.55 654.218   3
  -1  -6 -12 2639.37 416.663   2
  -1  -5  15 3798.75 624.215   3
  -1  -5  14 1803.89 453.973   3
   1  -5 -14 1798.76 369.628   2
  -1  -5  13 1863.64 471.287   3
   1  -5 -13 2025.00 362.247   2
   1  -5 -12 9870.09 647.507   2
  -1  -5  12 11028.5 842.342   3
   1  -5 -11 7993.26 548.136   2
  -1  -5  11 8450.78 726.976   3
  -1  -5  10 323.090 318.393   3
   1  -5 -10 266.135 205.435   2
  -1  -5   9 5030.05 546.061   3
   1  -5  -9 5140.69 386.755   2
   1  -5  -8 28996.8 858.545   2
  -1  -5   8 29205.6 1175.77   3
   1  -5  -7 3599.38 348.105   3
  -1  -5   7 2709.53 403.843   3
   1  -5  -7 2543.74 241.908   2
  -1  -5   6-155.590 200.038   1
   1  -5  -6 161.630 112.608   2
   1  -5  -6-57.2671 166.578   3
  -1  -5   6 298.188 259.182   3
   1  -5  -5 9325.81 514.073   3
  -1  -5   5 9687.92 541.142   1
   1  -5  -5 10465.2 376.052   2
  -1  -5   5 9494.11 621.028   3
  -1  -5   4 26969.8 1018.85   3
   1  -5  -4 28842.3 616.431   2
   1  -5  -4 28056.2 905.279   3
  -1  -5   4 27138.6 873.123   1
  -1  -5   3 4321.03 422.204   3
  -1  -5   3 4214.64 326.281   1
   1  -5  -3 4146.69 191.294   2
   1  -5  -3 3580.17 361.425   3
   1  -5  -2 4070.57 177.590   2
   1  -5  -2 4560.74 390.911   3
  -1  -5   2 3916.04 293.557   1
  -1  -5   2 4624.19 418.753   3
   1  -5  -2 4201.12 213.106   2
   1  -5  -1 20687.6 496.065   2
  -1  -5   1 19695.7 813.104   3
   1  -5  -1 18931.6 768.085   3
  -1  -5   1 19748.4 624.077   1
   1  -5   0 32418.0 662.872   2
   1  -5   0 31775.2 1026.83   3
  -1  -5   0 31970.2 785.560   1
  -1  -5   0 31354.7 1024.08   3
   1  -5   0 30651.7 572.241   1
  -1  -5  -1 7215.71 338.113   1
   1  -5   1 7393.06 297.106   2
   1  -5   1 7763.44 297.555   1
   1  -5   1 7009.04 484.635   3
  -1  -5  -1 6838.19 484.176   3
   1  -5   2 13780.5 469.563   1
   1  -5   2 15275.7 733.068   3
   1  -5   2 13902.0 511.342   5
  -1  -5  -2 13936.1 661.007   3
   1  -5   2 14549.0 463.335   2
  -1  -5  -2 14520.5 472.808   1
   1  -5   3 28451.6 718.188   2
  -1  -5  -3 25993.7 907.832   3
  -1  -5  -3 27739.0 683.125   1
   1  -5   3 28767.7 1034.80   3
   1  -5   3 26156.6 771.031   5
   1  -5   4 21622.2 916.585   3
  -1  -5  -4 21282.1 596.877   1
   1  -5   4 20487.0 704.599   5
  -1  -5  -4 20646.7 790.629   3
  -1  -5  -5 214.979 218.068   3
  -1  -5  -5 244.964 157.334   2
   1  -5   5 109.170 230.984   3
   1  -5   6 15905.8 828.264   3
  -1  -5  -6 16631.6 628.608   2
  -1  -5  -6 14814.1 682.156   3
  -1  -5  -7 14542.0 620.620   2
   1  -5   7 15586.2 848.923   3
  -1  -5  -8 9976.16 548.422   2
   1  -5   8 10232.3 738.968   3
  -1  -5  -9 202.284 195.308   2
   1  -5   9 240.132 327.275   3
   1  -5  10 3667.91 519.794   3
  -1  -5 -10 3558.20 401.266   2
  -1  -5 -11 7529.79 565.738   2
   1  -5  11 6643.57 701.203   3
   1  -5  12 1998.13 451.560   3
  -1  -5 -12 2400.95 391.790   2
   1  -5  13 241.122 415.931   3
  -1  -5 -13 531.828 308.432   2
   1  -5  14 1184.72 492.118   3
  -1  -5 -14 743.486 345.211   2
  -1  -5 -15 2139.83 480.129   2
   1  -4 -17 1355.45 438.850   2
  -1  -4  16 1031.05 387.180   3
   1  -4 -16-8.11642 328.798   2
  -1  -4  15 1145.93 389.582   3
   1  -4 -15 1597.60 387.174   2
   1  -4 -14 5259.76 548.059   2
  -1  -4  14 6058.04 651.183   3
  -1  -4  13 4585.91 549.627   3
   1  -4 -13 5658.51 546.174   2
   1  -4 -12 295.502 230.242   2
  -1  -4  12-21.9738 303.381   3
   1  -4 -11 3812.66 400.600   2
  -1  -4  11 3582.98 453.951   3
   1  -4 -10 15854.0 708.447   2
  -1  -4  10 17530.5 875.841   3
   1  -4  -9 5055.56 379.679   2
   1  -4  -9 4538.66 264.021   4
  -1  -4   9 5344.98 498.249   3
   1  -4  -8 1478.03 208.619   2
  -1  -4   8 1866.29 323.284   3
   1  -4  -8 1831.37 196.478   4
  -1  -4   7 16000.9 757.087   3
   1  -4  -7 16643.0 597.965   4
   1  -4  -7 18029.8 597.440   2
   1  -4  -6 35043.4 907.901   3
   1  -4  -6 34730.9 814.615   2
  -1  -4   6 34459.2 1100.77   3
   1  -4  -6 35045.9 930.977   4
   1  -4  -5 21599.3 557.691   2
  -1  -4   5 21555.9 832.347   3
   1  -4  -5 21088.5 688.761   3
   1  -4  -5 22027.2 732.144   4
   1  -4  -4 66.2015 148.562   3
  -1  -4   4 117.194 138.564   1
  -1  -4   4-124.607 183.320   3
   1  -4  -4 3.97384 70.7627   2
   1  -4  -3 15701.2 371.253   2
  -1  -4   3 16302.5 589.493   1
  -1  -4   3 15505.6 620.237   5
   1  -4  -3 16690.4 617.212   3
  -1  -4   3 15757.9 674.847   3
   1  -4  -2 67888.2 1430.62   3
  -1  -4   2 70296.9 1340.28   1
  -1  -4   2 71033.8 1541.46   3
   1  -4  -2 68171.4 1004.60   2
  -1  -4   2 71351.8 1456.40   5
  -1  -4   1 7967.97 364.207   1
  -1  -4   1 9057.25 437.444   2
   1  -4  -1 7718.32 439.110   3
  -1  -4   1 7923.68 463.833   3
   1  -4  -1 9678.68 277.457   2
   1  -4   0 4603.48 197.920   2
   1  -4   0 4429.73 175.419   1
   1  -4   0 4346.70 338.109   3
  -1  -4   0 4358.49 259.268   1
  -1  -4   0 4052.61 336.592   3
   1  -4   1 43471.7 854.701   5
   1  -4   1 43394.4 1121.09   3
   1  -4   1 43952.7 800.792   2
  -1  -4  -1 42379.0 1093.81   3
  -1  -4  -1 42197.2 873.165   1
   1  -4   2 44302.9 1147.84   3
  -1  -4  -2 43239.4 869.276   1
   1  -4   2 43235.1 841.679   2
  -1  -4  -2 40584.5 1069.67   3
   1  -4   2 42843.9 899.953   5
  -1  -4  -3 3430.17 216.040   1
   1  -4   3 3584.29 340.546   3
  -1  -4  -3 3260.70 303.020   3
   1  -4   3 3341.65 221.540   2
   1  -4   3 3086.23 235.500   5
  -1  -4  -4 26577.1 663.295   1
   1  -4   4 26664.9 707.848   2
   1  -4   4 26803.9 769.964   5
   1  -4   4 25485.7 896.786   3
  -1  -4  -4 26295.3 817.101   3
  -1  -4  -5 44763.1 953.202   1
   1  -4   5 44184.6 1087.92   5
   1  -4   5 43119.8 1237.12   3
  -1  -4  -5 43553.3 1082.53   3
  -1  -4  -5 43694.2 999.775   2
   1  -4   6 27872.2 999.863   3
  -1  -4  -6 28059.0 809.031   2
   1  -4   7 4741.91 445.635   3
  -1  -4  -7 4792.14 359.449   2
  -1  -4  -8 23984.4 823.994   2
   1  -4   8 24300.1 989.504   3
   1  -4   9 17862.7 906.589   3
  -1  -4  -9 19817.5 782.959   2
  -1  -4 -10 10350.9 607.188   2
   1  -4  10 9249.97 700.271   3
   1  -4  11 181.516 328.202   3
  -1  -4 -11 275.227 254.836   2
  -1  -4 -12 8368.57 621.571   2
   1  -4  12 7359.56 702.283   3
   1  -4  13 4943.75 612.365   3
  -1  -4 -13 4512.87 519.288   2
  -1  -4 -14 361.641 303.982   2
   1  -4  14 1545.58 492.195   3
   1  -4  15 676.965 460.345   3
  -1  -4 -15 284.505 336.936   2
  -1  -4 -16 2491.05 522.480   2
  -1  -3  17 1759.26 480.749   3
   1  -3 -17 646.917 378.162   2
  -1  -3  16 2928.92 497.664   3
   1  -3 -16 2080.25 490.822   2
  -1  -3  15 2362.02 472.392   3
   1  -3 -15 2871.45 481.669   2
  -1  -3  14 1238.77 378.707   3
   1  -3 -14 2544.45 437.006   2
   1  -3 -13 1805.97 353.663   2
  -1  -3  13 2039.71 391.600   3
  -1  -3  12 7972.82 623.023   3
   1  -3 -12 9553.50 632.621   2
  -1  -3  11 12419.9 703.693   3
   1  -3 -11 11530.6 645.569   2
   1  -3 -10 3863.61 371.228   2
  -1  -3  10 4482.25 431.239   3
   1  -3  -9 22888.6 462.322   4
  -1  -3   9 25367.0 929.344   3
   1  -3  -9 25296.4 839.353   2
  -1  -3   8 75670.2 1704.09   3
   1  -3  -8 78754.1 1571.53   2
   1  -3  -8 78574.4 1239.51   4
   1  -3  -7 18934.8 624.914   2
  -1  -3   7 19259.3 743.903   3
   1  -3  -7 20038.8 520.364   4
   1  -3  -6 7055.74 314.309   4
  -1  -3   6 6158.70 418.187   3
   1  -3  -6 6389.66 324.548   2
  -1  -3   5 85782.1 1693.69   3
   1  -3  -5 86935.3 1502.29   4
  -1  -3   5 86603.0 1720.40   5
   1  -3  -5 87958.4 1502.78   3
   1  -3  -5 87899.1 1419.26   2
  -1  -3   4 118698. 2037.62   5
   1  -3  -4 114007. 1665.50   2
   1  -3  -4 117270. 1890.70   4
   1  -3  -4 115325. 1848.43   3
  -1  -3   4 113379. 2022.65   3
  -1  -3   4 112279. 2182.79   4
  -1  -3   3 6709.64 381.463   3
  -1  -3   3 7375.98 360.637   1
   1  -3  -3 6735.14 334.952   3
  -1  -3   3 6805.58 371.449   5
   1  -3  -3 7034.54 354.243   4
   1  -3  -3 6982.78 219.960   2
  -1  -3   3 7419.40 382.533   2
  -1  -3   2 6498.97 317.342   1
   1  -3  -2 6450.17 176.831   2
  -1  -3   2 6565.82 372.975   3
  -1  -3   2 7143.04 359.518   2
   1  -3  -2 6136.01 339.084   4
  -1  -3   2 6911.80 355.918   5
   1  -3  -2 6625.70 333.836   3
  -1  -3   1 85652.0 1427.63   1
   1  -3  -1 87589.6 1624.18   4
   1  -3  -1 85450.8 1187.53   2
  -1  -3   1 85813.0 1533.09   2
  -1  -3   1 87643.4 1539.32   5
  -1  -3   1 83152.6 1576.20   3
   1  -3  -1 85028.1 1523.47   3
   1  -3   0 31182.7 869.835   4
  -1  -3   0 31937.3 694.738   1
   1  -3   0 31245.9 805.553   3
   1  -3   0 31510.5 544.069   2
  -1  -3   0 31544.8 819.147   3
  -1  -3   0 31373.2 915.262   4
  -1  -3  -1 25756.5 726.727   3
   1  -3   1 26947.1 521.204   2
   1  -3   1 26173.8 733.883   3
  -1  -3  -1 25489.6 592.609   1
  -1  -3  -1 25965.3 812.492   4
   1  -3   1 25144.6 536.572   5
  -1  -3  -2 40710.3 938.419   3
  -1  -3  -2 40305.5 795.521   1
   1  -3   2 41351.1 775.476   2
   1  -3   2 41856.9 810.277   5
   1  -3   2 42025.6 989.787   3
  -1  -3  -2 39607.7 1040.32   4
  -1  -3  -3 32163.9 700.379   1
   1  -3   3 32392.3 741.114   5
  -1  -3  -3 33585.1 824.723   3
   1  -3   3 31011.7 868.368   3
   1  -3   3 33386.9 716.512   2
  -1  -3  -3 33374.8 925.660   4
  -1  -3  -4 51454.9 1088.23   3
  -1  -3  -4 51645.1 1021.88   2
   1  -3   4 51398.3 1028.89   2
   1  -3   4 51342.9 1195.42   3
  -1  -3  -4 52539.3 997.609   1
   1  -3   4 50421.5 1053.02   5
  -1  -3  -4 51591.3 1205.50   4
   1  -3   5 8961.38 421.628   5
   1  -3   5 8639.72 466.781   3
  -1  -3  -5 8894.67 395.401   2
  -1  -3  -5 8833.49 453.060   4
  -1  -3  -5 8853.15 377.263   1
  -1  -3  -6 19343.7 628.697   2
  -1  -3  -6 18561.3 678.378   4
   1  -3   6 19419.3 728.678   3
  -1  -3  -7 25364.3 782.185   2
   1  -3   7 25951.0 900.398   3
  -1  -3  -7 23699.3 787.549   4
  -1  -3  -8 23586.6 750.569   2
   1  -3   8 22742.2 829.332   3
  -1  -3  -9 1651.41 280.863   2
   1  -3   9 1576.86 317.070   3
  -1  -3 -10 16087.0 739.246   2
   1  -3  10 14454.1 784.836   3
   1  -3  11 10746.9 716.133   3
  -1  -3 -11 9740.93 629.243   2
   1  -3  12 3205.62 459.047   3
  -1  -3 -12 3442.86 433.131   2
   1  -3  13 867.659 385.387   3
  -1  -3 -13 508.990 310.531   2
   1  -3  14 7595.94 698.901   3
  -1  -3 -14 6631.53 647.937   2
   1  -3  15 2611.36 485.722   3
  -1  -3 -15 1917.34 437.573   2
  -1  -3 -16 532.776 381.740   2
   1  -3  16 484.871 360.077   3
  -1  -2  18 1750.14 451.778   3
   1  -2 -17 3942.30 593.088   2
  -1  -2  17 3860.17 518.720   3
   1  -2 -16 2589.32 487.933   2
  -1  -2  16 2950.39 468.885   3
  -1  -2  15 1382.38 353.453   3
   1  -2 -15 644.944 352.021   2
   1  -2 -14 11002.5 771.626   2
  -1  -2  14 9503.33 652.855   3
   1  -2 -13 8348.06 638.701   2
  -1  -2  13 7070.51 550.222   3
   1  -2 -12 594.266 268.304   2
  -1  -2  12 565.303 253.730   3
   1  -2 -11 15732.4 755.497   2
  -1  -2  11 15295.1 714.573   3
  -1  -2  10 37121.7 1065.86   3
   1  -2 -10 36236.7 1107.43   2
  -1  -2   9 3823.00 339.475   3
   1  -2  -9 3173.46 325.648   2
   1  -2  -8 1713.06 224.659   2
  -1  -2   8 1403.68 234.787   3
  -1  -2   8 1493.23 215.742   4
   1  -2  -7 34634.6 887.071   2
  -1  -2   7 35497.0 972.329   4
  -1  -2   7 35259.0 915.319   3
   1  -2  -7 34367.7 541.435   4
  -1  -2   6 113118. 2030.77   4
   1  -2  -6 112804. 1532.82   4
  -1  -2   6 114492. 2009.87   5
   1  -2  -6 110543. 1837.67   2
  -1  -2   6 113864. 1912.76   3
  -1  -2   5 25174.5 726.880   5
   1  -2  -5 22784.5 589.953   2
  -1  -2   5 24294.9 722.081   2
  -1  -2   5 23401.5 741.940   4
   1  -2  -5 25225.4 494.183   4
  -1  -2   5 23636.1 674.204   3
  -1  -2   4 3852.14 265.212   5
  -1  -2   4 3833.26 287.089   4
   1  -2  -4 3567.40 202.751   3
   1  -2  -4 3267.84 180.397   2
  -1  -2   4 3828.38 266.553   2
   1  -2  -4 3781.32 183.472   4
  -1  -2   4 3557.75 246.988   3
   1  -2  -3 133178. 1943.16   4
  -1  -2   3 135132. 2121.51   2
  -1  -2   3 133670. 2055.21   3
   1  -2  -3 135683. 1939.32   3
   1  -2  -3 134185. 1817.31   2
  -1  -2   3 137941. 2116.30   5
  -1  -2   3 138611. 2238.61   4
   1  -2  -2 146735. 1859.19   2
  -1  -2   2 148112. 2217.38   2
  -1  -2   2 147704. 2193.72   3
  -1  -2   2 150558. 2211.41   5
   1  -2  -2 144270. 2091.20   3
  -1  -2   2 149028. 2155.23   1
   1  -2  -2 144574. 2127.53   4
  -1  -2   1 86860.0 1456.12   3
  -1  -2   1 86722.7 1380.97   1
  -1  -2   1 90093.4 1472.35   5
   1  -2  -1 88655.5 1398.94   3
   1  -2  -1 92109.3 1475.63   4
   1  -2   0 15841.9 493.050   4
  -1  -2   0 15333.4 404.321   1
   1  -2   0 14967.7 433.552   3
  -1  -2   0 14569.8 446.878   3
   1  -2   0 14082.5 272.997   5
  -1  -2   0 14935.9 512.437   4
   1  -2   1 110648. 1803.80   4
   1  -2   1 107545. 1473.16   5
   1  -2   1 108367. 1679.48   3
   1  -2   1 109705. 1464.02   2
  -1  -2  -1 109044. 1584.92   1
  -1  -2  -1 107334. 1676.34   3
  -1  -2  -1 108233. 1803.32   4
  -1  -2  -2 117232. 1906.29   4
   1  -2   2 118298. 1670.42   5
   1  -2   2 115777. 1821.47   3
  -1  -2  -2 117551. 1788.60   3
  -1  -2  -2 119455. 1712.09   1
   1  -2   2 118525. 1667.36   2
  -1  -2  -3 44202.8 876.227   3
  -1  -2  -3 43884.2 958.465   4
  -1  -2  -3 43684.6 837.762   1
   1  -2   3 44166.3 933.183   3
   1  -2   3 46244.7 840.010   2
   1  -2   3 45739.6 848.600   5
  -1  -2  -4 49055.9 953.712   2
   1  -2   4 50057.2 953.952   2
  -1  -2  -4 46990.6 1016.38   4
   1  -2   4 48499.1 957.216   5
   1  -2   4 48655.8 1022.22   3
  -1  -2  -4 48044.6 940.812   1
  -1  -2  -5 74480.2 1399.94   4
   1  -2   5 76552.1 1366.13   2
   1  -2   5 74321.4 1381.54   5
  -1  -2  -5 76140.5 1367.24   2
  -1  -2  -6 44856.4 1012.23   4
   1  -2   6 46372.6 1054.85   5
  -1  -2  -6 46395.2 1029.71   2
  -1  -2  -7 5454.99 335.166   4
  -1  -2  -7 5465.19 350.828   2
  -1  -2  -8 39427.5 1060.28   2
  -1  -2  -8 39229.9 984.867   4
  -1  -2  -9 15270.2 598.065   4
  -1  -2  -9 14154.7 652.261   2
  -1  -2 -10 15678.1 735.819   2
  -1  -2 -10 12893.1 566.075   4
  -1  -2 -11 593.704 263.943   2
  -1  -2 -12 8451.40 632.214   2
  -1  -2 -13 7248.20 634.902   2
  -1  -2 -14 2391.96 453.682   2
  -1  -2 -15 1325.04 408.769   2
  -1  -2 -16 7532.63 766.026   2
   1  -1 -18 1365.46 461.216   2
   1  -1 -17 943.828 436.864   2
   1  -1 -16 7965.90 763.805   2
   1  -1 -15 4020.77 546.505   2
   1  -1 -14 442.361 315.008   2
   1  -1 -13 5295.04 524.452   2
   1  -1 -12 11271.3 263.964   4
   1  -1 -12 13180.1 745.645   2
   1  -1 -12 11610.5 270.634   4
   1  -1 -11 9981.92 614.078   2
   1  -1 -11 8202.99 241.344   4
   1  -1 -10 3182.91 350.292   2
   1  -1 -10 3101.88 135.473   4
   1  -1 -10 3227.43 143.583   4
   1  -1  -9 27860.2 907.225   2
   1  -1  -9 26760.0 463.934   4
   1  -1  -9 26914.6 480.556   4
   1  -1  -8 49017.8 699.318   4
   1  -1  -8 47312.0 711.114   4
   1  -1  -7 45174.1 1058.10   2
  -1  -1   7 44237.2 957.135   4
  -1  -1   6 10279.3 439.629   5
  -1  -1   6 9640.14 386.696   4
   1  -1  -6 9238.06 407.304   2
   1  -1  -6 9352.19 432.862   6
  -1  -1   5 27194.7 675.336   4
   1  -1  -5 26562.8 678.659   6
   1  -1  -5 27289.3 670.070   2
  -1  -1   5 28009.3 718.309   5
   1  -1  -4 178113. 2522.56   2
  -1  -1   4 181812. 2605.17   4
  -1  -1   4 184135. 2495.43   3
   1  -1  -4 186186. 2551.41   6
  -1  -1   4 185729. 2639.22   5
  -1  -1   3 120618. 1831.54   4
  -1  -1   3 120570. 1712.88   3
  -1  -1   3 120531. 1823.93   5
   1  -1  -3 121312. 1689.57   2
   1  -1  -3 122697. 1724.78   6
  -1  -1   2 8392.98 260.531   3
  -1  -1   2 8541.88 305.302   5
   1  -1  -2 8499.70 214.299   3
  -1  -1   2 8863.23 317.921   4
   1  -1  -2 8749.00 216.708   2
   1  -1  -2 8380.81 205.676   5
  -1  -1   1 40158.7 740.313   5
   1  -1  -1 39281.7 625.470   3
  -1  -1   1 39218.7 678.251   3
  -1  -1   1 39764.0 702.539   1
  -1  -1   0 495911. 6180.16   3
  -1  -1   0 504084. 6193.83   1
   1  -1   0 512426. 6055.12   1
   1  -1   0 495297. 6135.62   3
   1  -1   1 10920.7 281.153   3
  -1  -1  -1 10683.4 331.279   4
   1  -1   1 10737.8 261.678   1
  -1  -1  -1 10512.8 283.174   3
  -1  -1  -1 10641.0 292.829   1
   1  -1   1 11095.0 239.898   5
   1  -1   1 10695.7 231.705   2
   1  -1   2 90602.8 1307.25   5
   1  -1   2 90584.9 1296.62   2
  -1  -1  -2 91812.7 1351.63   1
   1  -1   3 195714. 2648.55   5
  -1  -1  -3 196677. 2661.02   2
   1  -1   3 195808. 2636.19   2
  -1  -1  -3 195566. 2671.46   1
   1  -1   4 126200. 1882.96   2
  -1  -1  -4 126096. 1890.99   2
   1  -1   4 125361. 1897.98   5
   1  -1   5 5939.47 295.624   2
   1  -1   5 6189.46 306.626   5
  -1  -1  -5 6008.85 305.758   2
  -1  -1  -6 54021.9 1140.35   2
   1  -1   6 54639.0 1135.45   5
  -1  -1  -7 84569.3 1619.25   2
  -1  -1  -8 40124.0 1070.50   2
  -1  -1  -9 6327.98 442.456   2
  -1  -1 -10 17599.4 780.254   2
  -1  -1 -11 31793.2 909.144   4
  -1  -1 -11 31873.0 1139.97   2
  -1  -1 -12 5776.47 398.691   4
  -1  -1 -12 5567.72 523.959   2
  -1  -1 -13-17.9843 292.147   2
  -1  -1 -13 572.086 192.653   4
  -1  -1 -14 10162.5 775.888   2
  -1  -1 -15 6203.65 673.365   2
  -1  -1 -16 607.165 369.663   2
  -1  -1 -17-104.410 377.809   2
   1   0 -17 3108.93 554.124   2
   1   0 -16 2586.73 517.157   2
   1   0 -15-145.206 331.179   2
   1   0 -14 12862.6 869.708   2
   1   0 -13 20348.6 1011.18   2
   1   0 -13 21225.2 652.063   4
   1   0 -12 4752.22 484.473   2
   1   0 -12 4925.24 301.412   4
   1   0 -11 10304.5 649.081   2
   1   0 -11 9891.77 418.386   4
   1   0 -10 75452.6 1771.67   2
   1   0 -10 74861.7 1352.00   4
   1   0  -9 34169.7 769.751   4
   1   0  -9 33212.0 1045.46   2
   1   0  -8 10.0417 142.386   5
   1   0  -8 37.3751 73.2381   4
   1   0  -8 126.271 158.391   2
  -1   0   7 45643.6 1042.90   5
   1   0  -7 46906.6 851.583   4
  -1   0   7 44254.0 1033.34   2
   1   0  -7 44864.6 1106.51   2
   1   0  -6 216350. 3247.14   2
  -1   0   6 224401. 3159.08   5
   1   0  -6 219887. 2902.70   4
   1   0  -5 27739.5 720.397   2
   1   0  -5 28353.7 532.836   4
  -1   0   5 28664.7 682.346   5
   1   0  -5 28628.9 676.245   5
  -1   0   5 27093.3 680.951   2
  -1   0   5 26992.8 508.512   4
  -1   0   4 9454.61 243.032   4
   1   0  -4 10514.3 373.559   2
  -1   0   4 9891.95 349.277   2
  -1   0   4 10156.9 341.086   5
   1   0  -4 9227.05 320.943   5
   1   0  -4 10379.9 252.576   4
  -1   0   3 97701.9 1435.35   5
  -1   0   3 95889.2 1292.16   4
   1   0  -3 95720.0 1465.79   2
   1   0  -3 96386.4 1282.60   4
  -1   0   3 96880.4 1450.92   2
   1   0  -3 96018.9 1408.84   5
  -1   0   2 70927.5 1074.29   5
   1   0  -2 72720.7 978.046   4
   1   0  -2 72536.2 1061.25   5
  -1   0   2 70971.1 1090.26   2
  -1   0   2 73796.7 996.056   4
   1   0  -2 73252.1 1098.91   2
  -1   0   1 43404.1 668.400   1
  -1   0   1 42525.4 673.756   5
   1   0  -1 42509.1 665.713   5
  -1   0  -1 3180.67 138.402   1
  -1   0  -1 3270.16 131.633   6
  -1   0  -2 33316.6 623.147   1
  -1   0  -2 33160.1 595.647   2
  -1   0  -3 2343.21 158.529   2
  -1   0  -4 88761.5 1437.79   2
  -1   0  -5 75674.8 1356.39   2
  -1   0  -6 193070. 2896.78   2
   1   0   6 191839. 2857.87   5
  -1   0  -7 1821.19 237.221   2
  -1   0  -8 30692.2 933.609   2
  -1   0  -8 31236.4 846.222   4
  -1   0  -9 67098.0 1417.09   4
  -1   0  -9 64861.9 1559.10   2
  -1   0 -10 9375.08 495.253   4
  -1   0 -10 9398.77 589.166   2
  -1   0 -11-88.5623 156.706   4
  -1   0 -11-266.283 236.983   2
  -1   0 -12 9319.17 546.341   4
  -1   0 -12 9931.32 673.677   2
  -1   0 -13 7398.95 508.061   4
  -1   0 -13 7943.56 662.727   2
  -1   0 -14 3908.00 524.327   2
  -1   0 -14 4349.26 417.994   4
  -1   0 -15 159.761 354.401   2
  -1   0 -16 2089.23 511.797   2
  -1   0 -17 4869.32 710.774   2
   1   1 -17 1289.19 481.793   2
   1   1 -16 8672.34 822.717   2
   1   1 -15 3654.62 575.504   2
   1   1 -14 450.470 328.684   2
   1   1 -14 906.189 217.305   4
   1   1 -13 5435.84 413.259   4
   1   1 -13 5026.97 562.338   2
   1   1 -12 15651.5 661.375   4
   1   1 -12 13702.7 818.515   2
   1   1 -11 5723.77 519.922   2
   1   1 -11 6054.38 404.883   4
   1   1 -10 3391.30 305.377   4
   1   1 -10 3228.55 339.473   5
   1   1 -10 3191.04 381.497   2
   1   1  -9 34430.9 990.189   5
   1   1  -9 33317.1 913.499   4
   1   1  -9 33374.6 1087.48   2
   1   1  -8 47926.4 1267.33   2
   1   1  -8 47554.0 1091.92   4
   1   1  -7 49022.6 1212.52   2
  -1   1   7 49363.7 1050.38   2
  -1   1   7 49177.4 1053.48   5
   1   1  -7 47568.7 1059.64   4
   1   1  -6 10490.1 417.722   4
  -1   1   6 10137.1 393.219   2
   1   1  -6 11186.5 496.870   2
  -1   1   6 10301.1 393.901   5
  -1   1   5 34339.1 725.923   5
  -1   1   5 33418.4 720.989   2
   1   1  -5 32384.5 847.876   2
   1   1  -5 33588.6 780.283   4
   1   1  -4 185995. 2665.09   4
  -1   1   4 191270. 2543.96   5
  -1   1   4 187526. 2469.92   3
   1   1  -4 184729. 2748.23   2
  -1   1   4 187138. 2543.53   2
   1   1  -3 125655. 1868.02   4
  -1   1   3 126940. 1708.23   2
  -1   1   3 123942. 1701.94   5
  -1   1   3 122223. 1676.99   3
  -1   1   3 124017. 1725.68   6
   1   1  -3 125337. 1905.08   2
   1   1  -2 10912.4 354.191   2
  -1   1   2 10753.4 269.272   6
  -1   1   2 10877.2 259.155   3
  -1   1   2 10706.9 254.259   4
  -1   1   2 10699.9 233.914   5
   1   1  -2 10487.5 285.080   3
   1   1  -2 10855.1 351.555   4
  -1   1   2 10092.4 232.884   2
   1   1  -1 66367.5 995.781   3
   1   1  -1 64301.8 1013.63   1
  -1   1   1 65289.1 932.039   3
  -1   1   1 63281.1 984.705   4
   1   1  -1 64465.3 1075.20   4
  -1   1   0 514677. 6149.96   1
  -1   1   0 502276. 6216.09   3
   1   1   0 521097. 6295.87   3
   1   1   0 520354. 6374.16   4
   1   1   0 517577. 6299.70   1
  -1   1   0 497177. 6345.49   4
  -1   1  -1 15803.8 307.168   2
  -1   1  -1 15662.2 430.421   4
   1   1   1 14545.9 363.075   1
  -1   1  -2 95857.5 1396.31   2
  -1   1  -2 100883. 1572.29   4
   1   1   2 97805.4 1505.36   6
   1   1   2 97817.9 1442.43   1
  -1   1  -3 189943. 2731.06   4
  -1   1  -3 190631. 2591.94   2
   1   1   3 184134. 2642.01   6
   1   1   3 188857. 2582.39   1
  -1   1  -4 112934. 1869.06   4
  -1   1  -4 112756. 1773.44   2
   1   1   4 112984. 1738.65   1
   1   1   4 112676. 1798.62   6
   1   1   5 5551.64 287.749   1
  -1   1  -5 5722.86 341.160   4
  -1   1  -5 5719.92 316.902   2
   1   1   6 45857.1 1012.83   1
  -1   1  -6 45729.0 1070.12   2
  -1   1  -6 46228.9 1098.70   4
  -1   1  -7 72690.3 1526.00   4
  -1   1  -7 73461.4 1532.86   2
  -1   1  -8 34562.1 1009.05   4
  -1   1  -8 34927.8 1034.27   2
  -1   1  -9 7184.31 466.833   4
  -1   1  -9 6796.07 488.221   2
  -1   1 -10 17373.7 750.907   4
  -1   1 -10 15371.4 764.552   2
  -1   1 -11 29475.2 1040.55   4
  -1   1 -11 30609.9 1145.74   2
  -1   1 -12 6408.31 596.408   2
  -1   1 -12 6894.83 530.407   4
  -1   1 -13 906.925 352.686   2
  -1   1 -13 750.463 263.817   4
  -1   1 -14 12758.5 887.427   2
  -1   1 -14 11388.6 702.645   4
  -1   1 -15 5338.16 649.486   2
  -1   1 -16 467.314 366.963   2
  -1   1 -17 75.7624 405.680   2
   1   2 -17 3932.66 677.554   2
   1   2 -16 4234.11 651.827   2
   1   2 -15 809.298 390.953   2
   1   2 -14 8728.88 607.678   4
   1   2 -14 9482.15 794.234   2
   1   2 -13 6575.06 643.788   2
   1   2 -13 6782.27 525.240   4
   1   2 -12 1001.52 270.998   4
   1   2 -12 891.075 299.417   2
   1   2 -11 20048.7 844.095   5
   1   2 -11 18928.3 939.655   2
   1   2 -11 18356.0 808.965   4
   1   2 -10 34231.1 1085.30   4
   1   2 -10 31612.3 1168.09   2
   1   2 -10 33931.3 1065.04   5
   1   2  -9 4298.97 374.404   4
   1   2  -9 4760.89 381.752   5
   1   2  -9 4070.97 424.445   2
   1   2  -8 1692.02 241.320   5
   1   2  -8 1646.78 280.872   2
   1   2  -8 1409.14 230.105   4
   1   2  -7 35755.3 1023.20   4
  -1   2   7 36217.9 854.294   2
  -1   2   7 36307.7 860.777   3
   1   2  -7 35369.2 1054.83   2
   1   2  -7 35315.4 937.364   5
  -1   2   7 36251.0 861.256   5
   1   2  -6 106417. 1844.63   5
   1   2  -6 103188. 1982.40   2
  -1   2   6 106408. 1718.75   5
  -1   2   6 106050. 1697.20   2
  -1   2   6 107251. 1739.55   3
  -1   2   6 105712. 1786.49   6
   1   2  -6 104968. 1964.63   4
  -1   2   5 23963.8 471.174   4
  -1   2   5 25662.3 632.297   3
   1   2  -5 24776.0 769.236   2
  -1   2   5 24492.8 656.144   6
   1   2  -5 24153.7 764.732   4
   1   2  -5 23717.3 676.639   5
  -1   2   5 24724.7 575.847   2
  -1   2   5 24414.9 586.651   5
   1   2  -4 3396.56 281.359   4
  -1   2   4 3531.49 175.147   2
  -1   2   4 3568.67 182.622   5
   1   2  -4 3521.83 266.565   2
  -1   2   4 3602.22 230.102   6
  -1   2   4 3532.31 175.288   4
  -1   2   4 3395.52 211.511   3
   1   2  -4 3569.48 244.072   5
   1   2  -3 132716. 2177.82   4
   1   2  -3 129432. 2094.34   2
  -1   2   3 131106. 1952.43   3
  -1   2   3 134773. 1918.98   4
   1   2  -3 132939. 1977.27   3
   1   2  -3 130946. 2014.61   5
  -1   2   3 131848. 1701.32   1
  -1   2   2 139690. 2112.21   4
   1   2  -2 145743. 2131.56   3
  -1   2   2 147187. 2083.44   3
   1   2  -2 142482. 2136.79   5
   1   2  -2 145563. 2307.35   4
   1   2  -1 92371.4 1632.88   4
  -1   2   1 93938.2 1545.58   4
   1   2  -1 94695.9 1520.72   3
  -1   2   1 93549.9 1455.21   3
   1   2  -1 91960.0 1504.90   5
  -1   2   0 14307.2 481.052   4
   1   2   0 13765.0 487.407   4
   1   2   0 14756.0 447.159   5
  -1   2   0 13960.4 406.111   3
  -1   2   0 14040.4 242.954   5
   1   2   0 13690.2 385.014   1
   1   2   1 96771.5 1458.93   1
  -1   2  -1 94490.1 1481.59   3
  -1   2  -1 96550.4 1296.68   5
  -1   2  -1 96552.3 1356.27   2
  -1   2  -1 95741.3 1681.90   4
   1   2   1 96146.8 1615.05   4
  -1   2  -2 133534. 1844.06   5
   1   2   2 136777. 1949.92   1
   1   2   2 133455. 2071.16   4
  -1   2  -2 135605. 2234.78   4
  -1   2  -2 137671. 1921.93   2
  -1   2  -3 47574.1 876.445   5
  -1   2  -3 48449.7 939.343   2
  -1   2  -3 49600.9 1144.91   4
   1   2   3 50371.5 928.154   1
  -1   2  -4 42940.4 935.433   2
   1   2   4 43964.6 1014.87   6
  -1   2  -4 42518.8 865.823   5
   1   2   4 42675.0 878.871   1
  -1   2  -4 43242.9 1099.40   4
   1   2   5 81678.3 1567.87   6
  -1   2  -5 80844.5 1686.14   4
   1   2   5 81287.2 1425.49   1
  -1   2  -5 79931.0 1518.86   2
   1   2   6 51850.5 1104.25   1
  -1   2  -6 53190.0 1325.30   4
   1   2   6 51401.7 1196.69   6
  -1   2  -6 51227.8 1204.56   2
  -1   2  -7 4776.52 367.956   2
  -1   2  -7 4398.26 388.266   4
  -1   2  -8 39518.2 1164.32   2
  -1   2  -8 41386.6 1231.56   4
  -1   2  -9 20865.0 874.884   2
  -1   2  -9 20244.6 865.744   4
  -1   2 -10 12026.8 710.065   2
  -1   2 -10 11805.5 690.254   4
  -1   2 -11 1114.69 327.857   2
  -1   2 -11 1366.04 322.681   4
  -1   2 -12 8244.47 617.894   4
  -1   2 -12 9898.54 727.076   2
  -1   2 -13 7227.35 685.551   2
  -1   2 -13 6077.47 560.651   4
  -1   2 -14 1614.63 428.663   2
  -1   2 -14 1716.33 366.832   4
  -1   2 -15 132.918 271.333   4
  -1   2 -15 583.778 351.621   2
  -1   2 -16 7669.42 838.170   2
   1   3 -16 3392.14 599.932   2
   1   3 -15 2888.82 439.871   4
   1   3 -15 2824.55 534.365   2
   1   3 -14 1315.49 359.528   4
   1   3 -14 1239.27 432.270   2
   1   3 -13 1430.79 340.259   4
   1   3 -13 2014.65 463.005   2
   1   3 -12 10109.1 702.254   4
   1   3 -12 11143.1 799.086   2
   1   3 -12 9460.26 654.219   5
   1   3 -11 12226.9 798.905   2
   1   3 -11 12830.1 762.182   4
   1   3 -11 13562.1 717.174   5
   1   3 -10 4512.99 454.647   4
   1   3 -10 3856.88 464.088   2
   1   3 -10 4178.77 412.586   5
   1   3  -9 23099.9 975.007   2
   1   3  -9 23602.1 859.536   5
   1   3  -9 23481.3 973.987   4
   1   3  -8 81066.3 1696.38   5
   1   3  -8 82459.8 1924.81   4
   1   3  -8 81804.7 1900.60   2
  -1   3   8 80640.6 1480.86   1
  -1   3   7 19356.8 691.337   6
   1   3  -7 19824.3 844.096   4
  -1   3   7 19625.0 557.403   1
  -1   3   7 19234.0 600.625   5
   1   3  -7 20043.0 706.778   5
   1   3  -7 19265.8 805.085   2
  -1   3   6 6597.66 283.650   4
  -1   3   6 6494.18 275.333   1
  -1   3   6 6365.01 387.720   6
   1   3  -6 6595.40 479.896   4
  -1   3   6 6232.36 312.853   5
   1   3  -6 6703.58 445.787   2
   1   3  -6 7109.85 402.266   5
   1   3  -5 85981.1 1773.23   2
  -1   3   5 90607.0 1653.29   3
  -1   3   5 89396.1 1323.78   1
  -1   3   5 92324.6 1687.27   6
   1   3  -5 85884.4 1879.39   4
  -1   3   5 89144.1 1497.16   4
   1   3  -5 87774.5 1632.46   5
  -1   3   4 104694. 1439.14   1
   1   3  -4 108231. 1825.31   3
   1   3  -4 102418. 1805.78   5
   1   3  -4 106384. 1940.80   2
  -1   3   4 106995. 1770.81   4
  -1   3   4 107069. 1838.70   3
   1   3  -4 109170. 2110.82   4
   1   3  -3 4386.23 286.138   5
  -1   3   3 5237.64 307.471   3
  -1   3   3 5056.00 306.561   4
   1   3  -3 4628.06 376.575   4
   1   3  -2 9019.07 394.066   5
  -1   3   2 9406.60 275.756   5
  -1   3   2 8594.40 391.194   3
  -1   3   2 9516.76 434.653   4
   1   3  -2 9942.14 518.729   4
  -1   3   1 83943.2 1490.10   3
  -1   3   1 81559.2 1163.43   5
  -1   3   1 83423.8 1603.27   4
   1   3  -1 78952.5 1449.94   5
   1   3  -1 81257.6 1668.43   4
   1   3   0 32415.7 718.216   1
   1   3   0 31745.1 919.449   4
   1   3   0 34364.8 817.000   5
  -1   3   0 33022.9 559.603   5
  -1   3   0 32703.4 805.932   3
  -1   3   0 32541.6 928.089   4
   1   3   1 20856.9 633.500   5
  -1   3  -1 21257.0 762.379   4
  -1   3  -1 20890.7 434.263   5
  -1   3  -1 22471.3 630.483   3
   1   3   1 21764.7 720.227   4
   1   3   1 21932.3 549.945   1
   1   3   2 40735.6 1013.99   4
  -1   3  -2 40704.8 1123.69   4
  -1   3  -2 39964.4 824.472   2
  -1   3  -2 42387.9 921.289   3
   1   3   2 40392.9 825.065   1
  -1   3  -2 39238.3 728.112   5
  -1   3  -3 39305.6 1119.19   4
   1   3   3 36755.2 935.319   4
  -1   3  -3 36074.9 742.337   5
   1   3   3 36839.3 793.263   1
  -1   3  -3 36775.1 839.915   2
   1   3   4 44373.8 916.995   1
  -1   3  -4 41803.4 991.747   2
  -1   3  -4 44400.8 1247.03   4
  -1   3  -4 40426.7 871.929   5
  -1   3  -5 8581.35 383.026   5
  -1   3  -5 8107.79 534.281   4
   1   3   5 8600.44 384.308   1
   1   3   5 8977.62 493.812   6
  -1   3  -5 8844.55 452.899   2
   1   3   6 19978.9 751.789   6
  -1   3  -6 19451.8 852.778   4
  -1   3  -6 19522.6 729.340   2
  -1   3  -6 18138.6 616.183   5
   1   3   6 19466.6 622.526   1
  -1   3  -7 20687.7 808.616   2
   1   3   7 21430.4 810.306   6
  -1   3  -7 21141.8 915.411   4
  -1   3  -8 22990.3 917.487   2
  -1   3  -8 22731.3 994.749   4
   1   3   8 25080.1 905.621   6
  -1   3  -9 1833.04 348.518   4
  -1   3  -9 986.559 281.665   2
  -1   3 -10 14748.9 854.737   4
  -1   3 -10 16070.4 854.420   2
  -1   3 -11 13707.9 845.230   4
  -1   3 -11 12050.1 787.978   2
  -1   3 -12 5058.44 560.235   4
  -1   3 -12 3665.51 515.041   2
  -1   3 -13 963.839 374.524   2
  -1   3 -13 527.147 316.591   4
  -1   3 -14 5472.22 670.048   2
  -1   3 -14 6014.10 656.334   4
  -1   3 -15 2056.55 439.363   4
  -1   3 -15 1978.72 508.198   2
  -1   3 -16 507.247 436.489   2
   1   4 -16 425.502 460.531   2
   1   4 -15 965.475 362.297   4
   1   4 -15 1299.13 459.962   2
   1   4 -14 6126.79 656.187   4
   1   4 -14 6901.81 756.285   2
   1   4 -13 7083.67 719.308   2
   1   4 -13 6406.45 600.768   5
   1   4 -13 6562.66 653.172   4
   1   4 -12-295.601 277.071   5
   1   4 -12-48.0759 260.078   4
   1   4 -12 430.682 325.018   2
   1   4 -11 5080.70 485.251   5
   1   4 -11 3922.18 502.700   2
   1   4 -11 4311.35 514.919   4
   1   4 -10 18688.0 986.820   4
   1   4 -10 19091.9 978.337   2
   1   4 -10 19137.5 834.935   5
   1   4  -9 6659.53 488.200   5
  -1   4   9 6422.72 478.318   6
   1   4  -9 5528.62 558.871   4
   1   4  -9 5681.22 524.700   2
  -1   4   8 1535.92 177.183   1
   1   4  -8 1677.53 284.808   5
   1   4  -8 1297.52 331.678   4
   1   4  -8 1748.69 316.107   2
  -1   4   8 1890.46 302.734   6
   1   4  -7 12280.9 685.983   2
  -1   4   7 13332.7 630.349   6
  -1   4   7 11865.1 470.467   5
  -1   4   7 12009.3 404.037   1
   1   4  -7 12151.6 580.716   5
   1   4  -7 12035.0 740.207   4
  -1   4   6 31116.2 635.714   1
  -1   4   6 30869.2 838.270   4
   1   4  -6 35055.6 1228.48   4
   1   4  -6 33108.7 1081.95   2
  -1   4   6 30945.0 967.949   6
   1   4  -6 33236.5 946.571   5
  -1   4   5 19599.5 676.311   4
   1   4  -5 21012.6 919.728   4
  -1   4   5 18676.4 400.842   1
   1   4  -5 20989.9 703.705   5
   1   4  -4 177.630 130.276   5
  -1   4   4 58.7486 124.005   4
   1   4  -4 105.139 179.998   4
   1   4  -3 13162.2 704.164   4
  -1   4   3 13238.5 413.363   5
   1   4  -3 13235.6 536.525   5
  -1   4   3 12883.6 589.536   4
   1   4  -2 68991.1 1711.54   4
   1   4  -2 71926.6 1424.68   5
  -1   4   2 73605.3 1606.96   4
  -1   4   2 72423.2 1160.59   5
  -1   4   1 5689.41 224.065   5
  -1   4   1 5047.92 403.896   4
   1   4  -1 5622.03 449.849   4
   1   4  -1 6005.49 358.012   5
   1   4   0 4868.15 319.654   5
  -1   4   0 5280.72 211.788   5
  -1   4   0 5888.45 447.013   4
   1   4   0 5811.29 438.888   4
  -1   4  -1 42386.2 1263.81   4
   1   4   1 42772.5 1197.03   4
   1   4   1 42252.1 1029.78   5
   1   4   1 40314.7 872.593   1
  -1   4  -1 41101.4 755.738   5
  -1   4  -2 46770.7 1354.60   4
  -1   4  -2 42635.4 819.927   5
   1   4   2 44215.1 1204.48   4
   1   4   2 43440.1 1074.64   5
   1   4   2 43736.9 915.495   1
  -1   4  -3 2421.70 191.362   5
   1   4   3 2821.06 305.626   4
   1   4   3 3195.99 226.287   1
  -1   4  -3 2957.24 375.418   4
  -1   4  -3 3361.88 261.959   2
  -1   4  -4 25678.6 1039.44   4
  -1   4  -4 25240.2 779.383   2
   1   4   4 25421.9 685.537   1
  -1   4  -4 25846.0 671.216   5
   1   4   4 25179.8 843.076   4
  -1   4  -5 44005.3 1145.72   2
   1   4   5 45761.8 1288.82   6
  -1   4  -5 42966.8 1406.09   4
  -1   4  -5 42451.6 973.694   5
   1   4   5 42254.0 970.335   1
  -1   4  -6 29878.7 1183.98   4
  -1   4  -6 29049.1 954.802   2
  -1   4  -6 27419.6 803.157   5
   1   4   6 27531.2 993.970   6
   1   4   6 28700.7 797.965   1
  -1   4  -7 4168.82 341.216   5
  -1   4  -7 4099.75 396.706   2
  -1   4  -7 4946.06 532.260   4
   1   4   7 4253.42 412.768   6
   1   4   8 23927.6 961.609   6
  -1   4  -8 25275.9 997.461   2
  -1   4  -8 24074.8 1130.47   4
  -1   4  -9 20316.3 954.345   2
  -1   4  -9 20400.0 1067.19   4
   1   4   9 20393.2 904.743   6
  -1   4 -10 8170.17 711.891   4
  -1   4 -10 7988.90 656.056   2
  -1   4 -11 378.839 274.841   2
  -1   4 -11 159.855 309.119   4
  -1   4 -12 8347.93 765.617   4
  -1   4 -12 7512.60 719.406   2
  -1   4 -13 5189.60 640.747   4
  -1   4 -13 6286.46 711.928   2
  -1   4 -14 2200.43 519.547   2
  -1   4 -14 2380.34 514.801   4
  -1   4 -15 734.164 463.138   2
  -1   4 -15-113.537 346.617   4
  -1   4 -16 1369.96 440.438   4
   1   5 -15 2809.70 635.034   2
   1   5 -15 3022.34 582.150   4
   1   5 -14 1220.57 443.151   2
   1   5 -14 1154.99 432.221   4
   1   5 -13 2075.18 445.897   4
   1   5 -13 2754.76 548.151   2
   1   5 -13 2683.79 456.255   5
   1   5 -12 8691.25 797.120   2
   1   5 -12 8583.84 796.069   4
   1   5 -12 9582.20 699.000   5
   1   5 -11 7798.56 749.484   4
   1   5 -11 8213.14 612.541   5
   1   5 -11 8045.48 728.006   2
   1   5 -10 481.815 254.265   5
   1   5 -10 658.359 349.984   4
  -1   5  10 1069.92 310.000   6
   1   5 -10 471.333 307.888   2
  -1   5   9 3637.14 408.753   6
   1   5  -9 3701.67 395.182   5
   1   5  -9 4191.15 556.174   4
   1   5  -9 3870.06 501.628   2
  -1   5   8 27488.8 1032.09   6
   1   5  -8 28252.2 1279.12   4
   1   5  -8 29818.8 1000.69   5
  -1   5   7 2496.50 271.696   4
   1   5  -7 2716.58 464.063   4
  -1   5   7 2207.92 329.859   6
   1   5  -7 2190.82 300.685   5
   1   5  -6-322.275 326.984   4
  -1   5   6-63.7500 138.947   4
  -1   5   6 86.5380 208.831   6
   1   5  -6 68.2305 164.986   5
  -1   5   6 36.0266 30.8694   1
  -1   5   5 8916.64 525.502   4
   1   5  -5 9392.73 701.040   4
   1   5  -5 8571.22 485.878   5
   1   5  -4 28589.6 1196.27   4
  -1   5   4 27686.8 978.985   4
  -1   5   4 28610.0 736.044   5
   1   5  -4 29047.4 885.561   5
  -1   5   3 2978.87 337.782   4
  -1   5   3 3425.98 223.569   5
   1   5  -3 3213.03 299.942   5
   1   5  -3 3532.65 440.293   4
  -1   5   2 2982.32 194.931   5
  -1   5   2 2606.79 348.167   4
   1   5  -2 2521.89 397.646   4
   1   5  -2 2917.87 277.740   5
   1   5  -1 22658.2 991.708   4
  -1   5   1 23301.6 967.769   4
   1   5  -1 23449.9 778.735   5
  -1   5   1 24581.5 560.575   5
  -1   5   0 34207.7 1204.45   4
  -1   5   0 31907.5 666.962   5
   1   5   0 33342.7 1192.67   4
   1   5   0 32239.0 930.517   5
   1   5   1 9770.65 499.821   5
   1   5   1 8861.53 596.316   4
  -1   5  -1 9038.89 647.793   4
  -1   5  -1 9236.15 328.270   5
   1   5   2 14582.2 625.070   5
   1   5   2 14852.1 754.688   4
  -1   5  -2 13305.0 787.209   4
  -1   5  -2 14014.4 438.742   5
   1   5   3 26595.9 715.199   1
   1   5   3 28247.8 914.056   5
   1   5   3 28112.1 1028.35   4
  -1   5  -3 26697.3 1151.86   4
  -1   5  -3 27126.4 678.165   5
  -1   5  -4 21399.6 1049.08   4
   1   5   4 22412.0 823.611   5
   1   5   4 20514.8 626.589   1
  -1   5  -4 19993.9 616.609   5
   1   5   4 22276.2 882.125   4
   1   5   5 369.547 210.738   4
  -1   5  -5 263.066 282.421   4
   1   5   5 209.320 96.9843   1
  -1   5  -5 194.665 126.624   5
  -1   5  -5 385.293 187.587   2
  -1   5  -6 16202.1 748.491   2
   1   5   6 15666.1 810.161   6
  -1   5  -6 14333.9 583.619   5
  -1   5  -6 15274.5 938.052   4
   1   5   7 13314.7 761.146   6
  -1   5  -7 12891.7 894.901   4
  -1   5  -7 13356.2 597.485   5
  -1   5  -7 12735.8 703.247   2
  -1   5  -8 9518.38 667.418   2
   1   5   8 9477.35 670.930   6
  -1   5  -8 9454.09 798.657   4
  -1   5  -9-8.05056 241.722   2
   1   5   9-294.536 242.949   6
  -1   5 -10 4886.59 653.802   4
   1   5  10 4532.08 524.152   6
  -1   5 -10 4790.21 564.491   2
  -1   5 -11 7824.88 786.959   4
  -1   5 -11 7495.67 711.523   2
  -1   5 -12 2838.25 566.385   4
  -1   5 -12 2715.11 520.847   2
  -1   5 -13 925.252 411.274   2
  -1   5 -13 1091.66 440.605   4
  -1   5 -14 1347.55 471.133   4
  -1   5 -14 1781.71 513.988   2
  -1   5 -15 2568.60 570.261   4
  -1   5 -15 2116.50 560.566   2
   1   6 -14 2252.47 575.823   4
   1   6 -13-65.1599 402.540   4
   1   6 -12 940.784 460.015   4
   1   6 -12 690.017 309.424   5
   1   6 -11 2633.54 416.526   5
   1   6 -11 2068.97 506.904   4
  -1   6  10 6130.09 569.082   6
   1   6 -10 5416.66 682.582   4
   1   6 -10 6191.26 554.370   5
   1   6  -9 4728.19 664.762   4
  -1   6   9 5848.30 553.481   6
   1   6  -9 5638.68 494.661   5
   1   6  -8 362.824 298.532   4
   1   6  -8 187.040 231.396   5
  -1   6   8-315.484 257.305   6
  -1   6   7 7195.47 498.672   4
   1   6  -7 5777.14 672.832   4
  -1   6   7 6333.43 541.540   6
   1   6  -7 7557.94 511.059   5
   1   6  -6 19360.2 1122.51   4
  -1   6   6 19848.7 700.940   5
  -1   6   6 18746.0 838.807   4
   1   6  -6 20284.9 806.123   5
  -1   6   6 19098.0 912.024   6
  -1   6   5 6161.65 365.795   5
   1   6  -5 6984.74 685.514   4
  -1   6   5 6428.03 529.498   4
   1   6  -5 7146.17 476.943   5
  -1   6   4 3946.91 432.015   4
   1   6  -4 3736.85 539.456   4
   1   6  -4 4127.60 367.291   5
  -1   6   4 3823.51 267.183   5
   1   6  -3 15262.3 660.361   5
  -1   6   3 14363.0 820.488   4
   1   6  -3 15053.6 938.350   4
  -1   6   3 16290.4 504.743   5
   1   6  -2 26616.4 874.896   5
   1   6  -2 28697.9 1259.79   4
  -1   6   2 26596.4 1130.31   4
  -1   6   2 27563.9 647.356   5
  -1   6   1 760.857 114.180   5
   1   6  -1 792.173 318.419   4
  -1   6   1 1331.74 349.520   4
   1   6  -1 1147.58 231.865   5
  -1   6   0 5237.48 552.994   4
   1   6   0 6281.95 591.245   4
   1   6   0 5529.23 405.871   5
  -1   6   0 5549.80 260.493   5
  -1   6  -1 8834.81 341.951   5
   1   6   1 8410.44 660.293   4
  -1   6  -1 7015.23 640.019   4
   1   6   1 8991.77 511.776   5
   1   6   2 19388.9 957.190   4
   1   6   2 19846.5 781.613   5
  -1   6  -2 20898.4 1084.05   4
  -1   6  -2 19763.3 563.555   5
  -1   6  -3 2527.14 220.976   5
   1   6   3 2422.62 381.235   4
  -1   6  -3 1756.06 416.203   4
   1   6   3 2166.40 296.688   5
  -1   6  -4 3331.04 268.676   5
   1   6   4 2727.21 382.827   4
   1   6   4 2173.06 309.671   5
  -1   6  -4 3459.99 523.265   4
  -1   6  -5 8764.61 445.445   5
   1   6   5 8513.25 600.014   4
   1   6   5 9601.78 591.168   5
  -1   6  -5 9720.73 828.196   4
  -1   6  -6 6329.96 707.463   4
  -1   6  -6 6642.50 419.274   5
   1   6   6 6741.03 523.198   5
   1   6   6 6461.88 605.127   6
  -1   6  -7 413.080 371.816   4
   1   6   7 724.772 318.154   6
  -1   6  -7 819.051 214.549   5
  -1   6  -8 2578.44 574.990   4
   1   6   8 4134.49 524.055   6
  -1   6  -9 6812.13 637.320   2
  -1   6  -9 5774.02 731.655   4
   1   6   9 5850.27 603.311   6
   1   6  10 2431.29 449.831   6
  -1   6 -10 1815.24 504.088   4
  -1   6 -10 2735.26 482.542   2
  -1   6 -11 7.30599 335.317   2
  -1   6 -11-271.347 454.357   4
  -1   6 -12 2614.85 515.489   2
  -1   6 -12 2734.64 629.658   4
  -1   6 -13 2813.28 577.557   2
  -1   6 -13 3263.02 640.377   4
   1   7 -12 2489.01 428.274   5
   1   7 -11 912.622 511.519   4
  -1   7  11 1734.89 410.342   6
   1   7 -11 508.522 265.123   5
   1   7 -10 619.821 479.353   4
  -1   7  10 169.653 280.091   6
   1   7 -10 360.688 276.234   5
  -1   7   9 3345.11 495.259   6
   1   7  -9 4000.39 462.529   5
   1   7  -8 4377.61 711.180   4
   1   7  -8 4146.51 437.570   5
  -1   7   8 4168.34 507.297   6
   1   7  -7 1583.03 285.548   5
   1   7  -7 1839.05 488.568   4
  -1   7   7 1595.07 366.245   6
  -1   7   7 1460.80 305.941   4
   1   7  -6 149.689 342.036   4
  -1   7   6 160.082 300.664   6
  -1   7   6 79.5382 245.864   4
   1   7  -6 234.516 209.935   5
  -1   7   5 5532.18 550.330   4
   1   7  -5 4539.73 636.030   4
   1   7  -5 6031.72 460.198   5
   1   7  -4 9175.24 547.503   5
  -1   7   4 8840.63 700.453   4
   1   7  -4 9988.25 866.638   4
   1   7  -3 2160.87 483.582   4
  -1   7   3 2587.46 438.586   4
   1   7  -3 2006.00 293.983   5
   1   7  -2 1003.79 414.521   4
  -1   7   2 492.049 323.825   4
   1   7  -2 628.776 186.646   5
   1   7  -1 7138.67 472.882   5
   1   7  -1 7771.04 737.300   4
  -1   7   1 6450.64 651.969   4
  -1   7   0 12108.5 893.983   4
   1   7   0 11374.2 595.290   5
   1   7   0 10688.7 835.000   4
   1   7   1 5291.77 604.328   4
  -1   7  -1 6736.83 700.561   4
   1   7   1 5664.66 430.547   5
   1   7   2 753.198 310.838   4
  -1   7  -2 1319.13 441.766   4
   1   7   2 706.755 248.261   5
   1   7   3 5945.26 467.016   5
  -1   7  -3 6317.40 716.669   4
   1   7   3 5503.39 582.411   4
   1   7   4 11084.7 641.079   5
  -1   7  -4 11226.9 932.804   4
   1   7   4 12458.4 813.138   4
   1   7   5 1230.47 284.661   5
   1   7   5 1608.46 375.047   4
  -1   7  -5 900.481 431.364   4
   1   7   6 3392.20 408.821   5
  -1   7  -6 2392.26 525.282   4
   1   7   6 2676.93 477.380   6
  -1   7  -7 6365.09 808.195   4
   1   7   7 6686.83 561.590   5
   1   7   7 6975.47 675.575   6
  -1   7  -8 1660.97 561.443   4
   1   7   8 1574.25 425.760   6
   1   7   9 120.287 350.354   6
  -1   7  -9 248.680 455.699   4
   1   7  10 4756.97 617.057   6
  -1   7 -10 3479.09 674.404   4
  -1   8   9 728.450 345.360   6
  -1   8   8 613.184 337.358   6
  -1   8   7 1738.53 439.366   6
   1   8  -7 1793.97 579.561   4
   1   8  -6 2778.21 674.309   4
  -1   8   6 2352.54 473.333   6
  -1   8   5 1326.28 391.236   4
   1   8  -5 982.182 502.210   4
   1   8  -4-115.516 355.700   4
  -1   8   4 261.832 308.833   4
  -1   8   3 2597.89 479.351   4
   1   8  -3 2228.77 523.122   4
  -1   8   2 5595.52 670.609   4
   1   8  -2 6145.28 735.681   4
  -1   8   1 484.371 321.251   4
   1   8  -1 981.463 402.030   4
  -1   8   0 2593.94 544.320   4
   1   8   0 1266.79 440.782   4
   1   8   1 5266.75 666.000   4
  -1   8  -1 4212.14 655.440   4
  -1   8  -2 3558.20 633.859   4
   1   8   2 4079.68 599.051   4
  -1   8  -3 65.6503 358.611   4
   1   8   3 148.065 326.018   4
   1   8   4 2342.22 469.737   4
  -1   8  -4 2325.46 565.775   4
   1   8   5 1279.89 382.622   4
  -1   8  -5 1057.21 439.148   4
  -1   8  -6 814.245 462.281   4
   1   8   6 783.919 428.329   6
  -1   8  -7 46.0152 483.480   4
   1   8   7 504.192 386.134   6
  -1   9   3-128.841 384.141   4
  -1   9   2-7.36819 374.355   4
   1   9  -1 940.721 465.109   4
  -1   9   1 1213.16 474.187   4
  -1   9   0 2123.44 541.088   4
   1   9   0 1106.24 492.722   4
  -1   9  -1 228.919 380.974   4
   1   9   1-149.452 383.835   4
   1   9   2 347.883 392.314   4
   1   9   3 737.955 404.261   4
   1   9   4 1252.54 403.182   4
   2  -9  -2 2221.19 483.445   3
  -2  -8   7-320.965 420.547   3
   2  -8  -7 944.841 328.966   3
  -2  -8   6 754.103 414.626   3
   2  -8  -6 1072.70 326.502   3
  -2  -8   5 4204.45 589.133   3
   2  -8  -5 3651.21 487.707   3
   2  -8  -4 2071.50 408.699   3
  -2  -8   4 2351.65 491.006   3
  -2  -8   3 1001.49 432.144   3
   2  -8  -3 691.288 338.893   3
   2  -8  -2 2602.85 484.271   3
  -2  -8   2 2288.18 461.701   3
   2  -8  -1 3332.65 506.908   3
  -2  -8   1 3851.24 555.379   3
  -2  -8   0 1534.99 422.338   3
   2  -8   0 2191.56 480.500   3
  -2  -8  -1 104.695 326.259   3
   2  -8   1 720.378 381.817   3
   2  -8   2 2284.31 477.095   3
  -2  -8  -2 1320.18 414.508   3
  -2  -8  -3 2925.29 471.692   3
   2  -8   3 2213.77 516.206   3
   2  -8   4 1330.64 472.527   3
  -2  -8  -4 1906.02 429.312   3
  -2  -8  -5 520.639 359.255   3
   2  -8   5 802.570 446.198   3
   2  -8   6 4595.20 656.663   3
  -2  -7  12 263.801 336.711   1
  -2  -7  11 1956.98 529.008   3
  -2  -7  11 1699.11 458.808   1
  -2  -7  10 2156.55 463.949   1
  -2  -7  10 3054.11 566.041   3
  -2  -7   9 1781.61 477.315   3
  -2  -7   9 1435.67 368.035   1
  -2  -7   8 217.111 361.714   3
  -2  -7   8 744.512 331.774   1
   2  -7  -7 4783.38 464.874   3
  -2  -7   7 5346.20 619.427   3
  -2  -7   7 4993.33 519.494   1
  -2  -7   6 7737.78 588.192   1
  -2  -7   6 8198.22 730.868   3
  -2  -7   5 2123.66 407.188   3
   2  -7  -5 1880.76 364.787   3
  -2  -7   5 1876.76 326.328   1
  -2  -7   4 3362.59 483.435   3
  -2  -7   4 3818.71 396.960   1
   2  -7  -4 3358.90 421.594   3
  -2  -7   3 7917.16 518.372   1
   2  -7  -3 9169.06 647.347   3
  -2  -7   3 8842.61 698.302   3
  -2  -7   2 3933.85 360.375   1
   2  -7  -2 4179.86 477.138   3
  -2  -7   2 4792.98 554.109   3
  -2  -7   1 198.889 172.801   1
   2  -7  -1 236.811 285.264   3
  -2  -7   1-63.4925 288.999   3
   2  -7   0 12529.9 792.367   3
  -2  -7   0 12703.4 780.940   3
  -2  -7   0 13225.6 598.192   1
  -2  -7  -1 4993.88 516.166   3
  -2  -7  -1 5700.73 398.468   1
   2  -7   1 4622.79 531.713   3
  -2  -7  -2 4556.40 505.665   3
   2  -7   2 5648.26 587.573   3
  -2  -7  -3 1489.37 360.594   3
   2  -7   3 2038.59 432.560   3
  -2  -7  -4 7379.38 631.136   3
   2  -7   4 7346.04 687.512   3
   2  -7   5 5406.67 624.796   3
  -2  -7  -5 5347.34 444.005   2
  -2  -7  -5 4928.02 507.887   3
   2  -7   6 1419.29 423.852   3
  -2  -7  -6 931.401 245.399   2
  -2  -7  -7 862.445 277.725   2
   2  -7   7 45.2136 371.397   3
  -2  -7  -8 3697.43 437.294   2
   2  -7   8 3514.09 610.052   3
   2  -7   9 2096.57 532.811   3
  -2  -6  13 1431.83 467.416   1
  -2  -6  13 2041.69 529.728   3
  -2  -6  12 7715.85 753.019   1
  -2  -6  12 7692.36 761.547   3
  -2  -6  11 494.559 405.212   3
  -2  -6  11 647.397 357.004   1
  -2  -6  10 918.335 320.588   1
  -2  -6  10 802.599 377.578   3
  -2  -6   9 5054.31 545.418   1
  -2  -6   9 6202.45 632.939   3
  -2  -6   8 8384.31 698.275   3
  -2  -6   8 7890.96 632.009   1
  -2  -6   7-156.685 322.489   3
  -2  -6   7 388.408 253.867   1
   2  -6  -7 262.265 245.535   3
  -2  -6   6 2010.63 403.693   3
  -2  -6   6 1703.71 330.480   1
   2  -6  -6 1702.00 297.219   3
  -2  -6   5 6429.30 592.835   3
   2  -6  -5 6125.69 477.461   3
  -2  -6   5 6499.80 493.499   1
  -2  -6   4 10507.4 596.332   1
   2  -6  -4 11037.7 614.741   3
  -2  -6   4 11194.4 720.146   3
  -2  -6   3 257.466 177.041   1
  -2  -6   3 414.659 288.450   3
  -2  -6   2 6937.81 445.379   1
  -2  -6   2 8228.54 607.137   3
   2  -6  -2 7150.14 542.133   3
   2  -6  -1 14076.7 737.513   3
  -2  -6   1 14725.8 619.986   1
  -2  -6   1 14209.0 773.528   3
  -2  -6   0 15926.0 627.048   1
  -2  -6   0 14888.2 786.447   3
   2  -6   0 15336.2 778.912   3
   2  -6   1 718.271 268.669   3
  -2  -6  -1 835.232 189.039   1
  -2  -6  -1 440.841 269.636   3
   2  -6   1 702.609 76.8546   1
  -2  -6  -2 16522.6 801.031   3
   2  -6   2 17406.0 863.633   3
   2  -6   2 15768.9 478.416   1
  -2  -6  -2 17504.2 636.270   1
   2  -6   3 13364.4 508.922   1
  -2  -6  -3 15131.0 588.129   1
  -2  -6  -3 13843.1 727.674   3
   2  -6   3 13951.2 801.417   3
  -2  -6  -4 7333.10 562.351   3
  -2  -6  -4 7108.05 410.091   1
   2  -6   4 7696.83 638.065   3
  -2  -6  -5 2192.27 290.353   2
   2  -6   5 2762.11 450.121   3
  -2  -6  -5 1795.72 236.842   1
  -2  -6  -5 2395.86 364.265   3
  -2  -6  -6 10901.7 586.084   2
   2  -6   6 11035.7 775.673   3
   2  -6   7 9347.81 750.024   3
  -2  -6  -7 9214.82 559.070   2
  -2  -6  -8 452.341 209.894   2
   2  -6   8 713.918 356.606   3
   2  -6   9 2069.33 500.002   3
  -2  -6  -9 1783.74 338.686   2
   2  -6  10 5127.16 699.042   3
  -2  -6 -10 4941.02 510.972   2
   2  -6  11 2585.32 573.708   3
  -2  -6 -11 1927.49 397.555   2
  -2  -6 -12 502.996 325.488   2
  -2  -6 -13 406.439 337.226   2
  -2  -5  15 1362.70 441.697   3
  -2  -5  14 3340.05 556.430   3
  -2  -5  13 553.158 384.735   3
   2  -5 -12 612.606 249.541   2
  -2  -5  12 1021.38 407.944   3
   2  -5 -11 4513.96 416.631   2
  -2  -5  11 4914.64 556.761   3
   2  -5 -10 13214.8 639.117   2
  -2  -5  10 14155.2 859.995   3
  -2  -5   9 2378.26 413.355   3
  -2  -5   9 2565.24 393.958   1
   2  -5  -9 2328.96 265.389   2
  -2  -5   8 1834.89 358.278   3
  -2  -5   8 2367.56 370.432   1
   2  -5  -8 2180.22 233.658   2
  -2  -5   7 22419.3 987.632   3
   2  -5  -7 21029.4 744.516   3
   2  -5  -7 21977.9 620.227   2
  -2  -5   7 20197.2 895.370   1
  -2  -5   6 28248.8 1013.45   1
   2  -5  -6 26735.7 623.966   2
  -2  -5   6 26775.8 1054.75   3
   2  -5  -6 28554.1 871.506   3
  -2  -5   5 2954.29 334.576   1
   2  -5  -5 2027.80 126.987   2
  -2  -5   5 2443.24 362.561   3
   2  -5  -5 2359.36 278.074   3
  -2  -5   4 24887.3 867.731   1
   2  -5  -4 24315.4 827.900   3
  -2  -5   4 25084.8 967.611   3
  -2  -5   3 17845.8 698.418   1
   2  -5  -3 17476.4 710.090   3
  -2  -5   3 18081.9 811.351   3
   2  -5  -2 37392.9 1089.36   3
  -2  -5   2 38317.5 1031.53   1
  -2  -5   2 37900.3 1167.40   3
  -2  -5   1 1193.49 214.628   1
   2  -5  -1 1164.42 249.538   3
  -2  -5   1 1377.05 286.225   3
   2  -5   0 9717.17 562.941   3
  -2  -5   0 10842.8 596.265   3
  -2  -5   0 10445.6 481.176   1
   2  -5   1 14692.0 391.004   1
   2  -5   1 14609.3 364.194   1
  -2  -5  -1 16067.1 580.178   1
  -2  -5  -1 15609.8 702.466   3
   2  -5   1 15950.9 736.483   3
   2  -5   2 14322.6 448.075   5
   2  -5   2 14559.1 718.888   3
  -2  -5  -2 15798.7 574.653   1
   2  -5   2 15541.5 387.688   2
  -2  -5  -2 15766.0 711.866   3
   2  -5   2 14127.9 435.456   1
   2  -5   3 2291.78 202.320   5
   2  -5   3 2658.19 355.441   3
  -2  -5  -3 2994.46 262.053   1
  -2  -5  -3 1913.77 302.962   3
   2  -5   3 2295.56 175.232   2
   2  -5   3 2429.06 210.387   1
   2  -5   4 5610.96 339.389   1
   2  -5   4 5327.19 333.090   5
   2  -5   4 5656.39 296.457   2
  -2  -5  -4 5339.64 445.351   3
   2  -5   4 6177.81 522.562   3
  -2  -5  -4 5954.02 360.521   1
  -2  -5  -5 13657.1 654.386   3
   2  -5   5 13550.4 741.289   3
  -2  -5  -5 12512.6 570.928   2
  -2  -5  -5 12856.8 541.782   1
  -2  -5  -6 8381.25 458.175   1
   2  -5   6 8465.87 627.367   3
  -2  -5  -6 9565.19 515.850   2
  -2  -5  -7 459.413 203.030   2
   2  -5   7 276.524 276.379   3
   2  -5   8 10070.7 738.470   3
  -2  -5  -8 10187.6 582.557   2
   2  -5   9 10851.3 804.132   3
  -2  -5  -9 11831.1 662.158   2
  -2  -5 -10 792.680 282.419   2
   2  -5  10 163.503 351.769   3
  -2  -5 -11 2384.87 387.191   2
   2  -5  11 2770.79 536.314   3
  -2  -5 -12 8798.43 681.501   2
   2  -5  12 7049.76 802.554   3
   2  -5  13 1979.36 559.380   3
  -2  -5 -13 2813.58 460.849   2
  -2  -5 -14-84.8913 347.148   2
  -2  -4  17 550.091 376.666   3
   2  -4 -17 766.457 421.872   2
   2  -4 -16 1845.93 437.600   2
  -2  -4  16 2353.50 465.259   3
   2  -4 -15 1046.40 362.237   2
  -2  -4  15 1039.46 396.453   3
  -2  -4  14-582.588 375.149   3
   2  -4 -14 48.7839 280.123   2
   2  -4 -13 7553.34 593.943   2
  -2  -4  13 7945.05 678.531   3
   2  -4 -12 10813.1 664.993   2
  -2  -4  12 8461.69 663.966   3
   2  -4 -11 5727.55 466.411   2
  -2  -4  11 6185.84 557.940   3
   2  -4 -10 3579.00 354.244   2
  -2  -4  10 2788.47 420.626   3
  -2  -4   9 11268.8 677.780   3
   2  -4  -9 11520.3 551.641   2
   2  -4  -8 47990.5 1120.54   2
  -2  -4   8 50495.1 1410.95   3
  -2  -4   7 1332.51 280.389   3
   2  -4  -7 1382.29 165.078   4
   2  -4  -7 1567.36 191.087   2
  -2  -4   6 7742.85 499.491   1
   2  -4  -6 6795.72 307.299   2
   2  -4  -6 6983.81 358.752   4
   2  -4  -6 7232.86 385.563   3
  -2  -4   6 6933.42 487.441   3
  -2  -4   5 46970.6 1238.21   1
   2  -4  -5 46369.4 834.129   2
   2  -4  -5 44697.0 1070.46   4
   2  -4  -5 45819.0 1055.37   3
  -2  -4   5 47774.6 1281.75   3
  -2  -4   4 57054.5 1318.78   1
   2  -4  -4 52814.9 815.182   2
  -2  -4   4 59133.9 1404.81   3
   2  -4  -4 54640.3 1189.50   3
  -2  -4   3 644.064 207.122   3
   2  -4  -3 588.486 165.796   3
  -2  -4   3 611.699 175.634   1
  -2  -4   2 23251.4 738.752   1
   2  -4  -2 24350.0 811.432   4
   2  -4  -2 24415.9 758.648   3
  -2  -4   2 24295.2 819.461   3
   2  -4  -1 75661.3 1546.21   3
  -2  -4   1 75707.0 1476.28   1
  -2  -4   1 78135.1 1623.32   3
  -2  -4   0 44208.5 994.076   1
   2  -4   0 42849.0 1089.46   3
  -2  -4   0 47143.7 1147.89   3
   2  -4   1 704.384 68.7243   2
  -2  -4  -1 270.781 178.173   3
  -2  -4  -1 582.309 139.606   1
   2  -4   1 662.270 90.2284   1
   2  -4   1 418.866 163.940   3
   2  -4   1 633.784 81.3256   5
   2  -4   2 44417.5 865.860   1
  -2  -4  -2 43513.3 986.918   1
   2  -4   2 44814.2 769.676   2
  -2  -4  -2 43253.9 1116.80   3
   2  -4   2 41835.6 827.777   5
   2  -4   2 42877.7 1155.05   3
  -2  -4  -3 40471.1 946.790   1
   2  -4   3 40411.7 877.026   5
   2  -4   3 41823.1 807.569   2
  -2  -4  -3 40636.2 1072.79   3
   2  -4   3 39899.3 1133.18   3
   2  -4   3 42163.5 903.434   1
   2  -4   4 7316.70 475.707   3
  -2  -4  -4 7106.35 428.036   3
   2  -4   4 7652.41 328.697   2
  -2  -4  -4 6604.04 361.051   1
   2  -4   4 7284.23 365.111   5
   2  -4   5 2690.48 249.043   5
  -2  -4  -5 3318.15 275.079   1
  -2  -4  -5 3090.02 283.599   2
   2  -4   5 2910.93 343.078   3
  -2  -4  -6 26764.2 819.519   1
   2  -4   6 29071.5 1021.83   3
  -2  -4  -6 28110.1 854.939   2
  -2  -4  -7 6764.06 443.150   2
   2  -4   7 6882.49 545.715   3
  -2  -4  -8 848.399 235.824   2
   2  -4   8 740.056 290.809   3
   2  -4   9 2312.25 421.358   3
  -2  -4  -9 2732.06 335.510   2
   2  -4  10 9256.79 730.654   3
  -2  -4 -10 10590.0 650.285   2
  -2  -4 -11 4049.63 447.021   2
   2  -4  11 3265.49 537.722   3
   2  -4  12 171.541 360.467   3
  -2  -4 -12 616.766 299.351   2
  -2  -4 -13 1953.72 397.217   2
   2  -4  13 1926.60 531.761   3
   2  -4  14 3866.64 620.919   3
  -2  -4 -14 3351.60 510.544   2
  -2  -4 -15 1691.86 460.156   2
  -2  -3  18 1363.41 427.504   3
   2  -3 -18 1442.41 463.146   2
  -2  -3  17 1323.08 400.793   3
   2  -3 -17 1425.12 460.130   2
  -2  -3  16 513.087 361.551   3
   2  -3 -16 661.059 359.190   2
   2  -3 -15 6181.13 641.695   2
  -2  -3  15 5096.96 566.343   3
   2  -3 -14 12664.4 813.445   2
  -2  -3  14 12062.2 787.904   3
   2  -3 -13 5497.89 521.888   2
  -2  -3  13 4848.16 490.103   3
   2  -3 -12 997.853 294.041   2
  -2  -3  12 763.335 282.181   3
   2  -3 -11 22210.4 896.390   2
  -2  -3  11 21004.9 902.254   3
   2  -3 -10 22569.6 848.815   2
  -2  -3  10 23395.1 896.059   3
  -2  -3   9 5058.09 411.940   3
   2  -3  -9 5083.48 379.703   2
  -2  -3   8 7004.87 465.801   3
   2  -3  -8 7302.68 409.939   2
   2  -3  -7 14516.5 530.028   2
  -2  -3   7 14758.2 634.128   3
  -2  -3   6 19493.2 708.563   3
   2  -3  -6 19367.0 561.301   2
  -2  -3   5 1432.64 227.075   1
   2  -3  -5 1317.82 134.945   2
  -2  -3   5 1509.58 224.980   3
   2  -3  -5 1582.94 175.815   3
   2  -3  -4 12260.5 322.444   2
   2  -3  -4 12015.0 426.520   3
  -2  -3   4 12614.8 567.584   2
  -2  -3   4 12882.4 547.965   1
  -2  -3   4 12186.5 530.920   3
   2  -3  -4 12403.8 441.963   4
  -2  -3   3 50809.3 1141.24   1
   2  -3  -3 52221.3 1075.69   4
  -2  -3   3 50775.7 1157.02   3
  -2  -3   3 52280.4 1231.63   5
   2  -3  -3 51681.2 1032.71   3
  -2  -3   2 64521.3 1331.69   3
   2  -3  -2 65169.5 1289.26   4
   2  -3  -2 62858.5 1214.40   3
  -2  -3   2 63080.7 1280.51   1
  -2  -3   2 66557.5 1400.61   5
  -2  -3   1 10292.4 432.804   1
   2  -3  -1 11146.6 478.315   4
  -2  -3   1 10525.7 460.172   3
   2  -3  -1 11035.0 436.444   3
  -2  -3   0 47147.9 1056.78   3
   2  -3   0 47744.5 1033.90   3
  -2  -3   0 46403.4 995.945   1
   2  -3   0 47023.6 733.947   1
   2  -3   1 88282.6 1605.13   3
  -2  -3  -1 89113.2 1610.24   3
   2  -3   1 88262.8 1212.87   2
  -2  -3  -1 90309.5 1544.30   1
   2  -3   1 86884.1 1251.57   5
   2  -3   1 90228.4 1325.61   1
  -2  -3  -2 32772.7 832.084   3
   2  -3   2 32377.8 696.221   1
   2  -3   2 33262.5 616.568   2
  -2  -3  -2 32728.1 786.718   1
   2  -3   2 32240.7 863.682   3
   2  -3   2 31995.1 643.674   5
  -2  -3  -3 851.226 153.446   1
   2  -3   3 933.417 118.738   5
   2  -3   3 1013.35 133.786   1
   2  -3   3 840.601 104.125   2
   2  -3   3 1035.75 195.529   3
  -2  -3  -3 1104.42 190.047   3
   2  -3   4 48533.7 955.658   2
   2  -3   4 47965.2 999.655   5
  -2  -3  -4 48294.9 1048.70   1
  -2  -3  -4 50273.8 1278.23   4
   2  -3   4 48226.7 1150.79   3
  -2  -3  -5 47786.6 1266.03   4
  -2  -3  -5 48902.8 1095.80   1
   2  -3   5 50529.9 1224.34   3
  -2  -3  -5 49127.9 1100.98   2
   2  -3   5 47434.1 1068.56   5
  -2  -3  -6 9673.25 469.296   1
  -2  -3  -6 9826.04 482.106   2
   2  -3   6 9990.34 550.413   3
   2  -3   7 1477.40 290.785   3
  -2  -3  -7 1687.58 244.237   2
  -2  -3  -8 53765.2 1332.78   2
   2  -3   8 52534.8 1455.32   3
  -2  -3  -9 12511.3 648.435   2
   2  -3   9 12846.4 750.144   3
  -2  -3 -10 6361.49 502.944   2
   2  -3  10 6044.25 559.779   3
  -2  -3 -11 2936.07 402.198   2
   2  -3  11 1993.77 409.051   3
  -2  -3 -12 14662.2 834.645   2
   2  -3  12 13138.6 846.472   3
  -2  -3 -13 5978.16 589.255   2
   2  -3  13 6462.24 661.820   3
  -2  -3 -14 388.582 348.918   2
   2  -3  14 1327.24 429.737   3
   2  -3  15 1881.21 478.627   3
  -2  -3 -15 528.181 357.578   2
  -2  -2  18 631.224 347.729   3
   2  -2 -18 623.410 413.367   2
  -2  -2  17 4224.79 538.567   3
   2  -2 -17 4440.41 610.352   2
  -2  -2  16 6662.84 600.051   3
   2  -2 -16 6017.65 679.821   2
   2  -2 -15 1605.45 396.449   2
  -2  -2  15 2075.66 369.573   3
   2  -2 -14-75.0263 294.397   2
  -2  -2  14 331.129 248.627   3
   2  -2 -13 11477.3 740.981   2
  -2  -2  13 10675.7 650.505   3
  -2  -2  12 18077.1 795.120   3
   2  -2 -12 19161.6 889.735   2
   2  -2 -11 8223.96 553.453   2
  -2  -2  11 9103.37 539.193   3
  -2  -2  10 9025.49 514.132   3
   2  -2 -10 10135.5 568.248   2
   2  -2  -9 23780.5 825.887   2
  -2  -2   9 25312.0 808.299   3
  -2  -2   8 44710.1 1168.84   4
   2  -2  -8 45824.2 1125.56   2
  -2  -2   8 45935.8 1104.35   3
  -2  -2   7 27144.6 851.488   4
   2  -2  -7 27792.4 778.255   2
  -2  -2   7 26569.5 777.266   3
  -2  -2   6 23462.7 778.400   4
  -2  -2   6 23886.2 691.368   3
   2  -2  -6 23494.9 654.125   2
  -2  -2   5 65630.3 1277.16   3
   2  -2  -5 67479.5 1188.14   2
  -2  -2   5 69842.7 1462.27   4
  -2  -2   5 70336.4 1461.72   5
   2  -2  -4 55321.2 942.343   2
  -2  -2   4 53388.4 1234.65   4
   2  -2  -4 54064.2 913.607   3
  -2  -2   4 56426.2 1193.09   1
  -2  -2   4 54989.3 1089.88   3
  -2  -2   4 56377.2 1227.24   5
  -2  -2   3 18633.2 614.904   5
  -2  -2   3 17401.8 630.180   4
   2  -2  -3 17504.9 379.632   2
  -2  -2   3 18567.7 592.275   1
   2  -2  -3 17462.0 436.508   3
  -2  -2   3 18395.0 540.779   3
  -2  -2   2 137810. 2206.94   5
   2  -2  -2 134613. 1931.49   3
  -2  -2   2 135509. 2071.40   3
  -2  -2   2 137402. 2121.85   1
  -2  -2   1 91797.2 1609.19   5
   2  -2  -1 90880.5 1417.16   3
  -2  -2   1 89042.3 1484.74   3
   2  -2  -1 89529.4 1228.86   1
  -2  -2   1 91347.6 1520.12   1
  -2  -2   0 37942.0 822.126   1
   2  -2   0 38496.8 769.398   3
   2  -2   0 37243.6 635.701   1
  -2  -2   0 37870.9 803.517   3
  -2  -2  -1 3774.82 237.643   1
   2  -2   1 3264.61 211.198   3
   2  -2   1 3352.88 172.434   1
  -2  -2  -1 3997.21 290.703   4
  -2  -2  -1 3846.57 227.798   3
   2  -2   1 3627.91 143.851   5
   2  -2   2 97506.9 1448.46   5
   2  -2   2 101437. 1527.09   1
   2  -2   2 97376.1 1597.51   3
  -2  -2  -2 97552.2 1575.42   3
   2  -2   2 100817. 1425.68   2
  -2  -2  -2 98149.4 1779.04   4
  -2  -2  -2 97487.5 1610.93   1
  -2  -2  -3 75954.3 1368.01   1
  -2  -2  -3 78376.9 1516.56   4
   2  -2   3 77687.2 1337.43   1
   2  -2   3 77566.1 1245.91   2
   2  -2   3 77612.1 1373.87   3
   2  -2   3 77401.5 1271.43   5
  -2  -2  -4 42430.9 1047.43   4
   2  -2   4 43652.6 943.352   1
   2  -2   4 40901.0 883.745   5
  -2  -2  -4 41984.1 943.865   1
   2  -2   4 44165.2 874.354   2
   2  -2   5 2458.40 215.944   5
  -2  -2  -5 2680.11 240.415   1
  -2  -2  -5 2986.93 250.398   2
  -2  -2  -6 59841.1 1277.18   2
  -2  -2  -7 39985.8 1050.61   2
  -2  -2  -8 5554.99 409.579   2
  -2  -2  -8 5571.58 418.130   4
  -2  -2  -9 3569.83 370.991   2
  -2  -2 -10 32323.8 1101.05   2
  -2  -2 -11 18021.8 864.719   2
  -2  -2 -12 1887.61 362.318   2
  -2  -2 -13 1707.80 363.414   2
  -2  -2 -14 8433.14 725.636   2
  -2  -2 -15 929.970 370.649   2
  -2  -2 -16 764.513 392.582   2
  -2  -1  18 2494.25 424.498   3
   2  -1 -18 1458.89 462.062   2
   2  -1 -17 540.443 412.025   2
  -2  -1  17 1307.66 378.695   3
   2  -1 -16-327.520 359.913   2
   2  -1 -15 1659.75 433.452   2
   2  -1 -14 13072.1 850.791   2
   2  -1 -13 8148.90 651.200   2
   2  -1 -12 3100.83 415.996   2
   2  -1 -11 18934.6 854.639   2
   2  -1 -10 67314.4 1627.80   2
  -2  -1   9 4562.39 288.354   4
   2  -1  -9 4465.36 375.677   2
   2  -1  -8 7192.34 394.820   5
  -2  -1   8 7059.28 355.843   4
   2  -1  -8 6548.33 415.906   2
   2  -1  -7 36395.9 966.855   6
  -2  -1   7 38215.1 884.088   4
   2  -1  -7 37812.8 972.875   2
  -2  -1   7 38325.6 837.381   3
   2  -1  -6 105207. 1705.96   5
   2  -1  -6 102856. 1780.79   2
  -2  -1   6 101888. 1727.58   4
  -2  -1   6 100457. 1617.59   3
   2  -1  -6 102816. 1722.30   6
  -2  -1   6 106072. 1875.78   5
  -2  -1   5 1753.99 150.089   3
  -2  -1   5 1873.23 183.928   4
  -2  -1   5 1888.67 205.884   5
   2  -1  -5 1611.84 148.008   6
   2  -1  -5 1655.46 174.806   2
   2  -1  -5 2099.52 170.612   5
   2  -1  -4 18484.9 429.444   6
  -2  -1   4 17050.3 442.022   3
   2  -1  -4 18951.8 504.097   2
  -2  -1   4 18094.1 575.942   5
  -2  -1   4 17687.2 541.133   4
   2  -1  -4 18790.7 455.602   5
  -2  -1   3 182451. 2688.69   1
  -2  -1   3 187625. 2708.47   4
   2  -1  -3 187223. 2529.26   2
  -2  -1   3 185892. 2499.44   3
  -2  -1   3 187423. 2737.96   5
   2  -1  -3 187992. 2463.04   5
  -2  -1   2 249309. 3448.14   1
  -2  -1   2 250994. 3489.57   4
   2  -1  -2 256431. 3202.73   5
   2  -1  -2 253814. 3259.94   1
  -2  -1   2 254301. 3278.85   3
  -2  -1   2 254932. 3505.96   5
   2  -1  -2 255269. 3127.89   3
  -2  -1   1 26960.3 664.598   4
   2  -1  -1 26938.4 521.968   1
   2  -1  -1 26979.1 459.512   3
  -2  -1   1 25957.1 523.483   3
  -2  -1   1 27677.4 670.916   5
  -2  -1   1 26964.3 620.414   1
   2  -1  -1 26495.9 480.192   5
   2  -1   0 224432. 2828.30   3
  -2  -1   0 217950. 2880.35   3
   2  -1   0 225999. 2890.87   1
  -2  -1   0 219246. 3020.33   1
   2  -1   1 233467. 3095.43   1
  -2  -1  -1 237437. 3192.60   1
  -2  -1  -2 82447.2 1373.86   1
   2  -1   2 83335.6 1328.11   1
  -2  -1  -3 278.345 104.092   1
   2  -1   3 421.364 93.4788   1
  -2  -1  -4 76610.8 1468.91   6
  -2  -1  -4 73619.7 1366.90   1
   2  -1   4 74772.1 1354.56   1
  -2  -1  -4 75401.6 1345.02   2
   2  -1   4 74088.3 1278.91   2
   2  -1   5 38993.1 897.564   5
  -2  -1  -5 39649.5 930.804   2
  -2  -1  -5 40290.9 954.170   1
  -2  -1  -6 25773.1 762.770   2
  -2  -1  -7 9824.36 490.561   2
  -2  -1  -8 43966.8 1170.64   2
  -2  -1  -9 23329.1 871.812   2
  -2  -1 -10 281.023 203.531   2
  -2  -1 -11 5189.51 489.318   2
  -2  -1 -12 14249.2 824.668   2
  -2  -1 -12 14462.6 689.576   4
  -2  -1 -13 4255.06 409.041   4
  -2  -1 -13 5438.28 575.403   2
  -2  -1 -14 640.874 337.261   2
  -2  -1 -15 807.291 400.503   2
  -2  -1 -16 3558.35 602.660   2
   2   0 -18 554.227 441.741   2
   2   0 -17 1008.97 438.152   2
   2   0 -16 13317.9 957.654   2
   2   0 -15 475.465 355.730   2
   2   0 -14 1398.54 350.918   2
   2   0 -13 20304.3 1013.64   2
   2   0 -12 24949.1 562.781   4
   2   0 -12 24374.9 1065.71   2
   2   0 -11 308.281 79.8382   4
   2   0 -11 225.523 231.972   2
   2   0 -10 2672.58 303.942   5
   2   0 -10 2748.93 172.349   4
   2   0 -10 2298.21 334.799   2
   2   0  -9 45770.4 1148.25   5
   2   0  -9 44681.8 1261.17   2
   2   0  -9 44882.6 815.936   4
   2   0  -8 49030.5 1134.26   5
   2   0  -8 47895.1 833.940   4
   2   0  -8 47739.9 1239.53   2
   2   0  -7 5549.08 380.702   2
  -2   0   7 5368.71 213.169   4
  -2   0   7 5738.68 346.913   2
  -2   0   7 5556.43 336.268   5
   2   0  -7 5708.44 217.108   4
   2   0  -6 38324.8 677.421   4
  -2   0   6 38690.6 697.764   4
  -2   0   6 39149.1 930.958   2
  -2   0   6 39393.9 924.757   5
   2   0  -6 38800.0 975.649   2
   2   0  -5 83483.9 1516.82   2
  -2   0   5 84120.8 1466.58   5
  -2   0   5 83926.2 1486.52   2
  -2   0   5 83903.2 1253.12   4
   2   0  -5 80087.7 1406.91   5
  -2   0   4 84101.7 1415.14   2
   2   0  -4 79144.7 1417.23   2
  -2   0   4 82951.3 1237.62   4
   2   0  -4 78746.3 1335.51   5
  -2   0   4 82031.6 1390.33   5
  -2   0   3 3578.75 212.650   5
  -2   0   3 3528.56 171.991   4
  -2   0   3 3547.40 212.129   2
  -2   0   3 3745.33 215.332   1
   2   0  -3 3294.97 192.311   5
  -2   0   3 3353.39 104.731   3
   2   0  -3 3433.62 217.292   2
  -2   0   2 213503. 2900.28   2
  -2   0   2 217133. 2886.56   5
  -2   0   2 210869. 2865.35   1
   2   0  -2 214874. 2876.48   1
   2   0  -2 210000. 2856.73   5
   2   0  -1 14117.5 392.236   5
  -2   0   1 13832.4 382.071   1
   2   0  -1 14719.1 248.974   3
   2   0  -1 14280.3 390.346   1
  -2   0   1 14070.0 392.325   5
   2   0   0 480101. 5818.72   6
  -2   0   0 474721. 5987.14   1
   2   0   0 483543. 5991.81   1
   2   0   1 680.911 95.3504   1
  -2   0  -1 742.870 86.7781   6
  -2   0  -1 676.143 102.276   1
  -2   0  -2 13055.3 388.426   6
  -2   0  -2 12460.1 397.492   1
  -2   0  -3 68045.2 1237.00   1
  -2   0  -3 70075.0 1196.69   2
  -2   0  -3 71751.2 1261.81   6
  -2   0  -4 84544.1 1443.99   2
  -2   0  -4 81091.1 1477.84   1
  -2   0  -5 3779.32 265.478   2
  -2   0  -5 4122.23 301.328   6
  -2   0  -6 21151.6 678.769   2
  -2   0  -7 27379.9 839.650   2
  -2   0  -8 5349.09 406.887   2
  -2   0  -9 5658.07 440.767   2
  -2   0 -10 24504.5 969.715   2
  -2   0 -10 23647.1 876.052   4
  -2   0 -11 35585.1 1137.14   4
  -2   0 -11 34215.6 1227.11   2
  -2   0 -12 446.347 239.925   4
  -2   0 -12-268.977 300.285   2
  -2   0 -13 5569.67 490.897   4
  -2   0 -13 4267.91 527.427   2
  -2   0 -14 16015.0 838.473   4
  -2   0 -14 15374.0 975.540   2
  -2   0 -15 7559.18 741.059   2
  -2   0 -16 1501.09 494.215   2
   2   1 -17 798.697 416.771   2
   2   1 -16 751.240 431.413   2
   2   1 -15 3541.13 556.146   2
   2   1 -14 14594.7 955.981   2
   2   1 -13 7839.42 679.563   2
   2   1 -13 8860.23 472.171   4
   2   1 -12 2537.75 369.707   5
   2   1 -12 2540.10 265.842   4
   2   1 -12 2211.59 384.226   2
   2   1 -11 22014.2 731.531   4
   2   1 -11 22141.3 864.289   5
   2   1 -11 20609.0 964.069   2
   2   1 -10 67266.8 1385.98   4
   2   1 -10 64244.6 1696.93   2
   2   1 -10 66776.7 1562.99   5
   2   1  -9 5220.81 443.414   2
   2   1  -9 5080.72 324.537   4
   2   1  -9 5211.75 391.978   5
   2   1  -8 7817.52 506.127   2
   2   1  -8 7340.65 372.966   4
   2   1  -8 6767.49 405.462   5
   2   1  -7 38902.9 904.707   4
  -2   1   7 39138.6 927.568   2
  -2   1   7 37831.9 909.126   5
   2   1  -7 37970.9 1075.57   2
   2   1  -6 92133.9 1798.04   2
  -2   1   6 95198.2 1596.13   5
   2   1  -6 93846.0 1606.92   4
  -2   1   6 95374.0 1612.13   2
  -2   1   5 667.039 110.249   5
   2   1  -5 770.558 177.629   2
   2   1  -5 795.114 137.799   4
  -2   1   5 648.296 108.043   2
  -2   1   5 801.961 86.0272   3
  -2   1   4 14985.5 327.782   3
   2   1  -4 14706.2 472.024   4
  -2   1   4 15391.3 427.224   2
   2   1  -4 15131.7 546.775   2
  -2   1   4 15731.2 423.353   5
  -2   1   3 177305. 2458.75   1
   2   1  -3 182351. 2410.58   3
  -2   1   3 186117. 2311.82   3
   2   1  -3 181977. 2605.85   4
  -2   1   3 181986. 2452.75   5
  -2   1   3 181174. 2460.54   2
  -2   1   2 219176. 2845.03   2
  -2   1   2 219699. 2719.53   3
   2   1  -2 217899. 3030.48   4
  -2   1   2 221790. 2697.85   6
   2   1  -2 217816. 2868.22   3
  -2   1   2 219349. 2833.77   5
  -2   1   2 220079. 2843.59   1
  -2   1   1 28379.7 532.293   1
   2   1  -1 29331.7 571.153   3
  -2   1   0 236634. 3071.16   1
   2   1   0 240687. 3116.90   3
  -2   1  -1 208847. 2803.90   1
  -2   1  -1 211097. 2718.11   2
   2   1   1 213373. 2813.59   3
   2   1   1 210164. 2913.58   1
   2   1   2 88279.7 1365.84   3
  -2   1  -2 86486.8 1388.01   1
  -2   1  -2 86070.9 1322.91   2
   2   1   2 87689.5 1453.89   6
   2   1   2 90327.2 1461.14   1
  -2   1  -3 219.214 83.0795   2
   2   1   3 179.820 79.1700   3
   2   1   3 271.920 86.3536   1
   2   1   4 76391.8 1404.26   6
   2   1   4 77146.5 1393.45   1
  -2   1  -4 75439.4 1340.87   2
   2   1   5 49925.3 1088.33   1
  -2   1  -5 51598.5 1086.84   2
  -2   1  -6 30298.3 846.422   2
  -2   1  -7 9587.06 491.423   2
  -2   1  -7 10115.9 540.660   4
  -2   1  -8 46286.0 1245.41   2
  -2   1  -8 48329.0 1293.99   4
  -2   1  -9 24857.8 939.431   4
  -2   1  -9 27697.5 985.314   2
  -2   1 -10 584.276 235.933   4
  -2   1 -10-291.254 258.662   2
  -2   1 -11 5035.24 473.431   4
  -2   1 -11 5369.99 512.656   2
  -2   1 -12 12626.3 745.834   4
  -2   1 -12 13724.6 828.130   2
  -2   1 -13 4289.93 482.887   4
  -2   1 -13 4919.83 565.977   2
  -2   1 -14 520.547 261.253   4
  -2   1 -14 1351.24 395.890   2
  -2   1 -15 1478.52 355.906   4
  -2   1 -15 309.872 355.812   2
  -2   1 -16 3858.70 648.942   2
   2   2 -17 4186.37 671.721   2
   2   2 -16 6056.10 727.203   2
   2   2 -15 2151.55 499.216   2
   2   2 -14 89.6915 337.702   2
   2   2 -14-41.2026 186.519   4
   2   2 -13 9804.36 599.133   4
   2   2 -13 9123.60 747.350   2
   2   2 -13 9255.32 666.663   5
   2   2 -12 19705.3 898.349   5
   2   2 -12 17659.8 973.151   2
   2   2 -12 19376.6 823.487   4
   2   2 -11 7603.15 511.909   4
   2   2 -11 7388.26 614.314   2
   2   2 -11 7680.43 536.771   5
   2   2 -10 7303.78 494.788   5
   2   2 -10 7874.50 499.256   4
   2   2 -10 7673.74 598.711   2
   2   2  -9 25684.7 891.857   4
   2   2  -9 26482.5 1018.45   2
   2   2  -9 25179.5 873.348   5
   2   2  -8 40984.5 1249.54   2
   2   2  -8 44206.3 1169.81   4
   2   2  -8 43333.4 1128.33   5
  -2   2   8 44640.6 1018.13   2
  -2   2   8 42894.6 975.537   3
   2   2  -7 31314.2 1008.01   2
   2   2  -7 30029.8 920.173   4
  -2   2   7 30307.2 747.147   3
  -2   2   7 30424.8 756.979   2
  -2   2   7 30430.8 762.366   5
   2   2  -7 30307.4 879.228   5
   2   2  -6 23765.3 779.235   4
  -2   2   6 23498.4 601.880   5
  -2   2   6 22572.8 593.178   2
   2   2  -6 22227.9 804.244   2
  -2   2   6 23118.4 605.843   3
  -2   2   5 79213.0 1292.71   5
  -2   2   5 81050.6 1290.98   2
   2   2  -5 80011.3 1600.97   4
   2   2  -5 79639.6 1641.20   2
  -2   2   5 82004.3 1333.37   3
  -2   2   5 81086.7 1342.75   6
  -2   2   5 80464.3 1188.65   4
  -2   2   4 56957.2 924.116   5
  -2   2   4 55600.2 973.427   4
   2   2  -4 55911.1 1244.52   4
  -2   2   4 55133.7 914.389   2
  -2   2   4 57546.6 1006.42   6
  -2   2   4 56113.7 1000.47   3
   2   2  -4 57844.9 1061.88   3
  -2   2   3 19318.1 377.455   1
   2   2  -3 19044.3 645.678   4
  -2   2   3 19088.3 372.260   2
  -2   2   3 19955.8 389.146   5
  -2   2   3 20151.2 488.948   3
   2   2  -3 18690.5 531.260   3
  -2   2   3 18850.2 517.220   4
  -2   2   2 140841. 2129.07   4
   2   2  -2 142769. 2302.81   4
  -2   2   2 141119. 1990.84   3
  -2   2   2 138802. 1786.55   1
   2   2  -2 140250. 2113.64   3
   2   2  -2 140465. 2230.48   5
  -2   2   1 96002.5 1462.11   3
   2   2  -1 93094.8 1713.85   4
  -2   2   1 98263.2 1300.48   1
  -2   2   1 99164.3 1675.08   4
   2   2  -1 95631.9 1682.82   5
   2   2  -1 99514.2 1623.16   1
   2   2  -1 99432.3 1608.43   3
   2   2   0 34225.2 783.603   1
   2   2   0 33748.9 855.920   4
  -2   2   0 34625.8 675.210   3
  -2   2   0 34266.7 862.824   4
  -2   2   0 34741.6 523.074   2
   2   2   0 34088.0 787.178   3
   2   2   0 34209.0 851.443   5
   2   2   1 4191.54 253.765   3
  -2   2  -1 3874.09 160.996   2
   2   2   1 4200.06 245.498   1
  -2   2  -1 3456.08 288.153   4
  -2   2  -2 105714. 1962.73   4
  -2   2  -2 110408. 1609.49   2
   2   2   2 107823. 1761.93   1
   2   2   3 82058.8 1568.21   6
  -2   2  -3 80678.2 1377.58   2
  -2   2  -3 80633.1 1674.62   4
   2   2   3 83196.6 1472.48   1
   2   2   4 39781.5 926.635   1
  -2   2  -4 37423.9 1088.99   4
  -2   2  -4 39204.5 890.018   2
   2   2   4 37445.8 975.095   6
   2   2   5 3623.18 318.307   6
  -2   2  -5 3567.42 280.951   2
  -2   2  -5 3508.29 352.813   4
   2   2   5 4003.17 279.102   1
  -2   2  -6 63844.0 1561.74   4
   2   2   6 60207.0 1384.07   6
  -2   2  -6 63254.6 1378.78   2
  -2   2  -7 38033.8 1193.69   4
  -2   2  -7 36407.3 1051.08   2
  -2   2  -8 5897.14 443.812   2
  -2   2  -8 6376.11 503.236   4
  -2   2  -9 1658.43 330.930   4
  -2   2  -9 2099.91 344.367   2
  -2   2 -10 32870.0 1220.06   4
  -2   2 -10 30527.8 1137.44   2
  -2   2 -11 17035.6 911.585   4
  -2   2 -11 17727.2 915.722   2
  -2   2 -12 2322.34 416.433   2
  -2   2 -12 2207.17 411.016   4
  -2   2 -13 2236.28 428.358   4
  -2   2 -13 1856.32 444.585   2
  -2   2 -14 9210.92 800.354   2
  -2   2 -14 8034.47 710.888   4
  -2   2 -15 2059.85 428.843   4
  -2   2 -15 1615.77 459.048   2
  -2   2 -16 47.7618 356.571   2
   2   3 -16 1101.99 467.546   2
   2   3 -15 6106.94 757.847   2
   2   3 -14 13395.3 848.471   5
   2   3 -14 13431.6 983.219   2
   2   3 -14 12499.5 784.654   4
   2   3 -13 5651.11 548.417   5
   2   3 -13 5046.54 508.738   4
   2   3 -13 5597.39 645.197   2
   2   3 -12 1682.17 351.399   5
   2   3 -12 1553.30 326.482   4
   2   3 -12 1379.55 390.916   2
   2   3 -11 21721.0 1081.13   2
   2   3 -11 23934.6 1013.89   4
   2   3 -11 23568.3 951.666   5
   2   3 -10 21836.3 879.491   5
   2   3 -10 21895.6 953.287   4
   2   3 -10 21103.8 1008.84   2
   2   3  -9 2996.93 336.869   5
   2   3  -9 2289.84 342.231   4
  -2   3   9 2589.08 235.682   1
   2   3  -9 2261.69 365.497   2
  -2   3   8 9691.88 393.306   1
   2   3  -8 8740.99 591.826   2
   2   3  -8 9948.03 606.373   4
  -2   3   8 8519.91 402.138   5
  -2   3   8 8831.75 411.124   2
   2   3  -8 8954.85 519.643   5
  -2   3   7 14534.1 444.484   1
   2   3  -7 15260.0 737.855   2
  -2   3   7 13903.0 350.009   4
   2   3  -7 15336.5 736.382   4
  -2   3   7 14682.6 485.447   2
   2   3  -7 14079.2 625.738   5
  -2   3   7 15738.9 578.846   3
  -2   3   7 14118.9 482.782   5
  -2   3   7 15351.1 574.932   6
   2   3  -6 17964.2 756.624   2
  -2   3   6 16676.4 426.006   1
   2   3  -6 16679.1 745.453   4
  -2   3   6 16872.9 464.555   4
  -2   3   6 16881.7 472.928   2
  -2   3   6 15889.3 568.647   6
  -2   3   6 16582.6 589.715   3
   2   3  -6 17198.6 664.226   5
  -2   3   6 16190.1 476.827   5
  -2   3   5 2424.57 225.379   6
  -2   3   5 2535.92 128.647   1
  -2   3   5 2491.04 162.991   5
   2   3  -5 2058.59 278.080   4
   2   3  -5 2444.66 263.162   5
  -2   3   5 2506.92 224.339   3
  -2   3   5 2404.16 197.872   4
   2   3  -4 9591.94 471.957   5
   2   3  -4 9573.99 537.806   4
  -2   3   4 10021.1 420.988   4
  -2   3   4 10107.5 421.340   3
   2   3  -4 9669.03 433.857   3
  -2   3   4 10127.9 277.251   5
   2   3  -3 45215.4 1085.94   5
   2   3  -3 45254.6 1205.08   4
  -2   3   3 45879.4 1050.80   4
  -2   3   3 44478.7 657.180   5
  -2   3   3 46016.6 987.556   3
  -2   3   2 71673.5 1317.13   3
   2   3  -2 69897.5 1566.40   4
  -2   3   2 71845.3 1458.48   4
   2   3  -2 71913.7 1458.25   5
   2   3  -1 11024.6 490.982   5
   2   3  -1 10882.1 538.791   4
  -2   3   1 10845.4 510.977   4
  -2   3   1 12041.0 437.951   3
   2   3  -1 11193.7 448.092   1
   2   3   0 42305.3 964.206   1
  -2   3   0 45478.8 1149.26   4
  -2   3   0 44625.3 933.630   3
   2   3   0 43606.5 1077.57   5
   2   3   0 43253.9 1128.09   4
  -2   3  -1 87639.1 1273.54   2
  -2   3  -1 88044.0 1809.66   4
   2   3   1 87649.8 1551.66   1
   2   3   1 87661.0 1730.29   4
   2   3   1 84809.1 1683.71   5
  -2   3  -1 87530.2 1501.70   3
   2   3   2 34750.0 966.710   4
  -2   3  -2 35079.6 1076.50   4
   2   3   2 36604.8 875.415   1
  -2   3  -2 36150.5 731.765   2
  -2   3  -3 1088.71 252.601   4
  -2   3  -3 839.527 138.762   2
   2   3   3 981.089 158.358   1
  -2   3  -4 50890.2 1417.18   4
  -2   3  -4 49209.1 1081.87   2
   2   3   4 48776.0 1100.79   1
   2   3   4 48816.6 1259.07   6
  -2   3  -5 45839.3 1381.21   4
  -2   3  -5 45759.1 1119.98   2
   2   3   5 48065.6 1252.32   6
   2   3   6 12869.8 634.010   6
  -2   3  -6 13391.1 744.977   4
  -2   3  -6 13316.3 598.461   2
  -2   3  -7 2704.81 320.503   2
  -2   3  -7 2950.56 408.217   4
   2   3   7 3083.22 356.183   6
  -2   3  -8 50166.4 1589.79   4
   2   3   8 51981.4 1417.53   6
  -2   3  -8 51904.4 1439.23   2
  -2   3  -9 16117.5 815.253   2
  -2   3  -9 14130.3 839.553   4
  -2   3 -10 5605.59 570.298   4
  -2   3 -10 5307.40 530.604   2
  -2   3 -11 1374.50 373.969   2
  -2   3 -11 2259.15 443.612   4
  -2   3 -12 13103.9 888.600   4
  -2   3 -12 12808.6 863.438   2
  -2   3 -13 4302.21 582.472   4
  -2   3 -13 4140.20 563.541   2
  -2   3 -14 464.985 329.532   4
  -2   3 -14-104.177 385.358   2
  -2   3 -15 374.595 356.277   4
  -2   3 -15 853.182 441.554   2
  -2   3 -16 3989.42 683.651   2
   2   4 -16 2911.98 608.473   2
   2   4 -15 298.933 315.662   4
   2   4 -15 1705.24 526.654   2
   2   4 -14 75.8721 282.059   5
   2   4 -14 829.390 358.139   4
   2   4 -14 447.049 408.078   2
   2   4 -13 7975.11 780.357   2
   2   4 -13 6824.09 646.757   4
   2   4 -13 7733.09 648.481   5
   2   4 -12 9054.35 767.956   2
   2   4 -12 9038.23 671.832   5
   2   4 -12 7755.50 683.968   4
   2   4 -11 5168.80 553.690   4
   2   4 -11 6113.30 612.876   2
   2   4 -11 5947.84 519.730   5
   2   4 -10 3259.65 400.411   5
   2   4 -10 2849.52 428.513   4
   2   4 -10 2902.25 440.602   2
   2   4  -9 9306.22 684.306   2
   2   4  -9 10367.0 718.005   4
   2   4  -9 9253.48 579.618   5
   2   4  -8 51359.1 1559.89   2
   2   4  -8 50663.0 1584.98   4
  -2   4   8 53238.5 993.184   1
  -2   4   8 54216.0 1326.78   6
   2   4  -8 54323.9 1407.84   5
  -2   4   8 53440.1 1126.07   5
   2   4  -7 1977.72 294.188   5
  -2   4   7 1815.68 171.678   5
  -2   4   7 2232.15 204.308   4
  -2   4   7 1922.07 136.247   1
   2   4  -7 2164.64 369.003   4
  -2   4   7 2451.61 284.056   6
  -2   4   6 9100.82 425.280   4
  -2   4   6 7393.21 197.508   1
   2   4  -6 8939.92 615.768   4
  -2   4   6 8327.52 322.259   5
   2   4  -6 9119.27 514.513   5
  -2   4   6 8561.63 466.770   6
   2   4  -5 48876.6 1471.33   4
  -2   4   5 50533.1 1188.40   4
  -2   4   5 50628.3 872.817   5
   2   4  -5 51509.0 1264.48   5
   2   4  -4 57263.5 1579.98   4
  -2   4   4 59355.9 1349.57   4
   2   4  -4 57870.5 1361.18   5
  -2   4   4 58513.2 886.909   5
   2   4  -3 439.662 240.985   4
   2   4  -3 324.892 160.496   5
  -2   4   3 310.157 157.943   4
   2   4  -2 22098.3 899.573   4
  -2   4   2 24590.4 866.324   4
   2   4  -2 21602.4 768.728   5
  -2   4   1 67982.5 1627.05   4
   2   4  -1 70109.6 1686.38   4
   2   4  -1 68540.1 1505.01   5
   2   4   0 40642.2 1106.54   5
   2   4   0 42045.4 1237.72   4
  -2   4   0 43258.2 1259.17   4
   2   4   0 40888.2 1002.43   1
   2   4   1 522.973 177.349   5
  -2   4  -1 412.724 212.023   4
   2   4   1 360.821 127.530   1
   2   4   1 683.387 231.283   4
   2   4   2 38200.0 1143.03   4
  -2   4  -2 40599.9 818.047   2
  -2   4  -2 39967.9 1280.37   4
   2   4   2 38994.5 1109.73   5
   2   4   2 38087.8 958.418   1
   2   4   3 41667.9 1177.95   4
  -2   4  -3 42557.9 1371.63   4
   2   4   3 43849.4 1041.21   1
  -2   4  -3 42991.4 965.164   2
  -2   4  -4 6925.18 386.883   2
  -2   4  -4 7733.13 595.833   4
  -2   4  -5 2655.06 275.501   2
   2   4   5 2403.08 329.838   6
  -2   4  -5 2475.82 370.837   4
   2   4   6 30373.7 1078.45   6
  -2   4  -6 28721.7 1206.42   4
  -2   4  -6 27498.7 938.182   2
  -2   4  -7 7552.72 657.872   4
  -2   4  -7 6389.89 494.059   2
   2   4   7 7943.96 576.221   6
   2   4   8 1349.94 321.351   6
  -2   4  -8 1221.67 349.846   4
  -2   4  -8 1178.12 282.206   2
   2   4   9 2657.22 404.642   6
  -2   4  -9 2248.80 419.734   4
  -2   4  -9 1992.38 372.066   2
  -2   4 -10 10179.4 738.586   2
  -2   4 -10 11275.1 850.506   4
  -2   4 -11 4788.74 625.104   4
  -2   4 -11 3632.42 516.606   2
  -2   4 -12 231.787 354.256   4
  -2   4 -12-252.771 351.744   2
  -2   4 -13 2130.79 518.717   4
  -2   4 -13 2572.98 509.627   2
  -2   4 -14 4003.51 619.808   4
  -2   4 -14 4182.98 641.719   2
  -2   4 -15 1455.34 496.585   4
  -2   4 -15 941.688 478.748   2
   2   5 -15 1972.19 452.775   5
   2   5 -15 1285.23 449.418   4
   2   5 -15 620.627 447.351   2
   2   5 -14 3786.33 531.394   5
   2   5 -14 3760.09 605.697   4
   2   5 -14 2959.10 566.178   2
   2   5 -13 1593.74 438.709   4
   2   5 -13 1473.76 362.765   5
   2   5 -12 796.691 333.157   5
   2   5 -12 692.900 380.993   4
   2   5 -12 397.340 388.140   2
   2   5 -11 5016.20 505.567   5
   2   5 -11 4166.72 567.975   4
   2   5 -10 13270.2 916.651   4
   2   5 -10 13112.4 743.908   5
   2   5  -9 2765.01 482.501   4
  -2   5   9 2174.44 313.570   6
   2   5  -9 2882.94 378.698   5
   2   5  -8 3639.51 405.507   5
  -2   5   8 2730.23 249.498   4
   2   5  -8 3168.48 503.838   4
  -2   5   8 2951.66 352.224   6
   2   5  -7 19653.0 1024.68   4
  -2   5   7 19051.0 696.160   4
  -2   5   7 19240.9 800.909   6
   2   5  -7 19553.8 821.428   5
   2   5  -6 27688.4 1212.92   4
  -2   5   6 28101.1 908.934   4
  -2   5   6 26903.2 945.795   6
   2   5  -6 27670.0 966.899   5
  -2   5   5 2396.10 148.047   5
   2   5  -5 2511.84 322.504   5
   2   5  -5 3081.86 460.522   4
  -2   5   5 2519.00 306.657   4
  -2   5   5 2368.75 173.485   5
   2   5  -4 21981.0 1036.75   4
  -2   5   4 22762.8 878.915   4
  -2   5   4 20268.6 431.857   5
  -2   5   4 21824.0 407.872   5
   2   5  -4 22855.2 833.480   5
   2   5  -3 18205.2 918.770   4
  -2   5   3 18467.5 819.319   4
   2   5  -3 17759.0 733.424   5
   2   5  -2 36870.8 1309.57   4
  -2   5   2 38054.0 1239.07   4
   2   5  -2 37117.7 1102.74   5
   2   5  -1 1331.78 244.673   5
   2   5  -1 1107.10 296.383   4
  -2   5   1 1596.27 319.596   4
  -2   5   0 11677.6 721.942   4
   2   5   0 11583.9 706.476   4
   2   5   0 10600.8 576.391   5
   2   5   1 15514.3 799.995   4
  -2   5  -1 15570.1 848.153   4
   2   5   1 15768.6 706.961   5
   2   5   2 13480.6 731.814   4
  -2   5  -2 14745.6 842.209   4
   2   5   2 11865.3 633.813   5
   2   5   3 2986.98 353.173   5
  -2   5  -3 3352.14 458.955   4
   2   5   3 3672.94 398.305   4
  -2   5  -4 6610.20 396.561   2
  -2   5  -4 6201.85 605.356   4
   2   5   4 6124.29 486.378   5
  -2   5  -5 15001.1 652.457   2
  -2   5  -5 14867.5 936.668   4
   2   5   5 17196.3 874.227   6
  -2   5  -6 8222.59 531.181   2
  -2   5  -6 8177.20 734.670   4
   2   5   6 7359.99 610.650   6
  -2   5  -7 757.043 379.755   4
  -2   5  -7 549.864 255.582   2
   2   5   7 355.021 276.192   6
   2   5   8 11509.3 761.639   6
  -2   5  -8 11394.4 706.019   2
  -2   5  -8 11193.5 890.154   4
  -2   5  -9 11618.3 770.791   2
  -2   5  -9 11319.9 916.815   4
   2   5   9 10549.9 730.759   6
  -2   5 -10 685.657 383.855   4
  -2   5 -10 346.997 284.776   2
   2   5  10 614.593 344.798   6
  -2   5 -11 2674.34 562.945   4
  -2   5 -11 2904.15 501.818   2
  -2   5 -12 6631.58 798.132   4
  -2   5 -12 6251.57 694.766   2
  -2   5 -13 2909.90 556.517   2
  -2   5 -13 2498.55 553.844   4
  -2   5 -14 71.5360 404.794   4
  -2   5 -14 226.563 385.685   2
   2   6 -14-149.060 367.166   5
   2   6 -14 550.581 454.177   4
   2   6 -13 3105.72 621.099   4
   2   6 -13 2324.59 440.738   5
   2   6 -12 8126.18 674.487   5
   2   6 -12 6969.49 797.677   4
   2   6 -11 487.009 305.783   5
   2   6 -11 688.735 409.762   4
  -2   6  10 1148.59 299.419   6
   2   6 -10 1234.59 342.182   5
   2   6 -10 1140.52 448.813   4
  -2   6   9 5018.61 484.867   6
   2   6  -9 5320.38 501.349   5
   2   6  -9 5668.44 688.344   4
   2   6  -8 6762.73 717.427   4
  -2   6   8 6736.45 536.458   6
   2   6  -8 6857.17 542.389   5
  -2   6   7 260.509 224.595   6
   2   6  -7 470.787 354.301   4
  -2   6   7 197.349 172.427   4
   2   6  -7 291.841 237.713   5
   2   6  -6 2051.71 328.402   5
  -2   6   6 1607.71 282.056   4
   2   6  -6 1176.80 403.572   4
  -2   6   6 1851.43 328.035   6
  -2   6   5 4339.40 443.690   4
   2   6  -5 4819.56 600.784   4
   2   6  -5 5504.94 461.068   5
   2   6  -4 10726.3 819.734   4
  -2   6   4 9183.49 628.799   4
   2   6  -4 10411.5 602.042   5
   2   6  -3-35.3031 195.899   5
  -2   6   3 321.593 224.617   4
   2   6  -3 205.010 253.326   4
   2   6  -2 5303.37 587.214   4
  -2   6   2 5257.55 537.044   4
   2   6  -2 5247.98 446.623   5
  -2   6   1 15086.1 874.283   4
   2   6  -1 13324.3 851.539   4
   2   6  -1 13787.0 690.788   5
  -2   6   0 13498.2 851.613   4
   2   6   0 12323.9 662.593   5
   2   6   0 13246.5 841.839   4
   2   6   1 473.744 224.527   5
   2   6   1 868.928 336.027   4
  -2   6  -1 470.395 284.771   4
   2   6   2 16503.8 891.732   4
  -2   6  -2 17778.5 1029.07   4
   2   6   2 17081.2 797.977   5
   2   6   3 16267.5 880.453   4
  -2   6  -3 15701.6 998.674   4
   2   6   3 15146.4 773.456   5
  -2   6  -4 8055.40 746.281   4
   2   6   4 7470.77 561.868   5
   2   6   4 6409.70 564.220   4
   2   6   5 1866.89 345.653   5
  -2   6  -5 1663.08 460.804   4
  -2   6  -6 13276.9 998.872   4
   2   6   6 11252.2 789.607   6
   2   6   6 11244.5 727.338   5
  -2   6  -7 8795.51 844.278   4
  -2   6  -7 8869.44 608.980   2
   2   6   7 7715.35 694.739   6
  -2   6  -8 1568.40 488.496   4
  -2   6  -8 430.308 241.902   2
   2   6   8 1009.28 367.062   6
  -2   6  -9 854.631 469.576   4
   2   6   9 1617.95 386.478   6
  -2   6  -9 494.714 274.642   2
  -2   6 -10 4923.68 596.464   2
   2   6  10 3108.71 503.182   6
  -2   6 -10 4416.73 680.987   4
  -2   6 -11 2439.93 623.800   4
  -2   6 -11 3134.52 555.366   2
  -2   6 -12 413.658 452.647   4
   2   7 -12 289.990 296.915   5
   2   7 -11 2310.61 431.580   5
   2   7 -11 2217.77 594.030   4
   2   7 -10 2897.92 618.969   4
   2   7 -10 2383.36 397.862   5
  -2   7  10 1718.34 366.427   6
   2   7  -9 1367.01 518.278   4
   2   7  -9 961.310 307.845   5
  -2   7   9 1303.16 324.324   6
   2   7  -8 323.502 257.031   5
   2   7  -8-154.137 362.914   4
  -2   7   8-17.1930 256.323   6
   2   7  -7 5410.31 724.605   4
  -2   7   7 5618.56 534.765   6
   2   7  -7 6222.54 537.867   5
   2   7  -6 6519.50 539.266   5
   2   7  -6 6428.44 744.975   4
  -2   7   6 5133.46 514.785   6
  -2   7   6 6005.23 547.913   4
   2   7  -5 2691.00 371.533   5
   2   7  -5 2341.59 513.051   4
  -2   7   5 2493.36 394.966   4
   2   7  -4 3616.56 576.754   4
  -2   7   4 4473.43 528.010   4
   2   7  -4 4363.83 436.046   5
  -2   7   3 8994.48 739.995   4
   2   7  -3 8869.18 823.464   4
   2   7  -3 9397.30 593.921   5
   2   7  -2 3694.02 394.376   5
   2   7  -2 5411.45 672.263   4
  -2   7   2 4704.02 565.295   4
   2   7  -1-111.286 350.566   4
  -2   7   1 304.184 291.479   4
   2   7  -1-229.627 220.944   5
   2   7   0 11812.4 681.890   5
   2   7   0 12014.8 882.793   4
  -2   7   0 11201.2 879.029   4
   2   7   1 5065.23 595.371   4
  -2   7  -1 5280.21 646.805   4
   2   7   1 4763.38 454.115   5
   2   7   2 3628.03 511.525   4
  -2   7  -2 3823.90 596.063   4
   2   7   2 4307.09 456.345   5
   2   7   3 1580.92 313.622   5
   2   7   3 2045.57 436.577   4
  -2   7  -3 2105.37 507.159   4
   2   7   4 8172.18 627.431   5
   2   7   4 8713.02 708.456   4
  -2   7  -4 8651.04 849.932   4
  -2   7  -5 6118.46 770.836   4
   2   7   5 5469.82 534.016   5
   2   7   6 757.500 312.016   5
  -2   7  -6 963.791 444.954   4
   2   7   6 1415.10 413.100   6
   2   7   7-370.015 393.679   6
  -2   7  -7 402.269 470.613   4
   2   7   7 135.898 253.182   5
   2   7   8 4407.90 582.738   6
  -2   7  -8 2462.43 622.185   4
   2   7   8 3340.18 488.494   5
   2   7   9 2755.50 479.364   5
  -2   7  -9 2814.67 628.520   4
   2   7   9 1965.37 482.131   6
  -2   8   9 2448.46 443.705   6
  -2   8   8 1835.50 400.400   6
   2   8  -7-28.6834 462.295   4
  -2   8   7-104.523 334.224   6
   2   8  -6-383.444 490.821   4
  -2   8   6 1017.94 365.443   6
  -2   8   5 3855.65 556.508   4
   2   8  -5 4717.94 736.737   4
   2   8  -4 2286.50 573.292   4
  -2   8   4 1839.49 419.625   4
   2   8  -3 970.188 462.025   4
  -2   8   3 717.991 348.067   4
   2   8  -2 1241.77 402.211   4
  -2   8   2 1880.02 459.943   4
   2   8  -1 2962.21 541.379   4
  -2   8   1 2669.77 532.909   4
  -2   8   0 2123.57 507.202   4
   2   8   0 2244.68 531.374   4
   2   8   1 458.171 355.778   4
  -2   8  -1-583.758 387.730   4
   2   8   2 2844.31 549.266   4
  -2   8  -2 2310.20 530.709   4
   2   8   3 2631.22 502.859   4
  -2   8  -3 3237.89 627.442   4
  -2   8  -4 1425.25 514.014   4
  -2   8  -5 393.672 464.980   4
   2   8   5-162.932 410.908   6
   2   8   6 3526.92 605.707   6
  -2   8  -6 2980.91 715.842   4
  -2   9   3 1119.85 435.631   4
  -2   9   2 2189.75 525.771   4
  -2   9   1 1006.66 484.863   4
  -2   9   0 175.362 433.919   4
   2   9   2 1706.65 481.545   4
   2   9   3-2.73581 334.452   4
  -3  -8   7 1539.89 455.505   3
   3  -8  -7 2508.25 399.935   3
   3  -8  -6 1522.39 360.158   3
  -3  -8   6 1645.41 470.865   3
   3  -8  -5-159.566 290.876   3
  -3  -8   5 343.504 400.727   3
  -3  -8   4 3974.79 594.042   3
   3  -8  -4 3251.76 464.329   3
   3  -8  -3 3139.69 468.245   3
  -3  -8   3 3360.47 546.263   3
   3  -8  -2 1168.52 379.435   3
  -3  -8   2 815.480 376.178   3
   3  -8  -1-217.368 328.328   3
  -3  -8   1-583.661 401.144   3
   3  -8   0 6037.82 635.869   3
  -3  -8   0 6171.14 634.648   3
  -3  -8  -1 3676.88 502.192   3
   3  -8   1 3558.07 533.587   3
  -3  -8  -2 1002.17 392.534   3
   3  -8   2 202.848 344.862   3
   3  -8   3 326.387 365.836   3
  -3  -8  -3 695.715 338.974   3
   3  -8   4 5881.36 714.386   3
  -3  -8  -4 7507.28 667.702   3
   3  -8   5 845.579 452.031   3
  -3  -7  12 2983.62 557.992   1
  -3  -7  11 341.442 381.928   3
  -3  -7  11 357.817 344.227   1
  -3  -7  10 973.242 409.094   3
  -3  -7  10 1736.88 439.015   1
  -3  -7   9 6513.48 716.077   3
  -3  -7   9 6088.96 643.382   1
  -3  -7   8 4460.14 597.168   3
  -3  -7   8 4290.83 564.063   1
  -3  -7   7 398.758 292.275   1
  -3  -7   7 394.472 333.697   3
   3  -7  -7 977.188 300.245   3
  -3  -7   6 5280.72 609.241   3
  -3  -7   6 3810.05 448.258   1
   3  -7  -6 4258.02 444.124   3
  -3  -7   5 6870.37 559.778   1
   3  -7  -5 6572.81 528.915   3
  -3  -7   5 7810.90 692.232   3
  -3  -7   4 2134.94 349.876   1
   3  -7  -4 1507.87 326.630   3
  -3  -7   4 2501.83 448.454   3
   3  -7  -3 146.980 261.204   3
  -3  -7   3 585.371 359.457   3
  -3  -7   3 284.774 210.840   1
  -3  -7   2 7688.86 657.316   3
   3  -7  -2 6625.02 572.237   3
  -3  -7   2 6117.53 480.955   1
  -3  -7   1 5359.81 560.387   3
  -3  -7   1 5736.61 457.649   1
   3  -7  -1 5895.65 560.424   3
  -3  -7   0 1031.81 256.022   1
   3  -7   0 1123.34 335.539   3
  -3  -7   0 747.225 336.003   3
  -3  -7  -1 346.184 210.535   1
  -3  -7  -1 194.943 295.405   3
   3  -7   1 876.432 344.590   3
   3  -7   2 6897.70 630.599   3
  -3  -7  -2 7429.49 494.395   1
  -3  -7  -2 7365.52 621.708   3
  -3  -7  -3 2170.38 407.491   3
  -3  -7  -3 1660.82 288.201   1
   3  -7   3 1944.61 439.328   3
   3  -7   4-306.907 362.082   3
  -3  -7  -4 390.965 299.568   3
  -3  -7  -5 735.609 337.686   3
  -3  -7  -5 480.105 265.231   2
   3  -7   5 658.206 391.159   3
   3  -7   6 4714.38 639.080   3
  -3  -7  -6 4677.52 468.485   2
   3  -7   7 1528.80 477.624   3
  -3  -7  -7 1961.36 365.048   2
   3  -7   8 590.178 444.086   3
  -3  -7  -8-623.857 321.699   2
  -3  -7  -9 818.423 321.745   2
  -3  -6  14 2686.24 517.087   3
  -3  -6  13-193.615 357.918   1
  -3  -6  13-203.028 383.669   3
  -3  -6  12 1205.14 438.678   3
  -3  -6  12 1195.15 403.737   1
  -3  -6  11 4816.86 610.443   3
  -3  -6  11 5227.88 633.470   1
  -3  -6  10 6060.75 632.900   1
  -3  -6  10 5262.00 610.483   3
  -3  -6   9 2479.26 460.851   1
  -3  -6   9 3347.97 509.611   3
  -3  -6   8 5883.19 571.537   1
  -3  -6   8 4244.39 516.899   3
  -3  -6   7 12159.7 761.572   1
   3  -6  -7 12903.3 618.792   3
  -3  -6   7 13727.6 849.092   3
  -3  -6   6 10290.8 677.753   1
   3  -6  -6 10401.6 570.320   3
  -3  -6   6 9803.52 702.235   3
  -3  -6   5 1224.54 325.017   1
   3  -6  -5 872.827 237.471   3
  -3  -6   5 1150.76 307.661   3
   3  -6  -4 14501.3 692.461   3
  -3  -6   4 14979.1 818.089   3
  -3  -6   4 14820.8 742.470   1
   3  -6  -3 12673.3 668.239   3
  -3  -6   3 11610.5 733.592   3
  -3  -6   3 12512.6 660.625   1
  -3  -6   2 3310.66 351.415   1
   3  -6  -2 3815.33 402.571   3
  -3  -6   2 4121.43 469.254   3
  -3  -6   1 2549.91 314.025   1
  -3  -6   1 2325.97 389.146   3
   3  -6  -1 3108.52 396.839   3
  -3  -6   0 16543.8 709.247   1
  -3  -6   0 16835.6 819.761   3
   3  -6   0 16035.3 806.352   3
  -3  -6  -1 4044.50 431.300   3
   3  -6   1 4914.96 490.568   3
  -3  -6  -1 4318.51 371.060   1
   3  -6   2 3219.19 433.579   3
  -3  -6  -2 3187.23 406.738   3
  -3  -6  -2 3674.26 343.890   1
   3  -6   3 2273.96 398.099   3
  -3  -6  -3 2771.24 308.703   1
  -3  -6  -3 3143.45 424.344   3
  -3  -6  -4 10668.7 566.557   1
  -3  -6  -4 10207.1 656.946   3
   3  -6   4 11025.9 755.700   3
   3  -6   5 6961.82 632.792   3
  -3  -6  -5 7976.39 506.024   1
  -3  -6  -5 6982.12 510.437   2
   3  -6   6-92.5223 342.525   3
  -3  -6  -6 386.351 226.768   2
  -3  -6  -6 275.696 200.211   1
   3  -6   7 3515.93 523.473   3
  -3  -6  -7 3001.60 396.081   2
   3  -6   8 8287.37 743.892   3
  -3  -6  -8 8478.29 608.475   2
   3  -6   9 1815.89 489.692   3
  -3  -6  -9 1877.66 377.216   2
  -3  -6 -10 261.460 287.552   2
   3  -6  10 14.9581 398.158   3
   3  -6  11 4130.69 688.652   3
  -3  -6 -11 3490.86 493.644   2
  -3  -6 -12 1761.13 427.242   2
  -3  -5  15 795.314 401.734   3
  -3  -5  14 787.359 371.908   3
  -3  -5  14 619.364 400.409   1
  -3  -5  13 3815.54 538.284   3
  -3  -5  13 4432.04 597.149   1
  -3  -5  12 5648.71 610.325   3
  -3  -5  12 6059.88 661.847   1
  -3  -5  11 481.468 310.593   3
  -3  -5  11 437.982 323.681   1
  -3  -5  10 7327.48 653.127   1
  -3  -5  10 7195.23 631.926   3
  -3  -5   9 2586.27 414.291   3
  -3  -5   9 3038.33 436.352   1
   3  -5  -8 9762.61 392.373   2
  -3  -5   8 11982.2 739.419   3
  -3  -5   8 11205.7 721.213   1
   3  -5  -7 1549.17 125.288   2
   3  -5  -7 2018.84 265.069   3
  -3  -5   7 1669.95 351.170   1
  -3  -5   7 1772.15 354.408   3
  -3  -5   6 5420.15 482.326   3
  -3  -5   6 5935.24 496.034   1
   3  -5  -6 5652.13 385.089   3
  -3  -5   5 11558.6 649.259   1
   3  -5  -5 9882.21 505.191   3
  -3  -5   5 10360.7 647.248   3
  -3  -5   4 16554.5 746.651   1
   3  -5  -4 15976.7 649.790   3
  -3  -5   4 17798.2 814.228   3
   3  -5  -3 3378.36 341.387   3
  -3  -5   3 3069.31 369.891   3
  -3  -5   3 3028.53 333.703   1
  -3  -5   2 18732.7 818.410   3
   3  -5  -2 18621.1 741.390   3
  -3  -5   2 17563.7 729.891   1
  -3  -5   1 28212.8 997.349   3
   3  -5  -1 28287.1 957.279   3
  -3  -5   1 29855.7 934.650   1
  -3  -5   0 9680.76 570.037   3
  -3  -5   0 8961.62 491.965   1
   3  -5   0 8969.11 549.897   3
   3  -5   1 8712.88 297.505   1
  -3  -5  -1 8388.30 480.110   1
  -3  -5  -1 8889.10 543.605   3
   3  -5   1 9664.16 585.121   3
   3  -5   2 46707.6 899.728   1
  -3  -5  -2 49893.0 1197.96   1
  -3  -5  -2 46108.1 1267.60   3
   3  -5   2 48694.0 1367.59   3
  -3  -5  -3 23335.4 790.830   1
  -3  -5  -3 21433.3 846.382   3
   3  -5   3 21904.7 910.405   3
   3  -5   3 21795.8 567.678   5
  -3  -5  -4 1296.00 239.809   1
   3  -5   4 1474.09 328.428   3
  -3  -5  -4 1765.02 305.075   3
  -3  -5  -5 14344.6 637.987   1
   3  -5   5 13682.3 768.323   3
   3  -5   6 17874.1 896.665   3
  -3  -5  -6 17633.3 736.818   1
  -3  -5  -6 17843.8 758.985   2
   3  -5   7 7907.57 643.771   3
  -3  -5  -7 7945.53 535.672   2
  -3  -5  -7 7467.58 502.393   1
   3  -5   8 393.787 335.120   3
  -3  -5  -8 603.010 260.579   2
   3  -5   9 2368.63 471.775   3
  -3  -5  -9 1027.69 304.660   2
  -3  -5 -10 5227.71 527.789   2
   3  -5  10 4253.13 623.326   3
   3  -5  11 1791.75 523.385   3
  -3  -5 -11 2574.22 432.107   2
   3  -5  12 335.321 452.218   3
  -3  -5 -12 294.558 295.641   2
  -3  -5 -13 804.200 396.702   2
  -3  -4  17 352.905 379.272   3
  -3  -4  16 771.489 378.279   3
  -3  -4  15 3404.90 519.435   3
   3  -4 -15 3621.44 492.332   2
  -3  -4  14 5612.50 598.685   3
   3  -4 -14 5893.09 575.313   2
  -3  -4  13 860.323 307.263   3
   3  -4 -13 1251.46 303.967   2
  -3  -4  12 1540.33 359.627   3
   3  -4 -12 1010.24 262.185   2
  -3  -4  11 12821.6 745.709   3
   3  -4 -11 11328.4 622.062   2
   3  -4 -10 13829.2 637.401   2
  -3  -4  10 14080.6 824.224   1
  -3  -4  10 15022.6 780.975   3
  -3  -4   9 53.9520 238.079   1
   3  -4  -9 77.9912 141.461   2
  -3  -4   9 159.408 240.194   3
  -3  -4   8 17003.0 841.943   1
   3  -4  -8 17920.3 613.522   2
  -3  -4   8 18517.8 828.203   3
   3  -4  -7 34387.7 795.524   2
  -3  -4   7 35122.0 1185.89   1
  -3  -4   7 35982.7 1137.78   3
   3  -4  -6 9472.76 322.318   2
  -3  -4   6 9601.48 589.404   1
   3  -4  -6 9542.84 421.173   3
  -3  -4   6 9912.65 572.547   3
  -3  -4   5 2209.45 298.053   3
  -3  -4   5 2418.03 308.417   1
   3  -4  -5 2523.79 235.984   3
  -3  -4   4 47312.8 1266.76   1
   3  -4  -4 49114.8 1085.44   3
  -3  -4   4 49097.1 1281.63   3
   3  -4  -3 12998.4 526.746   3
  -3  -4   3 12360.7 603.502   3
  -3  -4   3 12405.4 592.236   1
  -3  -4   2 21623.6 774.016   3
   3  -4  -2 21318.0 701.706   3
  -3  -4   2 21578.4 767.836   1
  -3  -4   1 19626.3 733.794   3
   3  -4  -1 18467.9 667.261   3
  -3  -4   1 18186.0 677.919   1
  -3  -4   0 27763.7 886.466   3
   3  -4   0 28360.3 551.390   1
  -3  -4   0 28145.7 860.018   1
   3  -4   0 29302.7 886.550   3
   3  -4   1 31306.0 666.650   1
  -3  -4  -1 32546.0 918.444   1
  -3  -4  -1 32050.5 936.907   3
   3  -4   1 32400.8 957.949   3
   3  -4   2 571.231 92.1542   5
   3  -4   2 488.513 110.566   1
  -3  -4  -2 684.609 176.402   1
  -3  -4  -2 421.959 183.357   3
   3  -4   2 372.040 191.365   3
  -3  -4  -3 6719.70 407.470   1
  -3  -4  -3 7325.53 438.404   3
   3  -4   3 6714.34 456.841   3
   3  -4   3 6374.09 294.027   5
   3  -4   4 32417.3 1031.83   3
   3  -4   4 30366.3 785.479   5
  -3  -4  -4 30937.2 910.444   1
   3  -4   4 31386.7 729.938   2
  -3  -4  -5 20653.0 742.108   1
   3  -4   5 19003.0 657.312   5
   3  -4   5 19546.9 819.104   3
  -3  -4  -6 3010.30 324.874   2
   3  -4   6 2903.60 378.855   3
  -3  -4  -6 2569.49 298.697   1
  -3  -4  -7 1803.70 280.545   1
  -3  -4  -7 2717.48 338.946   2
   3  -4   7 2196.61 367.967   3
  -3  -4  -8 23785.3 904.740   2
   3  -4   8 22993.5 1052.66   3
   3  -4   9 9816.02 756.907   3
  -3  -4  -9 10249.1 633.908   2
  -3  -4 -10 72.0961 269.124   2
   3  -4  10 335.201 383.313   3
  -3  -4 -11 2883.43 440.097   2
   3  -4  11 2651.82 549.585   3
  -3  -4 -12 6449.14 610.717   2
   3  -4  12 6644.26 758.404   3
   3  -4  13 1065.52 488.438   3
  -3  -4 -13 869.502 398.033   2
  -3  -4 -14 194.455 316.751   2
   3  -3 -18-27.6464 348.760   2
   3  -3 -17 3991.43 587.712   2
  -3  -3  17 3918.67 539.818   3
  -3  -3  16 2393.04 418.887   3
   3  -3 -16 3363.66 541.419   2
  -3  -3  15-260.424 311.198   3
   3  -3 -15-530.233 347.694   2
  -3  -3  14 566.316 274.926   3
   3  -3 -14 94.4272 273.222   2
  -3  -3  13 10965.9 687.378   3
   3  -3 -13 10993.6 710.621   2
  -3  -3  12 4041.83 423.216   3
   3  -3 -12 3792.59 425.995   2
  -3  -3  11 663.495 232.227   3
   3  -3 -11 974.212 253.637   2
  -3  -3  10 11115.8 620.846   3
   3  -3 -10 11858.9 600.020   2
   3  -3  -9 25816.2 844.531   2
  -3  -3   9 24910.4 893.885   3
  -3  -3   8 28731.7 1053.75   1
  -3  -3   8 31377.8 970.955   3
   3  -3  -8 29502.3 851.097   2
   3  -3  -7 4269.81 287.706   2
  -3  -3   7 4064.85 399.366   1
  -3  -3   7 4274.35 356.883   3
   3  -3  -6 37118.4 822.001   2
  -3  -3   6 38677.4 1135.23   1
  -3  -3   6 37819.8 1034.74   3
   3  -3  -5 71350.4 1168.39   2
  -3  -3   5 70108.6 1586.56   1
   3  -3  -5 71745.2 1225.64   3
  -3  -3   5 71615.0 1497.84   3
  -3  -3   4 45850.1 1184.05   1
   3  -3  -4 46983.2 919.502   3
  -3  -3   4 46280.7 1112.73   3
  -3  -3   3 9578.64 489.540   1
   3  -3  -3 9130.61 366.597   3
  -3  -3   3 8660.97 440.466   3
  -3  -3   2 50462.7 1136.02   3
   3  -3  -2 51934.8 1040.97   3
  -3  -3   2 50021.5 1178.46   1
   3  -3  -1 39639.4 691.473   1
  -3  -3   1 39169.5 994.542   1
  -3  -3   1 39767.6 962.752   3
   3  -3  -1 39730.8 909.034   3
   3  -3   0 6568.03 351.894   3
   3  -3   0 5898.53 238.304   1
  -3  -3   0 6363.24 358.235   3
  -3  -3   0 6525.49 378.357   1
   3  -3   1 3464.62 204.677   1
  -3  -3  -1 3488.15 285.665   1
  -3  -3  -1 3172.62 268.521   3
   3  -3   1 3400.44 274.334   3
   3  -3   1 3562.40 149.979   5
   3  -3   2 64879.1 1155.88   1
  -3  -3  -2 62238.2 1311.12   1
  -3  -3  -2 62065.1 1265.23   3
   3  -3   2 63040.2 1309.72   3
   3  -3   2 59982.9 1026.17   5
  -3  -3  -3 38150.3 972.261   1
   3  -3   3 38159.8 801.518   5
   3  -3   3 37683.1 990.851   3
   3  -3   4 2420.04 275.899   3
   3  -3   4 2745.88 242.231   1
  -3  -3  -4 2676.27 269.041   1
   3  -3   4 2885.07 225.004   5
  -3  -3  -5 11067.0 526.606   1
   3  -3   5 11797.5 566.550   3
   3  -3   5 11018.8 473.688   5
  -3  -3  -6 57783.8 1342.35   2
   3  -3   6 57739.9 1417.00   3
  -3  -3  -6 55771.6 1344.30   1
  -3  -3  -7 12715.2 618.637   1
  -3  -3  -7 13143.9 625.888   2
   3  -3   7 11908.6 666.634   3
  -3  -3  -8 535.008 234.259   2
   3  -3   8 580.607 288.062   3
  -3  -3  -9 6765.03 507.512   2
   3  -3   9 6898.84 599.154   3
  -3  -3 -10 16806.7 823.123   2
   3  -3  10 17345.8 972.568   3
  -3  -3 -11 1772.37 379.595   2
   3  -3  11 2032.50 460.872   3
   3  -3  12 854.164 374.801   3
  -3  -3 -12 1201.53 369.602   2
   3  -3  13 3811.22 563.969   3
  -3  -3 -13 3508.66 505.416   2
  -3  -3 -14 5315.65 630.791   2
   3  -3  14 5604.65 653.809   3
  -3  -3 -15 114.813 353.383   2
   3  -2 -18 2447.50 518.452   2
  -3  -2  17 492.520 308.125   3
   3  -2 -17 638.581 375.587   2
  -3  -2  16 101.976 259.923   3
   3  -2 -16 760.015 344.251   2
  -3  -2  15 5027.91 504.992   3
   3  -2 -15 5547.32 598.193   2
   3  -2 -14 8289.95 693.417   2
  -3  -2  14 8064.36 592.243   3
  -3  -2  13 321.269 225.933   3
   3  -2 -13-1.72379 240.205   2
   3  -2 -12 6191.59 536.153   2
  -3  -2  12 6511.18 480.410   3
   3  -2 -11 31746.0 1110.84   2
  -3  -2  11 31116.7 984.301   3
   3  -2 -10 17995.2 771.137   2
  -3  -2  10 18022.9 709.064   3
   3  -2  -9 553.726 194.181   2
  -3  -2   9 899.512 194.899   3
  -3  -2   8 49302.6 1151.29   3
   3  -2  -8 51275.4 1219.98   2
  -3  -2   8 50940.2 1291.91   4
  -3  -2   7 40262.0 977.452   3
   3  -2  -7 39865.5 991.168   2
  -3  -2   7 42345.1 1146.00   4
   3  -2  -6 53605.1 1041.36   5
  -3  -2   6 55130.7 1332.71   4
  -3  -2   6 54660.1 1330.88   1
  -3  -2   6 52235.4 1126.19   3
   3  -2  -6 54223.2 1117.66   2
  -3  -2   5 922.967 162.754   3
   3  -2  -5 782.039 115.664   5
  -3  -2   5 757.869 176.956   4
   3  -2  -5 567.353 118.999   2
  -3  -2   5 396.385 173.542   1
  -3  -2   4 12756.3 553.180   1
  -3  -2   4 14203.3 616.280   4
   3  -2  -4 14724.4 348.698   3
  -3  -2   4 14171.8 486.063   3
   3  -2  -4 14675.0 376.079   5
  -3  -2   3 93233.5 1741.21   1
  -3  -2   3 94959.6 1829.18   5
  -3  -2   3 91257.2 1834.11   4
   3  -2  -3 94475.7 1380.21   3
  -3  -2   3 91126.7 1566.38   3
   3  -2  -3 96215.1 1323.16   5
  -3  -2   2 74787.5 1311.31   3
   3  -2  -2 74058.1 1180.91   3
  -3  -2   2 73377.8 1530.13   5
   3  -2  -2 74959.6 1048.13   5
   3  -2  -2 75430.4 1177.47   1
  -3  -2   2 73029.5 1448.53   1
   3  -2  -1 19671.0 471.008   1
  -3  -2   1 19263.6 542.005   3
   3  -2  -1 20807.9 501.397   3
  -3  -2   1 19103.7 623.100   1
   3  -2  -1 18952.3 388.301   5
  -3  -2   0 114201. 1795.24   3
   3  -2   0 115626. 1708.55   1
  -3  -2   0 113805. 1938.54   1
   3  -2   0 115525. 1744.38   3
   3  -2   1 72154.8 1228.95   1
  -3  -2  -1 73534.9 1394.34   1
  -3  -2  -1 69434.4 1248.30   3
   3  -2   1 70818.2 1240.53   3
   3  -2   2 3162.74 229.762   3
   3  -2   2 3077.44 211.294   1
  -3  -2  -2 2897.28 247.647   1
  -3  -2  -3 24049.4 801.282   4
  -3  -2  -3 23271.0 696.601   1
   3  -2   4 65317.2 1247.88   5
  -3  -2  -4 65527.1 1372.12   1
   3  -2   4 67522.0 1338.71   1
   3  -2   5 26785.6 746.120   5
  -3  -2  -5 27766.2 835.719   1
  -3  -2  -5 27535.5 816.113   2
  -3  -2  -6 2270.51 265.412   2
  -3  -2  -6 2672.64 298.755   1
  -3  -2  -7 4453.13 373.044   2
  -3  -2  -8 43521.8 1218.27   2
  -3  -2  -9 6538.24 500.698   2
  -3  -2 -10 275.659 259.679   2
  -3  -2 -11 6586.44 565.984   2
  -3  -2 -12 12357.0 811.919   2
  -3  -2 -13 1605.19 419.233   2
  -3  -2 -14 442.787 370.997   2
  -3  -2 -15 2744.96 512.203   2
   3  -1 -18 680.418 450.946   2
  -3  -1  17 1728.16 359.684   3
   3  -1 -17 3438.81 603.486   2
  -3  -1  16 10111.6 655.834   3
   3  -1 -16 12670.6 930.287   2
  -3  -1  15 1403.21 319.332   3
   3  -1 -15 1894.18 446.998   2
  -3  -1  14 1386.49 270.735   3
   3  -1 -14 1149.84 329.973   2
  -3  -1  13 14133.5 652.925   3
   3  -1 -13 15312.5 871.464   2
   3  -1 -12 21477.8 973.719   2
  -3  -1  12 19644.9 731.047   3
  -3  -1  11 2315.97 269.426   3
  -3  -1  11 2332.13 227.909   4
   3  -1 -11 2474.63 346.880   2
   3  -1 -10 12334.3 663.904   2
  -3  -1  10 11564.4 479.996   4
   3  -1 -10 12960.3 599.758   5
  -3  -1  10 11576.0 504.226   3
   3  -1  -9 53119.8 1232.44   5
   3  -1  -9 49737.3 1317.56   2
  -3  -1   9 49037.7 1073.82   3
  -3  -1   9 47982.5 1093.65   4
   3  -1  -8 26190.7 775.277   5
   3  -1  -8 25320.4 856.758   2
  -3  -1   8 25402.6 740.990   4
  -3  -1   8 25242.5 678.164   3
   3  -1  -8 26640.2 807.154   6
  -3  -1   7 2785.17 212.667   3
   3  -1  -7 2928.63 284.504   2
  -3  -1   7 3073.18 249.344   4
   3  -1  -7 3930.76 264.348   6
   3  -1  -6 95674.0 1710.10   2
  -3  -1   6 93621.3 1794.42   1
  -3  -1   6 92740.7 1678.94   4
   3  -1  -6 92145.6 1493.17   6
  -3  -1   6 90718.8 1483.42   3
   3  -1  -6 93059.4 1575.34   5
   3  -1  -5 94864.9 1650.12   2
  -3  -1   5 93019.1 1696.79   4
  -3  -1   5 94361.2 1764.45   1
  -3  -1   5 97373.2 1813.58   5
  -3  -1   5 93470.4 1461.07   3
   3  -1  -5 94324.2 1404.35   6
   3  -1  -5 95976.3 1542.27   5
  -3  -1   4 38822.7 975.841   5
  -3  -1   4 37790.3 943.138   1
  -3  -1   4 38514.1 927.800   4
  -3  -1   4 36882.8 722.131   3
   3  -1  -4 38486.8 772.192   5
  -3  -1   3 40516.8 971.431   5
  -3  -1   3 37774.9 912.048   1
  -3  -1   3 39347.2 935.465   4
   3  -1  -3 39549.4 809.954   1
  -3  -1   3 38268.0 704.818   3
   3  -1  -3 37172.3 751.123   5
  -3  -1   2 133849. 2131.53   4
   3  -1  -2 133215. 1936.07   1
  -3  -1   2 131795. 1799.98   3
   3  -1  -2 127259. 1660.56   3
   3  -1  -2 127621. 1877.27   5
  -3  -1   2 128563. 2082.67   1
  -3  -1   2 135436. 2165.30   5
   3  -1  -1 5808.10 182.717   3
  -3  -1   1 6121.14 330.601   4
   3  -1  -1 5428.66 247.445   5
  -3  -1   1 5702.10 215.453   3
  -3  -1   1 5366.17 304.527   1
   3  -1  -1 5904.44 265.141   1
  -3  -1   0 10443.2 422.984   1
   3  -1   0 11281.5 380.512   1
  -3  -1  -1 23114.9 652.886   1
   3  -1   1 22999.0 599.211   1
  -3  -1  -2 64402.9 1269.06   1
   3  -1   2 65932.6 1216.94   1
  -3  -1  -3 41383.7 972.055   1
  -3  -1  -4 16245.1 587.997   1
   3  -1   4 15701.5 558.959   1
  -3  -1  -4 16316.0 569.075   2
  -3  -1  -5 20583.6 706.124   1
  -3  -1  -5 20842.9 680.406   2
  -3  -1  -6 66395.3 1471.09   1
  -3  -1  -6 68715.2 1448.74   2
  -3  -1  -7 39105.0 1079.29   2
  -3  -1  -8 1670.09 270.759   2
  -3  -1  -9 9457.90 586.529   2
  -3  -1 -10 16232.6 806.518   2
  -3  -1 -11 11079.9 719.653   2
  -3  -1 -12 275.150 314.327   2
  -3  -1 -13 4359.22 470.402   4
  -3  -1 -13 3446.95 524.379   2
  -3  -1 -14 5986.89 549.963   4
  -3  -1 -14 5767.95 664.260   2
  -3  -1 -15 2049.99 507.637   2
   3   0 -18 6737.17 811.223   2
   3   0 -17 304.296 438.019   2
   3   0 -16 1846.32 464.707   2
   3   0 -15 4191.04 581.051   2
   3   0 -14 5547.71 610.786   2
   3   0 -13 3122.04 478.071   2
   3   0 -12 5101.71 460.276   5
   3   0 -12 5238.28 533.486   2
   3   0 -11 2989.95 344.598   5
   3   0 -11 3238.87 397.597   2
   3   0 -10 46431.3 1229.78   5
   3   0 -10 46220.6 1376.57   2
   3   0  -9 2398.47 275.121   5
  -3   0   9 2167.29 150.406   4
   3   0  -9 2493.51 340.468   2
   3   0  -8 10537.8 574.600   2
  -3   0   8 10508.1 343.774   4
   3   0  -8 11569.9 515.517   5
   3   0  -7 50807.3 1265.50   2
  -3   0   7 50416.8 939.629   4
   3   0  -7 51256.4 1137.56   5
   3   0  -6 51136.6 1217.81   2
  -3   0   6 52434.6 977.268   4
  -3   0   6 52342.5 1187.38   2
  -3   0   6 54919.3 1200.57   5
  -3   0   6 51935.4 844.095   3
  -3   0   5 1516.07 96.5535   3
   3   0  -5 1518.07 176.391   5
  -3   0   5 1637.83 188.209   1
  -3   0   5 1487.78 145.869   4
   3   0  -5 1484.50 190.924   2
  -3   0   5 1539.70 184.689   2
  -3   0   5 1739.96 190.115   5
  -3   0   4 33632.7 728.376   4
  -3   0   4 34363.8 818.001   1
  -3   0   4 34778.1 842.642   2
   3   0  -4 33073.3 773.512   5
  -3   0   4 30612.4 489.444   3
  -3   0   4 34623.2 837.477   5
  -3   0   3 128952. 2009.70   1
  -3   0   3 129258. 2053.87   2
   3   0  -3 128846. 2016.30   1
  -3   0   3 128027. 2037.65   5
   3   0  -3 126460. 1988.22   5
   3   0  -2 75213.9 1315.31   1
   3   0  -2 72931.5 982.862   3
  -3   0   2 74090.7 1325.79   5
  -3   0   2 72513.5 1292.97   1
   3   0  -2 73554.1 1303.13   5
   3   0  -1 17218.7 345.564   6
   3   0  -1 17749.3 519.082   1
   3   0  -1 17368.3 334.432   3
  -3   0   1 16247.7 498.109   1
   3   0  -1 16796.4 515.616   5
   3   0   0 217932. 2996.37   1
  -3   0   0 208542. 2979.71   1
   3   0   0 209976. 2737.97   6
  -3   0  -1 151596. 2282.99   1
   3   0   1 152305. 2297.44   1
  -3   0  -1 151829. 2155.74   6
  -3   0  -2 1868.24 190.924   1
  -3   0  -2 2198.98 176.547   6
  -3   0  -3 48089.8 1046.81   1
  -3   0  -3 48235.4 990.471   2
  -3   0  -3 46954.7 1014.66   6
  -3   0  -4 180989. 2832.06   1
  -3   0  -4 180917. 2743.44   2
  -3   0  -5 36131.0 970.997   1
  -3   0  -5 36789.2 927.941   2
  -3   0  -6 9313.87 469.916   2
  -3   0  -7 30274.9 929.562   2
  -3   0  -8 37263.1 1111.25   2
  -3   0  -9 26216.9 966.729   2
  -3   0 -10 774.467 286.354   2
  -3   0 -11 5045.55 526.450   2
  -3   0 -12 8554.25 700.563   2
  -3   0 -12 9983.37 673.097   4
  -3   0 -13 363.679 280.689   4
  -3   0 -13-153.651 328.328   2
  -3   0 -14 256.629 351.684   2
  -3   0 -14 1156.93 350.371   4
  -3   0 -15 1174.37 417.466   2
   3   1 -17 2708.42 599.380   2
   3   1 -16 10961.5 903.870   2
   3   1 -15 1369.17 442.537   2
   3   1 -14 1971.09 375.861   5
   3   1 -14 1354.65 402.853   2
   3   1 -13 14820.7 795.643   5
   3   1 -13 15498.1 935.669   2
   3   1 -13 13526.3 523.039   4
   3   1 -12 20264.3 885.222   5
   3   1 -12 21244.9 670.558   4
   3   1 -12 20669.3 1029.76   2
   3   1 -11 1963.89 315.109   5
   3   1 -11 2138.60 385.352   2
   3   1 -11 1764.88 208.196   4
   3   1 -10 10756.4 466.225   4
   3   1 -10 10182.6 655.838   2
   3   1 -10 10508.1 574.532   5
   3   1  -9 55173.6 1507.75   2
   3   1  -9 55345.5 1174.57   4
   3   1  -9 53135.3 1318.06   5
   3   1  -8 24527.0 925.284   2
   3   1  -8 25105.2 709.388   4
  -3   1   8 25829.1 597.913   3
   3   1  -8 24915.6 817.683   5
  -3   1   7 3669.55 276.709   2
   3   1  -7 3300.65 251.014   4
  -3   1   7 3481.01 183.648   3
   3   1  -7 3387.95 333.584   2
  -3   1   7 3386.83 261.765   5
   3   1  -7 3543.60 300.919   5
   3   1  -6 89243.5 1817.28   2
  -3   1   6 86386.5 1276.75   4
   3   1  -6 87645.2 1555.99   4
  -3   1   6 90057.8 1600.21   2
  -3   1   6 91203.6 1282.68   3
  -3   1   6 89783.2 1601.46   5
   3   1  -6 89521.6 1680.03   5
   3   1  -5 99377.3 1670.33   4
  -3   1   5 96876.8 1650.60   1
  -3   1   5 101220. 1673.41   2
  -3   1   5 96456.1 1328.59   3
  -3   1   5 101790. 1683.58   5
  -3   1   4 37675.5 829.339   1
  -3   1   4 39812.8 853.815   2
   3   1  -4 40332.6 705.888   3
  -3   1   4 39736.4 853.869   5
   3   1  -3 34044.7 646.604   3
  -3   1   3 35504.5 748.730   2
  -3   1   3 33428.9 734.195   1
  -3   1   3 34535.0 735.034   5
  -3   1   2 128088. 1881.19   5
   3   1  -2 130580. 1835.08   3
  -3   1   2 126968. 1890.16   1
  -3   1   1 14545.4 431.367   1
   3   1  -1 15472.8 412.186   3
  -3   1   0 12834.7 411.390   1
   3   1   0 14140.6 399.262   3
   3   1   1 18077.2 537.466   6
  -3   1  -1 17910.7 520.877   1
   3   1   1 19455.1 497.704   3
  -3   1  -2 67785.0 1246.76   1
  -3   1  -2 66833.2 1155.04   2
   3   1   2 68198.1 1187.64   3
   3   1   2 66578.0 1250.91   6
   3   1   3 41842.4 957.986   6
  -3   1  -3 44727.5 985.157   1
  -3   1  -3 43418.0 900.457   2
  -3   1  -4 14561.9 504.909   2
  -3   1  -5 19685.8 640.893   2
  -3   1  -6 72174.0 1495.84   2
  -3   1  -7 33987.4 998.968   2
  -3   1  -8 1998.99 306.214   2
  -3   1  -9 11322.1 677.268   4
  -3   1  -9 11048.4 645.332   2
  -3   1 -10 14804.1 798.711   4
  -3   1 -10 15048.0 802.920   2
  -3   1 -11 10194.6 701.212   4
  -3   1 -11 8746.28 655.745   2
  -3   1 -12 167.789 248.772   4
  -3   1 -12 215.872 313.334   2
  -3   1 -13 4860.62 549.033   4
  -3   1 -13 4038.72 538.855   2
  -3   1 -14 7191.62 729.487   2
  -3   1 -14 6220.15 644.929   4
  -3   1 -15 2597.94 548.378   2
  -3   1 -15 1670.23 435.231   4
   3   2 -17 369.815 375.699   2
   3   2 -16 904.990 443.270   2
   3   2 -15 7481.48 666.698   5
   3   2 -15 7645.32 787.528   2
   3   2 -14 7981.51 522.501   4
   3   2 -14 7187.61 724.954   2
   3   2 -13 91.3834 265.472   5
   3   2 -13 207.323 174.193   4
   3   2 -13-128.469 317.988   2
   3   2 -12 7746.59 667.018   2
   3   2 -12 6556.36 468.636   4
   3   2 -12 7452.05 571.339   5
   3   2 -11 33717.3 1061.52   4
   3   2 -11 34559.7 1320.86   2
   3   2 -11 35684.2 1159.48   5
   3   2 -10 20153.7 785.716   4
   3   2 -10 20805.9 978.366   2
   3   2 -10 19493.0 811.456   5
   3   2  -9 782.070 205.695   4
   3   2  -9 729.087 259.912   2
   3   2  -9 1314.32 258.688   5
  -3   2   9 653.309 135.326   3
   3   2  -8 53058.7 1478.01   2
   3   2  -8 50536.1 1281.66   4
  -3   2   8 51915.6 1130.95   2
  -3   2   8 51225.7 1032.12   3
  -3   2   8 50200.0 1136.63   5
   3   2  -8 51445.4 1296.48   5
   3   2  -7 46291.2 1311.78   2
   3   2  -7 46518.0 1186.37   4
  -3   2   7 45120.5 991.373   2
  -3   2   7 44988.9 908.793   3
  -3   2   7 44130.1 998.193   5
   3   2  -7 46547.0 1171.23   5
   3   2  -6 47780.0 1191.69   4
  -3   2   6 47769.2 816.038   4
  -3   2   6 48619.0 986.150   1
  -3   2   6 49918.3 985.588   2
  -3   2   6 47557.9 898.309   3
  -3   2   6 48252.6 993.973   5
   3   2  -5 992.595 144.572   3
   3   2  -5 982.949 191.432   4
  -3   2   5 769.360 117.343   5
  -3   2   5 687.468 107.888   4
  -3   2   5 798.054 105.601   3
  -3   2   5 769.807 118.161   1
  -3   2   5 839.244 115.890   2
   3   2  -4 12329.1 540.263   4
  -3   2   4 12230.0 326.839   6
  -3   2   4 11921.1 421.063   4
  -3   2   4 12177.8 357.003   2
   3   2  -4 12312.3 423.979   3
  -3   2   4 12974.5 349.880   3
  -3   2   4 12996.7 377.444   5
  -3   2   4 12177.2 366.294   1
  -3   2   3 91999.6 1360.56   2
  -3   2   3 93384.5 1602.01   4
  -3   2   3 94344.0 1363.63   3
   3   2  -3 91759.7 1751.17   4
  -3   2   3 92416.1 1388.35   1
  -3   2   3 94140.2 1336.04   6
  -3   2   3 93626.8 1368.42   5
   3   2  -3 94344.7 1561.76   3
   3   2  -2 66533.4 1383.58   4
  -3   2   2 66876.7 1009.48   2
  -3   2   2 68929.2 1331.14   4
  -3   2   2 66532.7 1056.60   1
  -3   2   2 65797.8 1034.81   3
   3   2  -2 67487.9 1245.30   3
  -3   2   1 16104.6 586.241   4
  -3   2   1 15635.3 403.233   1
   3   2  -1 14721.5 550.470   1
   3   2  -1 15982.0 513.397   3
   3   2   0 126809. 2134.15   1
  -3   2   0 128512. 1856.55   1
  -3   2   0 127358. 1727.41   2
   3   2   0 127370. 2034.22   3
  -3   2   0 130072. 2245.54   4
  -3   2  -1 60367.6 1089.01   1
  -3   2  -1 62446.5 1401.15   4
  -3   2  -1 60041.9 982.245   2
   3   2   1 59960.4 1202.06   3
   3   2   1 61324.0 1277.26   1
  -3   2  -2 4197.16 355.153   4
  -3   2  -2 3607.26 210.860   2
   3   2   2 3949.61 287.645   1
  -3   2  -3 25445.5 902.173   4
  -3   2  -3 24652.5 631.831   2
   3   2   3 23078.4 756.314   6
  -3   2  -4 66633.0 1601.94   4
  -3   2  -4 64855.4 1273.29   2
   3   2   4 64807.0 1424.65   6
  -3   2  -5 23105.2 906.433   4
  -3   2  -5 23507.0 724.179   2
   3   2   5 21149.5 767.059   6
   3   2   6 3446.77 353.394   6
  -3   2  -6 3766.77 409.797   4
  -3   2  -6 3174.56 303.954   2
  -3   2  -7 4132.16 371.581   2
  -3   2  -7 4284.16 450.007   4
  -3   2  -8 40662.7 1370.06   4
  -3   2  -8 42002.5 1246.08   2
  -3   2  -9 8611.09 584.668   2
  -3   2  -9 8965.17 670.595   4
  -3   2 -10-307.874 286.229   2
  -3   2 -10 373.110 305.299   4
  -3   2 -11 7466.18 654.679   4
  -3   2 -11 6940.98 607.863   2
  -3   2 -12 12156.4 848.961   4
  -3   2 -12 12885.2 845.008   2
  -3   2 -13 2309.32 443.112   2
  -3   2 -13 1216.32 368.446   4
  -3   2 -14 833.958 423.862   2
  -3   2 -14 552.817 357.961   4
  -3   2 -15 3288.41 593.419   2
  -3   2 -15 3584.84 566.072   4
   3   3 -16 3389.41 528.356   5
   3   3 -16 2552.20 569.360   2
   3   3 -15 528.187 349.270   5
   3   3 -15 413.609 397.407   2
   3   3 -14 1142.52 356.759   5
   3   3 -14 177.391 233.486   4
   3   3 -14 904.840 400.212   2
   3   3 -13 10405.9 860.410   2
   3   3 -13 9755.62 661.661   4
   3   3 -13 9315.36 685.984   5
   3   3 -12 6239.64 537.372   4
   3   3 -12 5506.01 610.665   2
   3   3 -12 5373.69 520.712   5
   3   3 -11 1387.96 319.725   5
   3   3 -11 1368.37 310.310   4
   3   3 -11 1320.99 343.625   2
   3   3 -10 8924.87 605.209   4
   3   3 -10 8384.26 666.922   2
   3   3 -10 8641.34 575.991   5
   3   3  -9 24157.1 1058.58   2
   3   3  -9 24555.9 981.014   4
   3   3  -9 24120.1 917.951   5
   3   3  -8 31936.1 1095.67   4
  -3   3   8 32132.6 805.547   2
  -3   3   8 31066.5 849.644   3
  -3   3   8 29429.6 803.713   5
   3   3  -8 30966.8 1019.08   5
  -3   3   7 3588.68 185.047   4
  -3   3   7 3696.33 231.672   1
   3   3  -7 3408.48 367.652   4
  -3   3   7 3512.47 233.574   2
  -3   3   7 3787.19 268.718   3
   3   3  -7 3489.46 347.886   5
  -3   3   7 3652.93 238.397   5
  -3   3   6 38009.3 736.609   1
   3   3  -6 36613.1 1153.93   4
  -3   3   6 37546.0 812.612   4
  -3   3   6 35960.3 745.783   2
  -3   3   6 37895.4 879.494   3
  -3   3   6 36849.0 850.056   6
  -3   3   6 35804.8 771.257   5
   3   3  -6 34749.6 1051.11   5
   3   3  -5 68089.9 1649.78   4
  -3   3   5 71105.3 1352.04   4
  -3   3   5 73713.6 1110.06   2
  -3   3   5 70071.3 1290.83   6
  -3   3   5 72091.3 1324.16   3
  -3   3   5 71310.9 1095.58   1
  -3   3   5 73123.5 1158.46   5
   3   3  -5 71692.2 1578.60   5
  -3   3   4 45516.2 920.653   3
  -3   3   4 45050.7 1029.28   4
   3   3  -4 43662.0 1217.90   4
  -3   3   4 40159.3 639.267   2
  -3   3   4 41506.1 662.963   1
   3   3  -4 44489.4 1162.11   5
   3   3  -4 44523.4 1036.02   3
  -3   3   4 42255.7 695.652   5
   3   3  -3 11797.0 568.328   5
   3   3  -3 11995.5 601.548   4
  -3   3   3 11252.0 506.296   4
  -3   3   3 10295.0 232.818   1
  -3   3   3 11580.5 411.735   3
   3   3  -2 49075.1 1304.15   4
  -3   3   2 52065.4 1254.35   4
  -3   3   2 54285.7 1024.24   3
   3   3  -2 54150.3 1311.94   5
   3   3  -1 37538.8 1089.29   4
   3   3  -1 39181.4 1013.54   1
  -3   3   1 40615.9 1108.10   4
   3   3  -1 39330.3 1006.61   3
  -3   3   1 40009.0 838.204   3
   3   3  -1 39396.0 1093.00   5
   3   3   0 5114.81 344.776   1
   3   3   0 5455.70 400.917   4
  -3   3   0 4935.36 149.626   2
  -3   3   0 5425.52 408.856   4
   3   3   0 5552.83 413.812   5
  -3   3  -1 4325.97 191.683   2
   3   3   1 3617.64 344.620   5
  -3   3  -1 4123.62 383.111   4
  -3   3  -2 61888.7 1593.94   4
  -3   3  -2 61136.0 1096.13   2
  -3   3  -3 47113.4 1391.57   4
  -3   3  -3 44865.2 979.378   2
  -3   3  -4 3563.75 280.362   2
  -3   3  -4 4355.13 447.471   4
   3   3   4 3423.05 349.347   6
  -3   3  -5 10855.0 689.633   4
  -3   3  -5 10723.3 514.783   2
   3   3   5 11243.0 606.641   6
  -3   3  -6 62442.8 1781.56   4
  -3   3  -6 60215.7 1433.83   2
   3   3   6 60643.6 1534.72   6
   3   3   7 13532.2 707.929   6
  -3   3  -7 14625.0 858.303   4
  -3   3  -7 13869.7 677.919   2
  -3   3  -8 783.115 306.059   4
  -3   3  -8 675.435 271.112   2
  -3   3  -9 8090.93 696.591   4
  -3   3  -9 9317.50 629.318   2
  -3   3 -10 18826.6 1065.77   4
  -3   3 -10 18628.1 938.307   2
  -3   3 -11 1349.32 356.491   2
  -3   3 -11 1156.28 377.835   4
  -3   3 -12 1337.77 385.746   2
  -3   3 -12 787.430 370.045   4
  -3   3 -13 3287.98 540.324   4
  -3   3 -13 3024.71 548.004   2
  -3   3 -14 3521.10 585.840   4
  -3   3 -14 4777.24 668.503   2
  -3   3 -15 315.443 370.739   4
  -3   3 -15-8.63308 377.692   2
   3   4 -16 803.910 390.503   5
   3   4 -16-629.338 477.134   2
   3   4 -15 3110.34 506.901   5
   3   4 -15 3574.72 619.048   2
   3   4 -14 6997.61 648.745   5
   3   4 -14 5667.17 605.919   4
   3   4 -14 5579.49 690.855   2
   3   4 -13 933.964 341.401   5
   3   4 -13 1394.80 360.811   4
   3   4 -13 1021.12 418.659   2
   3   4 -12 2301.05 412.601   5
   3   4 -12 1851.03 391.074   4
   3   4 -12 1525.07 443.166   2
   3   4 -11 11453.5 835.882   2
   3   4 -11 13097.3 835.568   4
   3   4 -11 12538.3 740.223   5
   3   4 -10 13766.7 833.481   4
   3   4 -10 14340.5 769.707   5
   3   4  -9 109.842 209.280   5
   3   4  -9 363.679 251.403   4
  -3   4   9 286.982 110.439   1
  -3   4   8 17058.1 464.758   1
  -3   4   8 16715.8 462.526   4
   3   4  -8 17127.7 881.855   4
  -3   4   8 17111.5 452.637   1
  -3   4   8 18037.8 571.201   5
  -3   4   8 19173.7 695.396   6
   3   4  -8 18282.0 815.623   5
   3   4  -7 29756.2 1147.14   4
  -3   4   7 29339.4 744.308   4
  -3   4   7 24575.7 487.347   1
   3   4  -7 28179.8 995.610   5
  -3   4   7 30452.9 858.144   6
  -3   4   7 28304.7 665.898   5
  -3   4   7 26509.6 507.645   1
   3   4  -6 7089.69 564.403   4
  -3   4   6 7269.02 273.603   5
  -3   4   6 6865.14 392.413   6
   3   4  -6 7171.07 501.116   5
  -3   4   6 6297.42 376.657   4
   3   4  -5 2676.33 374.916   4
  -3   4   5 2075.74 244.801   4
   3   4  -5 2480.80 321.121   5
  -3   4   5 2549.12 244.806   6
  -3   4   5 2104.70 114.544   5
   3   4  -4 47084.0 1417.73   4
  -3   4   4 46864.4 1214.15   4
   3   4  -4 45937.3 1268.68   5
   3   4  -3 10270.2 636.426   4
  -3   4   3 10446.2 561.714   4
   3   4  -3 9868.75 570.427   5
   3   4  -2 24609.8 969.227   4
  -3   4   2 26034.1 925.237   4
   3   4  -2 23357.9 879.099   5
   3   4  -1 20456.8 811.748   5
   3   4  -1 17528.9 803.570   4
  -3   4   1 19578.1 827.279   4
   3   4   0 33815.8 1118.77   4
  -3   4   0 32913.7 1142.36   4
   3   4   0 33855.2 1076.90   5
   3   4   1 38746.0 1195.70   4
  -3   4  -1 38264.9 1272.77   4
   3   4   1 38748.9 1184.55   5
   3   4   2 1288.09 273.637   5
  -3   4  -2 1231.06 307.001   4
  -3   4  -2 1021.56 125.109   2
  -3   4  -3 9306.00 399.611   2
  -3   4  -3 9511.77 671.374   4
  -3   4  -4 33018.1 889.525   2
  -3   4  -4 31722.3 1270.91   4
   3   4   4 33091.6 1143.99   6
  -3   4  -5 18042.2 709.587   2
  -3   4  -5 18153.0 979.957   4
   3   4   5 19489.4 873.704   6
   3   4   6 2059.51 333.919   6
  -3   4  -6 1961.11 409.006   4
  -3   4  -6 2066.44 292.441   2
  -3   4  -7 3240.17 494.889   4
   3   4   7 3345.22 428.814   6
  -3   4  -7 2667.94 364.289   2
  -3   4  -8 20801.6 953.090   2
  -3   4  -8 21159.0 1148.91   4
   3   4   8 20564.2 963.311   6
  -3   4  -9 11028.4 736.879   2
  -3   4  -9 11513.9 886.184   4
  -3   4 -10 26.6791 306.452   4
  -3   4 -10-10.5631 275.449   2
  -3   4 -11 2302.02 455.158   2
  -3   4 -11 2271.45 524.786   4
  -3   4 -12 6336.47 748.063   4
  -3   4 -12 6252.95 676.968   2
  -3   4 -13 414.870 373.608   4
  -3   4 -13 1274.80 402.689   2
  -3   4 -14-983.606 463.372   4
  -3   4 -14 23.8642 380.769   2
  -3   4 -15 1661.29 524.498   4
  -3   4 -15 352.805 389.437   2
   3   5 -15 187.887 340.720   4
   3   5 -14 1181.88 372.704   5
   3   5 -14 138.595 331.921   4
   3   5 -13 5908.40 612.970   5
   3   5 -13 4791.19 621.174   4
   3   5 -12 5415.23 571.391   5
   3   5 -12 5762.64 663.545   4
   3   5 -11 816.621 308.913   5
   3   5 -11 424.599 319.540   4
   3   5 -10 7435.23 694.353   4
   3   5 -10 7194.26 593.178   5
   3   5  -9 2896.31 418.467   5
   3   5  -9 3388.68 504.789   4
  -3   5   9 2874.53 329.079   6
  -3   5   8 12256.3 501.495   4
   3   5  -8 11519.2 811.756   4
  -3   5   8 11369.9 591.914   6
   3   5  -8 12857.6 726.015   5
   3   5  -7 1942.55 344.193   5
   3   5  -7 2173.61 414.043   4
  -3   5   7 1926.60 241.335   4
  -3   5   7 2352.56 300.390   6
  -3   5   6 5885.19 412.089   6
  -3   5   6 6764.14 444.457   4
   3   5  -6 5631.41 561.316   4
   3   5  -6 7018.64 525.108   5
   3   5  -5 9965.55 721.413   4
  -3   5   5 10949.9 604.917   4
   3   5  -5 11946.3 660.694   5
   3   5  -4 14215.9 841.769   4
  -3   5   4 14089.1 713.122   4
   3   5  -4 14761.9 732.825   5
   3   5  -3 4245.02 415.368   5
   3   5  -3 4010.60 485.705   4
  -3   5   3 4073.77 415.351   4
   3   5  -2 16736.5 877.820   4
  -3   5   2 16485.1 832.575   4
   3   5  -2 17125.2 792.744   5
   3   5  -1 26120.3 991.247   5
   3   5  -1 25635.6 1090.47   4
  -3   5   1 27765.6 1113.77   4
   3   5   0 9370.76 654.728   4
  -3   5   0 8054.96 626.355   4
   3   5   0 8294.82 561.207   5
  -3   5  -1 7423.35 625.485   4
   3   5   1 8098.95 597.370   4
   3   5   1 8241.43 570.628   5
   3   5   2 44652.7 1382.78   5
   3   5   2 44451.5 1393.90   4
  -3   5  -2 45916.7 1577.79   4
  -3   5  -3 23527.6 1143.67   4
   3   5   3 21262.4 947.838   5
   3   5   4 1653.27 334.983   5
  -3   5  -4 1347.14 399.399   4
  -3   5  -4 1398.81 211.506   2
  -3   5  -5 13056.5 598.960   2
  -3   5  -5 11625.9 869.347   4
   3   5   5 12660.1 783.992   6
  -3   5  -6 17167.2 764.455   2
  -3   5  -6 17378.0 1085.41   4
   3   5   6 16273.8 887.186   6
  -3   5  -7 6484.10 532.477   2
  -3   5  -7 8037.44 790.506   4
   3   5   7 7539.89 640.592   6
  -3   5  -8 740.134 386.115   4
  -3   5  -8 239.078 260.734   2
   3   5   8 706.902 327.848   6
  -3   5  -9 1640.22 522.626   4
   3   5   9 1866.77 425.977   6
  -3   5  -9 1932.01 399.237   2
  -3   5 -10 3728.90 637.228   4
  -3   5 -10 5223.72 599.332   2
  -3   5 -11 2629.83 570.560   4
  -3   5 -11 1976.91 443.878   2
  -3   5 -12-137.376 375.780   4
  -3   5 -12-121.275 344.545   2
  -3   5 -13 1449.63 551.153   4
  -3   5 -13 1480.37 469.607   2
   3   6 -14 1137.48 436.064   4
   3   6 -13 512.039 334.262   5
   3   6 -13-1072.04 478.062   4
   3   6 -12 1245.92 461.399   4
   3   6 -12 454.214 327.763   5
   3   6 -11 5534.08 572.936   5
   3   6 -11 4806.09 660.517   4
   3   6 -10 5877.98 564.433   5
   3   6 -10 5650.13 703.393   4
   3   6  -9 2584.25 417.407   5
   3   6  -9 1880.66 478.406   4
  -3   6   9 2754.36 373.932   6
   3   6  -8 5539.96 525.319   5
   3   6  -8 4446.99 611.687   4
  -3   6   8 4980.15 446.982   6
   3   6  -7 12749.2 915.933   4
  -3   6   7 13304.2 672.929   4
  -3   6   7 12806.9 678.784   6
   3   6  -7 13827.3 771.316   5
   3   6  -6 9368.19 791.458   4
  -3   6   6 9846.88 618.581   4
   3   6  -6 10734.8 677.554   5
  -3   6   6 9959.47 600.718   6
   3   6  -5 865.262 377.718   4
  -3   6   5 1266.59 283.662   4
   3   6  -5 646.612 256.942   5
   3   6  -4 16059.7 977.431   4
  -3   6   4 16050.2 848.023   4
   3   6  -4 15197.1 789.430   5
   3   6  -3 11402.7 823.167   4
  -3   6   3 13253.0 791.564   4
   3   6  -3 12667.9 723.645   5
   3   6  -2 4900.44 471.642   5
  -3   6   2 4665.36 498.124   4
   3   6  -2 4697.91 536.836   4
   3   6  -1 1693.72 339.620   5
   3   6  -1 2036.41 422.419   4
  -3   6   1 2241.77 420.883   4
   3   6   0 14814.9 901.035   4
  -3   6   0 17086.0 983.773   4
   3   6   0 14964.3 807.115   5
   3   6   1 5453.13 510.628   5
   3   6   1 6034.70 590.177   4
  -3   6  -1 5944.95 626.768   4
   3   6   2 3495.45 437.900   5
   3   6   2 3466.41 471.982   4
  -3   6  -2 4206.81 600.452   4
   3   6   3 1862.38 363.644   5
  -3   6  -3 2127.32 486.025   4
  -3   6  -4 8094.02 791.840   4
   3   6   4 8707.73 663.016   5
   3   6   5 5714.37 610.660   6
   3   6   5 5949.54 572.906   5
  -3   6  -5 6484.67 745.797   4
   3   6   6 151.940 277.105   5
  -3   6  -6 225.822 352.570   4
   3   6   6 86.4686 342.066   6
   3   6   7 3005.13 482.040   5
  -3   6  -7 3384.05 614.837   4
   3   6   7 3798.71 540.052   6
   3   6   8 8577.91 742.977   6
  -3   6  -8 9531.68 955.824   4
  -3   6  -9 1775.08 538.118   4
   3   6   9 2518.12 495.072   6
  -3   6 -10 1431.08 593.017   4
   3   6  10 63.3199 349.681   6
  -3   6 -11 3033.60 689.324   4
   3   7 -12 2357.52 452.067   5
   3   7 -11 236.483 300.289   5
   3   7 -11 134.788 404.800   4
   3   7 -10 1414.06 371.988   5
   3   7 -10 891.901 445.575   4
   3   7  -9 5297.04 714.653   4
   3   7  -9 5463.50 554.318   5
  -3   7   9 5798.35 523.548   6
   3   7  -8 3574.02 462.036   5
   3   7  -8 3608.49 650.268   4
  -3   7   8 3292.56 411.515   6
   3   7  -7 684.525 312.526   5
   3   7  -7 169.158 326.735   4
  -3   7   7 1048.77 286.148   6
  -3   7   6 3449.38 419.598   6
   3   7  -6 3776.87 466.065   5
   3   7  -6 3381.95 572.376   4
  -3   7   6 4019.06 480.852   4
  -3   7   5 7178.84 626.258   4
   3   7  -5 6552.57 743.509   4
   3   7  -5 6693.02 567.059   5
   3   7  -4 1716.29 354.049   5
   3   7  -4 1575.26 491.579   4
  -3   7   4 1480.90 374.829   4
   3   7  -3 98.9707 257.180   5
   3   7  -3 218.615 335.711   4
  -3   7   3 96.0718 287.139   4
  -3   7   2 7680.39 721.682   4
   3   7  -2 7355.59 739.721   4
   3   7  -2 7272.34 591.978   5
   3   7  -1 5354.19 528.450   5
   3   7  -1 6161.67 683.896   4
  -3   7   1 6450.44 670.452   4
   3   7   0 1072.67 313.105   5
  -3   7   0 630.212 369.986   4
   3   7   1 358.621 269.771   5
   3   7   1 506.663 394.708   4
  -3   7  -1 1096.92 427.461   4
   3   7   2 7499.71 691.062   4
  -3   7  -2 8543.58 848.464   4
   3   7   2 7860.68 632.798   5
   3   7   3 2209.12 385.883   5
  -3   7  -3 1691.99 505.611   4
  -3   7  -4-198.926 386.474   4
   3   7   4-223.233 279.466   5
   3   7   5 268.928 289.162   5
  -3   7  -5 848.915 446.347   4
   3   7   5-157.088 360.644   6
   3   7   6 4242.36 608.649   6
  -3   7  -6 5436.37 790.397   4
   3   7   6 4177.19 547.004   5
   3   7   7 1049.90 405.138   5
  -3   7  -7 2067.41 647.798   4
   3   7   7 879.710 418.702   6
   3   7   8 30.2211 347.711   5
  -3   7  -8 120.602 514.944   4
   3   7   8-86.2395 367.903   6
   3   7   9 272.507 351.850   5
   3   7  10 1760.08 480.222   5
   3   8  -9 737.878 348.143   5
   3   8  -8 485.621 300.794   5
   3   8  -7 2117.71 408.084   5
   3   8  -6 1248.87 341.731   5
   3   8  -6 1156.94 535.737   4
  -3   8   6 927.759 328.724   6
   3   8  -5-11.4564 233.442   5
   3   8  -5 53.4246 415.727   4
   3   8  -4 2256.91 382.018   5
   3   8  -4 2196.36 557.910   4
  -3   8   4 2787.43 484.303   4
   3   8  -3 2629.99 394.550   5
   3   8  -3 3036.36 635.485   4
  -3   8   3 3942.97 597.331   4
   3   8  -2 632.203 286.575   5
   3   8  -2 536.952 389.047   4
  -3   8   2 809.018 408.427   4
   3   8  -1 227.656 276.214   5
   3   8  -1 373.113 389.665   4
  -3   8   1 88.8267 353.230   4
   3   8   0 5766.85 727.618   4
  -3   8   0 4927.18 703.077   4
   3   8   0 5788.79 566.189   5
   3   8   1 3416.92 458.635   5
   3   8   1 3471.82 567.980   4
  -3   8  -1 3513.95 648.101   4
   3   8   2 379.214 338.488   5
   3   8   2 1370.70 450.289   4
  -3   8  -2 773.924 465.891   4
   3   8   3-27.0781 305.098   5
  -3   8  -3 1456.19 570.435   4
  -3   8  -4 5357.41 788.414   4
  -3   8  -5 1434.56 534.166   4
  -3   9   2 2103.22 562.758   4
  -3   9   1 2554.73 586.545   4
  -4  -8   6 5780.03 692.436   3
   4  -8  -5 3405.94 455.565   3
  -4  -8   5 4283.83 576.355   3
   4  -8  -4 311.186 294.899   3
  -4  -8   4 1125.64 432.548   3
  -4  -8   3 1235.41 384.416   3
   4  -8  -3 1617.58 398.391   3
  -4  -8   2 4947.96 608.622   3
   4  -8  -2 4514.30 579.302   3
  -4  -8   1 1362.19 424.215   3
   4  -8  -1 1803.96 426.672   3
  -4  -8   0-254.251 359.073   3
   4  -8   0-384.740 393.009   3
  -4  -8  -1 1712.21 404.784   3
   4  -8   1 727.968 393.570   3
  -4  -8  -2 4138.43 560.727   3
   4  -8   2 3846.44 564.674   3
   4  -8   3 1209.83 450.865   3
   4  -8   4-25.2847 385.410   3
  -4  -7  11 1911.62 483.434   3
  -4  -7  11 1409.80 466.091   1
  -4  -7  10 797.467 433.280   1
  -4  -7  10 64.3666 366.696   3
  -4  -7   9 1622.62 434.091   1
  -4  -7   9 1279.55 416.504   3
  -4  -7   8 2978.44 490.884   1
  -4  -7   8 3156.19 516.733   3
   4  -7  -7 2297.78 324.946   3
  -4  -7   7 2502.03 496.130   3
  -4  -7   7 2193.47 442.251   1
   4  -7  -6 145.158 226.286   3
  -4  -7   6-257.821 351.304   3
  -4  -7   6 374.369 296.071   1
   4  -7  -5 1600.11 327.055   3
  -4  -7   5 2054.74 456.893   3
  -4  -7   5 1784.87 361.776   1
  -4  -7   4 5496.12 520.629   1
   4  -7  -4 4113.73 441.047   3
  -4  -7   4 5635.72 589.352   3
  -4  -7   3 4304.07 466.659   1
  -4  -7   3 5316.70 565.314   3
  -4  -7   2 88.8898 224.004   1
  -4  -7   2-284.794 334.749   3
   4  -7  -2 298.228 278.918   3
  -4  -7   1 1849.43 337.869   1
   4  -7  -1 1381.73 361.700   3
  -4  -7   1 1446.27 366.560   3
  -4  -7   0 13199.7 718.792   1
  -4  -7   0 12859.0 801.653   3
   4  -7   0 14589.4 859.994   3
   4  -7   1 3324.48 474.993   3
  -4  -7  -1 3597.12 455.904   3
  -4  -7  -1 3268.52 385.837   1
  -4  -7  -2 55.1676 223.048   1
  -4  -7  -2 577.704 328.275   3
  -4  -7  -3 2954.89 386.663   1
  -4  -7  -3 3730.41 490.038   3
   4  -7   3 3677.01 551.089   3
  -4  -7  -4 12149.7 700.625   1
  -4  -7  -4 9933.18 719.512   3
   4  -7   4 12136.7 870.869   3
  -4  -7  -5 2499.97 402.748   2
   4  -7   5 1650.86 441.631   3
   4  -7   6 992.865 419.963   3
  -4  -7  -6 920.740 325.112   2
   4  -7   7 2538.35 541.135   3
  -4  -7  -7 2972.33 447.684   2
  -4  -7  -8 3111.96 460.572   2
  -4  -7  -9-191.027 310.296   2
  -4  -6  14 1919.98 483.285   3
  -4  -6  13 1738.82 497.873   1
  -4  -6  13 1151.47 433.367   3
  -4  -6  12 2499.85 491.225   3
  -4  -6  12 1842.44 484.259   1
  -4  -6  11 420.081 366.450   1
  -4  -6  11 1059.69 419.912   3
  -4  -6  10 4313.82 552.321   3
  -4  -6  10 5208.50 614.866   1
  -4  -6   9 2217.77 416.790   3
  -4  -6   9 2163.91 430.803   1
  -4  -6   8 3640.79 507.097   1
  -4  -6   8 3496.96 484.977   3
  -4  -6   7 2988.49 446.890   1
   4  -6  -7 3789.37 349.302   3
  -4  -6   7 3566.54 487.104   3
   4  -6  -6 6970.75 458.779   3
  -4  -6   6 7729.52 629.058   3
  -4  -6   6 7280.33 620.355   1
   4  -6  -5 7967.93 498.281   3
  -4  -6   5 8137.61 630.603   3
  -4  -6   5 8167.93 623.319   1
  -4  -6   4 1027.02 309.358   1
   4  -6  -4 903.166 235.988   3
  -4  -6   4 1201.64 348.132   3
  -4  -6   3 6555.04 560.250   3
   4  -6  -3 5401.37 470.109   3
  -4  -6   3 5491.01 479.300   1
  -4  -6   2 17760.4 887.321   3
   4  -6  -2 16810.8 790.915   3
  -4  -6   2 16616.5 799.171   1
  -4  -6   1 7198.02 571.402   3
  -4  -6   1 8355.60 558.376   1
   4  -6  -1 8146.92 571.482   3
   4  -6   0-251.989 257.673   3
  -4  -6   0 244.698 216.619   1
  -4  -6   0-84.4673 260.317   3
  -4  -6  -1 7412.82 530.034   1
  -4  -6  -1 7329.74 568.047   3
   4  -6   1 8377.92 636.016   3
  -4  -6  -2 15722.8 749.436   1
  -4  -6  -2 16280.5 821.025   3
   4  -6   2 15167.8 840.092   3
   4  -6   3 2272.79 412.127   3
  -4  -6  -3 2725.62 350.651   1
  -4  -6  -3 3258.28 416.870   3
   4  -6   4 436.765 303.008   3
  -4  -6  -4 1052.45 271.405   1
   4  -6   5 3499.83 483.118   3
  -4  -6  -5 4089.89 424.070   1
   4  -6   6 5746.69 602.435   3
  -4  -6  -6 5109.97 487.771   2
  -4  -6  -6 4762.90 466.740   1
   4  -6   7 561.258 337.374   3
  -4  -6  -7 394.559 271.253   2
  -4  -6  -7 916.815 287.196   1
   4  -6   8-189.472 371.295   3
  -4  -6  -8 177.538 264.030   2
  -4  -6  -9 1957.72 384.206   2
   4  -6   9 1615.04 502.236   3
  -4  -6 -10 2245.27 424.839   2
   4  -6  10 3330.62 629.181   3
  -4  -6 -11 1829.49 445.184   2
  -4  -5  15 1108.95 413.649   3
  -4  -5  14 3207.23 501.589   3
  -4  -5  14 2421.88 536.311   1
  -4  -5  13-256.092 345.749   3
  -4  -5  13 320.300 412.501   1
  -4  -5  12 4485.40 518.693   3
  -4  -5  12 4880.98 616.071   1
  -4  -5  11 9935.83 812.292   1
  -4  -5  11 9304.92 713.870   3
  -4  -5  10 8531.24 725.622   1
  -4  -5  10 9175.49 697.148   3
  -4  -5   9 2401.87 411.522   3
  -4  -5   9 2174.96 428.856   1
  -4  -5   8 15989.0 896.554   1
  -4  -5   8 15365.9 834.043   3
  -4  -5   7 16886.8 894.037   1
   4  -5  -7 16746.5 599.781   3
  -4  -5   7 17571.9 853.334   3
  -4  -5   6 3349.71 413.354   1
  -4  -5   6 2672.84 373.881   3
   4  -5  -6 2654.61 272.543   3
   4  -5  -5 6034.69 385.582   3
  -4  -5   5 6355.30 501.924   3
  -4  -5   5 5854.18 512.435   1
  -4  -5   4 32921.7 1141.76   1
   4  -5  -4 34596.7 968.565   3
  -4  -5   4 33697.2 1134.93   3
  -4  -5   3 5014.42 449.640   3
   4  -5  -3 4605.34 377.194   3
  -4  -5   3 5007.57 443.992   1
   4  -5  -2 4834.85 386.409   3
  -4  -5   2 4556.15 431.006   1
  -4  -5   2 4488.46 431.723   3
  -4  -5   1 13657.6 676.109   3
  -4  -5   1 13466.4 671.112   1
   4  -5  -1 14582.8 682.712   3
  -4  -5   0 15729.4 721.070   1
   4  -5   0 15652.0 728.023   3
  -4  -5  -1 6043.53 464.041   1
  -4  -5  -1 6215.06 472.612   3
   4  -5   1 6183.51 478.765   3
   4  -5   2 350.763 242.771   3
  -4  -5  -2 792.306 264.624   3
  -4  -5  -2 461.570 202.667   1
  -4  -5  -3 7875.90 513.336   1
  -4  -5  -3 7630.80 525.810   3
   4  -5   3 8271.73 593.156   3
  -4  -5  -4 12658.9 651.279   1
   4  -5   4 12435.5 723.737   3
   4  -5   5 4007.95 457.231   3
  -4  -5  -5 4008.48 405.571   1
   4  -5   6 873.790 325.223   3
  -4  -5  -6 1151.84 287.513   2
  -4  -5  -6 990.576 257.874   1
  -4  -5  -7 9349.37 607.710   1
  -4  -5  -7 10083.0 645.739   2
   4  -5   7 10213.4 748.396   3
   4  -5   8 7629.39 694.247   3
  -4  -5  -8 7211.30 577.114   2
   4  -5   9 1715.78 467.493   3
  -4  -5  -9 1379.03 352.940   2
  -4  -5 -10 3362.46 467.715   2
   4  -5  10 3272.66 601.518   3
  -4  -5 -11 5006.59 575.773   2
   4  -5  11 4394.70 741.832   3
  -4  -5 -12 1904.58 455.209   2
  -4  -4  16 1664.98 406.403   3
  -4  -4  15 696.331 371.843   3
  -4  -4  15 511.177 387.702   1
  -4  -4  14 5395.35 574.650   3
  -4  -4  14 4058.58 618.909   1
   4  -4 -13 8087.90 605.604   2
  -4  -4  13 9815.23 823.096   1
  -4  -4  13 9701.52 688.345   3
  -4  -4  12 2411.43 414.108   3
  -4  -4  12 2052.24 411.007   1
   4  -4 -12 2615.91 356.899   2
  -4  -4  11 1143.83 304.600   3
  -4  -4  11 1566.71 386.759   1
   4  -4 -11 1496.76 260.868   2
   4  -4 -10 13789.4 607.877   2
  -4  -4  10 13762.8 857.553   1
  -4  -4  10 13780.9 746.959   3
   4  -4  -9 7524.44 420.671   2
  -4  -4   9 7224.94 614.595   1
  -4  -4   9 7150.36 552.164   3
  -4  -4   8 7747.29 612.367   1
  -4  -4   8 6862.62 513.964   3
  -4  -4   7 931.705 239.986   3
  -4  -4   7 909.543 281.282   1
   4  -4  -6 18165.1 550.614   3
  -4  -4   6 18012.1 766.003   3
  -4  -4   6 18163.9 835.009   1
  -4  -4   5 14107.5 711.210   1
   4  -4  -5 13201.9 479.846   3
  -4  -4   5 14173.7 660.522   3
   4  -4  -4 10986.8 455.619   3
  -4  -4   4 11604.2 586.426   3
  -4  -4   4 10966.6 617.386   1
  -4  -4   3 7427.60 490.783   1
  -4  -4   3 7768.84 483.871   3
   4  -4  -3 8028.22 405.479   3
  -4  -4   2 39602.6 1103.69   3
   4  -4  -2 39631.1 1007.71   3
  -4  -4   2 40163.7 1161.05   1
   4  -4  -1 23380.6 521.597   1
  -4  -4   1 22347.7 790.397   3
  -4  -4   1 23624.0 848.411   1
   4  -4  -1 23361.5 771.539   3
   4  -4   0 1369.03 231.444   3
  -4  -4   0 1331.67 252.536   1
   4  -4   0 1384.55 143.739   1
  -4  -4   0 1323.63 229.222   3
  -4  -4  -1 11211.3 581.036   1
  -4  -4  -1 10832.4 536.375   3
   4  -4   1 11053.9 406.793   1
   4  -4   1 10909.0 553.814   3
  -4  -4  -2 38077.1 1100.15   1
  -4  -4  -2 41498.2 1070.99   3
   4  -4   2 36667.4 710.303   5
   4  -4   2 40880.9 1131.13   3
   4  -4   3 9924.18 563.574   3
  -4  -4  -3 10303.3 558.745   1
   4  -4   3 9640.42 371.104   5
   4  -4   4 957.806 288.201   3
   4  -4   4 913.508 155.292   5
  -4  -4  -4 723.337 224.381   1
  -4  -4  -5 15007.5 702.683   1
   4  -4   5 14547.4 735.322   3
  -4  -4  -6 15925.2 737.932   1
  -4  -4  -6 17898.1 776.913   2
   4  -4   6 16091.3 805.668   3
   4  -4   7 4399.28 503.823   3
  -4  -4  -7 5671.31 473.298   1
  -4  -4  -7 5156.78 469.147   2
   4  -4   8 6069.22 583.796   3
  -4  -4  -8 6116.92 519.904   2
   4  -4   9 5532.51 628.848   3
  -4  -4  -9 7263.82 578.845   2
   4  -4  10 8887.10 829.316   3
  -4  -4 -10 9929.61 700.415   2
  -4  -4 -11 406.699 316.834   2
   4  -4  11-207.374 445.178   3
  -4  -4 -12 2651.24 461.907   2
   4  -4  12 674.243 478.808   3
  -4  -4 -13 3900.77 563.212   2
   4  -3 -17-21.3712 372.587   2
  -4  -3  16 777.567 333.815   3
   4  -3 -16 917.031 386.707   2
   4  -3 -15 6095.78 612.124   2
  -4  -3  15 6362.77 578.076   3
   4  -3 -14 5426.97 555.942   2
  -4  -3  14 5950.65 541.332   3
  -4  -3  13 470.318 269.878   3
  -4  -3  13 452.556 317.490   1
   4  -3 -13 360.953 249.941   2
  -4  -3  12 5525.40 482.210   3
  -4  -3  12 5805.88 601.226   1
   4  -3 -12 5502.82 494.151   2
   4  -3 -11 22303.6 900.984   2
  -4  -3  11 22869.4 1077.09   1
  -4  -3  11 23146.6 907.857   3
   4  -3 -10 5709.00 434.832   2
  -4  -3  10 5304.02 539.295   1
  -4  -3  10 6257.71 469.058   3
  -4  -3   9 939.260 236.940   3
  -4  -3   9 703.110 266.699   1
   4  -3  -9 981.708 207.505   2
   4  -3  -8 36021.6 957.500   2
  -4  -3   8 36020.2 1235.97   1
  -4  -3   8 37949.1 1075.37   3
  -4  -3   7 20700.2 881.161   1
  -4  -3   7 21422.8 765.401   3
  -4  -3   6 1481.79 230.011   3
  -4  -3   6 1521.54 299.521   1
  -4  -3   5 17976.0 771.909   1
   4  -3  -5 18020.9 463.370   3
  -4  -3   5 17497.5 653.196   3
  -4  -3   4 67676.2 1561.19   1
   4  -3  -4 64153.5 1121.00   3
  -4  -3   4 64764.3 1375.64   3
  -4  -3   3 21923.8 699.805   3
   4  -3  -3 19938.3 550.663   3
  -4  -3   3 21268.5 793.871   1
  -4  -3   2 2744.97 261.139   3
   4  -3  -2 3750.13 206.850   1
  -4  -3   2 3048.31 305.708   1
   4  -3  -2 3736.48 247.105   3
  -4  -3   1 27647.2 787.256   3
  -4  -3   1 27800.5 893.559   1
   4  -3  -1 28243.4 752.475   3
   4  -3  -1 28826.9 660.383   1
   4  -3   0 82958.5 1244.15   5
  -4  -3   0 86786.0 1586.87   3
  -4  -3   0 85363.8 1735.96   1
   4  -3   0 85199.4 1426.53   1
   4  -3   0 87968.0 1569.84   3
   4  -3   0 82700.6 1179.69   5
   4  -3   1 31759.5 620.386   5
  -4  -3  -1 30275.0 934.690   1
  -4  -3  -1 29658.3 828.098   3
   4  -3   1 30572.4 756.228   1
   4  -3   1 31851.4 848.987   3
   4  -3   2 1720.23 223.753   3
   4  -3   2 1766.42 157.051   5
  -4  -3  -2 1995.21 271.967   1
  -4  -3  -3 24586.8 829.123   1
   4  -3   3 25143.5 800.190   3
   4  -3   3 24247.3 647.613   5
  -4  -3  -4 36959.8 1069.37   1
   4  -3   4 36099.0 1020.46   3
   4  -3   4 37435.3 892.317   5
  -4  -3  -5 9708.29 553.087   1
   4  -3   5 10653.5 571.272   3
  -4  -3  -6 5465.55 436.973   1
  -4  -3  -6 5150.54 420.897   2
   4  -3   6 4823.43 435.163   3
  -4  -3  -7 4014.58 399.613   2
   4  -3   7 4267.96 460.872   3
  -4  -3  -7 3347.15 381.508   1
  -4  -3  -8 18337.7 816.710   2
   4  -3   8 18288.9 941.500   3
  -4  -3  -9 1872.37 354.326   2
   4  -3   9 1232.34 409.040   3
  -4  -3 -10 793.899 319.567   2
  -4  -3 -11 4668.00 538.769   2
   4  -3  11 3891.43 545.482   3
   4  -3  12 6571.41 676.871   3
  -4  -3 -12 6745.03 638.454   2
   4  -3  13 1055.46 456.720   3
  -4  -3 -13 676.378 372.068   2
  -4  -3 -14 880.017 442.892   2
   4  -2 -18-155.379 399.387   2
   4  -2 -17 1903.98 463.578   2
  -4  -2  16 2781.01 407.134   3
   4  -2 -16 3017.37 535.633   2
  -4  -2  15 899.653 298.853   3
   4  -2 -15 1224.24 370.505   2
  -4  -2  14 1810.94 322.876   3
   4  -2 -14 2379.91 423.128   2
   4  -2 -13 16254.1 884.209   2
  -4  -2  13 16021.9 740.187   3
   4  -2 -12 5738.21 516.476   2
  -4  -2  12 6428.08 466.581   3
  -4  -2  11 741.156 223.172   3
   4  -2 -11 1266.08 284.615   2
   4  -2 -10 14128.5 690.151   2
  -4  -2  10 13756.6 765.347   1
  -4  -2  10 14440.7 612.022   3
   4  -2  -9 23123.2 765.354   5
   4  -2  -9 21812.2 818.457   2
  -4  -2   9 22884.1 943.219   1
  -4  -2   9 21688.3 732.577   3
  -4  -2   8 5892.50 476.233   1
  -4  -2   8 6447.96 378.806   3
   4  -2  -8 6265.98 409.535   2
   4  -2  -7 3861.03 306.261   2
  -4  -2   7 3594.79 376.211   1
  -4  -2   7 4021.38 287.605   3
  -4  -2   6 61669.6 1499.32   1
  -4  -2   6 58801.1 1209.11   3
   4  -2  -6 61548.0 1146.36   5
  -4  -2   5 29953.6 947.977   1
  -4  -2   5 28777.7 746.457   3
   4  -2  -5 28988.6 669.900   5
   4  -2  -4 505.744 106.858   5
  -4  -2   4 532.133 175.142   1
   4  -2  -4 534.745 62.7230   3
  -4  -2   4 409.682 125.114   3
  -4  -2   3 42213.9 1110.03   1
   4  -2  -3 42255.5 890.660   1
  -4  -2   3 41256.5 888.577   3
   4  -2  -3 41924.6 712.765   3
   4  -2  -3 42642.5 781.547   5
   4  -2  -2 163389. 2273.09   5
   4  -2  -2 164002. 2420.05   1
  -4  -2   2 164601. 2401.69   3
   4  -2  -2 165718. 2262.77   3
  -4  -2   2 160679. 2699.55   1
   4  -2  -1 19604.1 559.521   1
  -4  -2   1 19326.0 545.130   3
  -4  -2   1 20751.9 716.974   1
   4  -2  -1 19773.1 508.317   3
   4  -2  -1 19504.0 504.803   5
   4  -2   0 911.578 127.119   5
  -4  -2   0 974.881 197.708   1
  -4  -2   0 1196.01 162.191   3
   4  -2   0 1005.62 139.872   1
   4  -2   0 941.822 134.801   3
  -4  -2  -1 27014.7 837.510   1
   4  -2   1 26917.8 712.136   1
   4  -2   1 26505.9 668.839   3
  -4  -2  -2 70814.4 1498.20   1
  -4  -2  -3 35967.2 1001.92   1
  -4  -2  -4 581.479 205.845   1
  -4  -2  -5 12252.0 603.227   1
  -4  -2  -5 12585.8 585.392   2
  -4  -2  -6 59106.3 1469.88   1
  -4  -2  -6 58984.2 1418.92   2
  -4  -2  -7 7383.84 509.082   1
  -4  -2  -7 7037.94 490.382   2
  -4  -2  -8 3859.12 408.461   2
  -4  -2  -9 16577.6 805.904   2
  -4  -2 -10 10977.0 705.654   2
  -4  -2 -11 1824.53 410.428   2
  -4  -2 -12 3315.45 480.369   2
  -4  -2 -13 2423.41 490.711   2
  -4  -2 -14 2065.72 489.285   2
   4  -1 -18 2842.35 582.177   2
   4  -1 -17 46.0769 364.876   2
   4  -1 -16 5484.93 664.532   2
   4  -1 -15 8160.98 733.050   2
  -4  -1  15 8056.56 543.826   3
  -4  -1  14 2077.55 296.429   3
   4  -1 -14 1556.85 385.052   2
  -4  -1  13 1088.59 240.529   3
   4  -1 -13 1105.18 341.563   2
   4  -1 -12 24139.5 933.114   5
   4  -1 -12 21268.8 991.796   2
  -4  -1  12 22333.1 769.108   3
   4  -1 -11 8215.41 519.004   5
   4  -1 -11 8060.93 585.873   2
  -4  -1  11 7873.81 421.377   3
   4  -1 -10 24025.4 839.441   5
  -4  -1  10 22819.6 697.180   3
   4  -1 -10 21391.4 904.991   2
  -4  -1  10 22464.0 728.644   4
   4  -1  -9 5329.77 429.707   2
  -4  -1   9 4643.73 327.686   4
  -4  -1   9 4703.39 420.264   1
  -4  -1   9 4475.27 281.782   3
   4  -1  -9 5229.84 379.243   5
   4  -1  -8 27971.3 923.173   2
  -4  -1   8 27028.8 829.938   4
  -4  -1   8 28245.3 973.059   1
   4  -1  -8 27433.7 733.667   6
  -4  -1   8 28431.1 703.355   3
   4  -1  -8 29353.2 832.825   5
  -4  -1   7 23079.0 765.485   4
  -4  -1   7 24573.1 878.923   1
   4  -1  -7 24660.0 822.060   2
  -4  -1   7 24447.3 612.600   3
   4  -1  -7 24690.0 609.219   6
  -4  -1   6 15050.3 644.107   1
  -4  -1   6 15075.8 599.880   4
  -4  -1   6 14298.3 422.592   3
   4  -1  -6 14607.8 383.483   6
  -4  -1   5 33297.0 965.796   1
  -4  -1   5 33574.3 935.803   4
  -4  -1   5 32706.7 658.100   3
   4  -1  -5 32144.0 785.172   5
  -4  -1   4 48023.6 1170.12   1
  -4  -1   4 49120.8 1174.74   4
  -4  -1   4 47920.8 822.410   3
   4  -1  -4 47530.3 982.527   5
  -4  -1   3 66433.5 1434.29   5
   4  -1  -3 60328.3 1173.52   5
  -4  -1   3 63124.7 1370.43   4
   4  -1  -3 64914.2 1245.22   1
  -4  -1   3 62978.7 987.106   3
  -4  -1   3 60439.3 1339.61   1
   4  -1  -2 36403.6 858.848   1
  -4  -1   2 36991.4 980.315   4
   4  -1  -2 35247.5 815.603   5
  -4  -1   2 37428.7 658.629   3
  -4  -1   2 36605.2 943.673   1
   4  -1  -2 35253.4 567.382   3
   4  -1  -1 25958.9 684.018   5
  -4  -1   1 25187.0 759.746   1
   4  -1  -1 26115.6 696.982   1
  -4  -1   0 148116. 2375.47   1
   4  -1   0 143308. 2251.56   1
   4  -1   0 139777. 2201.73   5
  -4  -1  -1 68071.7 1401.54   1
  -4  -1  -2 311.463 155.654   1
  -4  -1  -3 29343.3 869.818   1
  -4  -1  -4 61403.5 1395.64   1
  -4  -1  -5 7143.74 460.405   1
  -4  -1  -5 7627.19 448.691   2
  -4  -1  -6 5380.15 419.585   1
  -4  -1  -6 5933.43 421.909   2
  -4  -1  -7 18242.2 763.580   2
  -4  -1  -8 24081.1 919.049   2
  -4  -1  -9 5040.11 468.049   2
  -4  -1 -10 6395.45 554.781   2
  -4  -1 -11 14598.5 849.317   2
  -4  -1 -12 11421.3 804.277   2
  -4  -1 -13 329.232 297.513   2
  -4  -1 -14 3171.63 480.100   4
  -4  -1 -14 3121.00 562.679   2
   4   0 -18-761.469 476.793   2
   4   0 -17 683.064 388.821   2
   4   0 -16 6137.43 721.575   2
  -4   0  15 245.440 210.968   3
   4   0 -15 142.579 315.638   2
   4   0 -14 9979.95 693.108   5
   4   0 -14 8588.35 735.609   2
  -4   0  14 9338.08 494.220   3
   4   0 -13 22740.4 965.958   5
   4   0 -13 21453.9 1080.42   2
  -4   0  13 21849.7 724.784   3
   4   0 -12 31047.6 1086.77   5
   4   0 -12 29434.0 1217.91   2
  -4   0  12 31042.0 829.393   3
   4   0 -11 7643.96 600.659   2
  -4   0  11 8351.88 393.558   3
   4   0 -11 7551.89 515.119   5
   4   0 -10 33615.8 1026.61   5
   4   0 -10 31365.7 1134.77   2
  -4   0  10 28940.3 660.954   4
  -4   0  10 32548.5 754.425   3
   4   0  -9 51375.0 1439.79   2
  -4   0   9 50793.9 998.638   4
  -4   0   9 52016.3 1358.75   1
   4   0  -9 52425.9 1277.69   5
  -4   0   9 50099.4 957.808   3
   4   0  -8 10833.6 605.434   2
  -4   0   8 10571.5 408.376   4
  -4   0   8 9851.84 539.680   1
  -4   0   8 10266.6 330.884   3
   4   0  -8 10515.9 515.629   5
  -4   0   7 9049.81 390.760   4
  -4   0   7 8673.58 484.113   1
  -4   0   7 7821.36 251.706   3
   4   0  -7 7736.35 423.280   5
  -4   0   6 69664.3 1462.94   1
  -4   0   6 71110.3 1323.00   4
  -4   0   6 65456.8 955.376   3
  -4   0   5 32034.3 894.990   1
  -4   0   5 31213.5 792.742   4
  -4   0   5 31142.6 905.661   2
  -4   0   5 32089.9 909.989   5
  -4   0   4 8960.83 396.862   4
  -4   0   4 9436.59 458.624   2
  -4   0   4 9532.33 458.190   5
  -4   0   4 9052.74 442.034   1
  -4   0   3 38427.5 949.575   1
  -4   0   3 41577.9 991.199   5
   4   0  -3 37751.3 940.419   5
   4   0  -2 99239.5 1375.35   6
   4   0  -2 102544. 1378.80   3
  -4   0   2 102265. 1766.22   1
   4   0  -2 100045. 1775.08   5
   4   0  -1 39898.5 669.248   3
  -4   0   1 37361.0 914.964   1
   4   0  -1 37934.6 660.342   6
   4   0  -1 37943.7 939.209   5
   4   0   0-41.9474 124.135   5
  -4   0   0-23.1472 115.068   1
   4   0   0 116.226 76.5613   3
  -4   0  -1 23546.4 707.225   1
  -4   0  -2 72863.4 1448.10   1
  -4   0  -3 9095.85 453.382   1
  -4   0  -3 9130.57 427.031   6
  -4   0  -4 1369.54 207.829   6
  -4   0  -4 1108.72 182.696   2
  -4   0  -4 1199.38 218.181   1
  -4   0  -5 35555.7 1033.59   1
  -4   0  -5 36978.8 987.263   2
  -4   0  -6 32286.7 964.775   2
  -4   0  -7 1472.61 246.218   2
  -4   0  -8 11583.7 632.195   2
  -4   0  -9 24431.5 980.085   2
  -4   0 -10 7798.20 607.825   2
  -4   0 -11 2483.70 425.437   2
  -4   0 -12 2233.82 428.293   4
  -4   0 -12 2457.81 436.906   2
  -4   0 -13 5087.20 573.592   4
  -4   0 -13 4104.59 541.001   2
  -4   0 -14 3738.40 577.309   2
  -4   0 -14 3677.18 530.882   4
  -4   0 -15 3420.25 616.310   2
   4   1 -17 264.850 401.302   2
   4   1 -16 6803.42 759.779   2
   4   1 -15 8350.81 686.041   5
   4   1 -15 7436.95 758.633   2
   4   1 -14 2092.32 366.907   5
   4   1 -14 1885.14 435.741   2
   4   1 -13 993.450 315.615   5
   4   1 -13 606.493 340.894   2
   4   1 -12 20533.3 1056.25   2
   4   1 -12 20141.5 890.490   5
   4   1 -11 6549.39 597.598   2
   4   1 -11 7381.27 528.329   5
   4   1 -10 23100.8 1009.94   2
  -4   1  10 23524.6 613.935   3
   4   1 -10 22642.2 874.102   5
  -4   1   9 4515.61 374.921   1
  -4   1   9 4403.17 228.591   3
   4   1  -9 4053.18 434.751   2
   4   1  -9 4579.29 383.644   5
   4   1  -8 27775.2 1022.91   2
   4   1  -8 27592.6 898.379   5
  -4   1   8 26213.5 549.322   4
  -4   1   8 27926.0 868.490   1
  -4   1   8 28210.4 553.219   3
  -4   1   7 27039.0 612.400   4
  -4   1   7 28569.3 841.472   1
   4   1  -7 27537.8 875.638   5
  -4   1   7 26400.4 477.304   3
  -4   1   7 28565.0 853.989   5
  -4   1   6 13745.1 549.268   1
  -4   1   6 14631.8 443.011   4
  -4   1   6 15413.5 583.197   2
  -4   1   6 14972.0 576.095   5
   4   1  -6 13955.5 600.184   5
  -4   1   5 37723.4 919.516   1
  -4   1   5 37315.5 929.867   2
  -4   1   5 36550.7 919.686   5
   4   1  -5 36653.0 998.192   5
  -4   1   4 52351.5 1120.48   2
   4   1  -4 53556.7 887.616   3
  -4   1   4 51119.2 1098.95   1
  -4   1   4 54460.9 1130.47   5
  -4   1   3 70936.0 1346.98   2
   4   1  -3 69653.8 1130.70   3
  -4   1   3 69795.8 1302.85   1
  -4   1   3 70824.9 1312.12   5
  -4   1   2 31964.2 788.572   1
   4   1  -2 33792.3 695.515   3
  -4   1   1 23769.7 656.024   1
   4   1  -1 24289.7 580.239   3
  -4   1   0 157006. 2429.04   1
   4   1   0 159919. 2312.02   3
  -4   1   0 160996. 2147.07   6
   4   1   0 158644. 2387.31   6
  -4   1  -1 59843.4 1219.31   1
   4   1   1 61736.9 1129.21   3
  -4   1  -1 60112.1 1054.06   6
   4   1   1 60656.9 1179.96   6
  -4   1  -2 434.218 113.471   6
  -4   1  -2 312.227 114.776   2
  -4   1  -2 271.433 131.925   1
   4   1   2 89.5428 128.927   6
  -4   1  -3 28225.3 756.624   6
  -4   1  -3 27561.2 814.836   1
  -4   1  -3 28371.4 749.564   2
   4   1   3 27074.5 776.252   6
  -4   1  -4 61460.2 1379.27   1
  -4   1  -4 62092.2 1288.57   2
  -4   1  -4 62969.7 1335.74   6
  -4   1  -5 7758.11 429.074   2
  -4   1  -6 4652.58 367.172   2
  -4   1  -7 17005.1 730.184   2
  -4   1  -8 25718.2 955.412   2
  -4   1  -9 5750.20 499.505   2
  -4   1 -10 5326.48 555.647   4
  -4   1 -10 5243.30 515.930   2
  -4   1 -11 14675.0 899.468   4
  -4   1 -11 13376.4 837.425   2
  -4   1 -12 10144.0 787.149   4
  -4   1 -12 11373.4 805.735   2
  -4   1 -13 571.409 375.806   4
  -4   1 -13 491.008 343.972   2
  -4   1 -14 2811.16 504.075   4
  -4   1 -14 2465.14 508.188   2
  -4   1 -15 2721.15 514.564   4
  -4   1 -15 3467.79 619.413   2
   4   2 -17 2893.02 626.310   2
   4   2 -16 3374.46 519.895   5
   4   2 -16 3077.42 611.210   2
   4   2 -15 1123.03 380.116   5
   4   2 -15 780.626 439.196   2
   4   2 -14 1923.69 392.480   5
   4   2 -14 2337.98 513.377   2
   4   2 -13 16647.7 716.286   4
   4   2 -13 15095.8 983.699   2
   4   2 -13 14750.2 827.525   5
   4   2 -12 7400.60 678.477   2
   4   2 -12 6428.41 461.111   4
   4   2 -12 6452.79 544.231   5
   4   2 -11 1857.88 337.965   5
   4   2 -11 1522.27 251.564   4
   4   2 -11 1879.19 424.961   2
   4   2 -10 14105.2 833.883   2
   4   2 -10 14811.8 669.253   4
  -4   2  10 14800.5 648.058   1
  -4   2  10 14260.6 501.150   3
   4   2 -10 15591.8 751.016   5
   4   2  -9 20312.2 780.484   4
  -4   2   9 20083.3 731.407   1
  -4   2   9 20246.4 559.354   3
   4   2  -9 21992.2 855.570   5
   4   2  -8 4508.82 374.023   4
  -4   2   8 4267.83 316.373   1
  -4   2   8 3858.27 218.225   3
  -4   2   8 3956.96 308.585   5
   4   2  -8 4445.99 402.880   5
   4   2  -7 3792.46 358.730   5
  -4   2   7 3815.14 281.864   1
   4   2  -7 4147.12 351.238   4
  -4   2   7 3740.13 202.286   4
  -4   2   7 3751.06 276.002   2
  -4   2   7 4037.93 193.269   3
  -4   2   7 3637.54 283.775   5
  -4   2   6 55849.6 1155.30   1
   4   2  -6 57144.8 1350.39   4
  -4   2   6 57896.3 1090.33   4
  -4   2   6 56893.9 1152.56   2
   4   2  -6 55425.0 1370.69   5
  -4   2   6 56419.0 888.534   3
  -4   2   6 58229.4 1184.71   5
  -4   2   5 28336.3 705.041   2
  -4   2   5 27287.9 727.884   4
  -4   2   5 28171.0 707.955   1
  -4   2   5 27184.4 479.215   3
   4   2  -5 27754.3 682.213   3
  -4   2   5 27648.6 705.762   5
   4   2  -5 26871.8 900.368   5
   4   2  -4 1086.41 211.588   5
   4   2  -4 991.878 137.922   3
  -4   2   4 1291.12 142.260   5
  -4   2   4 1123.66 147.611   1
  -4   2   4 1428.50 143.213   2
  -4   2   3 38897.7 804.628   2
  -4   2   3 37984.0 815.193   1
   4   2  -3 39343.2 880.031   3
  -4   2   2 157133. 2277.31   2
  -4   2   2 157278. 2308.19   1
   4   2  -2 160082. 2439.27   3
  -4   2   1 24088.0 620.460   1
   4   2  -1 24324.2 694.309   3
  -4   2   0 1241.08 158.115   1
  -4   2  -1 22093.2 640.954   1
  -4   2  -1 22566.5 561.494   2
  -4   2  -2 74124.2 1433.42   1
  -4   2  -2 73530.5 1301.96   2
   4   2   2 76770.3 1563.20   6
  -4   2  -3 39885.8 912.022   2
   4   2   3 41558.8 1088.97   6
  -4   2  -4 545.696 159.327   2
   4   2   4 224.565 175.027   6
  -4   2  -5 12391.1 542.475   2
   4   2   5 11195.3 579.397   6
  -4   2  -6 71555.1 1860.52   4
  -4   2  -6 68220.6 1533.59   2
  -4   2  -7 7173.10 611.677   4
  -4   2  -7 6430.44 465.782   2
  -4   2  -8 3595.19 405.248   2
  -4   2  -8 3906.20 502.652   4
  -4   2  -9 21281.9 1065.05   4
  -4   2  -9 17654.8 862.424   2
  -4   2 -10 9115.17 739.855   4
  -4   2 -10 9081.53 663.446   2
  -4   2 -11 744.038 360.368   4
  -4   2 -11 407.075 296.133   2
  -4   2 -12 2586.55 500.456   4
  -4   2 -12 3058.64 480.330   2
  -4   2 -13 2697.82 489.317   2
  -4   2 -13 2083.10 487.997   4
  -4   2 -14 1573.12 463.803   4
  -4   2 -14 2033.97 526.829   2
  -4   2 -15-84.6673 366.995   4
   4   3 -16 1084.56 428.647   5
   4   3 -16 916.469 432.409   2
   4   3 -15 7681.78 680.943   5
   4   3 -15 6580.96 781.935   2
   4   3 -14 5433.61 578.062   5
   4   3 -14 5139.43 493.159   4
   4   3 -14 5083.00 666.997   2
   4   3 -13 712.621 330.203   5
   4   3 -13 686.037 275.028   4
   4   3 -13 274.078 361.951   2
   4   3 -12 5829.78 518.970   4
  -4   3  12 5779.04 444.468   1
   4   3 -12 5923.39 658.180   2
   4   3 -12 6352.56 556.346   5
   4   3 -11 20615.9 928.431   4
  -4   3  11 22073.3 800.399   1
   4   3 -11 20990.5 936.951   5
   4   3 -10 6978.95 537.692   4
  -4   3  10 6909.71 424.089   1
   4   3 -10 6976.91 553.467   5
  -4   3   9 1473.10 187.857   3
   4   3  -9 1619.37 306.034   5
  -4   3   9 1081.89 186.553   1
   4   3  -9 1485.12 293.977   4
  -4   3   8 35362.3 867.412   1
   4   3  -8 35944.4 1175.56   4
  -4   3   8 32238.8 602.292   4
  -4   3   8 34707.9 848.452   2
  -4   3   8 34054.6 819.937   3
  -4   3   8 33905.0 882.712   5
   4   3  -8 34318.4 1122.20   5
   4   3  -7 26597.9 985.848   4
  -4   3   7 26345.9 657.178   4
  -4   3   7 25507.2 659.867   2
  -4   3   7 24703.0 657.028   3
  -4   3   7 25331.2 700.569   5
   4   3  -7 25429.8 949.642   5
  -4   3   7 25724.4 672.209   1
  -4   3   6 1920.09 175.845   5
   4   3  -6 1993.37 302.647   5
  -4   3   6 2027.86 174.520   1
   4   3  -6 2474.71 338.725   4
  -4   3   6 2372.54 176.114   2
  -4   3   6 2301.43 216.834   4
  -4   3   6 1926.42 174.382   3
  -4   3   5 16268.3 464.997   3
   4   3  -5 15793.3 738.881   4
  -4   3   5 15994.1 603.315   4
  -4   3   5 16424.1 411.559   2
  -4   3   5 16208.6 441.395   1
  -4   3   5 16342.4 441.698   6
  -4   3   5 16220.2 438.513   5
   4   3  -5 16300.3 737.311   5
   4   3  -4 65784.1 1592.16   4
  -4   3   4 67055.8 1452.31   4
  -4   3   4 63520.3 977.799   2
  -4   3   4 66846.0 1074.03   1
  -4   3   4 67088.0 1129.65   3
  -4   3   4 66187.4 1093.00   6
   4   3  -4 64314.3 1578.72   5
   4   3  -3 22078.8 847.109   4
  -4   3   3 23970.5 819.171   4
  -4   3   3 23043.5 495.163   1
   4   3  -3 22305.4 856.880   5
   4   3  -2 3575.47 357.696   5
  -4   3   2 3992.00 202.312   1
  -4   3   2 3528.76 119.059   2
  -4   3   2 4159.84 375.716   4
  -4   3   2 2895.34 106.546   2
  -4   3   1 25749.7 487.515   2
  -4   3   1 27114.0 620.890   1
  -4   3   1 25916.6 949.446   4
  -4   3   1 25873.8 463.026   2
   4   3  -1 25558.9 932.057   5
  -4   3   0 87901.6 2013.49   4
   4   3   0 84208.7 1935.84   5
  -4   3  -1 30489.8 1114.32   4
  -4   3  -1 30328.7 657.423   2
   4   3   1 28025.5 1020.00   5
   4   3   2 2113.71 334.140   5
  -4   3  -2 2463.05 199.492   2
  -4   3  -2 2658.26 388.761   4
  -4   3  -3 29512.2 779.784   2
   4   3   3 28519.2 981.800   6
   4   3   4 36279.6 1136.91   6
  -4   3  -4 39658.5 1392.45   4
  -4   3  -4 37465.4 970.532   2
  -4   3  -5 7743.26 639.977   4
   4   3   5 7091.69 519.511   6
  -4   3  -5 7783.02 447.391   2
  -4   3  -6 5370.08 409.440   2
  -4   3  -6 4926.28 550.267   4
   4   3   6 5194.54 459.970   6
  -4   3  -7 4954.93 423.314   2
  -4   3  -7 3908.14 517.369   4
   4   3   7 5311.85 495.256   6
  -4   3  -8 15509.6 962.605   4
  -4   3  -8 13864.0 736.071   2
  -4   3  -9 2063.07 457.355   4
  -4   3  -9 2570.61 381.751   2
  -4   3 -10 1083.77 427.847   4
  -4   3 -10 1117.70 327.114   2
  -4   3 -11 3618.11 588.376   4
  -4   3 -11 3921.63 516.637   2
  -4   3 -12 7160.07 784.342   4
  -4   3 -12 6229.08 661.561   2
  -4   3 -13 266.314 398.757   4
  -4   3 -13 248.696 336.449   2
  -4   3 -14 1498.57 508.843   4
  -4   3 -14 987.402 473.149   2
  -4   3 -15 2852.47 593.322   4
   4   4 -15 1842.62 448.859   5
   4   4 -14 6046.58 624.111   5
   4   4 -14 4884.79 557.378   4
   4   4 -13 8817.76 705.597   4
   4   4 -13 8318.78 694.900   5
   4   4 -12 3165.95 453.506   5
   4   4 -12 2748.96 456.739   4
   4   4 -11 2102.02 389.744   5
   4   4 -11 1842.51 385.749   4
   4   4 -10 14879.9 873.411   4
   4   4 -10 15814.1 841.200   5
  -4   4   9 8036.04 344.592   1
   4   4  -9 7026.86 608.606   4
   4   4  -9 7568.71 578.575   5
   4   4  -8 7148.37 594.740   4
  -4   4   8 6981.94 321.857   4
  -4   4   8 7738.87 289.811   1
   4   4  -8 7747.13 585.915   5
   4   4  -7 1177.72 303.823   5
   4   4  -7 1473.46 333.916   4
  -4   4   7 1491.00 192.677   4
  -4   4   7 1219.41 97.0778   1
  -4   4   7 1604.47 210.689   6
   4   4  -6 19590.8 931.549   4
  -4   4   6 20214.5 719.606   4
  -4   4   6 20921.5 628.653   6
  -4   4   6 19430.9 636.911   3
  -4   4   6 17097.3 402.330   5
   4   4  -6 20962.1 889.392   5
   4   4  -5 14040.6 776.019   4
  -4   4   5 14506.9 650.394   4
  -4   4   5 13662.6 498.282   6
  -4   4   5 13498.3 510.917   3
   4   4  -5 14637.1 752.742   5
   4   4  -4 11102.4 679.316   4
  -4   4   4 11069.6 593.668   4
  -4   4   4 11284.9 460.407   3
   4   4  -4 11227.6 657.870   5
   4   4  -3 9901.82 639.462   4
  -4   4   3 9730.76 580.568   4
  -4   4   3 9926.86 426.611   3
   4   4  -3 9898.44 619.009   5
   4   4  -2 33897.4 1176.87   4
  -4   4   2 36014.3 1188.48   4
   4   4  -2 33727.4 1152.04   5
  -4   4   1 21529.6 925.847   4
   4   4  -1 19055.6 860.279   5
   4   4   0 789.658 263.306   5
  -4   4   0 1105.48 298.264   4
  -4   4  -1 9966.84 279.342   2
  -4   4  -1 9653.07 681.087   4
   4   4   1 9302.39 621.163   5
   4   4   2 33877.4 1203.53   5
  -4   4  -2 34172.5 755.507   2
  -4   4  -2 32838.6 1311.70   4
  -4   4  -3 10125.7 446.893   2
  -4   4  -3 12232.0 817.426   4
   4   4   3 10601.1 684.684   5
  -4   4  -4 635.389 297.680   4
  -4   4  -4 1273.19 219.241   2
   4   4   4 830.707 274.255   6
   4   4   5 14590.7 791.129   6
  -4   4  -5 15799.0 986.111   4
  -4   4  -5 15966.1 677.710   2
  -4   4  -6 18384.4 1084.86   4
  -4   4  -6 20179.5 826.573   2
   4   4   6 17695.7 881.135   6
  -4   4  -7 7144.02 536.377   2
  -4   4  -7 6828.21 698.417   4
   4   4   7 5807.48 550.685   6
  -4   4  -8 7488.90 590.493   2
  -4   4  -8 7674.17 771.696   4
   4   4   8 7978.27 642.992   6
  -4   4  -9 9083.10 700.254   2
  -4   4  -9 7140.20 759.424   4
  -4   4 -10 9800.39 744.535   2
  -4   4 -10 9518.47 886.389   4
  -4   4 -11 816.610 431.244   4
  -4   4 -11 708.242 336.630   2
  -4   4 -12 2755.43 594.657   4
  -4   4 -12 1907.72 451.304   2
  -4   4 -13 4156.80 733.203   4
  -4   4 -13 2220.43 486.606   2
  -4   4 -14 1706.37 522.536   2
   4   5 -14 2481.81 485.493   5
   4   5 -14 2364.29 499.706   4
   4   5 -13 168.258 324.565   5
   4   5 -13 20.5190 328.209   4
   4   5 -12 3379.82 490.843   5
   4   5 -12 3693.39 556.914   4
   4   5 -11 7952.91 754.358   4
   4   5 -11 7782.83 655.823   5
   4   5 -10 7581.90 710.889   4
   4   5 -10 8264.17 649.761   5
   4   5  -9 1575.98 356.800   5
   4   5  -9 967.248 368.667   4
   4   5  -8 15346.8 939.563   4
  -4   5   8 17370.1 677.668   6
   4   5  -8 15612.9 841.866   5
   4   5  -7 15151.5 931.728   4
  -4   5   7 15008.9 659.538   4
   4   5  -7 16351.3 833.153   5
  -4   5   7 15317.6 623.647   6
   4   5  -6 2649.43 384.317   5
   4   5  -6 1772.87 408.522   4
  -4   5   6 2597.91 318.129   4
  -4   5   6 2562.36 267.533   6
  -4   5   5 6815.54 511.930   4
   4   5  -5 5248.37 544.358   4
  -4   5   5 5785.67 383.783   6
   4   5  -5 5725.89 523.150   5
   4   5  -4 33419.5 1293.04   4
  -4   5   4 31264.4 1138.08   4
   4   5  -4 32001.6 1177.16   5
   4   5  -3 4921.62 483.855   5
   4   5  -3 4277.75 493.687   4
  -4   5   3 4544.63 470.063   4
   4   5  -2 4180.37 462.175   5
   4   5  -2 4602.08 506.216   4
  -4   5   2 4972.58 510.841   4
   4   5  -1 12259.5 739.808   5
   4   5  -1 12068.2 765.658   4
  -4   5   1 12872.4 795.760   4
  -4   5   0 16021.9 911.147   4
   4   5   0 16277.2 845.195   5
  -4   5  -1 6488.87 618.795   4
   4   5   1 7572.60 597.804   5
   4   5   2-124.038 262.135   5
  -4   5  -2 328.626 329.334   4
  -4   5  -3 10574.7 399.003   2
  -4   5  -3 11123.7 850.286   4
   4   5   3 10754.8 729.875   5
  -4   5  -4 13044.6 532.028   2
  -4   5  -4 13866.0 981.042   4
   4   5   4 13733.9 823.377   6
   4   5   4 12202.8 799.312   5
   4   5   5 3977.41 502.103   5
  -4   5  -5 4578.91 381.519   2
  -4   5  -5 4899.01 652.942   4
   4   5   5 4750.12 532.815   6
  -4   5  -6 1224.90 440.567   4
  -4   5  -6 702.811 225.655   2
   4   5   6 907.253 322.980   6
  -4   5  -7 8018.09 600.314   2
  -4   5  -7 8834.21 870.893   4
   4   5   7 9080.42 719.460   6
  -4   5  -8 7018.76 609.724   2
  -4   5  -8 6460.30 777.309   4
   4   5   8 8218.18 698.395   6
  -4   5  -9 1336.01 437.528   4
  -4   5  -9 1176.12 381.566   2
   4   5   9 1694.19 429.817   6
  -4   5 -10 2482.05 586.256   4
  -4   5 -10 2937.97 493.309   2
  -4   5 -11 4605.58 763.194   4
  -4   5 -12 1279.74 526.329   4
   4   6 -14 2099.31 508.200   4
   4   6 -13 1959.80 466.768   5
   4   6 -13 1849.84 510.434   4
   4   6 -12 2035.41 450.537   5
   4   6 -12 1634.32 466.451   4
   4   6 -11 793.502 334.695   5
   4   6 -11 276.112 340.830   4
   4   6 -10 5240.22 593.143   5
   4   6 -10 4425.42 613.626   4
   4   6  -9 2642.23 442.601   5
   4   6  -9 1303.77 437.076   4
   4   6  -8 2133.19 395.809   5
   4   6  -8 2621.12 517.576   4
  -4   6   8 2104.20 293.914   6
   4   6  -7 4040.41 489.342   5
   4   6  -7 3034.13 541.755   4
  -4   6   7 3520.59 355.646   6
  -4   6   6 7672.77 573.850   4
   4   6  -6 7519.59 716.476   4
  -4   6   6 6230.26 449.365   6
   4   6  -6 7428.01 616.624   5
   4   6  -5 9853.97 800.478   4
  -4   6   5 8351.32 634.808   4
   4   6  -5 9084.44 671.687   5
   4   6  -4 1352.21 342.994   5
   4   6  -4 1453.72 425.149   4
  -4   6   4 1209.23 312.479   4
   4   6  -3 4493.34 498.228   5
   4   6  -3 5279.14 608.518   4
  -4   6   3 5376.18 567.829   4
   4   6  -2 18446.4 1044.44   4
  -4   6   2 19224.8 1039.49   4
   4   6  -2 18262.7 937.806   5
   4   6  -1 8135.77 700.344   4
  -4   6   1 8182.78 730.052   4
   4   6  -1 8010.06 650.667   5
   4   6   0 345.102 277.250   5
   4   6   0 223.144 320.036   4
  -4   6   0-35.8465 277.063   4
   4   6   1 8399.34 669.872   5
  -4   6  -1 7982.72 750.157   4
   4   6   2 13695.8 857.643   5
  -4   6  -2 15599.5 1065.23   4
   4   6   3 2193.64 424.056   5
  -4   6  -3 2719.46 529.013   4
   4   6   4 987.438 337.740   5
  -4   6  -4 1740.49 495.359   4
   4   6   4 583.326 344.191   6
  -4   6  -5 3552.38 644.871   4
   4   6   5 3858.95 537.722   5
   4   6   5 3177.01 493.141   6
   4   6   6 5734.48 648.294   5
   4   6   6 5608.18 621.894   6
  -4   6  -6 6352.84 813.826   4
   4   6   7 1332.68 443.797   5
  -4   6  -7 1339.74 516.331   4
   4   6   7 1264.21 378.849   6
   4   6   8 108.621 324.230   5
  -4   6  -8-1.76966 468.329   4
   4   6   8 290.910 303.621   6
  -4   6  -9 1830.65 637.666   4
   4   6   9 1328.06 449.028   6
   4   7 -11 1932.31 418.571   5
   4   7 -10 1150.87 375.422   5
   4   7 -10 1419.05 507.504   4
   4   7  -9 2228.10 434.136   5
   4   7  -9 1775.98 536.290   4
   4   7  -8 2720.00 561.164   4
   4   7  -8 3921.81 506.031   5
   4   7  -7 2634.69 438.208   5
   4   7  -7 3972.71 621.803   4
   4   7  -6-81.9894 280.044   5
   4   7  -6 408.914 382.316   4
   4   7  -5 1245.41 343.470   5
   4   7  -5 1576.58 426.682   4
  -4   7   5 1577.52 385.416   4
   4   7  -4 5260.67 560.169   5
   4   7  -4 5648.06 698.809   4
  -4   7   4 5036.52 581.326   4
   4   7  -3 4786.14 536.336   5
   4   7  -3 4153.33 618.233   4
  -4   7   3 3227.01 510.556   4
   4   7  -2 301.896 284.543   5
   4   7  -2-22.2966 304.412   4
  -4   7   2-275.481 343.464   4
   4   7  -1 1304.31 352.629   5
   4   7  -1 1504.80 413.767   4
  -4   7   1 460.154 347.310   4
   4   7   0 12407.2 919.386   4
  -4   7   0 13439.7 1009.84   4
   4   7   0 11592.0 807.725   5
   4   7   1 2657.60 440.544   5
  -4   7  -1 2365.27 517.664   4
   4   7   2 19.9573 293.804   5
  -4   7  -2 108.748 371.892   4
   4   7   3 1995.62 433.130   5
  -4   7  -3 2983.19 605.649   4
  -4   7  -4 11659.3 1061.18   4
   4   7   4 10676.3 822.300   5
   4   7   4 11604.6 908.383   6
   4   7   5 1491.21 417.686   5
  -4   7  -5 2338.18 611.942   4
   4   7   5 2224.02 498.406   6
   4   7   6 900.215 391.168   5
   4   7   6-36.8298 382.882   6
  -4   7  -6 1127.98 564.644   4
   4   7   7 3553.79 586.468   5
  -4   7  -7 4646.10 794.012   4
   4   7   7 2428.72 521.700   6
   4   7   8 3023.59 572.200   5
   4   7   9 344.376 386.499   5
   4   8  -8 997.187 351.324   5
   4   8  -7 552.496 317.579   5
   4   8  -6 3677.12 504.446   5
   4   8  -5 4695.54 558.199   5
   4   8  -5 4256.21 704.295   4
   4   8  -4 904.717 325.925   5
   4   8  -4 1467.70 499.692   4
   4   8  -3 1890.49 396.829   5
   4   8  -3 1573.96 535.230   4
  -4   8   3 1479.24 451.446   4
   4   8  -2 4315.85 533.895   5
   4   8  -2 3915.54 652.375   4
  -4   8   2 3836.49 619.883   4
   4   8  -1 1646.25 417.914   5
   4   8  -1 2474.41 558.523   4
  -4   8   1 1499.46 491.801   4
   4   8   0 368.101 321.505   5
  -4   8   0 471.116 436.341   4
   4   8   1 919.310 361.866   5
  -4   8  -1 1162.49 510.412   4
   4   8   2 3267.19 528.410   5
  -4   8  -2 4104.07 700.728   4
   4   8   3 325.017 337.082   5
  -4   8  -3 226.268 464.462   4
   4   8   4 438.632 343.651   5
   4   8   5 979.730 403.541   5
  -5  -8   6 168.572 309.139   1
  -5  -8   4 1498.26 424.808   3
  -5  -8   3-315.681 364.349   3
  -5  -8   2-394.735 362.441   3
   5  -8  -1 1829.79 429.955   3
   5  -8   0 4300.10 578.058   3
   5  -8   1 1020.93 435.149   3
   5  -8   2-139.625 399.608   3
   5  -8   3 1411.04 439.793   3
  -5  -7  11 779.010 417.391   3
  -5  -7  10 3470.25 581.011   1
  -5  -7  10 2545.13 507.860   3
  -5  -7   9 1429.78 413.459   1
  -5  -7   9 2002.73 466.617   3
  -5  -7   8 1577.13 411.401   1
  -5  -7   8 2522.10 496.253   3
  -5  -7   7 2225.94 468.534   1
  -5  -7   7 2230.71 480.285   3
  -5  -7   6 7946.81 712.228   3
  -5  -7   6 7482.49 666.320   1
  -5  -7   5 3708.70 501.442   1
  -5  -7   5 4621.96 564.324   3
  -5  -7   4 133.244 265.035   1
   5  -7  -4 361.510 269.533   3
  -5  -7   4-318.653 362.161   3
  -5  -7   3 4676.19 512.172   1
  -5  -7   3 3955.87 520.466   3
   5  -7  -3 4874.77 485.806   3
  -5  -7   2 6615.35 591.506   1
  -5  -7   2 7363.98 640.366   3
   5  -7  -2 7764.67 609.852   3
  -5  -7   1 1056.52 317.550   1
  -5  -7   1 1271.19 382.273   3
   5  -7  -1 664.835 289.696   3
  -5  -7   0 2020.66 369.736   1
  -5  -7   0 2800.79 455.386   3
   5  -7   0 2278.31 432.189   3
   5  -7   1 3864.61 512.963   3
  -5  -7  -1 2579.22 392.255   1
  -5  -7  -1 3532.57 493.948   3
   5  -7   2 3790.07 551.841   3
  -5  -7  -2 4210.23 472.627   1
  -5  -7  -2 4968.04 533.798   3
  -5  -7  -3 281.826 261.293   1
   5  -7   3-142.877 335.752   3
   5  -7   4 2558.76 489.668   3
  -5  -7  -4 2348.10 387.802   1
   5  -7   5 1348.34 454.044   3
  -5  -7  -5 1678.42 410.003   2
   5  -7   6 2146.65 503.604   3
  -5  -7  -6 2230.62 432.124   2
  -5  -7  -7 196.957 323.844   2
  -5  -6  13 1366.48 428.235   3
  -5  -6  12 3953.97 543.457   3
  -5  -6  12 4146.54 639.388   1
  -5  -6  11 2680.65 544.723   1
  -5  -6  11 1998.25 416.636   3
  -5  -6  10 783.599 378.978   1
  -5  -6  10 216.121 315.814   3
  -5  -6   9 5386.83 626.996   1
  -5  -6   9 6368.60 608.107   3
  -5  -6   8 8349.42 674.765   3
  -5  -6   8 8346.40 717.254   1
  -5  -6   7 1835.97 413.903   1
  -5  -6   7 2070.44 405.481   3
  -5  -6   6 213.172 297.001   3
  -5  -6   6 232.829 293.261   1
   5  -6  -6-120.153 163.235   3
   5  -6  -5 4803.18 384.881   3
  -5  -6   5 4302.97 506.351   1
  -5  -6   5 5806.17 558.354   3
   5  -6  -4 6575.57 462.507   3
  -5  -6   4 7107.71 578.121   3
  -5  -6   4 6800.71 586.252   1
  -5  -6   3 2731.41 388.566   1
  -5  -6   3 2085.04 374.164   3
   5  -6  -3 3012.75 362.242   3
  -5  -6   2-43.9842 235.885   1
  -5  -6   2 228.846 269.476   3
   5  -6  -2 508.011 244.466   3
  -5  -6   1 4867.66 478.255   1
  -5  -6   1 3691.88 460.953   3
   5  -6  -1 4678.09 455.705   3
  -5  -6   0 10410.0 664.736   1
  -5  -6   0 8952.46 627.263   3
   5  -6   0 10838.9 695.969   3
   5  -6   1 1114.07 327.361   3
  -5  -6  -1 1733.37 342.801   3
  -5  -6  -1 1501.45 315.301   1
   5  -6   2 2550.39 426.484   3
  -5  -6  -2 2940.45 395.296   1
  -5  -6  -2 2695.56 420.888   3
  -5  -6  -3 5516.14 511.242   1
   5  -6   3 6887.63 622.558   3
  -5  -6  -4 8292.54 614.059   1
   5  -6   4 7721.70 660.936   3
   5  -6   5 410.615 312.858   3
  -5  -6  -5 411.708 268.425   1
   5  -6   6 3292.78 522.453   3
  -5  -6  -6 3172.48 455.754   2
  -5  -6  -6 3008.60 425.776   1
   5  -6   7 5202.76 625.128   3
  -5  -6  -7 5292.56 559.227   2
  -5  -6  -7 4454.88 519.788   1
   5  -6   8 2675.66 532.919   3
  -5  -6  -8 2191.26 418.397   2
  -5  -6  -9-124.390 299.883   2
   5  -6   9-301.416 392.167   3
  -5  -5  13 1611.18 403.107   3
  -5  -5  13 1110.76 449.952   1
  -5  -5  12 1219.51 376.101   3
  -5  -5  12 973.415 422.300   1
  -5  -5  11 4286.49 503.671   3
  -5  -5  11 5868.05 680.923   1
  -5  -5  10 11735.9 856.822   1
  -5  -5  10 10172.4 701.550   3
  -5  -5   9 1654.22 416.041   1
  -5  -5   9 1499.98 320.433   3
  -5  -5   8 1537.48 417.851   1
  -5  -5   8 980.915 299.288   3
  -5  -5   7 11024.7 685.703   3
  -5  -5   7 11888.6 782.322   1
   5  -5  -6 16491.3 573.858   3
  -5  -5   6 16019.9 796.919   3
  -5  -5   6 15982.6 873.505   1
   5  -5  -5 4522.47 318.953   3
  -5  -5   5 4451.72 485.460   1
  -5  -5   5 3930.76 422.820   3
  -5  -5   4 1222.07 309.546   1
   5  -5  -4 1468.48 226.700   3
  -5  -5   4 1112.09 289.754   3
  -5  -5   3 14147.7 707.580   3
   5  -5  -3 14450.2 619.693   3
  -5  -5   3 13874.5 756.976   1
  -5  -5   2 19211.5 826.494   3
  -5  -5   2 19353.8 874.659   1
   5  -5  -2 19362.8 759.684   3
  -5  -5   1 3764.60 421.589   1
   5  -5  -1 4925.89 419.120   3
  -5  -5   1 4829.26 424.959   3
   5  -5   0 3187.91 367.398   3
  -5  -5   0 2697.87 355.431   1
  -5  -5   0 3114.06 358.426   3
  -5  -5  -1 13409.6 721.281   1
  -5  -5  -1 13938.7 681.054   3
   5  -5   1 13557.2 713.603   3
  -5  -5  -2 15629.2 779.142   1
  -5  -5  -2 16817.2 741.859   3
   5  -5   2 14162.4 748.889   3
   5  -5   3 1104.22 294.226   3
  -5  -5  -3 1451.18 320.263   1
   5  -5   4 2478.32 394.738   3
  -5  -5  -4 2618.83 366.840   1
  -5  -5  -5 8547.85 608.434   1
   5  -5   5 7956.79 643.411   3
   5  -5   6 3519.22 476.455   3
  -5  -5  -6 3574.76 446.703   2
  -5  -5  -6 4366.77 467.848   1
  -5  -5  -7 1048.95 323.292   2
   5  -5   7 1162.12 377.716   3
  -5  -5  -7 1188.61 316.296   1
   5  -5   8 3490.23 518.005   3
  -5  -5  -8 3424.23 475.819   2
  -5  -5  -9 2035.15 382.551   2
   5  -5   9 1315.15 460.900   3
  -5  -5 -10 1319.29 390.555   2
   5  -5  10 2245.50 554.860   3
  -5  -4  15 1836.40 496.284   1
  -5  -4  14 1066.19 324.830   3
  -5  -4  14 1541.51 476.763   1
  -5  -4  13 1993.49 384.634   3
  -5  -4  13 1276.65 404.745   1
  -5  -4  12 3223.61 425.164   3
  -5  -4  12 4044.87 575.346   1
  -5  -4  11 4802.68 579.778   1
  -5  -4  11 5370.28 491.380   3
  -5  -4  10 428.663 232.249   3
  -5  -4  10 203.030 277.732   1
  -5  -4   9 5081.94 547.062   1
  -5  -4   9 6351.50 498.644   3
  -5  -4   8 26020.2 1134.38   1
  -5  -4   8 22993.0 904.895   3
  -5  -4   7 11418.0 738.075   1
  -5  -4   7 12532.9 645.036   3
  -5  -4   6 172.109 225.161   1
   5  -4  -6 533.005 124.344   3
  -5  -4   6 652.742 227.692   3
   5  -4  -5 13037.3 447.102   3
  -5  -4   5 13364.5 631.951   3
  -5  -4   5 13112.9 739.355   1
   5  -4  -4 51478.0 1061.64   3
  -5  -4   4 51787.4 1319.59   3
  -5  -4   4 52194.6 1493.16   1
  -5  -4   3 3256.62 330.026   3
  -5  -4   3 3144.12 375.595   1
   5  -4  -3 3206.19 267.235   3
   5  -4  -2 1088.97 212.024   3
  -5  -4   2 1293.46 286.171   1
   5  -4  -2 1325.22 142.455   1
  -5  -4   2 1254.15 237.753   3
   5  -4  -1 27120.6 695.462   1
  -5  -4   1 27372.5 873.469   3
  -5  -4   1 27065.8 996.871   1
   5  -4  -1 29208.3 879.488   3
  -5  -4   0 30960.4 1060.11   1
  -5  -4   0 30734.1 947.551   3
   5  -4   0 32237.5 973.262   3
   5  -4   0 30616.8 790.221   1
  -5  -4  -1 7214.85 518.308   1
  -5  -4  -1 8632.07 476.501   3
   5  -4   1 7562.16 474.023   3
   5  -4   1 6184.91 220.004   5
   5  -4   1 5893.45 186.901   5
  -5  -4  -2 10108.2 605.358   1
   5  -4   2 8752.82 526.937   3
  -5  -4  -3 21293.7 882.890   1
   5  -4   3 22046.9 860.381   3
  -5  -4  -4 19228.2 840.351   1
   5  -4   4 16734.3 782.778   3
   5  -4   5 476.743 245.990   3
  -5  -4  -5 492.577 233.338   1
  -5  -4  -6 5642.30 501.514   1
  -5  -4  -6 6370.08 522.814   2
   5  -4   6 6276.11 530.395   3
  -5  -4  -7 8576.48 623.210   1
   5  -4   7 8915.97 667.246   3
  -5  -4  -7 9340.64 642.803   2
  -5  -4  -8 3595.43 440.448   2
   5  -4   8 4284.73 537.524   3
  -5  -4  -8 4717.37 496.073   1
  -5  -4  -9 461.700 287.996   2
   5  -4   9 722.756 396.505   3
  -5  -4 -10 3215.60 463.484   2
   5  -4  10 2193.15 493.562   3
  -5  -4 -11 2000.71 454.973   2
   5  -4  11 2058.57 553.470   3
  -5  -3  16 893.091 442.967   1
  -5  -3  15 2372.41 500.632   1
   5  -3 -15 3513.76 492.373   2
  -5  -3  14 3835.37 580.305   1
  -5  -3  14 3847.09 441.019   3
   5  -3 -14 3138.06 425.012   2
   5  -3 -13 7626.23 608.252   2
  -5  -3  13 8008.31 737.233   1
  -5  -3  13 7493.39 553.161   3
  -5  -3  12 803.742 278.720   3
   5  -3 -12 855.172 261.303   2
  -5  -3  12 429.464 303.333   1
  -5  -3  11 5024.26 560.128   1
   5  -3 -11 4669.37 426.739   2
  -5  -3  11 5264.11 436.579   3
  -5  -3  10 21571.0 1047.18   1
  -5  -3  10 21013.7 817.305   3
  -5  -3   9 10922.9 734.671   1
  -5  -3   9 11698.5 577.594   3
  -5  -3   8 926.214 220.037   3
  -5  -3   8 887.280 296.193   1
  -5  -3   7 10450.2 666.710   1
  -5  -3   7 10111.2 509.185   3
   5  -3  -6 38688.1 813.042   5
  -5  -3   6 39535.6 1280.85   1
  -5  -3   6 38424.1 1013.43   3
   5  -3  -5 14191.2 398.431   5
   5  -3  -5 14270.9 351.249   3
  -5  -3   5 14322.7 581.031   3
  -5  -3   5 14615.2 745.517   1
   5  -3  -4 1876.29 146.731   3
  -5  -3   4 1531.45 289.152   1
  -5  -3   4 1730.29 224.085   3
   5  -3  -4 2217.66 134.934   5
   5  -3  -3 8788.98 378.079   1
  -5  -3   3 8836.44 427.601   3
   5  -3  -3 8989.06 341.126   3
  -5  -3   3 9074.71 564.059   1
   5  -3  -3 9064.57 249.798   5
   5  -3  -2 47390.9 1028.58   1
  -5  -3   2 48479.8 1096.28   3
   5  -3  -2 48577.6 1003.51   3
  -5  -3   2 46407.2 1300.39   1
   5  -3  -2 48088.3 776.905   5
  -5  -3   1 4040.95 304.350   3
  -5  -3   1 4434.55 392.796   1
   5  -3  -1 4484.12 303.139   3
   5  -3  -1 4378.54 202.843   5
   5  -3  -1 4343.36 288.926   1
  -5  -3   0 3598.30 371.164   1
   5  -3   0 4861.75 254.801   5
  -5  -3   0 4053.04 309.265   3
   5  -3   0 4512.72 310.434   3
  -5  -3  -1 20489.5 821.184   1
   5  -3   1 18257.2 637.961   1
   5  -3   1 20121.7 679.667   3
   5  -3   1 19780.4 583.973   5
   5  -3   2 18720.3 543.973   5
  -5  -3  -2 19269.6 799.179   1
   5  -3   2 18923.3 685.080   3
   5  -3   3 3201.26 240.720   5
   5  -3   3 3514.31 330.906   3
  -5  -3  -3 3950.65 395.302   1
  -5  -3  -4 7838.23 528.337   1
   5  -3   4 7661.32 484.786   3
  -5  -3  -5 17718.9 807.677   1
   5  -3   5 17664.5 764.712   3
  -5  -3  -6 21480.4 915.808   1
  -5  -3  -6 21394.1 881.897   2
   5  -3   6 21712.7 901.855   3
  -5  -3  -7 3171.59 414.391   2
   5  -3   7 2947.24 408.406   3
  -5  -3  -7 2827.51 382.829   1
  -5  -3  -8 7748.83 600.365   1
  -5  -3  -8 8296.80 607.983   2
   5  -3   8 8785.09 699.335   3
  -5  -3  -9 12587.3 762.201   2
   5  -3   9 11136.8 823.221   3
  -5  -3 -10 5681.38 559.431   2
   5  -3  10 5573.14 640.701   3
  -5  -3 -11 82.7414 316.604   2
   5  -3  11 525.493 389.426   3
  -5  -3 -12 4835.96 596.418   2
   5  -3  12 4089.85 605.747   3
   5  -2 -17 507.800 413.777   2
   5  -2 -16 3500.32 540.215   2
  -5  -2  16 4853.89 641.711   1
   5  -2 -15 5007.72 597.504   2
  -5  -2  15 6389.39 680.766   1
  -5  -2  14 1217.00 386.497   1
   5  -2 -14 1915.51 410.198   2
  -5  -2  13 4781.68 573.112   1
   5  -2 -13 4646.74 508.428   2
  -5  -2  13 4739.59 405.811   3
   5  -2 -12 14785.9 821.076   2
  -5  -2  12 14749.9 886.101   1
  -5  -2  12 15715.0 675.799   3
   5  -2 -11 11369.1 599.452   5
   5  -2 -11 10299.6 638.481   2
  -5  -2  11 11304.9 754.631   1
  -5  -2  11 11033.5 543.427   3
   5  -2 -10 4916.25 382.225   5
  -5  -2  10 3505.38 438.141   1
   5  -2 -10 4144.41 409.019   2
  -5  -2  10 4734.16 348.238   3
   5  -2  -9 11587.6 537.026   5
  -5  -2   9 10704.1 684.189   1
  -5  -2   9 11191.8 495.962   3
  -5  -2   8 51200.8 1483.62   1
  -5  -2   8 49703.6 1109.47   3
   5  -2  -8 52047.4 1164.36   5
  -5  -2   7 26284.2 1000.81   1
  -5  -2   7 23754.4 683.153   3
  -5  -2   6 2177.39 322.881   1
  -5  -2   6 2295.93 213.940   3
  -5  -2   5 21591.7 608.140   3
   5  -2  -5 23240.5 618.350   5
  -5  -2   5 21209.8 852.041   1
  -5  -2   4 48244.5 965.044   3
  -5  -2   4 49892.3 1328.63   1
   5  -2  -4 47135.9 962.651   5
  -5  -2   3 12958.7 431.366   3
   5  -2  -3 11688.9 292.867   3
  -5  -2   3 12804.2 623.826   1
   5  -2  -3 12829.6 442.103   5
  -5  -2   2 9371.79 365.883   3
  -5  -2   2 9437.75 526.423   1
   5  -2  -2 9444.40 316.749   3
   5  -2  -2 9384.90 385.191   5
   5  -2  -1 15591.6 525.972   5
  -5  -2   1 15278.6 668.262   1
   5  -2  -1 15901.2 472.260   3
  -5  -2   0 41633.1 1168.00   1
   5  -2   0 43932.5 1044.48   1
   5  -2   0 43728.8 913.064   3
   5  -2   0 44764.0 998.730   5
  -5  -2  -1 3491.57 346.491   1
   5  -2   1 3917.75 262.147   3
  -5  -2  -2 17011.7 728.981   1
  -5  -2  -3 38813.0 1143.40   1
  -5  -2  -4 28001.3 973.672   1
  -5  -2  -5 1496.72 287.617   1
  -5  -2  -6 21158.6 892.705   1
  -5  -2  -6 21201.7 853.843   2
  -5  -2  -7 12443.4 719.164   1
  -5  -2  -7 12383.9 690.034   2
  -5  -2  -8 10489.6 658.194   2
  -5  -2  -9 243.726 262.274   2
  -5  -2 -10 3447.29 462.240   2
  -5  -2 -11 6466.53 625.715   2
  -5  -2 -12 4589.48 570.629   2
  -5  -2 -13 282.695 373.676   2
   5  -1 -18 1089.67 493.342   2
   5  -1 -17 931.227 461.643   2
  -5  -1  17 1827.94 460.693   1
   5  -1 -16 3362.86 542.177   2
  -5  -1  16 3324.81 532.497   1
  -5  -1  15 33.5315 303.109   1
   5  -1 -15 512.393 306.484   2
  -5  -1  14 5390.20 578.631   1
   5  -1 -14 4849.13 579.352   2
   5  -1 -13 9231.55 631.924   5
   5  -1 -13 9563.78 721.620   2
  -5  -1  13 8595.79 682.371   1
  -5  -1  13 8358.94 467.927   3
   5  -1 -12 3983.34 416.958   5
  -5  -1  12 3097.48 433.870   1
   5  -1 -12 3356.67 442.289   2
  -5  -1  12 3379.97 298.809   3
   5  -1 -11 14156.6 685.152   5
   5  -1 -11 13727.5 774.973   2
  -5  -1  11 12838.6 759.646   1
  -5  -1  11 13718.2 528.789   3
   5  -1 -10 29358.6 1097.24   2
  -5  -1  10 30077.6 1131.25   1
  -5  -1  10 30007.6 767.912   3
   5  -1 -10 30827.0 979.895   5
  -5  -1   9 14021.7 732.567   1
  -5  -1   9 13843.0 625.740   4
  -5  -1   9 13859.6 462.009   3
   5  -1  -9 13355.6 486.942   6
   5  -1  -9 13583.2 605.102   5
  -5  -1   8 678.024 116.025   3
   5  -1  -8 643.908 183.411   5
   5  -1  -8 418.252 96.8716   6
  -5  -1   8 580.582 233.733   1
  -5  -1   7 22395.4 883.887   1
  -5  -1   7 22008.9 513.648   3
   5  -1  -7 21605.5 717.344   5
  -5  -1   6 64934.7 1572.03   1
  -5  -1   6 65212.2 1031.91   3
  -5  -1   5 18724.6 411.280   3
  -5  -1   5 19255.1 770.143   1
   5  -1  -4 1795.66 215.894   1
  -5  -1   4 2087.97 128.609   3
  -5  -1   4 1641.79 263.963   1
   5  -1  -3 37260.3 969.524   1
  -5  -1   3 37464.2 1061.14   1
   5  -1  -2 80544.7 1562.88   5
   5  -1  -2 82890.2 1608.69   1
   5  -1  -2 83056.8 1129.65   3
  -5  -1   2 82266.7 1705.08   1
   5  -1  -2 81819.4 1168.20   3
  -5  -1   1 15885.4 650.934   1
  -5  -1   0 14493.6 631.147   1
  -5  -1  -1 49033.3 1237.06   1
  -5  -1  -2 60105.0 1416.48   1
  -5  -1  -3 1583.65 256.838   1
  -5  -1  -4 20008.2 798.040   1
  -5  -1  -5 35134.6 1118.40   1
  -5  -1  -5 36701.8 1070.97   2
  -5  -1  -6 27372.2 1014.40   1
  -5  -1  -6 28294.3 969.726   2
  -5  -1  -7 2968.44 357.946   2
  -5  -1  -7 3184.90 400.042   1
  -5  -1  -8 9670.57 628.429   2
  -5  -1  -9 13087.0 765.411   2
  -5  -1 -10 1415.75 362.121   2
  -5  -1 -11 455.588 342.872   2
  -5  -1 -12 4989.01 579.841   2
  -5  -1 -13 2809.45 523.898   2
  -5  -1 -14 1069.45 390.374   4
  -5   0  18 2417.76 539.022   1
  -5   0  17 767.996 354.302   1
   5   0 -17-42.2238 391.458   2
   5   0 -16 6245.52 724.630   2
  -5   0  16 6101.04 636.802   1
   5   0 -15 4376.64 515.848   5
  -5   0  15 4868.43 567.445   1
   5   0 -15 3368.74 553.440   2
   5   0 -14-364.112 289.011   5
  -5   0  14 353.148 286.594   1
   5   0 -14 168.183 285.165   2
   5   0 -13 1115.90 294.799   5
   5   0 -13 1392.13 378.423   2
  -5   0  13 707.005 282.576   1
   5   0 -12 20543.3 1032.79   2
  -5   0  12 21222.7 970.172   1
  -5   0  12 21259.4 627.538   3
   5   0 -12 20941.4 905.703   5
  -5   0  11 175.466 217.659   1
  -5   0  11 186.698 109.793   3
   5   0 -11 246.854 229.038   5
   5   0 -11 82.8717 255.412   2
  -5   0  10 5106.70 461.488   1
  -5   0  10 4780.86 296.114   4
  -5   0  10 5530.71 252.966   3
   5   0 -10 5849.55 445.507   5
  -5   0   9 25174.5 945.042   1
  -5   0   9 24813.4 730.121   4
  -5   0   9 23873.6 507.618   3
   5   0  -9 24813.6 868.053   5
  -5   0   8 43541.5 1215.34   1
  -5   0   8 41385.0 1009.06   4
  -5   0   8 36934.8 551.599   3
  -5   0   8 37176.4 574.766   3
   5   0  -8 42896.8 1126.12   5
  -5   0   7 18880.6 761.412   1
  -5   0   7 18964.7 662.533   4
   5   0  -7 19069.3 720.545   5
   5   0  -6 425.748 158.947   5
  -5   0   6 430.669 187.938   1
  -5   0   6 458.086 135.106   4
  -5   0   5 91429.9 1749.18   4
   5   0  -5 90315.7 1782.67   5
  -5   0   5 93589.4 1846.49   1
  -5   0   4 63688.3 1425.13   1
   5   0  -4 65151.6 1422.58   5
   5   0  -3 10222.6 238.258   3
  -5   0   3 11153.1 519.489   1
   5   0  -3 11078.5 256.735   6
   5   0  -2 14578.5 358.934   3
  -5   0   2 13714.5 577.414   1
  -5   0   1 43707.6 1103.96   1
   5   0  -1 44901.6 807.005   3
  -5   0   0 30882.5 900.752   1
   5   0   0 30391.6 651.863   3
   5   0   0 27975.0 880.245   5
  -5   0  -1 11689.1 543.645   1
  -5   0  -2 7012.01 436.405   1
  -5   0  -3 25350.1 863.794   1
  -5   0  -4 36565.4 1088.81   1
  -5   0  -4 36222.3 1002.98   2
  -5   0  -5 6962.75 495.696   1
  -5   0  -5 7844.54 470.956   2
  -5   0  -6 5081.91 449.226   1
  -5   0  -6 5952.42 449.679   2
  -5   0  -7 14371.7 707.969   2
  -5   0  -8 16669.8 800.300   2
  -5   0  -9 3122.14 425.702   2
  -5   0 -10 6799.46 600.159   2
  -5   0 -11 8858.59 719.850   2
  -5   0 -12 2870.48 499.510   2
  -5   0 -13 822.101 372.263   4
  -5   0 -13 765.399 381.784   2
  -5   0 -14 5767.00 691.506   4
  -5   0 -14 6484.91 722.630   2
  -5   1  18 1941.16 476.321   1
  -5   1  17 1121.85 371.870   1
   5   1 -17 2049.04 570.110   2
   5   1 -16 4376.91 551.679   5
  -5   1  16 3463.43 503.410   1
   5   1 -16 2929.46 597.025   2
   5   1 -15 885.015 354.724   5
  -5   1  15 1088.70 350.110   1
   5   1 -15 786.049 389.832   2
   5   1 -14 6161.31 572.429   5
  -5   1  14 6237.89 558.029   1
   5   1 -14 7076.88 699.481   2
   5   1 -13 10841.7 826.927   2
  -5   1  13 10005.1 679.673   1
   5   1 -13 12048.4 740.418   5
   5   1 -12 2988.01 403.113   5
  -5   1  12 3489.36 419.707   1
   5   1 -12 2819.74 450.524   2
  -5   1  11 13798.6 727.369   1
  -5   1  11 13509.0 395.940   3
   5   1 -11 13833.7 725.940   5
  -5   1  10 33460.1 1069.80   1
  -5   1  10 31784.8 559.863   3
   5   1 -10 34090.6 1096.38   5
  -5   1   9 12730.9 635.635   1
  -5   1   9 12452.2 405.988   4
   5   1  -9 13198.3 669.395   5
   5   1  -8 456.028 219.550   5
  -5   1   8 906.358 138.667   4
  -5   1   8 1081.76 248.513   1
  -5   1   7 22891.0 797.431   1
  -5   1   7 21490.8 638.941   4
   5   1  -7 21207.7 817.611   5
   5   1  -6 56416.6 1405.73   5
  -5   1   6 58168.9 1322.05   1
  -5   1   5 17299.6 659.893   2
   5   1  -5 16881.7 706.021   5
  -5   1   5 17799.7 657.817   5
  -5   1   5 16689.9 634.414   1
  -5   1   4 1474.72 200.145   5
   5   1  -4 885.107 205.310   5
   5   1  -4 1235.88 115.252   3
  -5   1   4 1117.24 183.468   1
  -5   1   4 1118.23 176.411   2
  -5   1   3 29817.9 850.494   2
  -5   1   3 28559.0 816.576   1
   5   1  -3 28633.0 630.758   3
   5   1  -3 28159.8 928.590   5
  -5   1   2 77702.4 1503.44   1
   5   1  -2 76018.7 1294.01   3
   5   1  -2 74497.1 1644.46   5
  -5   1   1 17745.2 627.638   1
   5   1  -1 17803.9 529.750   3
   5   1  -1 18043.6 552.210   6
   5   1  -1 17463.5 719.175   5
  -5   1   0 14337.6 563.320   1
   5   1   0 13945.7 479.523   3
   5   1   0 13283.7 625.385   5
   5   1   0 13853.8 493.242   6
   5   1   1 44783.9 1002.84   6
  -5   1  -1 45378.8 1106.03   1
  -5   1  -1 44225.5 908.092   6
   5   1   1 43689.3 1225.35   5
  -5   1  -2 58091.3 1334.58   1
   5   1   2 58380.9 1232.26   6
  -5   1  -2 57441.5 1161.13   6
  -5   1  -3 2067.02 240.862   2
  -5   1  -3 1783.03 271.945   1
  -5   1  -3 1801.64 210.971   6
  -5   1  -4 21641.0 806.999   1
  -5   1  -4 21875.3 737.998   2
  -5   1  -5 34598.4 1004.75   2
  -5   1  -6 30749.9 984.404   2
  -5   1  -7 2006.56 321.395   2
  -5   1  -8 9640.97 624.559   2
  -5   1  -9 14860.3 807.698   2
  -5   1 -10 1738.73 418.891   4
  -5   1 -10 1323.58 334.426   2
  -5   1 -11 536.187 324.140   4
  -5   1 -11-2.93868 299.500   2
  -5   1 -12 3056.83 516.793   4
  -5   1 -12 3682.56 532.889   2
  -5   1 -13 2637.95 521.123   4
  -5   1 -13 1931.06 479.897   2
  -5   1 -14 1198.02 445.111   4
  -5   1 -14 1009.28 442.331   2
   5   2 -16 4504.93 566.146   5
  -5   2  16 5196.37 565.306   1
   5   2 -16 4403.86 699.721   2
   5   2 -15 6144.33 624.296   5
  -5   2  15 6685.36 607.482   1
   5   2 -15 6412.01 749.022   2
   5   2 -14 1868.50 398.612   5
  -5   2  14 672.173 253.355   1
   5   2 -13 4468.59 496.081   5
  -5   2  13 3665.46 433.201   1
  -5   2  12 13765.3 728.209   1
   5   2 -12 13072.4 767.736   5
  -5   2  11 9504.40 578.751   1
   5   2 -11 10536.5 675.439   5
  -5   2  10 5274.32 415.229   1
   5   2 -10 5194.80 474.765   5
  -5   2   9 9411.08 513.225   1
  -5   2   9 7294.69 219.579   4
  -5   2   9 7517.11 217.778   4
   5   2  -9 8132.80 560.998   5
  -5   2   9 8595.24 224.422   3
  -5   2   8 47431.7 1180.73   1
  -5   2   8 45403.7 894.057   4
  -5   2   8 47536.4 936.673   4
   5   2  -8 47139.9 1355.60   5
  -5   2   7 30252.0 863.488   2
  -5   2   7 29630.1 772.986   4
  -5   2   7 29122.1 868.847   5
   5   2  -7 29222.8 1024.77   5
  -5   2   7 30335.9 875.487   1
  -5   2   6 2105.07 223.039   2
  -5   2   6 2303.11 236.661   5
   5   2  -6 2150.63 322.904   5
  -5   2   6 2378.78 241.652   1
   5   2  -6 2100.25 193.833   3
  -5   2   5 22383.1 686.249   2
  -5   2   5 23542.6 699.910   1
   5   2  -5 21889.6 613.355   3
  -5   2   5 22915.8 688.290   5
   5   2  -5 23493.1 892.717   5
  -5   2   4 53507.7 1116.64   2
  -5   2   4 52161.3 1111.35   1
   5   2  -4 50587.8 1054.17   3
   5   2  -4 52882.2 1408.13   5
  -5   2   3 15558.5 530.132   2
  -5   2   3 15167.1 532.388   1
   5   2  -3 14275.1 515.534   3
   5   2  -3 14778.7 706.226   5
  -5   2   2 11531.6 453.386   1
   5   2  -2 12005.1 626.515   5
  -5   2   1 13192.5 496.361   1
  -5   2   1 11998.6 279.276   6
   5   2  -1 13208.6 674.492   5
  -5   2   0 50659.6 1115.01   1
   5   2   0 48738.7 1129.19   3
  -5   2   0 48647.4 859.173   6
   5   2   0 49701.5 1380.43   5
   5   2   1 2290.49 351.604   5
  -5   2  -1 2205.76 201.641   2
  -5   2  -1 2385.58 250.553   1
   5   2   1 1994.88 250.993   6
  -5   2  -2 17393.3 657.044   1
  -5   2  -2 17506.5 566.774   2
   5   2   2 15908.5 657.125   6
  -5   2  -3 37550.2 1056.48   1
  -5   2  -3 37709.0 942.948   2
   5   2   3 39220.4 1091.73   6
  -5   2  -4 29388.7 852.573   2
   5   2   4 27767.3 932.417   6
  -5   2  -5 1131.01 230.029   2
  -5   2  -6 20612.8 803.817   2
  -5   2  -7 12149.2 811.819   4
  -5   2  -7 12475.1 661.964   2
  -5   2  -8 11005.3 814.262   4
  -5   2  -8 10587.3 657.104   2
  -5   2  -9 784.491 396.911   4
  -5   2  -9 19.2228 239.217   2
  -5   2 -10 4788.53 616.318   4
  -5   2 -10 4163.34 515.200   2
  -5   2 -11 6630.83 702.572   4
  -5   2 -11 5870.12 608.917   2
  -5   2 -12 3526.73 593.206   4
  -5   2 -12 3296.34 530.609   2
  -5   2 -13-672.633 394.906   4
  -5   2 -13-188.027 329.792   2
  -5   2 -14 1901.77 506.556   4
  -5   2 -14 2920.42 573.068   2
   5   3 -16 980.674 380.029   5
   5   3 -15 2852.61 515.493   5
   5   3 -14 4482.35 556.445   5
   5   3 -13 8131.91 596.929   4
  -5   3  13 7675.01 552.418   1
   5   3 -13 7770.19 661.602   5
  -5   3  12 1107.57 249.008   1
   5   3 -12 873.732 298.284   5
   5   3 -12 1242.72 315.979   4
   5   3 -11 5779.75 540.082   5
  -5   3  11 4847.14 393.809   1
   5   3 -11 5399.59 488.632   4
  -5   3  10 22652.6 789.178   1
   5   3 -10 23126.7 967.077   4
   5   3 -10 22940.5 1005.31   5
   5   3  -9 9644.46 634.121   4
   5   3  -9 10506.3 678.278   5
  -5   3   9 10340.7 495.105   1
   5   3  -8 492.691 233.201   5
   5   3  -8 966.892 269.494   4
  -5   3   8 749.640 130.060   4
  -5   3   8 362.165 139.720   1
  -5   3   7 10705.9 470.129   4
  -5   3   7 10557.3 423.453   2
  -5   3   7 10128.6 438.891   5
  -5   3   7 10567.5 442.023   1
  -5   3   7 10358.3 292.537   3
   5   3  -7 9645.38 621.344   5
  -5   3   6 38119.1 1021.22   4
  -5   3   6 37158.1 821.386   2
  -5   3   6 38388.8 868.120   1
  -5   3   6 36445.9 839.220   5
   5   3  -6 37622.8 1230.83   5
  -5   3   5 11666.3 568.844   4
   5   3  -5 11173.2 663.708   5
  -5   3   5 9474.24 346.523   2
  -5   3   5 11039.3 408.511   1
   5   3  -4 1486.19 311.933   5
  -5   3   4 2224.11 158.568   2
  -5   3   4 1878.85 288.245   4
  -5   3   4 1622.16 166.245   1
  -5   3   3 13306.5 377.322   2
  -5   3   3 13898.6 687.729   4
  -5   3   3 13684.2 446.675   1
  -5   3   3 11741.5 273.864   6
   5   3  -3 12414.6 695.347   5
  -5   3   2 44896.1 846.751   2
  -5   3   2 46421.7 952.577   1
  -5   3   2 45917.1 1368.73   4
  -5   3   2 45007.6 767.980   2
   5   3  -2 44751.7 1358.60   5
  -5   3   1 7096.07 345.935   1
  -5   3   1 6577.38 551.016   4
  -5   3   1 6674.36 254.228   2
   5   3  -1 7495.25 547.732   5
   5   3   0 3800.34 420.585   5
  -5   3   0 4706.19 305.785   1
  -5   3   0 4650.59 232.012   2
  -5   3   0 5395.56 520.059   4
  -5   3  -1 21102.2 1019.55   4
  -5   3  -1 20079.3 555.069   2
   5   3   1 19160.9 891.770   5
  -5   3  -2 20138.9 1008.02   4
  -5   3  -2 19547.4 604.064   2
   5   3   2 19540.8 823.643   6
  -5   3  -3 5242.80 341.549   2
  -5   3  -3 4787.26 545.449   4
   5   3   3 4826.80 435.787   6
  -5   3  -4 7075.88 640.074   4
  -5   3  -4 6834.09 416.017   2
   5   3   4 5706.01 481.841   6
  -5   3  -5 15450.8 944.382   4
  -5   3  -5 15861.3 677.683   2
   5   3   5 16335.0 785.251   6
  -5   3  -6 23669.2 1200.04   4
  -5   3  -6 24134.1 900.867   2
   5   3   6 22576.2 956.640   6
  -5   3  -7 3859.64 549.869   4
  -5   3  -7 2859.85 363.844   2
  -5   3  -8 10162.2 845.556   4
  -5   3  -8 7170.67 561.438   2
  -5   3  -9 10701.2 888.172   4
  -5   3  -9 11705.8 747.760   2
  -5   3 -10 6301.13 613.206   2
  -5   3 -10 5923.15 709.203   4
  -5   3 -11 54.0333 390.927   4
  -5   3 -11 1167.17 392.289   2
  -5   3 -12 4263.77 679.672   4
  -5   3 -12 4548.84 596.940   2
  -5   3 -13 2504.94 565.199   4
  -5   3 -13 3303.38 586.528   2
   5   4 -15 1615.01 450.273   5
   5   4 -14 1123.69 379.346   5
   5   4 -13 1966.44 409.936   5
   5   4 -13 2893.23 454.400   4
   5   4 -12 3812.07 510.799   5
   5   4 -12 3642.12 495.335   4
   5   4 -11 4486.62 512.955   5
   5   4 -11 4224.04 526.445   4
   5   4 -10 392.105 283.644   5
   5   4 -10 948.282 327.728   4
   5   4  -9 5191.31 519.801   5
   5   4  -9 6211.18 585.095   4
   5   4  -8 23078.5 1059.84   4
  -5   4   8 21522.6 678.361   4
   5   4  -8 24326.8 1037.57   5
  -5   4   7 12518.6 567.157   4
  -5   4   7 10958.7 334.871   1
   5   4  -7 11537.3 728.380   5
   5   4  -6 614.434 278.250   5
  -5   4   6 493.788 180.649   4
  -5   4   6 571.269 82.3499   1
   5   4  -5 13594.7 779.011   4
  -5   4   5 12448.3 322.333   1
  -5   4   5 13734.4 683.752   4
  -5   4   5 13696.5 413.192   6
   5   4  -5 13242.7 760.550   5
  -5   4   4 51797.8 856.473   1
  -5   4   4 51645.3 1458.29   4
  -5   4   4 51625.1 969.435   6
   5   4  -4 52786.5 1572.11   5
   5   4  -3 2683.50 383.004   5
  -5   4   3 2793.72 370.164   4
   5   4  -2 909.002 278.789   5
  -5   4   2 558.824 248.268   4
  -5   4   1 28020.6 1165.77   4
   5   4  -1 27375.2 1105.84   5
  -5   4   0 30296.6 1268.31   4
   5   4   0 31266.0 1208.33   5
  -5   4  -1 9505.78 759.561   4
  -5   4  -1 8473.19 310.303   2
   5   4   1 8259.53 635.434   5
  -5   4  -2 8781.07 746.175   4
  -5   4  -2 9624.98 405.805   2
   5   4   2 8668.09 664.481   5
  -5   4  -3 24938.0 1259.38   4
  -5   4  -3 25416.9 766.663   2
   5   4   3 24487.4 1028.62   6
   5   4   3 23182.1 1089.78   5
  -5   4  -4 19073.5 1117.09   4
  -5   4  -4 19879.9 738.449   2
   5   4   4 18617.1 911.487   6
   5   4   4 17545.8 968.455   5
  -5   4  -5 1005.47 378.315   4
   5   4   5 1427.74 345.130   6
  -5   4  -5 942.358 234.106   2
  -5   4  -6 6446.30 493.120   2
  -5   4  -6 6866.27 728.493   4
   5   4   6 6780.47 592.799   6
  -5   4  -7 7817.48 567.743   2
  -5   4  -7 8257.74 830.466   4
   5   4   7 8703.08 668.839   6
  -5   4  -8 3405.62 608.022   4
  -5   4  -8 2622.62 397.205   2
  -5   4  -9 470.064 411.839   4
  -5   4  -9 197.040 299.452   2
  -5   4 -10 3135.67 637.158   4
  -5   4 -10 3252.62 477.301   2
  -5   4 -11 2480.05 616.041   4
  -5   4 -11 2073.28 453.645   2
  -5   4 -12 573.973 458.921   4
  -5   4 -12 134.209 334.497   2
   5   5 -14 4165.84 580.791   4
   5   5 -13 2581.94 488.422   5
   5   5 -13 2497.36 476.918   4
   5   5 -12 560.937 346.165   5
   5   5 -12 1077.25 393.733   4
   5   5 -11 4599.89 552.859   5
   5   5 -11 3943.51 556.995   4
   5   5 -10 12069.1 881.559   4
   5   5 -10 11312.2 795.753   5
   5   5  -9 2226.55 427.790   5
   5   5  -9 1853.85 408.110   4
   5   5  -8 1115.60 344.062   5
   5   5  -8 1194.20 390.476   4
   5   5  -7 11136.4 812.793   4
  -5   5   7 11332.8 609.612   4
   5   5  -7 10245.0 730.487   5
   5   5  -6 14412.7 901.691   4
  -5   5   6 15112.3 752.539   4
  -5   5   6 14446.0 533.284   6
   5   5  -6 14065.8 835.674   5
   5   5  -5 4393.95 510.530   5
   5   5  -5 4024.72 512.700   4
  -5   5   5 4509.27 455.354   4
  -5   5   5 3435.31 272.031   6
   5   5  -4 857.640 307.697   5
   5   5  -4 778.342 340.170   4
  -5   5   4 753.708 266.297   4
  -5   5   3 14692.6 843.791   4
   5   5  -3 13275.8 826.654   5
  -5   5   2 20420.9 1031.57   4
   5   5  -2 20873.3 1022.71   5
   5   5  -1 3784.23 472.943   5
  -5   5   1 4215.10 532.776   4
   5   5   0 3363.38 458.293   5
  -5   5   0 2651.80 454.615   4
  -5   5  -1 15229.5 988.588   4
   5   5   1 15077.3 894.850   5
  -5   5  -2 12601.1 948.151   4
   5   5   2 12559.1 843.471   5
   5   5   3 958.173 338.115   5
  -5   5  -3 1264.51 400.613   4
   5   5   3 1288.75 360.889   6
   5   5   4 3074.21 499.736   5
  -5   5  -4 3106.93 609.009   4
   5   5   4 2102.62 385.096   6
   5   5   5 7641.37 720.479   5
  -5   5  -5 6709.01 763.120   4
   5   5   5 7293.00 657.999   6
   5   5   6 3739.92 565.404   5
  -5   5  -6 2840.29 623.440   4
   5   5   6 3033.87 471.931   6
  -5   5  -7 905.087 476.378   4
   5   5   7 682.262 326.100   6
  -5   5  -8 3293.50 631.159   4
   5   5   8 4122.85 555.724   6
  -5   5  -9 2216.86 580.946   4
  -5   5 -10 2734.37 638.513   4
   5   6 -13 1159.23 425.005   4
   5   6 -12 3634.54 532.478   5
   5   6 -12 2942.76 576.382   4
   5   6 -11 4457.46 570.413   5
   5   6 -11 4043.69 621.329   4
   5   6 -10 343.800 331.912   5
   5   6 -10 797.247 366.268   4
   5   6  -9 5263.61 599.309   5
   5   6  -9 4922.40 649.237   4
   5   6  -8 7616.00 764.301   4
   5   6  -8 8549.52 712.526   5
   5   6  -7 2511.97 436.858   5
   5   6  -7 3303.89 510.313   4
   5   6  -6-242.415 334.984   5
   5   6  -6-179.550 307.705   4
  -5   6   6 311.759 225.195   4
   5   6  -5 5280.61 583.331   5
   5   6  -5 4227.34 595.453   4
  -5   6   5 4982.24 532.961   4
  -5   6   4 6730.10 630.210   4
   5   6  -4 6521.76 663.675   4
   5   6  -4 6774.79 635.846   5
   5   6  -3 1700.97 400.055   5
   5   6  -3 2170.94 472.308   4
  -5   6   3 1610.83 405.303   4
   5   6  -2 923.896 357.814   5
  -5   6   2 869.943 356.064   4
   5   6  -1 3899.56 523.316   5
  -5   6   1 4364.82 593.242   4
  -5   6   0 9863.05 855.174   4
   5   6   0 9462.97 759.507   5
   5   6   1 1823.19 419.829   5
  -5   6  -1 873.980 408.163   4
   5   6   2 1448.28 384.288   5
  -5   6  -2 1681.67 503.656   4
   5   6   3 6272.51 665.314   5
  -5   6  -3 5255.43 718.621   4
   5   6   3 5370.85 617.071   6
  -5   6  -4 7099.12 856.372   4
   5   6   4 7338.31 717.713   6
   5   6   4 8346.98 782.032   5
   5   6   5 118.999 325.984   5
  -5   6  -5 78.3318 483.853   4
   5   6   5 435.617 357.498   6
   5   6   6 3933.10 604.542   5
  -5   6  -6 3255.50 674.347   4
   5   6   6 3048.32 531.737   6
   5   6   7 4630.85 641.403   5
   5   6   7 4557.47 619.533   6
  -5   6  -7 4992.95 798.576   4
   5   6   8 2297.26 531.048   5
  -5   6  -8 3523.69 729.094   4
   5   6   8 3077.31 572.867   6
   5   6   9 108.240 364.815   5
   5   7  -9 2241.78 468.183   5
   5   7  -9 2039.51 524.425   4
   5   7  -8 1078.54 386.232   5
   5   7  -8 1713.49 499.520   4
   5   7  -7 1909.22 447.441   5
   5   7  -7 1755.45 522.323   4
   5   7  -6 5129.65 584.920   5
   5   7  -6 5863.32 736.033   4
   5   7  -5 3548.05 507.994   5
   5   7  -5 4157.69 651.538   4
   5   7  -4 757.155 372.738   5
   5   7  -4 122.580 322.068   4
  -5   7   4 1017.21 348.132   4
   5   7  -3 4168.87 553.649   5
   5   7  -3 5122.53 688.098   4
  -5   7   3 4852.96 630.351   4
  -5   7   2 7811.12 795.807   4
   5   7  -2 8232.72 736.761   5
   5   7  -1 1600.78 427.935   5
  -5   7   1 1061.18 424.988   4
   5   7   0 2317.91 460.655   5
  -5   7   0 2638.49 582.101   4
   5   7   1 2617.01 491.778   5
  -5   7  -1 3467.41 674.256   4
   5   7   2 3160.03 524.586   5
  -5   7  -2 4695.09 726.318   4
   5   7   3 192.251 346.827   5
   5   7   3 192.768 378.537   6
   5   7   4 2691.08 523.523   5
  -5   7  -4 2678.49 677.411   4
   5   7   4 2280.07 515.811   6
   5   7   5 998.478 435.950   5
  -5   7  -5 1313.62 551.658   4
   5   7   5 1154.30 454.568   6
   5   7   6 1236.50 460.199   5
   5   7   7 82.9624 368.667   5
   5   8  -6 516.386 350.416   5
   5   8  -5 769.061 334.775   5
   5   8  -4 1696.77 426.954   5
   5   8  -3 295.598 307.300   5
  -5   8   3 540.479 409.036   4
   5   8  -2 301.815 329.956   5
  -5   8   2 140.854 370.694   4
   5   8  -1 1230.04 431.392   5
  -5   8   1 1657.03 531.428   4
   5   8   0 3647.31 553.636   5
  -5   8   0 4184.46 715.396   4
   5   8   1 2063.78 483.324   5
  -5   8  -1 3222.53 703.913   4
   5   8   2 632.707 387.223   5
   5   8   3 924.766 395.476   5
  -6  -7   9 3665.69 510.531   3
  -6  -7   8 2587.12 505.603   1
  -6  -7   8 4455.25 571.546   3
  -6  -7   7 985.926 384.244   1
  -6  -7   7 533.767 356.265   3
  -6  -7   6 2151.26 457.304   1
  -6  -7   6 1475.55 395.381   3
  -6  -7   5 2513.59 463.019   1
  -6  -7   5 2448.20 446.375   3
  -6  -7   4 3509.00 501.747   1
  -6  -7   4 3679.10 504.182   3
  -6  -7   3 770.070 341.971   1
  -6  -7   3 544.229 315.430   3
  -6  -7   2 897.523 322.741   1
  -6  -7   2 898.821 363.407   3
  -6  -7   1 2246.44 419.317   1
  -6  -7   1 3326.31 457.294   3
  -6  -7   0 5830.06 578.473   3
  -6  -7   0 4725.50 531.917   1
   6  -7   1-181.091 367.936   3
  -6  -7  -1 248.178 267.794   1
   6  -7   2 2049.82 419.797   3
  -6  -7  -2 2288.48 412.448   1
   6  -7   3 1010.69 377.132   3
  -6  -7  -3 1605.22 384.771   1
   6  -7   4 1563.30 492.248   3
  -6  -7  -4 1372.41 390.452   1
   6  -7   5 207.758 373.726   3
  -6  -6  10 5999.38 710.299   1
  -6  -6  10 5628.24 589.223   3
  -6  -6   9 109.102 327.196   3
  -6  -6   9 129.520 326.182   1
  -6  -6   8 243.935 348.085   1
  -6  -6   8 579.087 311.613   3
  -6  -6   7 7979.43 638.067   3
  -6  -6   7 7600.46 710.504   1
  -6  -6   6 5607.85 612.701   1
  -6  -6   6 4914.15 513.713   3
  -6  -6   5 1636.35 368.649   1
  -6  -6   5 2277.40 382.444   3
  -6  -6   4 3686.16 493.027   1
  -6  -6   4 3879.75 455.929   3
  -6  -6   3 10585.9 692.586   3
  -6  -6   3 10532.8 745.595   1
  -6  -6   2 7529.69 603.724   3
  -6  -6   2 8174.52 663.096   1
   6  -6  -2 8621.58 574.310   3
  -6  -6   1 1627.84 362.699   1
  -6  -6   1 1979.45 362.610   3
   6  -6  -1 1244.56 298.144   3
   6  -6   0 5182.51 515.202   3
  -6  -6   0 5271.00 534.449   1
  -6  -6   0 4568.66 485.872   3
  -6  -6  -1 7191.52 616.046   1
   6  -6   1 7090.81 608.937   3
   6  -6   2 3278.21 474.386   3
  -6  -6  -2 2302.13 395.387   1
   6  -6   3 325.296 322.826   3
  -6  -6  -3 121.684 267.417   1
   6  -6   4 4939.40 584.673   3
  -6  -6  -4 5013.14 539.465   1
   6  -6   5 2277.78 462.895   3
  -6  -6  -5 2412.64 429.736   1
   6  -6   6 724.173 393.733   3
  -6  -6  -6 1380.14 421.744   2
  -6  -6  -6 968.684 367.978   1
  -6  -6  -7 197.701 343.167   2
  -6  -6  -7 635.496 328.048   1
  -6  -5  12 4114.13 646.712   1
  -6  -5  11 1409.36 447.313   1
  -6  -5  11 1226.45 337.954   3
  -6  -5  10-184.402 334.597   1
  -6  -5  10 83.0413 271.009   3
  -6  -5   9 2987.79 525.841   1
  -6  -5   9 3322.96 414.933   3
  -6  -5   8 6960.83 549.754   3
  -6  -5   8 7130.11 680.954   1
  -6  -5   7 2527.98 456.622   1
  -6  -5   7 1915.35 341.945   3
  -6  -5   6 403.714 281.834   1
  -6  -5   6 965.319 255.457   3
  -6  -5   5 8125.08 557.260   3
  -6  -5   5 8080.59 658.390   1
  -6  -5   4 10176.6 606.028   3
   6  -5  -4 10101.1 463.588   3
  -6  -5   4 10880.0 737.906   1
  -6  -5   3 74.7706 250.641   1
  -6  -5   3 176.394 236.630   3
   6  -5  -3 392.785 177.796   3
  -6  -5   2 4731.01 492.114   1
  -6  -5   2 5457.17 468.150   3
   6  -5  -2 5001.18 404.202   3
  -6  -5   1 12320.4 757.771   1
  -6  -5   1 13515.7 679.735   3
   6  -5  -1 12341.4 646.177   3
  -6  -5   0 7212.89 600.111   1
  -6  -5   0 7157.67 505.977   3
   6  -5   0 6453.77 495.648   3
   6  -5   1 142.831 236.589   3
  -6  -5  -1 377.225 264.949   1
  -6  -5  -2 9585.96 671.887   1
   6  -5   2 10925.6 677.069   3
  -6  -5  -3 9530.05 668.963   1
   6  -5   3 9499.18 662.072   3
   6  -5   4 3489.70 454.386   3
  -6  -5  -4 2747.47 438.991   1
   6  -5   5 960.749 355.692   3
  -6  -5  -5 853.227 314.335   1
   6  -5   6 5319.95 584.184   3
  -6  -5  -6 6568.95 595.742   1
  -6  -5  -6 7383.76 630.640   2
   6  -5   7 5284.65 626.353   3
  -6  -5  -7 4797.36 545.253   2
  -6  -5  -7 5620.37 574.358   1
   6  -5   8 896.306 404.032   3
  -6  -5  -8 595.009 364.410   2
  -6  -5  -8 507.403 325.584   1
  -6  -5  -9 1045.18 404.607   2
   6  -5   9 224.305 403.406   3
  -6  -4  14 6233.06 743.370   1
  -6  -4  13 3336.26 587.992   1
  -6  -4  12 649.003 369.243   1
  -6  -4  11 7761.21 734.309   1
  -6  -4  11 7330.84 546.832   3
  -6  -4  10 14674.2 950.476   1
  -6  -4  10 13310.5 694.170   3
  -6  -4   9 3824.95 522.712   1
  -6  -4   9 3487.09 385.934   3
  -6  -4   8 3122.90 471.438   1
  -6  -4   8 2770.68 328.327   3
  -6  -4   7 12100.8 616.585   3
  -6  -4   7 11438.5 779.219   1
  -6  -4   6 14051.4 654.991   3
  -6  -4   6 14817.4 863.563   1
  -6  -4   5 433.891 279.170   1
   6  -4  -5 137.549 91.5955   3
  -6  -4   5 60.1687 200.043   3
  -6  -4   4 12126.8 591.510   3
   6  -4  -4 12943.5 435.875   3
  -6  -4   4 13188.8 766.183   1
  -6  -4   3 12864.7 603.436   3
   6  -4  -3 13030.3 489.728   3
  -6  -4   3 13409.7 766.924   1
  -6  -4   2 13706.8 612.526   3
  -6  -4   2 11435.8 703.409   1
   6  -4  -2 13207.6 546.647   3
   6  -4  -1 1418.13 239.334   3
  -6  -4   1 869.482 281.366   1
  -6  -4   1 1128.30 241.142   3
  -6  -4   0 12117.3 717.113   1
   6  -4   0 12278.1 606.363   3
  -6  -4  -1 11578.9 700.838   1
   6  -4   1 11835.6 616.466   3
  -6  -4  -2 8028.85 606.583   1
   6  -4   2 7088.69 505.357   3
   6  -4   3 749.663 248.163   3
  -6  -4  -3 1016.63 315.277   1
   6  -4   4 4658.53 458.858   3
  -6  -4  -4 5868.20 540.432   1
  -6  -4  -5 9332.86 660.351   1
   6  -4   5 10156.1 668.790   3
   6  -4   6 1285.83 352.028   3
  -6  -4  -6 1661.59 361.245   2
  -6  -4  -6 1336.33 330.793   1
   6  -4   7 1098.07 337.999   3
  -6  -4  -7 1470.10 375.788   2
  -6  -4  -7 864.981 326.199   1
   6  -4   8 7798.41 709.277   3
  -6  -4  -8 7828.26 675.251   1
  -6  -4  -8 8886.55 723.550   2
  -6  -4  -9 4004.59 534.884   2
   6  -4   9 4520.81 629.913   3
  -6  -4 -10 1114.22 400.708   2
   6  -4  10 2018.76 540.753   3
  -6  -3  15 1821.42 480.862   1
  -6  -3  14 310.043 331.293   1
  -6  -3  13 7967.24 746.123   1
  -6  -3  12 8133.37 731.325   1
  -6  -3  11 3502.08 518.339   1
  -6  -3  11 3181.24 321.939   3
  -6  -3  10 4124.19 525.714   1
  -6  -3  10 3506.42 326.896   3
  -6  -3   9 5336.28 566.758   1
  -6  -3   9 6084.73 403.693   3
  -6  -3   8 17070.7 917.340   1
  -6  -3   8 17488.8 651.923   3
   6  -3  -7 4227.25 270.898   5
  -6  -3   7 3998.04 475.450   1
  -6  -3   7 3975.48 314.485   3
  -6  -3   6 6633.39 381.908   3
  -6  -3   6 6746.09 566.998   1
   6  -3  -6 7492.20 329.204   5
  -6  -3   5 13877.4 543.426   3
  -6  -3   5 15073.3 805.876   1
   6  -3  -5 14090.8 427.109   5
  -6  -3   4 36381.0 918.748   3
   6  -3  -4 34544.8 615.840   3
  -6  -3   4 36444.7 1241.96   1
   6  -3  -4 37629.6 734.220   5
   6  -3  -3 694.838 104.501   5
  -6  -3   3 346.078 236.283   1
  -6  -3   3 769.190 178.228   3
   6  -3  -3 441.848 101.438   3
  -6  -3   2 12122.1 492.427   3
  -6  -3   2 11684.6 670.833   1
   6  -3  -2 12166.4 444.035   3
   6  -3  -2 10567.5 370.695   5
  -6  -3   1 26796.5 1023.35   1
   6  -3  -1 30199.6 805.095   3
   6  -3  -1 28750.1 718.896   5
  -6  -3   0 35365.1 1179.76   1
   6  -3   0 33495.0 914.838   3
   6  -3   0 33010.0 851.448   5
  -6  -3  -1 621.031 262.541   1
   6  -3   1 569.778 164.171   5
   6  -3   1 625.001 197.951   3
  -6  -3  -2 13619.4 735.269   1
   6  -3   2 12778.0 582.351   3
  -6  -3  -3 21978.7 939.027   1
   6  -3   3 20132.5 773.689   3
  -6  -3  -4 11623.4 705.091   1
   6  -3   4 12324.0 633.622   3
   6  -3   5 1968.58 330.817   3
  -6  -3  -5 1313.71 331.194   1
  -6  -3  -6 11732.3 742.086   1
  -6  -3  -6 12289.8 716.648   2
   6  -3   6 12586.1 719.607   3
  -6  -3  -7 6484.43 588.807   1
  -6  -3  -7 8071.47 625.922   2
   6  -3   7 7488.05 610.967   3
  -6  -3  -8-219.174 293.683   2
   6  -3   8 491.010 345.883   3
  -6  -3  -8 22.0502 275.483   1
  -6  -3  -9 1587.71 410.090   2
   6  -3   9 2668.75 498.654   3
  -6  -3 -10 3901.60 534.993   2
   6  -3  10 4921.18 618.837   3
  -6  -3 -11 1553.29 408.901   2
   6  -3  11 2628.82 525.714   3
  -6  -2  16 137.701 353.522   1
  -6  -2  15 6006.78 689.262   1
  -6  -2  14 3550.46 522.218   1
  -6  -2  13 3297.77 500.987   1
  -6  -2  12 455.194 328.643   1
   6  -2 -12 853.322 281.587   5
   6  -2 -11 8357.17 526.921   5
  -6  -2  11 7365.78 651.245   1
   6  -2 -10 22079.1 806.279   5
  -6  -2  10 21005.0 1029.30   1
  -6  -2  10 21000.3 654.546   3
  -6  -2   9 3105.16 440.908   1
  -6  -2   9 3491.26 257.317   3
   6  -2  -9 3893.12 339.485   5
  -6  -2   8 6482.22 557.797   1
  -6  -2   8 5937.39 315.726   3
   6  -2  -8 6330.65 393.757   5
  -6  -2   7 20303.0 571.790   3
   6  -2  -7 20618.9 683.356   5
  -6  -2   7 21548.4 957.119   1
  -6  -2   6 25586.2 635.563   3
  -6  -2   6 25651.4 1024.53   1
  -6  -2   5 2275.92 327.113   1
  -6  -2   5 2271.13 185.693   3
  -6  -2   4 22492.9 579.418   3
  -6  -2   4 21993.4 909.268   1
   6  -2  -3 19832.2 362.991   3
  -6  -2   3 24962.1 940.849   1
  -6  -2   2 61611.0 1602.92   1
   6  -2  -2 66736.3 1103.53   3
  -6  -2   1 3147.80 362.901   1
   6  -2  -1 3283.61 229.316   3
  -6  -2   0 16673.6 764.537   1
   6  -2   0 15749.8 526.888   3
  -6  -2  -1 31275.7 1072.04   1
   6  -2   1 30886.7 805.369   3
  -6  -2  -2 18440.3 824.122   1
  -6  -2  -3 12.1040 202.823   1
  -6  -2  -4 9921.30 630.183   1
  -6  -2  -5 8317.34 602.176   1
  -6  -2  -5 10202.4 621.084   2
  -6  -2  -6 5037.76 500.111   1
  -6  -2  -6 6086.97 503.013   2
  -6  -2  -7 858.771 308.279   2
  -6  -2  -7 1000.40 311.982   1
  -6  -2  -8 9425.97 678.545   2
  -6  -2  -9 9088.06 706.001   2
  -6  -2 -10 564.840 367.492   2
  -6  -2 -11 1586.76 428.544   2
  -6  -2 -12 9298.48 826.945   2
  -6  -1  16 6426.55 689.273   1
  -6  -1  15 3038.38 513.922   1
   6  -1 -14 496.401 258.419   5
  -6  -1  14 357.553 309.921   1
   6  -1 -13 5919.60 519.828   5
  -6  -1  13 6239.03 624.765   1
   6  -1 -12 27634.3 1029.05   5
  -6  -1  12 25311.2 1146.74   1
   6  -1 -11 2198.03 327.026   5
  -6  -1  11 2866.86 406.718   1
   6  -1 -10 632.253 236.312   5
  -6  -1  10 679.745 275.000   1
  -6  -1   9 16488.3 835.699   1
  -6  -1   9 16035.0 389.064   3
   6  -1  -9 16171.6 692.855   5
  -6  -1   8 33465.3 1176.81   1
  -6  -1   8 30631.1 539.725   3
   6  -1  -8 31894.7 962.283   5
  -6  -1   7 4199.93 435.534   1
  -6  -1   7 3988.02 139.612   3
   6  -1  -7 3730.25 336.085   5
  -6  -1   6 4975.35 461.062   1
   6  -1  -6 5214.30 371.064   5
  -6  -1   5 61554.4 1582.73   1
   6  -1  -5 62972.9 1396.84   5
  -6  -1   4 30821.7 1040.34   1
   6  -1  -4 32800.0 951.688   5
   6  -1  -3 1889.10 243.408   5
  -6  -1   3 1742.02 288.908   1
   6  -1  -2 36473.6 633.135   3
  -6  -1   2 36537.7 1120.94   1
   6  -1  -2 37873.7 661.923   3
   6  -1  -2 38514.1 1052.42   5
  -6  -1   1 34563.8 1087.13   1
   6  -1  -1 36443.1 1034.74   5
  -6  -1   0 11355.3 612.219   1
   6  -1   0 11614.8 569.309   5
   6  -1   1 304.772 181.127   5
  -6  -1  -1 161.746 186.328   1
  -6  -1  -2 14993.2 723.638   1
  -6  -1  -3 18830.1 820.097   1
  -6  -1  -4 9733.99 614.436   1
  -6  -1  -5 241.351 224.006   2
  -6  -1  -5 412.358 253.696   1
  -6  -1  -6 17904.8 883.736   1
  -6  -1  -6 20542.5 872.055   2
  -6  -1  -7 9524.25 678.619   1
  -6  -1  -7 10111.7 659.149   2
  -6  -1  -8 3312.22 451.895   2
  -6  -1  -9 1289.62 368.800   2
  -6  -1 -10 8815.19 724.233   2
  -6  -1 -11 5345.44 633.895   2
  -6  -1 -12 2227.53 472.919   2
  -6   0  17 851.127 363.809   1
   6   0 -16-34.2584 307.868   5
  -6   0  16 471.332 343.606   1
   6   0 -15 6334.23 603.222   5
  -6   0  15 5489.36 599.626   1
   6   0 -14 13998.2 819.645   5
  -6   0  14 13305.6 864.132   1
   6   0 -13 3354.06 444.757   5
  -6   0  13 3888.84 477.313   1
  -6   0  12 629.689 287.397   1
   6   0 -12 987.368 301.154   5
  -6   0  11 16955.2 868.460   1
   6   0 -11 17333.0 804.895   5
  -6   0  10 19020.7 899.240   1
   6   0 -10 20853.4 861.186   5
   6   0  -9 3873.55 402.111   5
  -6   0   9 4437.72 449.016   1
   6   0  -8 2934.57 354.072   5
  -6   0   8 2992.31 370.215   1
   6   0  -7 8758.53 527.856   5
  -6   0   7 8520.35 549.955   1
  -6   0   6 15050.5 711.798   1
   6   0  -6 15486.6 686.933   5
   6   0  -5 198.625 207.690   5
  -6   0   5 20.4017 186.450   1
   6   0  -4 21.3129 173.809   5
  -6   0   4 208.635 179.293   1
  -6   0   3 32910.3 999.318   1
   6   0  -3 33772.9 1026.74   5
  -6   0   2 30299.1 974.528   1
   6   0  -2 31257.6 633.790   3
   6   0  -2 31478.8 1000.44   5
  -6   0   1 14260.3 657.102   1
   6   0  -1 15121.0 446.100   3
   6   0  -1 15201.8 680.004   5
  -6   0   0 38993.4 1123.52   1
   6   0   0 38979.0 835.764   3
   6   0   0 37714.4 1134.01   5
  -6   0  -1 50559.6 1323.32   1
   6   0   1 51855.7 1374.06   5
  -6   0  -2 34068.9 1072.73   1
  -6   0  -3 2685.77 339.973   1
  -6   0  -4 36490.3 1182.52   1
  -6   0  -4 37854.0 1100.04   2
  -6   0  -5 24661.6 988.356   1
  -6   0  -5 23738.0 889.780   2
  -6   0  -6 1995.78 320.916   2
  -6   0  -6 2156.49 363.393   1
  -6   0  -7 3449.54 394.519   2
  -6   0  -8 15740.7 825.851   2
  -6   0  -9 9128.88 688.142   2
  -6   0 -10 1359.17 376.960   2
  -6   0 -11 654.395 369.154   2
  -6   0 -12 4908.95 615.895   2
  -6   0 -13 2437.37 549.435   4
  -6   1  17 826.329 356.749   1
   6   1 -16 4308.27 574.041   5
  -6   1  16 4508.94 565.267   1
   6   1 -15 3055.41 486.183   5
  -6   1  15 2859.54 483.792   1
   6   1 -14 387.051 318.003   5
  -6   1  14 493.078 296.242   1
  -6   1  13 4085.63 480.172   1
   6   1 -13 3888.00 479.258   5
  -6   1  12 24923.6 1042.04   1
   6   1 -12 24419.5 1039.21   5
   6   1 -11 1536.47 326.376   5
  -6   1  11 1057.59 293.819   1
   6   1 -10 191.491 241.401   5
  -6   1  10 469.419 239.719   1
  -6   1   9 15591.4 741.715   1
   6   1  -9 15729.7 775.041   5
   6   1  -8 32257.1 1099.56   5
  -6   1   8 32018.8 1052.65   1
  -6   1   7 5186.25 358.470   4
  -6   1   7 5679.68 433.200   1
   6   1  -7 4865.09 439.149   5
  -6   1   6 5127.68 398.530   1
   6   1  -6 5810.66 461.992   5
  -6   1   5 66262.0 1498.81   1
   6   1  -5 65774.5 1634.73   5
  -6   1   4 36085.0 1028.61   1
   6   1  -4 34903.9 687.912   3
   6   1  -4 34567.9 1130.38   5
   6   1  -3 2498.02 313.782   5
  -6   1   3 2538.34 279.918   1
   6   1  -3 2396.77 181.078   3
  -6   1   2 41048.2 1096.04   1
   6   1  -2 39332.5 861.892   3
   6   1  -2 39823.8 882.702   6
   6   1  -2 39060.4 1195.49   5
  -6   1   1 34280.4 996.469   1
   6   1  -1 34598.5 826.293   3
   6   1  -1 33760.6 816.017   6
   6   1  -1 32720.3 1096.95   5
  -6   1   0 13923.4 618.466   1
   6   1   0 14505.2 517.995   6
   6   1   0 14316.8 716.912   5
   6   1   1-104.608 221.557   5
  -6   1  -1 345.206 182.710   1
  -6   1  -2 13961.3 658.319   1
  -6   1  -3 16650.7 745.949   1
  -6   1  -3 17522.9 675.988   2
  -6   1  -4 11987.0 649.680   1
  -6   1  -4 11858.0 579.407   2
  -6   1  -5 224.364 198.864   2
  -6   1  -5 647.375 257.693   1
  -6   1  -6 19392.1 825.156   2
  -6   1  -7 11026.6 660.271   2
  -6   1  -8 3787.78 457.746   2
  -6   1  -9 1575.47 366.469   2
  -6   1 -10 8813.17 703.548   2
  -6   1 -11 4936.08 649.051   4
  -6   1 -11 4799.82 584.576   2
  -6   1 -12 1216.61 470.644   4
  -6   1 -12 511.853 378.234   2
  -6   1 -13 1725.18 458.605   4
   6   2 -16 694.243 381.136   5
  -6   2  15 4700.92 534.214   1
   6   2 -15 5466.35 594.034   5
   6   2 -14 5528.03 588.062   5
  -6   2  14 4467.91 496.594   1
   6   2 -13 3753.89 501.490   5
  -6   2  13 3715.22 436.449   1
   6   2 -12 759.303 315.938   5
  -6   2  12 1106.06 285.085   1
  -6   2  11 8921.78 582.436   1
   6   2 -11 8759.29 654.433   5
  -6   2  10 23408.9 902.655   1
   6   2 -10 22830.7 1002.33   5
  -6   2   9 2425.31 308.146   1
   6   2  -9 3086.49 419.827   5
  -6   2   9 2713.17 224.487   4
  -6   2   8 7587.87 399.512   4
  -6   2   8 7110.30 461.919   1
   6   2  -8 7499.76 574.065   5
  -6   2   7 21603.3 778.511   1
   6   2  -7 21571.4 935.011   5
  -6   2   6 26858.3 843.460   1
   6   2  -6 26096.0 655.341   3
   6   2  -6 26215.3 1028.29   5
   6   2  -5 1181.01 281.808   5
   6   2  -5 1364.33 163.986   3
  -6   2   5 1457.06 229.110   1
  -6   2   5 1254.48 199.759   2
  -6   2   4 19352.4 693.683   2
  -6   2   4 19997.2 699.361   1
   6   2  -4 18635.3 589.518   3
   6   2  -4 20247.3 892.710   5
  -6   2   3 24996.2 799.541   2
  -6   2   3 24599.7 773.142   1
   6   2  -3 23991.7 971.509   5
  -6   2   2 59324.2 1328.96   1
   6   2  -2 61943.0 1635.17   5
   6   2  -1 3205.98 391.922   5
  -6   2   1 2695.75 273.819   1
   6   2  -1 2882.34 293.284   6
  -6   2   0 16335.5 650.825   1
   6   2   0 16669.3 662.555   6
   6   2   0 15775.2 806.175   5
  -6   2  -1 31298.3 955.946   1
  -6   2  -1 32403.9 832.085   2
   6   2   1 31910.9 959.176   6
  -6   2  -1 29812.2 724.850   6
   6   2   1 31256.7 1165.98   5
  -6   2  -2 18158.8 737.620   1
  -6   2  -2 18438.7 645.141   2
   6   2   2 18802.2 736.131   6
  -6   2  -2 17206.8 586.643   6
   6   2   2 18818.3 910.204   5
  -6   2  -3 116.055 156.818   2
  -6   2  -3 27.3907 187.904   1
   6   2   3 171.066 192.467   6
  -6   2  -4 12460.3 585.663   2
  -6   2  -5 6493.52 448.057   2
  -6   2  -6 6217.01 482.107   2
  -6   2  -7 963.665 283.426   2
  -6   2  -8 8020.06 743.625   4
  -6   2  -8 6462.09 554.636   2
  -6   2  -9 9287.60 829.070   4
  -6   2  -9 7851.46 641.972   2
  -6   2 -10 568.082 414.294   4
  -6   2 -10 566.838 326.558   2
  -6   2 -11 1234.72 469.250   4
  -6   2 -11 922.121 374.518   2
  -6   2 -12 4705.10 708.843   4
  -6   2 -12 4835.23 638.503   2
   6   3 -15 1621.88 413.949   5
   6   3 -14 9.32602 329.720   5
   6   3 -13 8059.34 696.458   5
   6   3 -12 8497.01 690.897   5
  -6   3  11 2662.01 324.771   1
   6   3 -11 3298.51 471.332   5
   6   3 -10 3980.53 489.183   5
  -6   3  10 3579.90 346.100   1
  -6   3   9 6234.18 414.235   1
   6   3  -9 7004.82 600.540   5
  -6   3   8 15931.0 616.410   4
  -6   3   8 15219.6 609.589   1
   6   3  -8 14955.6 828.295   5
   6   3  -7 4638.93 476.586   5
  -6   3   7 5253.78 384.996   4
  -6   3   7 5179.78 349.384   1
  -6   3   6 6884.61 473.089   4
  -6   3   6 7004.34 385.795   1
   6   3  -6 7124.52 589.945   5
  -6   3   5 13843.3 696.062   4
  -6   3   5 13989.0 529.772   1
   6   3  -5 13473.7 782.163   5
  -6   3   4 35082.4 822.271   2
  -6   3   4 35481.2 1201.86   4
  -6   3   4 36610.4 898.826   1
   6   3  -4 35960.6 1284.54   5
   6   3  -3 996.551 283.524   5
  -6   3   3 954.843 294.001   4
  -6   3   3 669.751 125.834   2
  -6   3   3 736.560 153.677   1
  -6   3   2 10996.3 444.173   2
  -6   3   2 11205.0 479.651   1
  -6   3   2 12277.7 770.220   4
   6   3  -2 11021.7 716.798   5
  -6   3   1 22335.1 719.271   1
  -6   3   1 25527.5 1162.91   4
  -6   3   1 23769.5 588.789   2
  -6   3   1 21250.3 438.936   6
   6   3  -1 24067.5 1033.98   5
  -6   3   0 30040.7 883.020   1
  -6   3   0 29244.9 1306.05   4
  -6   3   0 29886.7 728.340   2
   6   3   0 27869.7 1159.89   5
   6   3   1 324.207 254.741   5
  -6   3  -1 322.676 132.619   2
  -6   3  -1 652.251 191.695   1
  -6   3  -1 662.653 326.496   4
   6   3   1 324.222 197.335   6
  -6   3  -2 13687.3 895.011   4
  -6   3  -2 12471.5 506.891   2
   6   3   2 11313.1 645.089   6
   6   3   2 13277.7 817.518   5
  -6   3  -3 26393.5 1253.69   4
  -6   3  -3 23915.6 777.823   2
   6   3   3 24976.6 967.985   6
   6   3   3 23289.9 1099.26   5
  -6   3  -4 11807.6 881.410   4
  -6   3  -4 12732.2 592.869   2
   6   3   4 12551.6 701.922   6
  -6   3  -5 2664.29 521.875   4
   6   3   5 1929.20 356.003   6
  -6   3  -5 1695.53 284.946   2
  -6   3  -6 16587.7 1061.69   4
  -6   3  -6 14177.4 719.379   2
  -6   3  -7 9954.26 870.083   4
  -6   3  -7 10069.8 658.256   2
  -6   3  -8 412.617 390.478   4
  -6   3  -8 259.095 260.809   2
  -6   3  -9 1644.35 520.020   4
  -6   3  -9 1052.76 353.735   2
  -6   3 -10 4933.10 691.301   4
  -6   3 -10 4738.94 551.630   2
  -6   3 -11 1450.65 518.585   4
  -6   3 -11 1658.43 413.401   2
  -6   3 -12 297.545 362.818   2
   6   4 -14 6507.80 683.616   5
   6   4 -13 2228.14 455.748   5
   6   4 -12 1207.92 377.581   5
   6   4 -11 6602.87 636.291   5
   6   4 -10 14009.1 867.464   5
   6   4  -9 3811.09 508.377   5
   6   4  -8 2152.10 404.421   5
  -6   4   7 10909.1 591.603   4
   6   4  -7 11412.8 767.611   5
  -6   4   6 14938.9 739.853   4
   6   4  -6 14843.8 872.065   5
   6   4  -5 810.538 343.661   5
  -6   4   5 594.225 227.742   4
  -6   4   5 534.371 111.929   1
  -6   4   4 11603.0 404.353   1
  -6   4   4 12411.3 740.059   4
   6   4  -4 10574.3 738.292   5
  -6   4   3 15173.6 490.796   1
  -6   4   3 15068.2 859.199   4
   6   4  -3 13937.4 845.458   5
  -6   4   2 13065.5 839.682   4
   6   4  -2 11993.3 782.818   5
   6   4  -1 1167.37 338.939   5
  -6   4   1 1733.75 390.548   4
  -6   4   0 11558.3 861.258   4
   6   4   0 12414.2 821.907   5
  -6   4  -1 15571.8 1044.92   4
   6   4   1 14110.2 794.273   6
   6   4   1 14275.5 897.036   5
   6   4   2 6063.94 618.631   5
  -6   4  -2 6123.11 363.612   2
  -6   4  -2 5980.69 704.305   4
   6   4   2 5057.87 498.967   6
   6   4   3 1013.47 321.742   5
  -6   4  -3 945.448 444.160   4
   6   4   3 1346.17 321.891   6
  -6   4  -3 822.449 195.353   2
   6   4   4 6949.28 692.645   5
  -6   4  -4 6505.04 445.743   2
  -6   4  -4 7151.64 771.489   4
   6   4   4 6912.65 593.915   6
  -6   4  -5 10993.8 930.766   4
  -6   4  -5 10090.3 584.159   2
   6   4   5 9615.86 699.085   6
   6   4   5 10019.2 817.350   5
  -6   4  -6 1135.44 481.480   4
   6   4   6 1124.66 341.918   6
  -6   4  -6 1566.22 301.922   2
  -6   4  -7 1286.97 503.700   4
  -6   4  -7 1048.40 304.553   2
  -6   4  -8 9148.83 919.600   4
  -6   4  -8 7904.30 643.860   2
  -6   4  -9 4106.14 704.484   4
  -6   4 -10 595.103 455.613   4
   6   5 -12 4129.35 569.213   5
   6   5 -11 1268.49 411.717   5
   6   5 -10 34.0610 306.678   5
   6   5  -9 4093.38 560.254   5
   6   5  -8 6885.22 666.551   5
   6   5  -7 2238.21 431.331   5
   6   5  -6 1560.14 404.340   5
  -6   5   6 1584.16 331.268   4
  -6   5   5 8379.33 646.210   4
   6   5  -5 9160.12 748.784   5
  -6   5   4 12064.1 794.237   4
   6   5  -4 11837.9 833.382   5
   6   5  -3 147.811 321.827   5
  -6   5   3 497.652 336.275   4
   6   5  -2 5535.81 599.770   5
  -6   5   2 5439.31 599.276   4
  -6   5   1 11560.8 867.546   4
   6   5  -1 10480.8 806.924   5
   6   5   0 6264.21 659.031   5
  -6   5   0 6595.64 725.916   4
   6   5   1-291.100 327.083   5
  -6   5  -1-22.4794 366.935   4
  -6   5  -2 9392.42 911.980   4
   6   5   2 7175.90 659.967   6
   6   5   2 8682.00 774.021   5
  -6   5  -3 9390.13 936.725   4
   6   5   3 7498.10 668.616   6
   6   5   3 8930.48 797.066   5
   6   5   4 4289.79 617.435   5
  -6   5  -4 3618.51 662.187   4
   6   5   4 2978.85 478.981   6
   6   5   5 735.325 391.997   5
  -6   5  -5-311.472 457.150   4
   6   5   5 387.569 326.146   6
   6   5   6 6437.74 722.680   5
  -6   5  -6 6103.24 808.790   4
   6   5   6 6732.29 655.756   6
   6   5   7 5051.43 683.048   5
  -6   5  -7 6005.91 818.564   4
   6   5   7 7066.84 703.684   6
  -6   5  -8 915.510 508.044   4
   6   6 -12 930.229 445.468   4
   6   6 -11 1752.09 461.034   4
   6   6 -10 5579.74 647.109   5
   6   6 -10 5820.11 728.642   4
   6   6  -9-28.5806 352.699   5
   6   6  -9 408.586 366.743   4
   6   6  -8 478.855 357.619   5
   6   6  -7 7817.49 725.886   5
   6   6  -6 6417.97 671.572   5
   6   6  -5 3070.97 512.990   5
  -6   6   5 1804.26 363.978   4
   6   6  -4 2974.98 512.787   5
  -6   6   4 3979.76 528.968   4
  -6   6   3 9581.91 806.377   4
   6   6  -3 9564.41 796.794   5
  -6   6   2 10762.8 872.374   4
   6   6  -2 10091.6 799.149   5
   6   6  -1 1464.98 391.745   5
  -6   6   1 2598.20 531.291   4
   6   6   0 4898.87 632.743   5
  -6   6   0 4642.45 677.485   4
   6   6   1 6954.93 714.265   5
  -6   6  -1 7645.53 818.399   4
   6   6   2 4316.68 580.560   5
  -6   6  -2 4559.53 736.042   4
   6   6   2 3392.82 525.775   6
   6   6   3-155.170 341.787   5
  -6   6  -3-361.630 451.625   4
   6   6   3 171.653 297.858   6
  -6   6  -4 5938.63 845.430   4
   6   6   4 4585.41 611.405   6
   6   6   5 2579.51 553.971   5
  -6   6  -5 2888.99 667.795   4
   6   6   5 2686.05 517.268   6
   6   6   6 778.897 403.498   5
  -6   6  -6 746.897 552.632   4
   6   6   6 386.633 337.472   6
   6   6   7-113.091 368.907   5
   6   7  -7 602.328 372.343   5
   6   7  -6 1969.47 483.205   5
   6   7  -5 2598.67 519.398   5
   6   7  -4 4428.42 600.188   5
   6   7  -3 656.488 340.610   5
  -6   7   3 466.641 390.572   4
   6   7  -2 1675.79 464.124   5
  -6   7   2 1246.68 461.966   4
   6   7  -1 2381.80 514.751   5
  -6   7   1 3322.81 630.669   4
   6   7   0 3966.35 604.697   5
  -6   7   0 4518.87 715.709   4
   6   7   1-450.533 410.291   5
  -6   7  -1 48.3773 413.489   4
   6   7   2 1788.51 447.786   5
  -6   7  -2 2693.66 679.789   4
   6   7   2 3368.23 558.758   6
   6   7   3 1535.21 476.790   5
  -6   7  -3 555.939 505.542   4
   6   7   3 801.212 441.514   6
   6   7   4 2409.20 563.888   5
  -6   8   1 623.720 494.117   4
  -7  -7   6 707.216 351.603   3
  -7  -7   5 76.4524 331.500   1
  -7  -7   5-115.709 313.631   3
  -7  -7   4 1356.18 409.258   1
  -7  -7   4 2171.35 432.585   3
  -7  -7   3 986.837 374.815   1
  -7  -7   3 2169.13 433.729   3
  -7  -7   2 1159.11 389.671   1
  -7  -7   2 1221.40 367.644   3
  -7  -7   1 628.121 341.370   1
  -7  -7   1 1295.34 375.571   3
  -7  -7   0 3070.10 488.133   1
  -7  -7  -1 1987.72 424.358   1
  -7  -7  -2 849.942 364.128   1
  -7  -6   8 2473.54 538.396   1
  -7  -6   7 602.758 408.503   1
  -7  -6   7 591.282 280.152   3
  -7  -6   6 2489.44 480.405   1
  -7  -6   6 2013.07 379.207   3
  -7  -6   5 5866.73 647.029   1
  -7  -6   5 4866.31 507.053   3
  -7  -6   4 2745.89 503.551   1
  -7  -6   4 3211.27 431.556   3
  -7  -6   3-214.665 315.694   1
  -7  -6   3 735.388 316.738   3
  -7  -6   2 6490.45 645.980   1
  -7  -6   2 6308.30 551.509   3
  -7  -6   1 3849.85 508.791   1
  -7  -6   0 345.688 317.094   1
  -7  -6  -1 623.184 331.816   1
  -7  -6  -2 7349.24 664.822   1
  -7  -6  -3 2289.47 447.776   1
   7  -6   4 834.324 362.358   3
  -7  -6  -4 355.509 294.919   1
   7  -6   5 287.962 340.977   3
  -7  -6  -5 245.150 306.186   1
   7  -6   6 1905.95 463.163   3
  -7  -5  11 8121.90 809.967   1
  -7  -5  10 5889.15 683.545   1
  -7  -5   9 643.591 393.983   1
  -7  -5   8 5881.57 489.593   3
  -7  -5   8 5520.39 656.516   1
  -7  -5   7 10694.1 632.264   3
  -7  -5   7 9850.52 805.264   1
  -7  -5   6 5550.86 613.624   1
  -7  -5   6 5235.97 452.234   3
  -7  -5   5 432.269 307.753   1
  -7  -5   5 145.235 203.234   3
  -7  -5   4 4826.61 562.468   1
  -7  -5   4 4924.89 447.371   3
  -7  -5   3 7383.19 521.870   3
  -7  -5   3 6762.18 631.053   1
  -7  -5   2 3680.23 499.054   1
  -7  -5   2 4226.23 410.267   3
  -7  -5   1 434.702 296.901   1
  -7  -5   0 6947.69 623.085   1
  -7  -5  -1 8477.79 682.084   1
   7  -5   1 8199.17 596.852   3
   7  -5   2 1540.64 351.390   3
  -7  -5  -2 2325.23 432.952   1
   7  -5   3 870.381 324.713   3
  -7  -5  -3 356.985 290.729   1
  -7  -5  -4 8411.52 704.230   1
   7  -5   4 8622.73 686.801   3
   7  -5   5 3292.02 492.555   3
  -7  -5  -5 2803.17 466.905   1
  -7  -5  -6 814.695 381.206   2
  -7  -5  -6 455.796 294.439   1
   7  -5   7 376.267 337.554   3
  -7  -5  -7 1087.13 395.771   1
   7  -5   8 2923.44 544.928   3
  -7  -4  12 2511.02 519.242   1
  -7  -4  11 843.887 434.546   1
  -7  -4  10 4794.57 622.278   1
  -7  -4   9 7427.25 725.576   1
  -7  -4   8 6080.27 432.221   3
  -7  -4   8 7169.87 694.711   1
  -7  -4   7 661.446 326.147   1
  -7  -4   7 368.716 190.011   3
  -7  -4   6 5292.78 394.812   3
  -7  -4   6 5871.64 606.033   1
  -7  -4   5 9963.11 530.566   3
  -7  -4   5 9383.06 716.011   1
  -7  -4   4 9510.56 513.013   3
  -7  -4   4 10134.2 742.356   1
  -7  -4   3 545.970 294.533   1
  -7  -4   3 725.112 207.989   3
  -7  -4   2 10627.5 733.699   1
  -7  -4   1 8923.36 676.385   1
   7  -4  -1 8680.83 488.807   3
  -7  -4   0 5388.16 551.172   1
   7  -4   0 5181.25 423.910   3
   7  -4   1 2874.38 354.003   3
  -7  -4  -1 2543.10 428.387   1
  -7  -4  -2 10689.5 741.054   1
   7  -4   2 12091.9 669.937   3
   7  -4   3 5444.48 486.824   3
  -7  -4  -3 6385.90 589.107   1
   7  -4   4 1442.35 323.824   3
  -7  -4  -4 1423.56 389.035   1
   7  -4   5 1652.31 387.179   3
  -7  -4  -5 2219.95 419.741   1
   7  -4   6 6409.34 605.481   3
  -7  -4  -6 6753.07 644.705   1
  -7  -4  -6 6688.96 627.777   2
   7  -4   7 3190.24 488.226   3
  -7  -4  -7 4008.06 516.753   2
  -7  -4  -7 3291.89 507.352   1
  -7  -4  -8-67.9776 320.571   2
   7  -4   8 186.621 348.329   3
  -7  -4  -8 786.894 395.694   1
   7  -4   9 973.931 432.852   3
  -7  -3  14 3442.94 578.812   1
  -7  -3  13-39.3735 353.862   1
  -7  -3  12 906.320 363.288   1
  -7  -3  11 7089.89 708.976   1
  -7  -3  10 8873.95 759.656   1
  -7  -3   9 1143.78 355.507   1
  -7  -3   8 8379.59 696.613   1
  -7  -3   7 16224.6 581.058   3
  -7  -3   7 18611.9 996.138   1
  -7  -3   6 15785.4 561.216   3
  -7  -3   6 14934.6 866.410   1
   7  -3  -5 184.318 110.694   5
  -7  -3   5 130.565 256.586   1
  -7  -3   5 544.907 171.096   3
  -7  -3   4 27856.8 1150.28   1
   7  -3  -4 27268.6 681.598   5
  -7  -3   3 12085.7 752.592   1
   7  -3  -3 11216.6 426.577   5
  -7  -3   2 8787.25 650.410   1
   7  -3  -2 9056.91 370.322   3
   7  -3  -2 9022.31 408.392   5
  -7  -3   1 9169.23 656.873   1
   7  -3  -1 10315.6 465.996   3
  -7  -3   0 18548.2 925.148   1
   7  -3   0 20788.5 725.838   3
  -7  -3  -1 10093.4 695.825   1
   7  -3   1 9836.89 521.585   3
   7  -3   1 10554.9 543.457   5
   7  -3   2 915.997 222.814   5
   7  -3   2 1038.33 242.777   3
  -7  -3  -2 1545.05 358.447   1
  -7  -3  -3 6883.31 598.812   1
   7  -3   3 6571.36 478.659   3
   7  -3   3 7069.34 490.757   5
  -7  -3  -4 11182.6 753.621   1
   7  -3   4 11427.6 653.013   3
  -7  -3  -5 7185.39 629.228   1
   7  -3   5 7540.63 582.793   3
  -7  -3  -6 1097.57 340.378   2
   7  -3   6 953.755 341.194   3
  -7  -3  -6 1246.21 389.005   1
  -7  -3  -7 1407.96 395.378   2
   7  -3   7 2105.63 410.184   3
  -7  -3  -7 893.158 323.633   1
  -7  -3  -8 5488.91 596.717   2
   7  -3   8 5766.50 619.695   3
  -7  -3  -8 4909.55 584.358   1
  -7  -3  -9 3745.55 542.850   2
   7  -3   9 3838.12 554.268   3
   7  -3  10 548.698 420.099   3
  -7  -2  15 1501.11 442.668   1
  -7  -2  14 357.045 385.688   1
   7  -2 -13 5918.15 517.375   5
  -7  -2  13 5851.07 660.249   1
   7  -2 -12 11243.0 650.881   5
  -7  -2  12 10875.8 830.153   1
   7  -2 -11 55.6370 194.302   5
  -7  -2  11 16.7536 300.478   1
  -7  -2  10 7215.60 652.299   1
   7  -2 -10 7434.91 485.793   5
  -7  -2   9 11592.6 794.990   1
   7  -2  -9 12038.4 581.561   5
  -7  -2   8 9543.05 703.149   1
   7  -2  -8 9926.16 511.938   5
   7  -2  -7 507.785 179.735   5
  -7  -2   7 698.778 288.671   1
  -7  -2   6 11826.8 749.357   1
   7  -2  -6 11557.6 527.350   5
  -7  -2   5 12484.9 752.449   1
   7  -2  -5 10384.2 496.322   5
  -7  -2   4 12069.8 724.688   1
   7  -2  -4 12887.7 563.131   5
   7  -2  -3 2056.64 258.971   5
  -7  -2   3 1978.02 341.293   1
  -7  -2   2 16483.9 828.054   1
   7  -2  -2 16859.5 447.765   3
   7  -2  -2 19070.3 727.673   5
  -7  -2   1 14065.8 764.187   1
   7  -2  -1 16158.2 520.237   3
   7  -2  -1 16242.7 689.210   5
  -7  -2   0 3441.25 412.647   1
   7  -2   0 3011.51 335.736   5
   7  -2   0 3597.55 275.136   3
   7  -2   1 4156.03 377.797   5
   7  -2   1 5169.03 344.486   3
  -7  -2  -1 4607.51 472.121   1
  -7  -2  -2 26428.9 1074.01   1
   7  -2   2 26820.7 964.297   5
   7  -2   2 26190.1 810.350   3
  -7  -2  -3 14295.5 809.423   1
  -7  -2  -4 5251.27 524.473   1
  -7  -2  -5 4760.93 524.510   1
  -7  -2  -5 6413.00 556.477   2
  -7  -2  -6 18059.7 974.579   1
  -7  -2  -6 19212.7 938.561   2
  -7  -2  -7 8336.46 707.083   1
  -7  -2  -7 8495.31 675.989   2
  -7  -2  -8 269.099 310.458   2
  -7  -2  -9 2191.59 459.615   2
  -7  -2 -10 4206.38 578.173   2
  -7  -1  16-38.5923 334.127   1
   7  -1 -15 6969.29 622.174   5
  -7  -1  15 6234.66 685.707   1
   7  -1 -14 3967.68 494.472   5
  -7  -1  14 3454.20 536.415   1
   7  -1 -13 1355.97 348.201   5
  -7  -1  13 1678.76 415.738   1
   7  -1 -12 3616.90 442.284   5
  -7  -1  12 3217.02 493.219   1
  -7  -1  11 12798.9 833.500   1
   7  -1 -11 11491.1 660.021   5
  -7  -1  10 8647.84 676.850   1
   7  -1 -10 9377.52 579.486   5
  -7  -1   9-73.0862 283.366   1
   7  -1  -9 146.154 182.995   5
  -7  -1   8 12985.2 777.964   1
   7  -1  -8 13828.7 665.801   5
  -7  -1   7 22435.9 994.238   1
   7  -1  -7 20712.4 812.847   5
  -7  -1   6 17715.5 864.378   1
   7  -1  -6 16871.5 720.786   5
   7  -1  -5 822.491 230.924   5
  -7  -1   5 1018.36 281.199   1
  -7  -1   4 10154.8 632.984   1
   7  -1  -4 10779.3 581.492   5
  -7  -1   3 19951.1 883.390   1
   7  -1  -3 20219.2 813.788   5
  -7  -1   2 9600.94 615.801   1
   7  -1  -2 9188.29 281.889   3
   7  -1  -2 9777.65 301.049   3
   7  -1  -2 9855.95 574.438   5
   7  -1  -1-48.1129 178.013   5
  -7  -1   1 33.7018 223.306   1
   7  -1  -1 59.0463 87.5825   3
  -7  -1   0 28733.2 1063.99   1
   7  -1   0 29041.0 1016.03   5
  -7  -1  -1 20708.5 912.101   1
   7  -1   1 21498.5 876.452   5
   7  -1   2 4234.25 427.382   5
  -7  -1  -2 4969.34 491.606   1
  -7  -1  -3 7249.64 578.750   1
  -7  -1  -4 26497.7 1088.77   1
  -7  -1  -5 7165.42 611.593   1
  -7  -1  -5 8400.89 598.229   2
  -7  -1  -6 300.756 267.828   2
  -7  -1  -6 720.939 301.163   1
  -7  -1  -7 1721.41 373.370   2
  -7  -1  -7 2206.26 426.942   1
  -7  -1  -8 7373.09 638.589   2
  -7  -1  -9 3863.91 534.969   2
  -7  -1 -10 118.578 319.602   2
  -7  -1 -11 1461.40 454.386   2
   7   0 -16 1682.85 416.924   5
  -7   0  16 1850.32 449.626   1
   7   0 -15 556.429 331.865   5
  -7   0  15 192.929 308.363   1
   7   0 -14 851.819 349.415   5
  -7   0  14 364.028 330.252   1
   7   0 -13 3261.95 437.858   5
  -7   0  13 3097.62 467.844   1
  -7   0  12 14049.1 864.200   1
   7   0 -12 14284.5 781.560   5
   7   0 -11 471.660 265.725   5
  -7   0  11 553.643 284.258   1
  -7   0  10 4073.27 471.909   1
   7   0 -10 5040.21 483.868   5
  -7   0   9 24503.8 1044.81   1
   7   0  -9 27293.4 1017.80   5
  -7   0   8 28703.0 1101.40   1
   7   0  -8 28437.7 1051.19   5
   7   0  -7 106.847 207.135   5
  -7   0   7 367.025 258.769   1
  -7   0   6 13867.0 734.155   1
   7   0  -6 13118.7 691.921   5
  -7   0   5 59473.2 1579.31   1
   7   0  -5 63084.7 1599.10   5
  -7   0   4 18363.6 823.996   1
   7   0  -4 20171.6 852.279   5
   7   0  -3 991.594 238.779   5
  -7   0   3 1548.01 293.216   1
   7   0  -3 1135.28 92.4536   3
  -7   0   2 30326.0 1049.10   1
   7   0  -2 28622.7 640.275   3
   7   0  -2 31437.4 1083.29   5
  -7   0   1 21834.3 888.539   1
   7   0  -1 21391.9 591.750   3
   7   0  -1 21442.8 897.326   5
   7   0   0 56.3464 209.977   5
  -7   0   0 126.188 195.462   1
   7   0   1 2101.08 344.866   5
  -7   0  -1 2187.42 332.936   1
  -7   0  -2 13759.3 734.979   1
   7   0   2 14504.0 774.791   5
  -7   0  -3 9654.18 642.360   1
  -7   0  -4 163.946 220.903   2
  -7   0  -4 341.543 253.974   1
  -7   0  -5 182.311 225.411   2
  -7   0  -5 11.4684 253.791   1
  -7   0  -6 22672.9 1058.06   1
  -7   0  -6 22268.3 957.795   2
  -7   0  -7 4137.31 471.460   2
  -7   0  -8-95.2255 276.333   2
  -7   0  -9 3877.62 504.457   2
  -7   0 -10 6194.25 640.007   2
  -7   0 -11 1153.90 409.351   2
   7   1 -16-35.2306 302.479   5
  -7   1  16 218.230 308.762   1
   7   1 -15 6716.60 661.943   5
  -7   1  15 6293.23 640.902   1
   7   1 -14 4397.34 532.219   5
  -7   1  14 3798.45 513.599   1
   7   1 -13 2135.46 403.418   5
  -7   1  13 1819.29 376.986   1
   7   1 -12 3654.52 462.413   5
  -7   1  12 3346.06 443.325   1
   7   1 -11 9069.42 660.385   5
  -7   1  11 9645.20 662.671   1
  -7   1  10 11664.7 706.415   1
   7   1 -10 11795.2 743.706   5
   7   1  -9 119.745 245.175   5
  -7   1   9 351.181 240.666   1
  -7   1   8 12327.0 683.562   1
   7   1  -8 12050.0 709.579   5
  -7   1   7 19790.6 844.024   1
   7   1  -7 20006.3 912.504   5
  -7   1   6 16095.3 741.761   1
   7   1  -6 16652.8 819.154   5
   7   1  -5 1250.19 314.055   5
  -7   1   5 858.898 245.939   1
  -7   1   4 8885.66 543.538   1
   7   1  -4 9799.76 367.067   6
   7   1  -4 9795.18 629.745   5
  -7   1   3 18703.7 782.975   1
   7   1  -3 16900.7 501.306   3
   7   1  -3 18950.0 536.275   6
   7   1  -3 18029.5 854.007   5
  -7   1   2 9869.72 566.805   1
   7   1  -2 8662.19 385.811   3
   7   1  -2 8999.18 381.999   6
   7   1  -2 8816.59 604.926   5
   7   1  -1 232.894 216.062   5
  -7   1   1 90.7229 178.826   1
  -7   1   0 29525.5 1006.28   1
   7   1   0 27332.6 1090.95   5
  -7   1  -1 20112.4 848.497   1
   7   1   1 21882.9 981.601   5
   7   1   2 3766.84 445.014   5
  -7   1  -2 3656.47 398.178   1
  -7   1  -2 3826.59 355.907   2
  -7   1  -3 7408.25 547.212   1
  -7   1  -3 7988.43 498.271   2
  -7   1  -4 30495.7 1138.40   1
  -7   1  -4 28631.6 988.136   2
  -7   1  -5 5990.89 546.723   1
  -7   1  -5 6498.28 500.530   2
  -7   1  -6 144.149 241.039   2
  -7   1  -7 2582.94 380.476   2
  -7   1  -8 5609.77 551.926   2
  -7   1  -9 3944.93 520.532   2
  -7   1 -10 783.571 377.681   2
  -7   1 -11 1357.08 474.677   4
  -7   1 -11 1937.21 455.842   2
   7   2 -15 2417.43 501.755   5
   7   2 -14 324.552 313.320   5
   7   2 -13 4698.31 562.724   5
  -7   2  13 5341.17 526.071   1
  -7   2  12 10522.2 686.277   1
   7   2 -12 12933.4 837.666   5
   7   2 -11 478.653 288.348   5
  -7   2  11 24.0813 211.316   1
  -7   2  10 6671.52 513.413   1
   7   2 -10 7361.71 624.521   5
  -7   2   9 11724.8 654.063   1
   7   2  -9 13074.7 787.813   5
  -7   2   8 8844.12 540.054   1
   7   2  -8 7770.46 625.425   5
   7   2  -7 641.769 261.979   5
  -7   2   7 696.693 210.676   1
  -7   2   6 11761.6 599.461   1
   7   2  -6 12389.1 753.864   5
  -7   2   5 10194.0 551.755   1
   7   2  -5 10022.9 686.372   5
  -7   2   4 10867.7 562.345   1
   7   2  -4 10661.4 702.553   5
   7   2  -3 1989.84 355.926   5
  -7   2   3 2246.46 280.059   1
  -7   2   2 16605.0 702.326   1
   7   2  -2 18688.6 688.060   6
   7   2  -2 17167.7 887.739   5
  -7   2   1 12676.3 621.244   1
   7   2  -1 12873.6 578.002   6
   7   2  -1 12530.9 762.034   5
   7   2   0 3179.57 437.329   5
  -7   2   0 3083.40 344.828   1
   7   2   0 3507.06 326.545   6
   7   2   1 4068.63 484.719   5
  -7   2  -1 4579.12 409.405   1
  -7   2  -1 4905.21 356.161   2
   7   2   1 4411.72 373.759   6
  -7   2  -2 23720.5 929.353   1
  -7   2  -2 25461.9 835.352   2
   7   2   2 24217.6 1124.45   5
  -7   2  -3 15017.8 751.987   1
  -7   2  -3 16175.5 675.101   2
   7   2   3 15064.5 898.034   5
  -7   2  -4 5265.58 428.360   2
  -7   2  -5 5032.38 433.484   2
  -7   2  -6 20928.9 907.864   2
  -7   2  -7 11154.2 706.048   2
  -7   2  -8 1001.17 470.883   4
  -7   2  -8 587.065 311.316   2
  -7   2  -9 2342.03 555.021   4
  -7   2  -9 2693.20 438.056   2
  -7   2 -10 4585.57 671.940   4
  -7   2 -10 3344.49 529.261   2
  -7   2 -11 22.6589 344.388   2
   7   3 -14 2176.99 470.767   5
   7   3 -13 730.638 356.188   5
   7   3 -12 762.727 345.873   5
   7   3 -11 4261.26 533.889   5
   7   3 -10 9526.94 743.161   5
   7   3  -9 1861.66 410.272   5
  -7   3   9 1499.14 252.065   1
  -7   3   8 7871.29 471.531   1
   7   3  -8 8469.61 673.486   5
  -7   3   7 17448.2 789.027   4
  -7   3   7 18015.1 692.043   1
   7   3  -7 17138.0 933.080   5
  -7   3   6 18035.3 840.316   4
  -7   3   6 17454.6 672.846   1
   7   3  -6 17629.4 956.137   5
   7   3  -5-105.798 286.407   5
  -7   3   5 529.847 285.865   4
  -7   3   5 380.312 161.141   1
  -7   3   4 26314.6 1132.76   4
  -7   3   4 25809.8 821.866   1
   7   3  -4 24581.1 1126.80   5
  -7   3   3 17161.7 661.236   1
  -7   3   3 18186.4 1001.98   4
   7   3  -3 18143.6 971.056   5
  -7   3   2 7720.91 450.136   1
  -7   3   2 8046.04 363.022   2
   7   3  -2 7373.97 630.367   5
  -7   3   1 8292.02 477.204   1
  -7   3   1 9484.53 820.695   4
  -7   3   1 8517.60 383.199   2
   7   3  -1 8603.25 555.015   6
   7   3  -1 8841.27 699.552   5
  -7   3   0 20587.5 784.182   1
  -7   3   0 18848.3 1143.53   4
  -7   3   0 20302.0 639.060   2
   7   3   0 19655.5 846.427   6
   7   3   0 20839.5 1069.88   5
  -7   3  -1 10463.3 577.045   1
  -7   3  -1 12097.4 920.232   4
  -7   3  -1 11082.8 487.611   2
   7   3   1 11055.0 636.732   6
   7   3   1 10603.8 780.891   5
   7   3   2 647.813 324.483   5
  -7   3  -2 746.966 185.721   2
  -7   3  -2 1268.56 441.278   4
   7   3   2 678.630 248.512   6
   7   3   3 6300.48 653.278   5
  -7   3  -3 7341.39 460.990   2
  -7   3  -3 6284.49 700.366   4
   7   3   3 5681.71 499.561   6
  -7   3  -4 10191.4 872.525   4
  -7   3  -4 11065.2 584.191   2
   7   3   4 11983.3 713.144   6
   7   3   4 11415.7 859.718   5
   7   3   5 6116.07 665.246   5
  -7   3  -5 6227.44 478.393   2
  -7   3  -5 6777.74 747.856   4
  -7   3  -6 782.596 460.406   4
  -7   3  -6 327.260 220.896   2
  -7   3  -7 914.642 458.046   4
  -7   3  -7 788.090 277.324   2
  -7   3  -8 4910.46 717.459   4
  -7   3  -8 5411.08 549.285   2
  -7   3  -9 4108.39 704.463   4
  -7   3  -9 3144.36 476.888   2
  -7   3 -10-13.0652 336.779   2
   7   4 -13 8930.63 791.790   5
   7   4 -12 3352.98 533.828   5
   7   4 -11 974.833 376.764   5
   7   4 -10 5364.38 597.280   5
   7   4  -9 9404.09 765.152   5
   7   4  -8 5434.24 607.168   5
   7   4  -7 1117.99 385.267   5
   7   4  -6 5967.25 629.390   5
  -7   4   6 6317.26 540.048   4
  -7   4   5 9772.76 684.073   4
   7   4  -5 9809.50 775.240   5
  -7   4   4 9643.25 719.521   4
   7   4  -4 8311.44 707.883   5
   7   4  -3 494.834 339.175   5
  -7   4   3 529.566 317.940   4
  -7   4   2 11170.4 507.647   1
  -7   4   2 11447.7 868.525   4
   7   4  -2 11453.1 824.787   5
   7   4  -1 7108.70 679.904   5
  -7   4   1 8353.59 804.066   4
   7   4   0 5394.00 614.686   5
  -7   4   0 5867.51 731.468   4
   7   4   0 4892.93 507.941   6
   7   4   1 2377.39 468.752   5
  -7   4  -1 2282.61 555.359   4
   7   4   1 1319.56 316.765   6
   7   4   2 8927.00 666.701   6
   7   4   2 8654.47 774.432   5
  -7   4  -3 6262.52 778.318   4
   7   4   3 6471.05 581.662   6
   7   4   3 7833.27 755.164   5
   7   4   4 1174.55 424.500   5
  -7   4  -4 1598.53 521.552   4
   7   4   4 1268.62 348.493   6
  -7   4  -5 2405.90 604.580   4
   7   4   5 1595.58 377.273   6
   7   4   6 6972.03 768.815   5
  -7   4  -6 7327.19 858.909   4
   7   4   7 3340.97 591.134   5
  -7   4  -7 3243.09 676.292   4
  -7   4  -8 525.403 423.090   4
   7   5 -11 6795.87 709.166   5
   7   5 -10 5596.07 651.283   5
   7   5  -9 137.511 338.396   5
   7   5  -8 4886.35 606.848   5
   7   5  -7 11189.9 859.457   5
   7   5  -6 4142.64 574.314   5
   7   5  -5 765.522 359.598   5
  -7   5   5 987.993 325.112   4
   7   5  -4 5556.56 635.489   5
  -7   5   4 4915.10 558.303   4
   7   5  -3 5934.85 657.623   5
  -7   5   3 6273.50 668.987   4
   7   5  -2 4263.16 605.239   5
  -7   5   2 3827.95 583.945   4
   7   5  -1 395.462 351.088   5
  -7   5   1 67.5194 351.262   4
   7   5   0 6924.00 709.997   5
  -7   5   0 7430.88 812.425   4
  -7   5  -1 7994.57 904.407   4
   7   5   1 9485.33 738.105   6
   7   5   1 8933.59 810.011   5
   7   5   2 1333.61 426.779   5
  -7   5  -2 1444.53 571.955   4
   7   5   2 1471.05 407.742   6
   7   5   3 882.697 409.685   5
  -7   5  -3 1427.68 566.659   4
   7   5   3 1009.32 381.161   6
   7   5   4 8477.14 830.700   5
  -7   5  -4 8791.91 1021.21   4
   7   5   4 8178.19 728.266   6
   7   5   5 4289.20 647.215   5
  -7   5  -5 3459.27 671.268   4
   7   5   5 4084.62 551.658   6
   7   5   6-244.561 392.505   5
  -7   5  -6-59.4562 507.037   4
   7   5   6-397.486 322.738   6
   7   6  -8 2294.66 510.681   5
   7   6  -7 487.869 342.724   5
   7   6  -6 2923.90 531.471   5
   7   6  -5 6274.84 719.418   5
   7   6  -4 2761.87 532.496   5
  -7   6   4 2862.45 529.092   4
   7   6  -3 396.115 365.707   5
  -7   6   3 852.820 399.465   4
   7   6  -2 6869.58 738.500   5
  -7   6   2 8317.05 838.074   4
   7   6  -1 4436.73 640.579   5
  -7   6   1 4599.31 674.915   4
   7   6   0 477.029 374.471   5
  -7   6   0 487.037 488.905   4
   7   6   1 690.893 421.390   5
  -7   6  -1 444.662 400.933   4
   7   6   1 820.140 396.129   6
   7   6   2 5891.21 731.231   5
  -7   6  -2 6204.91 917.435   4
   7   6   2 6229.57 665.750   6
   7   6   3 1484.21 510.999   5
  -7   6  -3 148.956 526.325   4
   7   6   3 1707.81 480.436   6
   7   6   4 669.365 428.431   5
  -7   6  -4 96.7223 536.672   4
   7   6   4 1500.53 445.886   6
  -7   7   2 102.065 382.383   4
  -7   7   1 564.116 435.850   4
  -7   7   0 2787.46 665.787   4
  -8  -6   4 1671.50 449.966   1
  -8  -6   3 2617.77 506.183   1
  -8  -6   2 294.909 307.154   1
  -8  -6   1 621.194 360.145   1
  -8  -6   0 3363.51 526.337   1
  -8  -6  -1 3001.56 510.422   1
  -8  -5   8 2311.99 523.331   1
  -8  -5   7 946.441 399.951   1
  -8  -5   6 6433.14 698.919   1
  -8  -5   5 8788.12 783.362   1
  -8  -5   4 924.448 411.317   1
  -8  -5   3 4217.36 576.616   1
  -8  -5   2 15195.3 969.049   1
  -8  -5   1 3001.83 511.663   1
  -8  -5   0 75.3996 329.862   1
  -8  -5  -1 2769.61 474.760   1
  -8  -5  -2 4590.52 565.616   1
  -8  -5  -3 214.751 346.177   1
  -8  -5  -4 74.6114 321.908   1
  -8  -4  11 4384.51 647.397   1
  -8  -4  10 2396.98 536.681   1
  -8  -4   9 1573.06 466.310   1
  -8  -4   8 6871.81 712.129   1
  -8  -4   7 4554.39 569.247   1
  -8  -4   6 1140.17 371.275   1
  -8  -4   5 2776.36 474.589   1
  -8  -4   4 12832.9 868.325   1
  -8  -4   3 4675.74 572.846   1
  -8  -4   2 1287.58 383.079   1
  -8  -4   1 3559.45 493.118   1
  -8  -4   0 13548.9 880.663   1
  -8  -4  -1 5367.65 591.638   1
  -8  -4  -2 255.024 312.473   1
  -8  -4  -3 5169.84 606.252   1
  -8  -4  -4 9509.39 772.651   1
   8  -4   5 1939.11 406.214   3
  -8  -4  -5 2921.15 484.067   2
  -8  -4  -5 1862.22 470.072   1
   8  -4   6 1401.36 398.648   3
  -8  -4  -6 1521.39 440.171   1
   8  -4   7 1493.56 408.412   3
  -8  -3  12 6513.93 739.176   1
  -8  -3  11 306.196 343.591   1
  -8  -3  10 9942.34 836.321   1
  -8  -3   9 6177.32 680.545   1
  -8  -3   8 2493.80 474.426   1
  -8  -3   7 2675.47 453.342   1
  -8  -3   6 11883.7 834.140   1
  -8  -3   5 3532.96 513.739   1
  -8  -3   4 2227.30 405.246   1
  -8  -3   3 2898.53 461.436   1
  -8  -3   2 14121.8 862.975   1
  -8  -3   1 6192.19 605.365   1
  -8  -3   0 2237.57 433.011   1
  -8  -3  -1 2786.90 468.156   1
  -8  -3  -2 9945.89 746.290   1
   8  -3   2 9982.21 585.473   3
   8  -3   3 2086.98 334.810   3
  -8  -3  -3 2403.83 438.988   1
   8  -3   4-310.223 251.111   3
  -8  -3  -4 67.2107 278.377   1
   8  -3   5 3585.47 450.277   3
  -8  -3  -5 4332.08 579.271   1
  -8  -3  -6 4131.75 540.130   2
   8  -3   6 4237.32 509.777   3
  -8  -3  -6 4894.25 596.066   1
  -8  -3  -7 1225.78 370.398   2
   8  -3   7 1166.82 374.879   3
  -8  -3  -7 1128.67 404.521   1
   8  -3   8 2020.66 457.125   3
   8  -3   9 3163.29 563.349   3
  -8  -2  13 741.185 379.379   1
  -8  -2  12 5035.29 639.732   1
  -8  -2  11 6667.07 699.060   1
  -8  -2  10 4166.37 557.179   1
   8  -2 -10 5839.66 453.443   5
   8  -2  -9 380.860 194.287   5
  -8  -2   9-141.123 293.904   1
  -8  -2   8 7905.35 688.814   1
   8  -2  -8 9017.88 525.369   5
  -8  -2   7 14692.5 899.175   1
   8  -2  -7 14490.4 649.411   5
  -8  -2   6 9129.37 718.173   1
   8  -2  -6 9241.81 520.831   5
   8  -2  -5 3349.21 335.932   5
  -8  -2   5 3203.32 460.230   1
  -8  -2   4 34039.8 1310.42   1
   8  -2  -4 34677.7 1064.93   5
  -8  -2   3 9109.06 687.859   1
   8  -2  -3 8941.97 546.817   5
   8  -2  -2 1467.48 275.365   5
  -8  -2   2 989.835 321.051   1
  -8  -2   1 7764.58 634.709   1
   8  -2  -1 7689.61 529.994   5
  -8  -2   0 14692.8 854.121   1
   8  -2   0 15907.8 773.325   5
   8  -2   1 3993.28 418.977   5
   8  -2   1 3532.59 315.829   3
  -8  -2  -1 3348.59 462.682   1
   8  -2   2-15.4519 203.961   5
   8  -2   2 299.040 209.526   3
  -8  -2  -2 57.8847 256.662   1
   8  -2   3 5651.65 497.874   5
  -8  -2  -3 4254.07 526.132   1
   8  -2   3 5108.33 413.114   3
  -8  -2  -4 6882.85 633.560   1
   8  -2   4 6490.62 555.076   5
  -8  -2  -5 1019.74 331.579   2
  -8  -2  -5 381.618 337.596   1
  -8  -2  -6 503.387 312.755   2
  -8  -2  -6 779.467 325.104   1
  -8  -2  -7 3338.34 496.346   2
  -8  -2  -7 3264.15 505.803   1
  -8  -2  -8 3060.28 503.801   2
   8  -1 -15 211.975 267.423   5
   8  -1 -14 1611.57 368.148   5
  -8  -1  14 2111.31 487.331   1
   8  -1 -13 4331.74 518.904   5
  -8  -1  13 4224.22 556.833   1
  -8  -1  12 7138.97 697.029   1
   8  -1 -12 7452.96 593.909   5
   8  -1 -11 452.185 246.747   5
  -8  -1  11-80.6090 312.881   1
  -8  -1  10 7790.63 682.250   1
   8  -1 -10 8545.67 587.320   5
  -8  -1   9 7842.25 679.880   1
   8  -1  -9 7833.81 554.576   5
   8  -1  -8 2955.86 376.315   5
  -8  -1   8 2792.50 440.493   1
   8  -1  -7 4212.43 419.615   5
  -8  -1   7 4231.62 485.816   1
  -8  -1   6 10340.3 710.503   1
   8  -1  -6 11789.7 654.488   5
  -8  -1   5 8943.05 671.159   1
   8  -1  -5 10871.3 640.543   5
   8  -1  -4 3393.81 384.815   5
  -8  -1   4 2790.37 410.668   1
  -8  -1   3 6241.68 548.860   1
   8  -1  -3 6353.59 512.115   5
  -8  -1   2 23961.7 1047.29   1
   8  -1  -2 25974.1 1021.26   5
  -8  -1   1 17115.9 881.993   1
   8  -1  -1 17969.9 852.814   5
   8  -1   0 225.966 260.746   5
  -8  -1   0-77.4654 249.080   1
  -8  -1  -1 7297.00 595.612   1
   8  -1   1 6845.41 555.833   5
  -8  -1  -2 18891.0 956.331   1
   8  -1   2 16845.8 868.467   5
  -8  -1  -3 6325.49 593.933   1
   8  -1   3 6430.77 556.840   5
  -8  -1  -4 1474.77 350.398   2
  -8  -1  -4 372.663 300.168   1
  -8  -1  -5 2669.74 430.404   2
  -8  -1  -5 2536.63 444.119   1
  -8  -1  -6 12079.3 854.002   1
  -8  -1  -6 12582.1 797.430   2
  -8  -1  -7 393.751 327.897   2
  -8  -1  -7 1060.54 377.028   1
  -8  -1  -8 867.352 361.683   2
  -8  -1  -9 4014.82 574.011   2
   8   0 -15 7167.87 665.781   5
  -8   0  15 5866.88 673.325   1
   8   0 -14 3506.49 511.681   5
  -8   0  14 2655.59 494.351   1
  -8   0  13 288.178 287.693   1
   8   0 -13 386.767 294.983   5
  -8   0  12 3823.66 509.906   1
   8   0 -12 4728.05 518.515   5
  -8   0  11 7580.99 659.369   1
   8   0 -11 6758.23 578.397   5
   8   0 -10 3643.80 457.587   5
  -8   0  10 2959.36 460.841   1
   8   0  -9 1053.38 321.499   5
  -8   0   9 664.782 305.491   1
  -8   0   8 10149.6 697.097   1
   8   0  -8 10575.2 675.775   5
  -8   0   7 7707.50 610.513   1
   8   0  -7 7362.84 576.168   5
   8   0  -6 660.551 266.577   5
  -8   0   6 1052.16 307.911   1
  -8   0   5 12707.6 738.545   1
   8   0  -5 12622.9 746.533   5
  -8   0   4 18484.4 884.118   1
   8   0  -4 20668.7 941.856   5
  -8   0   3 11282.0 702.203   1
   8   0  -3 12610.5 739.866   5
  -8   0   2 674.241 269.098   1
   8   0  -2-38.5310 268.541   5
   8   0  -1 4405.59 458.522   5
  -8   0   1 3229.21 411.358   1
  -8   0   0 27823.0 1106.38   1
   8   0   0 27704.0 1122.47   5
  -8   0  -1 9778.14 665.122   1
   8   0   1 10122.6 692.038   5
   8   0   2 310.703 292.556   5
  -8   0  -2 645.410 290.071   1
  -8   0  -3 5536.76 548.048   1
  -8   0  -3 5951.09 498.404   2
   8   0   3 6311.60 597.815   5
  -8   0  -4 17287.8 933.885   1
  -8   0  -4 17589.6 851.315   2
   8   0   4 17092.8 962.715   5
  -8   0  -5 3211.08 414.099   2
  -8   0  -5 2558.46 436.399   1
  -8   0  -6 512.756 284.721   2
  -8   0  -6 545.219 328.705   1
  -8   0  -7 3323.38 484.513   2
  -8   0  -8 4404.22 558.659   2
  -8   0  -9 1784.59 446.108   2
  -8   1  15-379.575 341.605   1
   8   1 -15 204.008 333.803   5
  -8   1  14 2701.96 456.217   1
   8   1 -14 2962.29 496.148   5
  -8   1  13 3930.14 502.671   1
   8   1 -13 4858.41 576.576   5
  -8   1  12 6401.70 604.204   1
   8   1 -12 7687.32 660.818   5
   8   1 -11 1027.31 362.173   5
  -8   1  11 479.289 304.151   1
  -8   1  10 8835.25 688.065   1
   8   1 -10 7811.46 642.483   5
  -8   1   9 9017.92 639.761   1
   8   1  -9 8292.64 655.471   5
   8   1  -8 2808.34 417.518   5
  -8   1   8 2865.54 390.856   1
   8   1  -7 4381.22 490.695   5
  -8   1   7 4756.90 472.339   1
  -8   1   6 12306.1 700.642   1
   8   1  -6 13629.8 798.821   5
  -8   1   5 8846.43 600.339   1
   8   1  -5 7194.46 604.191   5
   8   1  -4 3001.66 431.318   5
  -8   1   4 3757.41 406.877   1
  -8   1   3 6594.88 516.743   1
   8   1  -3 6895.96 583.507   5
  -8   1   2 24107.0 966.866   1
   8   1  -2 22668.9 1038.52   5
  -8   1   1 16221.1 803.284   1
   8   1  -1 17267.1 905.244   5
   8   1   0-215.365 255.292   5
  -8   1   0 84.8348 230.215   1
   8   1   1 5306.58 568.314   5
  -8   1  -1 6817.80 544.110   1
  -8   1  -2 15264.5 821.633   1
  -8   1  -2 16917.1 752.790   2
   8   1   2 14954.4 898.841   5
   8   1   3 6125.43 607.788   5
  -8   1  -3 5472.56 527.161   1
  -8   1  -3 5213.38 461.252   2
   8   1   4 1045.02 333.167   5
  -8   1  -4 865.603 282.744   2
  -8   1  -4 441.366 268.082   1
  -8   1  -5 2194.39 380.976   2
  -8   1  -5 1887.13 403.366   1
  -8   1  -6 11150.2 726.729   2
  -8   1  -7 1338.98 355.852   2
  -8   1  -8 1153.93 373.539   2
  -8   1  -9 4474.27 577.433   2
  -8   1 -10 3909.99 574.195   2
   8   2 -14 1254.44 422.094   5
   8   2 -13 2006.19 439.900   5
   8   2 -12 6010.05 625.296   5
  -8   2  12 4559.03 495.676   1
   8   2 -11 4983.60 587.899   5
  -8   2  11 4064.99 456.418   1
  -8   2  10 6201.75 526.861   1
   8   2 -10 7030.80 644.044   5
   8   2  -9-265.853 303.614   5
  -8   2   9 153.663 235.332   1
  -8   2   8 8405.37 572.662   1
   8   2  -8 8208.67 674.717   5
  -8   2   7 12843.1 697.130   1
   8   2  -7 13741.7 841.984   5
  -8   2   6 9903.31 601.394   1
   8   2  -6 9285.30 709.761   5
  -8   2   5 3437.42 372.775   1
   8   2  -5 3591.01 488.423   5
  -8   2   4 30338.8 1040.41   1
   8   2  -4 27616.7 834.776   6
   8   2  -4 30162.1 1259.45   5
  -8   2   3 10375.8 602.148   1
   8   2  -3 9871.44 490.889   6
   8   2  -3 10475.4 748.658   5
  -8   2   2 1256.27 287.408   1
   8   2  -2 1387.65 226.985   6
  -8   2   1 6955.99 514.948   1
   8   2  -1 6960.64 433.266   6
   8   2  -1 7862.31 670.296   5
  -8   2   0 14752.8 752.664   1
  -8   2   0 15096.9 641.697   2
   8   2   0 14688.1 896.583   5
   8   2   1 3247.62 501.800   5
  -8   2  -1 4160.02 353.897   2
  -8   2  -1 4006.12 425.150   1
   8   2   2 234.443 315.914   5
  -8   2  -2-22.2536 184.750   2
  -8   2  -2 160.767 243.023   1
   8   2   3 5304.10 606.112   5
  -8   2  -3 4915.19 498.411   1
  -8   2  -3 5322.91 444.205   2
   8   2   4 6945.34 702.942   5
  -8   2  -4 6797.04 516.887   2
   8   2   5 2.47954 330.537   5
  -8   2  -5 385.525 246.296   2
  -8   2  -6 1214.48 339.935   2
  -8   2  -7 4291.00 503.628   2
  -8   2  -7 4475.91 700.113   4
  -8   2  -8 3422.69 603.621   4
  -8   2  -8 2924.47 471.704   2
  -8   2  -9 878.013 368.917   2
  -8   2 -10 828.343 382.029   2
   8   3 -12 5576.71 656.627   5
   8   3 -11 1232.40 405.999   5
   8   3 -10 10036.8 786.305   5
   8   3  -9 7617.66 698.829   5
   8   3  -8 991.346 371.194   5
   8   3  -7 3484.12 509.038   5
  -8   3   7 3334.62 428.967   4
  -8   3   6 12176.6 759.412   4
  -8   3   6 11335.6 592.254   1
   8   3  -6 11035.5 811.950   5
   8   3  -5 2792.50 457.444   5
  -8   3   5 3012.46 459.163   4
  -8   3   5 2431.16 298.092   1
   8   3  -4 740.095 322.662   5
  -8   3   4 1853.51 415.620   4
  -8   3   4 1313.56 242.814   1
   8   3  -3 2284.18 449.046   5
  -8   3   3 3855.27 597.479   4
  -8   3   3 3265.07 343.226   1
   8   3  -3 2730.15 344.215   6
  -8   3   2 13608.4 661.722   1
  -8   3   2 15228.8 1063.11   4
   8   3  -2 12856.5 673.045   6
   8   3  -2 13292.6 902.314   5
   8   3  -1 5203.05 594.994   5
  -8   3   1 5040.79 431.368   1
  -8   3   1 6070.04 766.701   4
   8   3  -1 4827.73 435.871   6
   8   3   0 1626.84 431.088   5
  -8   3   0 1672.78 282.611   1
  -8   3   0 2577.15 579.386   4
   8   3   0 1325.11 296.587   6
   8   3   1 4135.08 566.668   5
  -8   3  -1 4113.15 430.067   1
  -8   3  -1 3889.95 614.217   4
   8   3   1 3208.90 379.269   6
  -8   3  -2 11714.7 967.946   4
   8   3   2 9451.63 621.498   6
   8   3   2 10804.2 861.992   5
   8   3   3 3633.23 562.246   5
  -8   3  -3 3764.28 622.929   4
   8   3   4 691.777 392.589   5
  -8   3  -4 679.637 469.388   4
   8   3   5 3792.39 605.182   5
  -8   3  -5 5804.61 762.037   4
   8   3   6 5187.12 703.904   5
  -8   3  -6 5244.13 743.327   4
   8   3   7 1596.09 495.061   5
  -8   3  -7 1956.20 560.123   4
   8   4 -11 3502.10 552.919   5
   8   4 -10 2071.03 458.070   5
   8   4  -9 974.604 407.659   5
   8   4  -8 5779.37 644.795   5
   8   4  -7 7341.03 717.455   5
   8   4  -6 2532.00 505.552   5
  -8   4   6 1304.28 337.180   4
   8   4  -5 2854.28 488.316   5
  -8   4   5 2937.66 446.899   4
  -8   4   4 12821.2 908.301   4
   8   4  -4 12588.0 927.512   5
   8   4  -3 5674.07 660.349   5
  -8   4   3 4847.79 621.031   4
   8   4  -2 554.678 386.681   5
  -8   4   2 88.3674 360.171   4
   8   4  -2 355.217 266.786   6
   8   4  -1 3574.84 554.209   5
  -8   4   1 3970.16 687.573   4
   8   4  -1 3031.22 413.833   6
  -8   4   0 12581.0 1136.43   4
   8   4   0 12320.3 751.637   6
   8   4   0 13275.2 976.908   5
   8   4   1 6165.06 713.524   5
  -8   4  -1 5368.06 820.354   4
   8   4   1 5067.42 519.898   6
   8   4   2 308.459 383.232   5
  -8   4  -2 503.015 483.341   4
   8   4   2 119.549 279.043   6
   8   4   3 5479.31 718.158   5
  -8   4  -3 5739.45 822.808   4
   8   4   3 4467.85 507.433   6
   8   4   4 8412.26 850.766   5
  -8   4  -4 8037.48 922.401   4
   8   4   4 8701.28 688.734   6
   8   4   5 1771.29 487.129   5
  -8   4  -5 2498.04 614.963   4
   8   5  -8 1170.30 402.729   5
   8   5  -7 480.363 346.108   5
   8   5  -6 5607.58 685.505   5
   8   5  -5 6731.92 743.076   5
   8   5  -4 1689.39 471.304   5
  -8   5   4 1608.31 441.858   4
   8   5  -3 3077.60 534.990   5
  -8   5   3 3488.35 569.744   4
  -8   5   2 14664.9 1103.23   4
   8   5  -2 14612.4 1047.93   5
   8   5  -1 2629.20 536.164   5
  -8   5   1 3590.95 675.448   4
   8   5  -1 2801.32 470.705   6
   8   5   0 200.261 374.287   5
  -8   5   0 602.221 494.265   4
   8   5   0 201.724 293.267   6
   8   5   1 3552.27 627.281   5
  -8   5  -1 2895.56 672.710   4
   8   5   1 2450.05 439.937   6
   8   5   2 5010.33 700.031   5
  -8   5  -2 5786.03 904.518   4
   8   5   2 5320.63 604.995   6
   8   5   3 517.281 444.891   5
  -8   5  -3 630.577 535.076   4
   8   5   3 518.519 323.842   6
   8   5   4 200.267 288.063   6
   8   5   5 1383.68 450.497   6
  -8   6   3 1697.59 479.457   4
  -8   6   2 825.337 451.576   4
  -8   6   1 663.190 409.328   4
   8   6  -1 725.440 377.047   6
  -8   6   0 2638.21 640.611   4
   8   6   0 3184.30 535.912   6
  -8   6  -1 3249.95 761.155   4
   8   6   1 3182.28 546.460   6
   8   6   2 744.058 384.802   6
  -9  -4   7 4425.49 632.828   1
  -9  -4   6 6800.79 706.461   1
  -9  -4   5 2948.40 531.975   1
  -9  -4   4 650.827 375.741   1
  -9  -4   3 4728.83 612.393   1
  -9  -4   2 8256.84 769.133   1
  -9  -4   1 431.762 359.164   1
  -9  -4   0 2271.56 467.524   1
  -9  -4  -1 3396.94 529.821   1
  -9  -4  -2 3638.40 568.032   1
  -9  -3  10 488.814 378.662   1
  -9  -3   9 2705.59 537.992   1
  -9  -3   8 6482.79 703.333   1
  -9  -3   7 4249.88 607.409   1
  -9  -3   6 2932.38 528.955   1
  -9  -3   5 2919.82 502.822   1
  -9  -3   4 16171.9 1009.76   1
  -9  -3   3 2028.37 434.789   1
  -9  -3   2 324.966 321.672   1
  -9  -3   1 6972.46 685.260   1
  -9  -3   0 8601.80 734.017   1
  -9  -3  -1 579.221 369.002   1
  -9  -3  -2 380.040 363.208   1
  -9  -3  -3 7122.06 712.029   1
  -9  -3  -4 4159.92 585.588   1
  -9  -2  12 1688.20 441.952   1
  -9  -2  11 3275.46 547.809   1
  -9  -2  10 10606.1 868.154   1
  -9  -2   9 3037.86 526.827   1
  -9  -2   8 337.615 319.371   1
  -9  -2   7 8345.01 725.659   1
  -9  -2   6 11859.0 849.642   1
  -9  -2   5 612.210 316.269   1
  -9  -2   4 692.164 347.573   1
  -9  -2   3 4865.62 565.549   1
  -9  -2   2 9437.30 748.112   1
   9  -2  -1 4468.42 476.372   5
  -9  -2   1 3921.74 505.919   1
   9  -2   0 834.499 270.074   5
  -9  -2   0 788.833 321.163   1
  -9  -2  -1 7806.55 693.672   1
   9  -2   1 7378.59 594.704   5
  -9  -2  -2 11249.9 838.270   1
   9  -2   2 11518.1 737.342   5
  -9  -2  -3 1358.85 417.291   1
  -9  -2  -4 1433.17 360.508   2
  -9  -2  -4 1032.32 379.576   1
  -9  -2  -5 5378.43 577.645   2
  -9  -2  -5 5651.82 644.161   1
  -9  -1  13 1822.69 482.846   1
   9  -1 -12 5594.89 558.881   5
  -9  -1  12 5228.07 640.360   1
   9  -1 -11 3755.63 450.588   5
  -9  -1  11 3406.43 538.481   1
   9  -1 -10 704.022 299.059   5
  -9  -1  10 752.104 322.084   1
   9  -1  -9 3344.06 424.777   5
  -9  -1   9 3432.75 514.650   1
  -9  -1   8 14147.2 908.550   1
   9  -1  -8 13979.1 769.995   5
  -9  -1   7 8802.87 731.120   1
   9  -1  -7 8996.60 626.057   5
   9  -1  -6 508.252 256.405   5
  -9  -1   6 38.5969 283.557   1
  -9  -1   5 8107.43 686.455   1
   9  -1  -5 9831.43 661.251   5
  -9  -1   4 18349.2 991.757   1
   9  -1  -4 19812.9 944.857   5
  -9  -1   3 2318.58 429.086   1
   9  -1  -3 1459.99 338.653   5
   9  -1  -2 2811.96 400.205   5
  -9  -1   2 2093.58 408.691   1
   9  -1  -1 5797.49 545.207   5
  -9  -1   1 5623.16 586.437   1
  -9  -1   0 7262.45 634.747   1
   9  -1   0 7040.37 604.717   5
   9  -1   1 752.684 310.105   5
  -9  -1  -1 227.094 272.774   1
   9  -1   2 1915.00 389.903   5
  -9  -1  -2 2169.08 419.112   1
   9  -1   3 5084.83 578.316   5
  -9  -1  -3 5297.20 602.829   1
  -9  -1  -4 7417.42 692.822   1
  -9  -1  -4 7525.97 652.356   2
   9  -1   4 7247.44 662.649   5
   9  -1   5 864.719 357.724   5
  -9  -1  -5 671.117 358.014   2
  -9  -1  -5 626.832 352.173   1
   9  -1   6 1536.20 415.260   5
  -9  -1  -6 2502.93 458.728   2
  -9  -1  -6 1813.26 469.692   1
   9   0 -14 3019.90 506.094   5
  -9   0  14 2430.39 474.252   1
   9   0 -13 2332.06 443.033   5
  -9   0  13 2157.23 469.773   1
   9   0 -12 174.300 316.501   5
  -9   0  12 231.485 312.049   1
   9   0 -11 3327.08 481.834   5
  -9   0  11 1698.42 402.900   1
  -9   0  10 9975.81 779.995   1
   9   0 -10 11110.8 760.204   5
   9   0  -9 3272.28 472.046   5
  -9   0   9 3071.99 463.418   1
   9   0  -8 804.407 340.768   5
  -9   0   8 687.129 300.464   1
   9   0  -7 5066.45 528.634   5
  -9   0   7 4045.60 502.152   1
  -9   0   6 8293.61 660.427   1
   9   0  -6 9847.50 701.843   5
   9   0  -5 5873.57 573.248   5
  -9   0   5 4732.42 520.839   1
   9   0  -4 861.499 278.931   5
  -9   0   4 659.306 272.830   1
  -9   0   3 3149.20 440.269   1
   9   0  -3 2787.50 442.507   5
  -9   0   2 10023.5 707.807   1
   9   0  -2 9209.03 692.775   5
   9   0  -1 3851.69 489.333   5
  -9   0   1 4831.83 531.990   1
   9   0   0 1346.49 358.899   5
  -9   0   0 2889.82 457.556   1
  -9   0  -1 9571.20 710.535   1
   9   0   1 10284.8 763.304   5
  -9   0  -2 6877.23 624.257   1
   9   0   2 7323.66 682.361   5
   9   0   3 354.822 323.134   5
  -9   0  -3 302.628 246.022   2
  -9   0  -3 384.391 305.120   1
   9   0   4 7183.37 681.145   5
  -9   0  -4 7130.70 676.714   1
  -9   0  -4 7529.84 608.134   2
   9   0   5 2104.67 429.501   5
  -9   0  -5 2708.59 444.415   2
  -9   0  -5 2200.49 448.972   1
   9   0   6 6093.86 687.631   5
  -9   0  -6 6985.67 632.711   2
  -9   0  -6 5638.28 648.224   1
  -9   0  -7 220.086 333.278   2
   9   1 -13 1237.88 409.381   5
  -9   1  13 1394.93 384.126   1
   9   1 -12 6342.01 637.185   5
  -9   1  12 5545.26 601.252   1
   9   1 -11 3155.97 495.411   5
  -9   1  11 2362.15 432.258   1
   9   1 -10 800.762 350.240   5
  -9   1  10 484.645 295.912   1
   9   1  -9 3599.82 496.194   5
  -9   1   9 3381.49 463.611   1
  -9   1   8 14071.1 836.443   1
   9   1  -8 12929.5 847.813   5
  -9   1   7 6651.89 579.597   1
   9   1  -7 7678.95 656.687   5
   9   1  -6 472.757 321.797   5
  -9   1   6 233.162 249.506   1
  -9   1   5 8817.19 647.946   1
   9   1  -5 9942.55 752.266   5
  -9   1   4 18401.1 904.227   1
   9   1  -4 16078.9 949.469   5
   9   1  -3 1435.14 373.108   5
  -9   1   3 1974.51 368.259   1
   9   1  -2 2031.75 403.919   5
  -9   1   2 2778.75 415.144   1
   9   1  -1 5420.49 570.002   5
  -9   1   1 5511.56 533.914   1
   9   1   0 6051.27 608.155   5
  -9   1   0 7259.83 614.512   1
   9   1   1 1063.73 364.464   5
  -9   1  -1 1596.23 315.799   2
  -9   1  -1 1559.30 347.861   1
   9   1   2 1864.93 433.988   5
  -9   1  -2 1923.37 332.473   2
  -9   1  -2 1508.00 362.305   1
   9   1   3 5225.84 627.271   5
  -9   1  -3 4737.70 484.586   2
  -9   1  -3 5598.10 582.161   1
   9   1   4 5878.29 674.806   5
  -9   1  -4 7243.60 663.317   1
  -9   1  -4 6917.20 584.620   2
   9   1   5 616.190 380.260   5
  -9   1  -5 1233.99 344.641   2
   9   1   6 1768.89 475.856   5
  -9   1  -6 1190.74 358.392   2
   9   1   7 3891.77 646.331   5
  -9   1  -7 2966.93 474.040   2
  -9   1  -8 1951.92 461.571   2
   9   2 -12 1654.01 440.743   5
   9   2 -11 3140.05 486.566   5
   9   2 -10 9003.20 760.966   5
   9   2  -9 2574.68 494.059   5
  -9   2   9 3252.58 435.703   1
   9   2  -8 125.249 310.134   5
  -9   2   8 27.4038 215.374   1
  -9   2   7 7350.77 586.640   1
   9   2  -7 8268.73 728.689   5
  -9   2   6 12434.0 725.657   1
   9   2  -6 12926.8 873.785   5
   9   2  -5-91.6173 316.067   5
  -9   2   5 67.6608 226.909   1
   9   2  -4-10.7221 321.483   5
  -9   2   4 404.444 233.369   1
   9   2  -3 5987.25 628.902   5
  -9   2   3 5877.01 507.457   1
  -9   2   2 8959.73 613.021   1
   9   2  -2 9291.00 772.295   5
   9   2  -1 4740.34 581.364   5
  -9   2   1 3627.08 437.300   1
   9   2   0 874.127 369.337   5
  -9   2   0 699.681 229.025   2
  -9   2   0 498.755 267.316   1
  -9   2  -1 8275.54 638.393   1
  -9   2  -1 8191.31 534.507   2
   9   2   1 8770.53 795.022   5
  -9   2  -2 11745.6 759.025   1
  -9   2  -2 12040.6 665.300   2
   9   2   2 12767.1 938.803   5
   9   2   3 48.3114 334.215   5
  -9   2  -3 1039.97 284.101   2
  -9   2  -3 740.461 330.202   1
   9   2   4 1456.95 465.008   5
  -9   2  -4 1696.35 326.583   2
   9   2   5 5424.44 686.198   5
  -9   2  -5 4670.23 487.646   2
  -9   2  -6 3764.37 492.763   2
   9   2   6 2977.13 544.847   5
   9   3 -10 201.193 337.519   5
   9   3  -9 1695.84 427.602   5
   9   3  -8 5950.33 668.532   5
   9   3  -7 5303.77 639.745   5
   9   3  -6 2720.47 507.193   5
  -9   3   6 1442.20 384.552   4
   9   3  -5 3082.42 540.497   5
  -9   3   5 4759.79 595.640   4
  -9   3   4 15850.2 1066.20   4
   9   3  -4 16190.9 1014.83   5
   9   3  -3 2142.87 467.119   5
  -9   3   3 3030.68 593.947   4
  -9   3   3 2175.48 334.272   1
  -9   3   2 984.889 276.630   1
  -9   3   2 890.061 487.955   4
   9   3  -1 5747.56 680.065   5
  -9   3   1 6927.44 538.515   1
  -9   3   1 7532.30 856.828   4
   9   3   0 7228.94 749.435   5
  -9   3   0 8694.30 617.288   1
  -9   3   0 9407.69 928.165   4
   9   3   1 819.727 393.035   5
  -9   3  -1 334.735 247.246   1
  -9   3  -1 1155.46 517.490   4
   9   3   2 943.119 401.766   5
  -9   3  -2 1361.06 484.103   4
   9   3   3 5378.09 712.079   5
  -9   3  -3 5081.50 727.899   4
   9   3   4 4458.29 673.579   5
  -9   3  -4 6561.41 829.551   4
   9   4  -8-49.0342 383.942   5
   9   4  -7 4034.12 613.722   5
   9   4  -6 6968.66 744.897   5
   9   4  -5 3159.24 561.762   5
   9   4  -4 59.1151 375.006   5
  -9   4   4 1293.62 447.096   4
   9   4  -3 3208.01 575.070   5
  -9   4   3 3496.75 611.823   4
   9   4  -2 7800.76 799.949   5
  -9   4   2 8450.14 947.226   4
   9   4  -1 1647.20 447.785   5
  -9   4   1 1259.24 546.440   4
   9   4   0 2534.41 539.737   5
  -9   4   0 2108.78 664.243   4
   9   4   1 4871.10 693.034   5
  -9   4  -1 4356.01 821.183   4
   9   4   2 4432.64 682.018   5
  -9   4  -2 3968.24 738.334   4
   9   4   2 2951.18 452.090   6
  -9   5   3-88.2337 388.189   4
  -9   5   2-656.393 510.462   4
  -9   5   1 751.735 532.504   4
  -9   5   0 2715.62 680.289   4
 -10  -3   4 2345.74 506.304   1
 -10  -3   3 4541.85 610.324   1
 -10  -2   8 4656.98 625.642   1
 -10  -2   7 287.224 344.854   1
 -10  -2   6 1168.92 409.127   1
 -10  -2   5 4168.35 563.241   1
 -10  -2   4 8784.00 780.011   1
 -10  -2   3-441.937 360.233   1
 -10  -2   2 4161.46 569.648   1
 -10  -2   1 6030.35 668.285   1
 -10  -2   0 3055.71 515.528   1
 -10  -2  -1 200.959 369.859   1
 -10  -1  10 4410.48 596.877   1
 -10  -1   9 512.685 360.519   1
 -10  -1   8 872.930 372.575   1
 -10  -1   7 5123.44 594.212   1
 -10  -1   6 6948.35 694.188   1
  10  -1  -5-537.261 327.912   5
 -10  -1   5-329.059 341.876   1
 -10  -1   4 2890.43 468.329   1
  10  -1  -4 2717.32 448.919   5
  10  -1  -3 6543.02 632.760   5
 -10  -1   3 6340.12 653.161   1
 -10  -1   2 6979.94 686.377   1
  10  -1  -2 7489.46 660.886   5
  10  -1  -1 735.895 318.647   5
 -10  -1   1 1134.35 429.704   1
  10  -1   0 2236.11 399.830   5
 -10  -1   0 3837.85 564.221   1
  10  -1   1 6254.98 622.724   5
 -10  -1  -1 6627.14 673.470   1
  10  -1   2 3816.99 535.399   5
 -10  -1  -2 4580.46 592.904   1
  10  -1   3 277.651 297.887   5
 -10  -1  -3 28.5377 296.140   2
  10  -1   4 3440.40 533.393   5
 -10  -1  -4 3610.91 550.480   2
  10   0 -11 1218.49 363.983   5
 -10   0  11 1516.73 412.151   1
  10   0 -10 635.456 371.945   5
 -10   0  10 227.460 328.768   1
  10   0  -9 6242.41 623.051   5
 -10   0   9 5276.29 611.386   1
  10   0  -8 6957.64 653.701   5
 -10   0   8 7286.27 680.995   1
  10   0  -7 327.448 304.855   5
 -10   0   7-113.922 335.228   1
  10   0  -6 2518.00 455.311   5
 -10   0   6 2341.91 441.603   1
 -10   0   5 7600.20 677.268   1
  10   0  -5 7589.07 688.805   5
 -10   0   4 10421.0 786.395   1
  10   0  -4 9956.22 773.630   5
  10   0  -3-315.276 314.840   5
 -10   0   3-115.708 309.356   1
  10   0  -2 3510.43 501.184   5
 -10   0   2 4970.69 559.316   1
  10   0  -1 5755.12 601.079   5
 -10   0   1 5719.08 608.093   1
  10   0   0 5418.88 604.883   5
 -10   0   0 5250.31 581.245   1
  10   0   1 396.903 311.195   5
 -10   0  -1 20.3061 300.257   1
  10   0   2 1485.02 410.945   5
 -10   0  -2 1732.56 379.859   2
 -10   0  -2 1436.46 425.034   1
  10   0   3 2017.29 464.336   5
 -10   0  -3 2495.67 431.861   2
 -10   0  -3 2409.51 497.642   1
  10   0   4 2371.74 477.037   5
 -10   0  -4 3345.98 483.335   2
  10   0   5-222.383 350.238   5
 -10   0  -5 264.404 323.120   2
  10   1 -11 2551.44 504.439   5
 -10   1  11 1492.44 397.024   1
  10   1 -10 5210.93 614.477   5
 -10   1  10 4692.78 554.030   1
  10   1  -9 1122.18 404.174   5
 -10   1   9 319.400 285.873   1
  10   1  -8-4.40263 335.431   5
 -10   1   8 554.899 296.456   1
 -10   1   7 4174.40 516.992   1
  10   1  -7 3938.29 534.206   5
 -10   1   6 8390.06 680.793   1
  10   1  -6 7827.28 719.823   5
  10   1  -5-17.6503 313.335   5
 -10   1   5 7.54569 261.436   1
  10   1  -4 1571.38 405.016   5
 -10   1   4 1473.45 382.159   1
 -10   1   3 7275.31 635.199   1
  10   1  -3 8873.18 771.055   5
  10   1  -2 4539.34 596.187   5
 -10   1   2 5977.80 594.551   1
  10   1  -1-194.068 366.599   5
 -10   1   1 1040.62 335.415   1
  10   1   0 3321.48 539.024   5
 -10   1   0 3905.19 525.196   1
  10   1   1 5889.21 675.387   5
 -10   1  -1 5751.43 514.045   2
 -10   1  -1 7156.53 663.795   1
  10   1   2 4222.53 620.440   5
 -10   1  -2 2995.15 411.634   2
 -10   1  -2 3258.44 485.313   1
  10   1   3 384.887 354.582   5
 -10   1  -3 206.498 250.463   2
 -10   1  -3 225.701 294.231   1
  10   1   4 4349.61 639.511   5
 -10   1  -4 4158.50 521.175   2
 -10   1  -4 4211.36 583.953   1
 -10   1  -5 997.328 356.076   2
  10   2  -9 1596.67 433.265   5
  10   2  -8 5349.63 649.058   5
  10   2  -7-324.367 367.747   5
  10   2  -6 970.435 391.375   5
 -10   2   6 525.328 256.937   1
  10   2  -5 4104.18 591.625   5
 -10   2   5 4997.21 510.855   1
  10   2  -4 5642.30 648.442   5
 -10   2   4 6113.67 581.046   1
  10   2  -3-221.027 371.611   5
 -10   2   3 154.331 256.664   1
  10   2  -2 2782.33 493.999   5
 -10   2   2 3978.84 479.922   1
  10   2  -1 4514.83 619.007   5
 -10   2   1 4655.96 514.793   1
  10   2   0 3038.58 561.656   5
 -10   2   0 3243.62 469.673   1
  10   2   1 365.476 395.908   5
 -10   2  -1 390.814 281.377   1
  10   2   2 1170.54 461.315   5
 -10   2  -2 2384.25 438.482   1
  10   3  -7 5172.23 664.026   5
  10   3  -6 4202.47 620.127   5
  10   3  -5 209.121 388.519   5
  10   3  -4 1062.65 447.746   5
 -10   3   4 2384.89 527.774   4
  10   3  -3 2795.84 564.906   5
 -10   3   3 4102.99 710.761   4
  10   3  -2 5417.41 690.870   5
 -10   3   2 5485.70 790.266   4
  10   3  -1-252.258 384.031   5
 -10   3   1 1217.08 499.716   4
  10   3   0 899.093 434.083   5
 -10   3   0 3916.23 748.392   4
 -10   4   3 385.887 442.481   4
 -10   4   2 1469.47 535.082   4
 -10   4   1 2059.67 656.557   4
 -11   0   7 2120.46 448.529   1
 -11   0   6 6442.22 682.091   1
  11   0  -5-691.305 374.158   5
 -11   0   5-294.662 329.447   1
  11   0  -4 3189.33 520.836   5
 -11   0   4 2632.38 493.007   1
  11   0  -3 5006.07 620.120   5
 -11   0   3 4945.74 606.130   1
  11   0  -2 912.701 408.199   5
  11   0  -1 779.462 337.419   5
  11   0   0 3191.79 514.903   5
  11   1  -8 1898.08 469.449   5
  11   1  -7 66.7858 328.132   5
  11   1  -6 3097.22 561.521   5
 -11   1   6 2370.09 456.831   1
  11   1  -5 2858.56 520.014   5
 -11   1   5 2233.74 429.339   1
  11   1  -4 2388.61 487.142   5
 -11   1   4 1970.99 432.811   1
  11   1  -3 286.405 352.928   5
 -11   1   3 181.923 286.264   1
  11   1  -2 2426.05 468.898   5
 -11   1   2 2008.95 427.161   1
  11   1  -1 2620.41 531.390   5
 -11   1   1 1391.09 395.658   1
  11   1   0 1095.05 434.465   5
   0   0   0    0.00    0.00   0

TITL MB7_100_A3_180202_EphBr_Mo in P2(1)
REM P2(1) (#4 in standard setting)
CELL 0.71073   7.446662   6.209608  12.586311  90.0000 101.1760  90.0000
ZERR    2.00   0.000204   0.000163   0.000418   0.0000   0.0030   0.0000
LATT -1
SYMM -x, y+1/2,-z
SFAC C H N O Br
UNIT 20.00 40.00 2.00 2.00 2.00
TREF
HKLF 4
END
;
_shelx_hkl_checksum              95459
loop_
_space_group_symop_operation_xyz
'x, y, z'
'-x, y+1/2, -z'
loop_
_atom_site_label
_atom_site_type_symbol
_atom_site_fract_x
_atom_site_fract_y
_atom_site_fract_z
_atom_site_U_iso_or_equiv
_atom_site_adp_type
_atom_site_occupancy
_atom_site_site_symmetry_order
_atom_site_calc_flag
_atom_site_refinement_flags_posn
_atom_site_refinement_flags_adp
C1 C 0.6376(4) 0.5680(5) 0.2364(3) 0.0247(7) Uani 1 1 d . .
H1 H 0.5163 0.6427 0.2231 0.030 Uiso 1 1 calc R U
C2 C 0.7788(4) 0.7162(5) 0.1991(3) 0.0225(6) Uani 1 1 d . .
H2 H 0.8049 0.8397 0.2508 0.027 Uiso 1 1 calc R U
C3 C 0.9582(4) 0.6031(5) 0.1945(3) 0.0278(6) Uani 1 1 d . .
H3A H 0.9369 0.4916 0.1383 0.042 Uiso 1 1 calc R U
H3B H 1.0068 0.5365 0.2648 0.042 Uiso 1 1 calc R U
H3C H 1.0466 0.7082 0.1773 0.042 Uiso 1 1 calc R U
C4 C 0.7944(5) 0.9827(5) 0.0495(3) 0.0319(8) Uani 1 1 d . .
H4A H 0.9177 0.9345 0.0442 0.048 Uiso 1 1 calc R U
H4B H 0.8033 1.1039 0.1002 0.048 Uiso 1 1 calc R U
H4C H 0.7287 1.0286 -0.0220 0.048 Uiso 1 1 calc R U
C5 C 0.6922(3) 0.5198(11) 0.3558(2) 0.0236(5) Uani 1 1 d . .
C6 C 0.7848(5) 0.3321(5) 0.3951(3) 0.0303(7) Uani 1 1 d . .
H6 H 0.8148 0.2290 0.3456 0.036 Uiso 1 1 calc R U
C7 C 0.8327(5) 0.2946(6) 0.5038(3) 0.0374(8) Uani 1 1 d . .
H7 H 0.8940 0.1649 0.5291 0.045 Uiso 1 1 calc R U
C8 C 0.7923(6) 0.4455(7) 0.5780(3) 0.0399(9) Uani 1 1 d . .
H8 H 0.8280 0.4197 0.6535 0.048 Uiso 1 1 calc R U
C9 C 0.7013(6) 0.6307(7) 0.5416(3) 0.0392(9) Uani 1 1 d . .
H9 H 0.6727 0.7332 0.5919 0.047 Uiso 1 1 calc R U
C10 C 0.6501(5) 0.6692(6) 0.4300(3) 0.0313(7) Uani 1 1 d . .
H10 H 0.5865 0.7977 0.4048 0.038 Uiso 1 1 calc R U
N1 N 0.6938(4) 0.8026(4) 0.0893(2) 0.0241(5) Uani 1 1 d . .
H1A H 0.6840 0.6929 0.0406 0.029 Uiso 1 1 calc R U
H1B H 0.5784 0.8483 0.0914 0.029 Uiso 1 1 calc R U
O1 O 0.6251(4) 0.3848(4) 0.1681(2) 0.0352(6) Uani 1 1 d . .
H1C H 0.5368 0.3077 0.1775 0.053 Uiso 1 1 calc R U
Br1 Br 0.31137(4) 0.02448(7) 0.13253(2) 0.02967(9) Uani 1 1 d . .
loop_
_atom_site_aniso_label
_atom_site_aniso_U_11
_atom_site_aniso_U_22
_atom_site_aniso_U_33
_atom_site_aniso_U_23
_atom_site_aniso_U_13
_atom_site_aniso_U_12
C1 0.0205(12) 0.0297(19) 0.0250(14) -0.0006(11) 0.0070(11) -0.0052(10)
C2 0.0217(14) 0.0240(13) 0.0219(14) -0.0025(11) 0.0048(11) -0.0038(11)
C3 0.0206(14) 0.0309(14) 0.0326(17) 0.0020(12) 0.0068(12) -0.0043(11)
C4 0.0332(16) 0.030(2) 0.0340(17) 0.0061(12) 0.0106(13) -0.0043(12)
C5 0.0199(10) 0.0258(12) 0.0271(13) 0.001(2) 0.0094(9) -0.0049(15)
C6 0.0333(18) 0.0287(15) 0.0305(18) 0.0021(13) 0.0101(14) 0.0026(13)
C7 0.0350(19) 0.0393(18) 0.039(2) 0.0119(16) 0.0108(16) 0.0058(15)
C8 0.0314(19) 0.061(2) 0.030(2) 0.0100(16) 0.0107(15) -0.0017(16)
C9 0.038(2) 0.050(2) 0.034(2) -0.0086(17) 0.0208(18) 0.0008(17)
C10 0.0309(17) 0.0327(16) 0.0332(18) 0.0003(13) 0.0134(14) 0.0072(13)
N1 0.0215(12) 0.0275(12) 0.0236(13) -0.0006(10) 0.0050(10) -0.0023(9)
O1 0.0401(15) 0.0360(12) 0.0314(13) -0.0076(10) 0.0118(11) -0.0214(11)
Br1 0.02423(13) 0.03410(15) 0.03116(15) 0.00244(19) 0.00657(10) -0.00652(16)
loop_
_atom_type_symbol
_atom_type_description
_atom_type_scat_dispersion_real
_atom_type_scat_dispersion_imag
_atom_type_scat_source
C C 0.0033 0.0016 'International Tables Vol C Tables 4.2.6.8 and 6.1.1.4'
H H 0.0000 0.0000 'International Tables Vol C Tables 4.2.6.8 and 6.1.1.4'
N N 0.0061 0.0033 'International Tables Vol C Tables 4.2.6.8 and 6.1.1.4'
O O 0.0106 0.0060 'International Tables Vol C Tables 4.2.6.8 and 6.1.1.4'
Br Br -0.2901 2.4595 'International Tables Vol C Tables 4.2.6.8 and 6.1.1.4'
loop_
_geom_angle_atom_site_label_1
_geom_angle_atom_site_label_2
_geom_angle_atom_site_label_3
_geom_angle
O1 C1 C5 114.7(3)
O1 C1 C2 105.3(2)
C5 C1 C2 110.7(3)
O1 C1 H1 108.6
C5 C1 H1 108.6
C2 C1 H1 108.6
N1 C2 C3 110.2(2)
N1 C2 C1 107.6(2)
C3 C2 C1 113.2(3)
N1 C2 H2 108.6
C3 C2 H2 108.6
C1 C2 H2 108.6
C2 C3 H3A 109.5
C2 C3 H3B 109.5
H3A C3 H3B 109.5
C2 C3 H3C 109.5
H3A C3 H3C 109.5
H3B C3 H3C 109.5
N1 C4 H4A 109.5
N1 C4 H4B 109.5
H4A C4 H4B 109.5
N1 C4 H4C 109.5
H4A C4 H4C 109.5
H4B C4 H4C 109.5
C10 C5 C6 118.6(3)
C10 C5 C1 118.8(5)
C6 C5 C1 122.5(4)
C7 C6 C5 120.8(3)
C7 C6 H6 119.6
C5 C6 H6 119.6
C6 C7 C8 120.5(4)
C6 C7 H7 119.8
C8 C7 H7 119.8
C9 C8 C7 119.8(4)
C9 C8 H8 120.1
C7 C8 H8 120.1
C8 C9 C10 120.0(4)
C8 C9 H9 120.0
C10 C9 H9 120.0
C5 C10 C9 120.3(4)
C5 C10 H10 119.9
C9 C10 H10 119.9
C4 N1 C2 115.4(3)
C4 N1 H1A 108.4
C2 N1 H1A 108.4
C4 N1 H1B 108.4
C2 N1 H1B 108.4
H1A N1 H1B 107.5
C1 O1 H1C 109.5
loop_
_geom_bond_atom_site_label_1
_geom_bond_atom_site_label_2
_geom_bond_distance
C1 O1 1.418(4)
C1 C5 1.509(4)
C1 C2 1.538(4)
C1 H1 1.0000
C2 N1 1.504(4)
C2 C3 1.521(4)
C2 H2 1.0000
C3 H3A 0.9800
C3 H3B 0.9800
C3 H3C 0.9800
C4 N1 1.486(4)
C4 H4A 0.9800
C4 H4B 0.9800
C4 H4C 0.9800
C5 C10 1.394(6)
C5 C6 1.395(7)
C6 C7 1.365(5)
C6 H6 0.9500
C7 C8 1.396(6)
C7 H7 0.9500
C8 C9 1.368(6)
C8 H8 0.9500
C9 C10 1.403(6)
C9 H9 0.9500
C10 H10 0.9500
N1 H1A 0.9100
N1 H1B 0.9100
O1 H1C 0.8400
loop_
_geom_hbond_atom_site_label_D
_geom_hbond_atom_site_label_H
_geom_hbond_atom_site_label_A
_geom_hbond_distance_DH
_geom_hbond_distance_HA
_geom_hbond_distance_DA
_geom_hbond_angle_DHA
_geom_hbond_site_symmetry_A
N1 H1A Br1 0.91 2.42 3.277(3) 156.3 2_655
N1 H1B Br1 0.91 2.41 3.302(3) 165.9 1_565
O1 H1C Br1 0.84 2.42 3.203(2) 155.2 .
loop_
_geom_torsion_atom_site_label_1
_geom_torsion_atom_site_label_2
_geom_torsion_atom_site_label_3
_geom_torsion_atom_site_label_4
_geom_torsion
O1 C1 C2 N1 69.8(3)
C5 C1 C2 N1 -165.7(3)
O1 C1 C2 C3 -52.2(4)
C5 C1 C2 C3 72.3(4)
O1 C1 C5 C10 -158.7(3)
C2 C1 C5 C10 82.4(3)
O1 C1 C5 C6 21.9(4)
C2 C1 C5 C6 -97.1(4)
C10 C5 C6 C7 0.2(5)
C1 C5 C6 C7 179.7(3)
C5 C6 C7 C8 -1.0(6)
C6 C7 C8 C9 1.1(6)
C7 C8 C9 C10 -0.5(6)
C6 C5 C10 C9 0.4(5)
C1 C5 C10 C9 -179.1(3)
C8 C9 C10 C5 -0.2(6)
C3 C2 N1 C4 -68.0(3)
C1 C2 N1 C4 168.2(2)
