#------------------------------------------------------------------------------
#$Date: 2019-11-17 04:49:54 +0200 (Sun, 17 Nov 2019) $
#$Revision: 227952 $
#$URL: file:///home/coder/svn-repositories/cod/cif/1/54/96/1549670.cif $
#------------------------------------------------------------------------------
#
# This file is available in the Crystallography Open Database (COD),
# http://www.crystallography.net/
#
# All data on this site have been placed in the public domain by the
# contributors.
#
data_1549670
loop_
_publ_author_name
'Dolai, Malay'
'Saha, Urmila'
'Das, Avijit Kumar'
'Suresh Kumar, Gopinatha'
_publ_section_title
;
 Single sensors for multiple analytes employing fluorometric
 differentiation for Cr3+ and Al3+ in semi-aqueous medium with
 bio-activity and theoretical aspects
;
_journal_issue                   33
_journal_name_full               'Analytical Methods'
_journal_page_first              4063
_journal_paper_doi               10.1039/C8AY01080C
_journal_volume                  10
_journal_year                    2018
_chemical_formula_moiety         'C16 H16 N2 O4'
_chemical_formula_sum            'C16 H16 N2 O4'
_chemical_formula_weight         300.31
_space_group_crystal_system      monoclinic
_space_group_IT_number           14
_space_group_name_Hall           '-P 2yn'
_space_group_name_H-M_alt        'P 1 21/n 1'
_symmetry_space_group_name_Hall  '-P 2yn'
_symmetry_space_group_name_H-M   'P 1 21/n 1'
_atom_sites_solution_hydrogens   mixed
_audit_creation_method           SHELXL-2014/7
_audit_update_record
;
2018-01-04 deposited with the CCDC.
2018-07-10 downloaded from the CCDC.
;
_cell_angle_alpha                90
_cell_angle_beta                 98.355(2)
_cell_angle_gamma                90
_cell_formula_units_Z            2
_cell_length_a                   10.3695(13)
_cell_length_b                   6.0922(8)
_cell_length_c                   11.4055(15)
_cell_measurement_reflns_used    255
_cell_measurement_temperature    100(2)
_cell_measurement_theta_max      31.275
_cell_measurement_theta_min      2.871
_cell_volume                     712.87(16)
_computing_cell_refinement       'Bruker Apex 2'
_computing_data_collection       'Bruker Apex 2'
_computing_data_reduction        'Bruker Apex 2'
_computing_molecular_graphics    'Bruker SHELXTL (Sheldrick, 2008)'
_computing_publication_material  'Bruker SHELXTL (Sheldrick, 2008)'
_computing_structure_refinement  'SHELXL-2014/7 (Sheldrick, 2008)'
_diffrn_ambient_temperature      100(2)
_diffrn_measured_fraction_theta_full 0.977
_diffrn_measured_fraction_theta_max 0.855
_diffrn_measurement_device_type  'Bruker Apex 2'
_diffrn_measurement_method       '\w scans'
_diffrn_radiation_type           MoK\a
_diffrn_radiation_wavelength     0.71073
_diffrn_reflns_av_R_equivalents  0.0127
_diffrn_reflns_av_unetI/netI     0.0195
_diffrn_reflns_Laue_measured_fraction_full 0.977
_diffrn_reflns_Laue_measured_fraction_max 0.855
_diffrn_reflns_limit_h_max       15
_diffrn_reflns_limit_h_min       -15
_diffrn_reflns_limit_k_max       8
_diffrn_reflns_limit_k_min       -8
_diffrn_reflns_limit_l_max       16
_diffrn_reflns_limit_l_min       -16
_diffrn_reflns_number            3328
_diffrn_reflns_point_group_measured_fraction_full 0.977
_diffrn_reflns_point_group_measured_fraction_max 0.855
_diffrn_reflns_theta_full        25.500
_diffrn_reflns_theta_max         31.443
_diffrn_reflns_theta_min         2.481
_exptl_absorpt_coefficient_mu    0.102
_exptl_absorpt_correction_T_max  0.7462
_exptl_absorpt_correction_T_min  0.6376
_exptl_absorpt_correction_type   multi-scan
_exptl_absorpt_process_details   'Sadabs (Sheldrick, 1996)'
_exptl_crystal_colour            yellow
_exptl_crystal_density_diffrn    1.399
_exptl_crystal_description       rod
_exptl_crystal_F_000             316
_exptl_crystal_size_max          0.550
_exptl_crystal_size_mid          0.280
_exptl_crystal_size_min          0.240
_refine_diff_density_max         0.479
_refine_diff_density_min         -0.215
_refine_diff_density_rms         0.057
_refine_ls_extinction_method     none
_refine_ls_goodness_of_fit_ref   1.048
_refine_ls_hydrogen_treatment    mixed
_refine_ls_matrix_type           full
_refine_ls_number_parameters     105
_refine_ls_number_reflns         2013
_refine_ls_number_restraints     0
_refine_ls_restrained_S_all      1.048
_refine_ls_R_factor_all          0.0437
_refine_ls_R_factor_gt           0.0405
_refine_ls_shift/su_max          0.000
_refine_ls_shift/su_mean         0.000
_refine_ls_structure_factor_coef Fsqd
_refine_ls_weighting_details
'w=1/[\s^2^(Fo^2^)+(0.0727P)^2^+0.1998P] where P=(Fo^2^+2Fc^2^)/3'
_refine_ls_weighting_scheme      calc
_refine_ls_wR_factor_gt          0.1134
_refine_ls_wR_factor_ref         0.1172
_reflns_Friedel_coverage         0.000
_reflns_number_gt                1834
_reflns_number_total             2013
_reflns_threshold_expression     'I > 2\s(I)'
_cod_data_source_file            c8ay01080c2.cif
_cod_data_source_block           MD-L
_cod_depositor_comments          'Adding full bibliography for 1549670.cif.'
_cod_database_code               1549670
_shelx_shelxl_version_number     2014/7
_shelx_space_group_comment
;
The symmetry employed for this shelxl refinement is uniquely defined
by the following loop, which should always be used as a source of
symmetry information in preference to the above space-group names.
They are only intended as comments.
;
_md-l_res_file
;
 
    MD-L.res created by SHELXL-2014/7
 
 
TITL    MD-L in P2(1)/n
CELL 0.71073  10.3695   6.0922  11.4055  90.000  98.355  90.000
ZERR    2.00   0.0013   0.0008   0.0015   0.000   0.002   0.000
LATT  1
SYMM  0.50000-X, 0.50000+Y, 0.50000-Z
SFAC    C   H   N O
UNIT    32 32 4 8
temp -173.15
L.S.    10
acta 51
conf
bond $h
htab
EQIV $1 -x+3/2, y-1/2, -z+1/2
HTAB C8 O2_$1
EQIV $2 -x+1, -y, -z+1
HTAB C8 O1_$2
HTAB O1 N1
omit    -1   4   1
omit    -5   0   3
omit    -5   2   1
omit    -2   2   2
WGHT    0.072700    0.199800
FVAR       0.34719
O1    4    0.257446    0.182718    0.491480    11.00000    0.01905    0.01099 =
         0.02351    0.00607    0.01206    0.00201
O2    4    0.601586    0.409374    0.281584    11.00000    0.01352    0.01260 =
         0.02899    0.00339    0.01164    0.00229
N1    3    0.060162    0.459229    0.489423    11.00000    0.01378    0.01272 =
         0.01659   -0.00056    0.00702    0.00120
C1    1    0.312789    0.339295    0.430888    11.00000    0.01377    0.00884 =
         0.01311    0.00092    0.00476   -0.00050
C2    1    0.430749    0.287987    0.391898    11.00000    0.01305    0.00825 =
         0.01596    0.00119    0.00440    0.00125
AFIX  43
H2A   2    0.470610    0.149122    0.409425    11.00000   -1.20000
AFIX   0
C3    1    0.489240    0.443356    0.326886    11.00000    0.01007    0.01029 =
         0.01623   -0.00045    0.00426   -0.00059
C4    1    0.432286    0.651142    0.302647    11.00000    0.01395    0.00921 =
         0.01843    0.00216    0.00547   -0.00092
AFIX  43
H4A   2    0.473225    0.756483    0.258907    11.00000   -1.20000
AFIX   0
C5    1    0.316987    0.700433    0.342754    11.00000    0.01359    0.00779 =
         0.01519    0.00083    0.00342    0.00021
AFIX  43
H5A   2    0.279348    0.841522    0.327195    11.00000   -1.20000
AFIX   0
C6    1    0.253305    0.546020    0.406540    11.00000    0.01248    0.00845 =
         0.01340   -0.00020    0.00393    0.00018
C7    1    0.127680    0.600819    0.438919    11.00000    0.01364    0.01053 =
         0.01379   -0.00113    0.00382    0.00091
AFIX  43
H7A   2    0.093599    0.744179    0.422837    11.00000   -1.20000
AFIX   0
C8    1    0.663098    0.199486    0.299478    11.00000    0.01538    0.01314 =
         0.02711   -0.00024    0.00707    0.00376
AFIX 137
H8A   2    0.744411    0.199736    0.265130    11.00000   -1.50000
H8B   2    0.604716    0.085962    0.260976    11.00000   -1.50000
H8C   2    0.682315    0.168948    0.384587    11.00000   -1.50000
AFIX   0
H1    2    0.179969    0.231226    0.502877    11.00000    0.03088
 
HKLF      4
 
REM     MD-L in P2(1)/n
REM R1 =  0.0405 for    1834 Fo > 4sig(Fo)  and  0.0437 for all    2013 data
REM    105 parameters refined using      0 restraints
 
END
 
WGHT      0.0727      0.1996
 
REM Instructions for potential hydrogen bonds
HTAB C8 O2_$1
HTAB C8 O1_$2
HTAB O1 N1
 
REM Highest difference peak  0.479,  deepest hole -0.215,  1-sigma level  0.057
Q1    1   0.4594  0.3674  0.3600  11.00000  0.05    0.48
Q2    1   0.2861  0.6226  0.3755  11.00000  0.05    0.44
Q3    1   0.3776  0.3212  0.4143  11.00000  0.05    0.43
Q4    1   0.4624  0.5541  0.3188  11.00000  0.05    0.43
Q5    1   0.1872  0.5632  0.4176  11.00000  0.05    0.41
Q6    1   0.3817  0.6729  0.3331  11.00000  0.05    0.39
Q7    1   0.2832  0.4453  0.4129  11.00000  0.05    0.37
Q8    1   0.1003  0.5336  0.4763  11.00000  0.05    0.31
Q9    1   0.3148  0.1330  0.5436  11.00000  0.05    0.31
Q10   1   0.5458  0.4070  0.2986  11.00000  0.05    0.30
Q11   1   0.2030  0.1508  0.4374  11.00000  0.05    0.23
Q12   1   0.1055  0.3671  0.5156  11.00000  0.05    0.21
Q13   1   0.2839  0.2550  0.4555  11.00000  0.05    0.21
Q14   1   0.6981  0.1807  0.3607  11.00000  0.05    0.21
Q15   1   0.5785  0.4231  0.2073  11.00000  0.05    0.20
Q16   1   0.0000  0.5000  0.5000  10.50000  0.05    0.20
Q17   1   0.6438  0.4311  0.3451  11.00000  0.05    0.18
Q18   1   0.5425  0.3781  0.2246  11.00000  0.05    0.18
Q19   1   0.6334  0.3055  0.3036  11.00000  0.05    0.17
Q20   1   0.4176  0.6694  0.2454  11.00000  0.05    0.15
;
_md-l_res_checksum               81045
_md-l_hkl_file
;
  -1   0   0    0.10    0.01
  -1   0   0    0.06    0.01
  -2   0   0   31.37    0.48
  -2   0   0   31.15    0.50
  -3   0   0    0.18    0.03
  -4   0   0    6.93    0.16
  -4   0   0    6.99    0.16
  -5   0   0    0.01    0.02
  -5   0   0    0.02    0.02
  -6   0   0   91.82    1.42
  -6   0   0   92.13    1.47
  -7   0   0    0.02    0.03
  -7   0   0    0.02    0.03
  -8   0   0    1.92    0.11
  -9   0   0    0.00    0.03
 -10   0   0    4.22    0.18
 -11   0   0    0.01    0.04
 -12   0   0   30.35    0.65
  14   0   0    3.05    0.18
   0  -1   0   -0.06    0.01
   1  -1   0   44.45    0.67
  -1  -1   0   44.49    0.65
  -1  -1   0   44.61    0.71
  -2  -1   0   63.78    0.95
  -2  -1   0   66.39    1.03
  -2   1   0   64.19    0.98
  -3  -1   0    5.93    0.15
  -4  -1   0    3.71    0.10
  -4  -1   0    3.62    0.12
  -5  -1   0    5.66    0.16
  -5   1   0    5.25    0.16
  -6  -1   0    0.40    0.05
  -6  -1   0    0.34    0.05
  -6   1   0    0.31    0.05
  -7  -1   0    0.25    0.04
  -7  -1   0    0.26    0.05
  -7   1   0    0.28    0.05
  -8  -1   0    2.03    0.11
  -8  -1   0    2.04    0.10
  -8   1   0    2.00    0.12
  -9  -1   0   10.93    0.30
  -9  -1   0   11.26    0.28
  -9   1   0   10.89    0.30
 -10  -1   0   13.76    0.34
 -10  -1   0   13.81    0.36
 -10   1   0   13.99    0.37
 -11  -1   0   29.67    0.60
  12  -1   0    1.10    0.12
 -12  -1   0    0.98    0.11
  13  -1   0    0.03    0.05
  14  -1   0    1.24    0.14
   0  -2   0   59.13    0.89
   1  -2   0  126.37    1.88
  -1  -2   0  129.74    1.98
  -1  -2   0  127.37    1.93
  -2  -2   0  146.58    2.22
  -2  -2   0  149.67    2.29
   2  -2   0  146.44    2.17
   3  -2   0    1.73    0.08
  -3  -2   0    1.76    0.08
  -3  -2   0    1.58    0.05
  -4  -2   0    0.98    0.07
   4  -2   0    1.00    0.06
  -5  -2   0   13.32    0.31
  -5  -2   0   13.28    0.25
  -6  -2   0    8.67    0.24
  -6  -2   0    8.46    0.19
  -7  -2   0  119.16    1.95
  -7  -2   0  119.03    1.80
  -8  -2   0   35.57    0.62
  -8  -2   0   35.39    0.70
   9  -2   0    5.92    0.22
  -9  -2   0    6.26    0.23
  -9  -2   0    6.00    0.19
  10  -2   0    0.72    0.09
 -10  -2   0    0.64    0.09
 -10  -2   0    0.65    0.08
 -11  -2   0    0.10    0.06
  11  -2   0    0.16    0.06
  12  -2   0    2.59    0.17
 -12  -2   0    2.66    0.17
  13  -2   0    1.00    0.12
  14  -2   0    0.16    0.08
   0  -3   0    0.02    0.02
  -1  -3   0   59.23    0.90
   1  -3   0   60.64    0.93
  -1  -3   0   59.27    0.99
   2  -3   0   17.12    0.32
  -2  -3   0   16.70    0.35
  -2  -3   0   17.09    0.29
   3  -3   0    0.23    0.04
  -3  -3   0    0.12    0.03
  -3  -3   0    0.16    0.02
   4  -3   0  136.01    2.06
  -4  -3   0  136.14    2.00
  -4  -3   0  136.27    2.18
   5  -3   0    8.27    0.22
  -6  -3   0    0.77    0.05
   6  -3   0    0.92    0.08
  -7  -3   0   58.45    1.06
  -7  -3   0   57.95    0.92
   7  -3   0   57.53    1.00
   8  -3   0   39.10    0.73
  -8  -3   0   37.78    0.77
  -9  -3   0   32.76    0.71
   9  -3   0   32.98    0.67
  10  -3   0    5.32    0.22
 -10  -3   0    5.23    0.24
  11  -3   0    8.61    0.30
 -11  -3   0    8.20    0.31
  12  -3   0    7.71    0.30
 -12  -3   0    8.26    0.32
  13  -3   0    4.17    0.23
 -13  -3   0    4.01    0.23
   0  -4   0   10.99    0.23
   0  -4   0   11.23    0.27
  -1  -4   0    9.53    0.20
   1  -4   0    8.99    0.21
  -1  -4   0    9.14    0.24
  -2  -4   0    0.07    0.02
  -2  -4   0    0.02    0.03
   2  -4   0    0.07    0.03
   3  -4   0    7.72    0.20
  -3  -4   0    7.56    0.23
  -3  -4   0    7.38    0.16
   4  -4   0   20.29    0.41
  -4  -4   0   19.35    0.34
  -4  -4   0   19.80    0.45
  -5  -4   0   38.64    0.76
   5  -4   0   38.31    0.70
  -6  -4   0    0.79    0.10
   6  -4   0    0.74    0.08
   7  -4   0    7.91    0.25
  -7  -4   0    7.63    0.27
  -8  -4   0    2.55    0.17
   8  -4   0    2.91    0.16
   9  -4   0    0.60    0.09
  -9  -4   0    0.75    0.11
 -10  -4   0    5.19    0.26
  10  -4   0    5.24    0.23
  11  -4   0    0.00    0.06
 -11  -4   0    0.07    0.07
  12  -4   0    3.69    0.21
 -12  -4   0    3.82    0.24
   0  -5   0    0.03    0.03
   0  -5   0   -0.01    0.03
  -1  -5   0    0.02    0.02
  -1  -5   0   -0.03    0.03
   1  -5   0    0.00    0.03
   1  -5   0    0.04    0.04
  -2  -5   0    2.60    0.14
   2  -5   0    2.50    0.11
   2  -5   0    2.57    0.12
  -2  -5   0    2.46    0.09
   3  -5   0    2.37    0.12
  -3  -5   0    2.20    0.14
   4  -5   0    6.89    0.21
  -4  -5   0    7.11    0.25
   5  -5   0    0.47    0.07
  -5  -5   0    0.59    0.09
  -6  -5   0    0.61    0.10
   6  -5   0    0.75    0.09
  -7  -5   0    0.22    0.07
   7  -5   0    0.33    0.07
   8  -5   0    0.60    0.10
  -8  -5   0    0.45    0.10
   9  -5   0    3.74    0.20
  -9  -5   0    3.67    0.22
  10  -5   0   -0.04    0.05
 -10  -5   0   -0.04    0.06
 -11  -5   0   -0.04    0.07
  11  -5   0   -0.01    0.05
   0  -6   0    2.04    0.13
   1  -6   0    0.50    0.06
  -1  -6   0    0.53    0.08
  -2  -6   0   21.23    0.51
   2  -6   0   21.17    0.44
   3  -6   0  100.80    1.63
  -3  -6   0  105.10    1.79
  -4  -6   0   10.63    0.35
   4  -6   0   10.52    0.29
  -5  -6   0    0.33    0.09
   5  -6   0    0.32    0.07
   6  -6   0    0.06    0.05
  -6  -6   0    0.11    0.07
  -7  -6   0    6.30    0.29
   7  -6   0    6.77    0.26
   8  -6   0   21.07    0.52
  -8  -6   0   21.19    0.59
  -9  -6   0    1.91    0.20
   9  -6   0    1.91    0.16
 -10  -6   0    6.69    0.33
  10  -6   0    6.28    0.28
  -2  -7   0    4.92    0.23
  -3  -7   0    4.29    0.22
  -4  -7   0    0.34    0.09
   4  -7   0    0.37    0.07
   5  -7   0    0.09    0.05
  -5  -7   0    0.07    0.07
   6  -7   0    0.08    0.06
  -6  -7   0    0.18    0.08
   7  -7   0    0.14    0.07
  -7  -7   0    0.08    0.08
  -8  -7   0    4.37    0.27
   8  -7   0    4.23    0.22
  -4  -8   0   11.19    0.42
  -5  -8   0   15.13    0.50
  -6  -8   0    0.07    0.09
  13   0  -1    0.04    0.05
  12   0  -1   -0.03    0.04
 -10   0   1    0.04    0.04
  -9   0   1    0.39    0.06
  -9   0   1    0.40    0.06
  -8   0   1    0.00    0.03
  -8   0   1    0.06    0.03
  -7   0   1    6.59    0.19
  -7   0   1    6.82    0.18
  -6   0   1    0.00    0.02
  -6   0   1    0.02    0.03
  -5   0   1  489.06    7.29
  -5   0   1  467.37    7.39
  -4   0   1    0.03    0.02
  -4   0   1    0.02    0.02
  -3   0   1   66.62    1.00
  -3   0   1   67.14    1.04
   2   0  -1    0.00    0.02
   1   0  -1  221.00    3.25
   0   0  -1    0.00    0.01
  -2   0  -1   -0.10    0.01
  -3   0  -1   13.01    0.25
  -4   0  -1    0.00    0.02
  -5   0  -1    0.03    0.03
  -6   0  -1    0.02    0.03
  -7   0  -1   70.21    1.14
  -8   0  -1    0.00    0.03
  -9   0  -1    0.19    0.05
 -10   0  -1   -0.02    0.03
 -11   0  -1   30.86    0.64
 -12   0  -1    0.03    0.05
 -13   0  -1    8.75    0.31
  15  -1  -1    0.81    0.13
  14  -1  -1    1.27    0.14
  13  -1  -1    0.36    0.08
  12  -1  -1    1.19    0.12
  11  -1  -1    7.73    0.26
 -11  -1   1    8.34    0.27
 -11  -1   1    8.40    0.26
  10  -1  -1    5.06    0.20
 -10  -1   1    5.21    0.20
 -10  -1   1    5.42    0.19
   9  -1  -1    2.50    0.13
  -9  -1   1    2.21    0.12
  -9  -1   1    2.15    0.11
  -8  -1   1    4.91    0.16
  -8  -1   1    4.81    0.17
  -7  -1   1    8.08    0.22
  -7  -1   1    8.13    0.20
  -6  -1   1   17.42    0.33
  -6  -1   1   17.34    0.36
  -5  -1   1  176.54    2.70
  -5  -1   1  171.23    2.55
  -4  -1   1   20.95    0.35
  -4  -1   1   20.98    0.40
   3  -1  -1    0.92    0.05
   2  -1  -1   35.86    0.56
   1  -1  -1    9.93    0.16
   1  -1  -1    9.77    0.18
  -1  -1  -1  201.92    3.12
  -1  -1  -1  202.57    3.05
  -1   1  -1  201.94    3.05
  -2  -1  -1   46.90    0.70
  -2  -1  -1   45.65    0.75
  -2   1  -1   46.86    0.72
  -3  -1  -1   90.01    1.43
  -3  -1  -1   91.42    1.35
  -3   1  -1   91.15    1.37
  -4  -1  -1    0.69    0.05
  -4  -1  -1    0.62    0.05
  -4   1  -1    0.61    0.05
  -5  -1  -1   38.26    0.68
  -5  -1  -1   38.83    0.64
  -5   1  -1   39.41    0.67
  -6  -1  -1   68.43    1.14
  -6  -1  -1   67.44    1.08
  -6   1  -1   69.13    1.11
  -7  -1  -1    4.53    0.15
  -7  -1  -1    4.18    0.15
  -7   1  -1    4.31    0.16
  -8  -1  -1   23.32    0.49
  -8  -1  -1   23.18    0.46
  -8   1  -1   23.87    0.49
  -9  -1  -1    1.25    0.09
  -9   1  -1    1.05    0.11
 -10  -1  -1    0.83    0.09
 -10   1  -1    0.77    0.09
 -11  -1  -1    1.28    0.12
 -11   1  -1    1.31    0.13
 -12  -1  -1    0.80    0.10
 -12   1  -1    0.67    0.10
 -13  -1  -1    1.20    0.13
  14  -1   1    0.18    0.07
  14  -2  -1    0.55    0.11
 -13  -2   1    1.13    0.13
  13  -2  -1    1.02    0.13
  12  -2  -1    5.56    0.23
 -12  -2   1    5.29    0.24
 -11  -2   1    0.01    0.05
  11  -2  -1    0.06    0.05
 -10  -2   1   17.49    0.44
  10  -2  -1   17.49    0.43
   9  -2  -1   87.89    1.43
  -9  -2   1   86.26    1.50
  -9  -2   1   86.63    1.37
   8  -2  -1    0.23    0.05
  -8  -2   1    0.18    0.04
  -8  -2   1    0.22    0.05
  -7  -2   1   31.00    0.62
  -7  -2   1   31.29    0.53
   7  -2  -1   30.43    0.58
   6  -2  -1    2.41    0.11
  -6  -2   1    2.49    0.09
  -6  -2   1    2.26    0.12
   5  -2  -1    0.21    0.04
  -5  -2   1    0.26    0.03
  -5  -2   1    0.22    0.04
   4  -2  -1   25.01    0.45
  -4  -2   1   25.05    0.48
  -4  -2   1   24.60    0.40
  -3  -2   1   11.91    0.27
   3  -2  -1   12.03    0.25
   2  -2  -1    7.23    0.16
  -2  -2   1    7.21    0.12
  -1  -2   1  152.51    2.23
   1  -2  -1  147.59    2.36
   1  -2  -1  155.36    2.23
   0  -2  -1    2.91    0.08
   0  -2   1    2.95    0.07
   0  -2  -1    2.87    0.08
   1  -2   1   72.34    1.08
  -1  -2  -1   72.13    1.07
  -1  -2  -1   71.57    1.14
  -2  -2  -1   94.40    1.39
  -2  -2  -1   94.65    1.50
  -3  -2  -1  116.89    1.72
  -3  -2  -1  119.81    1.85
  -3   2  -1  114.75    1.76
  -4  -2  -1   26.97    0.51
  -4  -2  -1   26.27    0.44
  -4   2  -1   26.26    0.48
  -5  -2  -1    1.11    0.06
  -5  -2  -1    1.01    0.08
  -5   2  -1    1.14    0.08
  -6  -2  -1   15.40    0.36
  -6  -2  -1   15.79    0.31
  -6   2  -1   16.10    0.35
  -7  -2  -1   21.04    0.46
  -7  -2  -1   21.00    0.40
  -7   2  -1   19.94    0.44
  -8  -2  -1   16.32    0.40
  -8  -2  -1   15.72    0.35
  -8   2  -1   16.58    0.39
  -9  -2  -1    0.51    0.08
  -9  -2  -1    0.55    0.07
  -9   2  -1    0.55    0.08
 -10  -2  -1   26.70    0.59
 -10  -2  -1   26.77    0.54
 -10   2  -1   26.12    0.58
 -11  -2  -1    1.10    0.12
  12  -2   1    2.48    0.17
  13  -2   1    2.21    0.16
  14  -2   1    3.83    0.22
 -14  -3   1    0.24    0.09
 -13  -3   1    5.79    0.27
  13  -3  -1    5.57    0.26
 -12  -3   1   10.72    0.37
  12  -3  -1   10.71    0.35
  11  -3  -1    3.69    0.19
 -11  -3   1    4.02    0.21
 -10  -3   1    0.82    0.11
  10  -3  -1    0.83    0.11
  -9  -3   1   55.62    1.07
   9  -3  -1   56.36    1.01
   8  -3  -1   21.25    0.46
  -8  -3   1   20.12    0.49
   7  -3  -1   13.71    0.34
  -7  -3   1   13.49    0.36
   6  -3  -1   73.76    1.20
  -6  -3   1   73.82    1.27
  -6  -3   1   71.34    1.11
  -5  -3   1    0.34    0.06
  -5  -3   1    0.43    0.03
   5  -3  -1    0.35    0.05
  -4  -3   1  117.86    1.71
  -4  -3   1  117.85    1.90
   4  -3  -1  115.51    1.79
  -3  -3   1    4.01    0.09
  -3  -3   1    3.84    0.15
   3  -3  -1    3.91    0.13
   2  -3  -1  168.82    2.44
   2  -3  -1  155.09    2.37
  -2  -3   1  155.36    2.35
   1  -3  -1  156.84    2.44
  -1  -3   1  161.63    2.31
   1  -3  -1  158.74    2.35
   0  -3  -1   26.80    0.45
   0  -3  -1   25.44    0.47
   0  -3   1   27.18    0.44
   1  -3   1    1.44    0.06
  -1  -3  -1    1.32    0.07
  -1  -3  -1    1.36    0.06
  -2  -3  -1   19.41    0.39
  -2  -3  -1   19.83    0.34
   2  -3   1   19.26    0.36
   3  -3   1    1.49    0.08
  -3  -3  -1    1.64    0.06
  -3  -3  -1    1.59    0.09
  -4  -3  -1   39.45    0.73
  -4  -3  -1   39.41    0.64
   4  -3   1   40.11    0.68
   5  -3   1    2.55    0.12
  -5  -3  -1    2.71    0.09
  -5  -3  -1    2.69    0.13
   6  -3   1    5.59    0.19
  -6  -3  -1    5.74    0.16
   7  -3   1   68.38    1.16
  -7  -3  -1   69.75    1.23
  -7  -3  -1   68.71    1.10
  -8  -3  -1   39.22    0.69
   8  -3   1   39.28    0.75
  -8  -3  -1   40.39    0.80
   9  -3   1    6.10    0.23
  -9  -3  -1    5.49    0.23
  10  -3   1   84.38    1.43
 -10  -3  -1   81.04    1.49
  11  -3   1   10.13    0.33
 -11  -3  -1   10.03    0.34
  12  -3   1    0.81    0.12
  13  -3   1    3.77    0.22
 -13  -4   1    4.90    0.28
 -12  -4   1    0.83    0.14
  12  -4  -1    1.00    0.14
 -11  -4   1   -0.03    0.06
  11  -4  -1    0.01    0.06
 -10  -4   1    1.63    0.15
  10  -4  -1    1.67    0.14
   9  -4  -1    1.28    0.13
  -9  -4   1    1.27    0.14
   8  -4  -1    0.54    0.08
  -8  -4   1    0.41    0.09
  -7  -4   1    0.13    0.06
   7  -4  -1    0.15    0.05
  -6  -4   1   32.59    0.69
   6  -4  -1   32.31    0.62
  -5  -4   1    0.11    0.05
   5  -4  -1    0.27    0.05
  -4  -4   1    1.09    0.11
   4  -4  -1    1.03    0.08
  -3  -4   1    0.31    0.06
   3  -4  -1    0.35    0.04
  -3  -4   1    0.35    0.03
   3  -4  -1    0.28    0.05
  -2  -4   1   30.39    0.61
   2  -4  -1   32.10    0.54
   2  -4  -1   30.67    0.55
  -2  -4   1   30.67    0.49
   1  -4  -1    0.56    0.06
   1  -4  -1    0.67    0.06
  -1  -4   1    0.73    0.05
   0  -4  -1   76.39    1.25
   0  -4   1   76.72    1.17
   0  -4  -1   76.18    1.18
  -1  -4  -1    2.30    0.11
  -1  -4  -1    2.32    0.09
   1  -4   1    2.45    0.09
   2  -4   1    0.03    0.03
  -2  -4  -1    0.36    0.06
   3  -4   1    4.93    0.16
  -3  -4  -1    5.19    0.18
  -3  -4  -1    5.11    0.13
   4  -4   1   22.37    0.45
  -4  -4  -1   23.02    0.50
  -4  -4  -1   23.30    0.41
   5  -4   1    3.33    0.14
  -5  -4  -1    3.22    0.11
  -5  -4  -1    3.51    0.16
  -6  -4  -1    1.25    0.12
   6  -4   1    1.35    0.10
  -7  -4  -1   19.57    0.48
   7  -4   1   18.45    0.43
   8  -4   1    0.41    0.07
  -8  -4  -1    0.34    0.08
  -9  -4  -1    2.92    0.19
   9  -4   1    3.05    0.17
 -10  -4  -1   33.26    0.76
  10  -4   1   33.43    0.71
  11  -4   1    4.36    0.22
 -11  -4  -1    4.75    0.25
  12  -4   1    9.83    0.35
 -12  -4  -1    9.83    0.38
  11  -5  -1    2.12    0.17
 -11  -5   1    1.99    0.18
  10  -5  -1    2.39    0.17
 -10  -5   1    2.00    0.18
  -9  -5   1    4.78    0.25
   9  -5  -1    4.50    0.22
   8  -5  -1   42.02    0.83
  -8  -5   1   42.88    0.92
   7  -5  -1   10.61    0.32
  -7  -5   1   10.61    0.36
  -6  -5   1   -0.02    0.04
   6  -5  -1    0.02    0.04
  -5  -5   1    4.77    0.22
   5  -5  -1    4.61    0.18
  -4  -5   1    2.13    0.14
   4  -5  -1    2.24    0.12
   3  -5  -1   19.23    0.40
  -3  -5   1   18.92    0.46
   2  -5  -1  130.89    2.03
  -2  -5   1  134.43    2.18
   1  -5  -1   74.01    1.22
  -1  -5   1   72.50    1.27
  -1  -5   1   72.90    1.13
   1  -5  -1   72.76    1.16
   0  -5   1    3.98    0.13
   0  -5  -1    3.89    0.15
   0  -5  -1    3.91    0.13
  -1  -5  -1    0.31    0.04
  -1  -5  -1    0.33    0.06
   1  -5   1    0.34    0.05
  -2  -5  -1   25.86    0.55
  -2  -5  -1   25.95    0.46
   2  -5   1   26.32    0.49
  -3  -5  -1   91.55    1.56
   3  -5   1   90.81    1.44
  -3  -5  -1   90.55    1.40
  -4  -5  -1    0.46    0.08
   4  -5   1    0.40    0.06
   5  -5   1    0.47    0.07
  -5  -5  -1    0.25    0.07
   6  -5   1    2.01    0.12
  -6  -5  -1    2.04    0.15
  -7  -5  -1    4.53    0.22
   7  -5   1    4.42    0.20
   8  -5   1   29.29    0.63
  -8  -5  -1   29.34    0.70
  -9  -5  -1    0.63    0.12
   9  -5   1    0.66    0.10
 -10  -5  -1   13.23    0.44
  10  -5   1   12.48    0.39
 -11  -5  -1    0.68    0.13
  11  -5   1    0.55    0.10
  10  -6  -1    2.17    0.17
 -10  -6   1    1.97    0.21
  -9  -6   1   14.56    0.49
   9  -6  -1   14.63    0.43
  -8  -6   1    0.10    0.07
   8  -6  -1    0.13    0.06
  -7  -6   1    1.95    0.19
   7  -6  -1    1.87    0.14
   6  -6  -1    1.01    0.11
  -6  -6   1    1.18    0.14
  -5  -6   1    4.64    0.23
   5  -6  -1    5.11    0.20
   4  -6  -1    0.17    0.06
  -4  -6   1    0.23    0.07
   3  -6  -1    1.32    0.10
  -3  -6   1    1.08    0.12
  -2  -6   1   55.80    1.04
   2  -6  -1   52.65    0.92
  -1  -6   1   15.50    0.40
   1  -6  -1   15.26    0.34
   0  -6   1    1.24    0.11
   0  -6  -1    1.00    0.08
   0  -6  -1    1.16    0.10
  -1  -6  -1    0.79    0.09
  -2  -6  -1   18.16    0.45
   2  -6   1   18.52    0.39
  -3  -6  -1   37.74    0.79
   3  -6   1   38.40    0.70
   4  -6   1    4.91    0.19
  -4  -6  -1    5.04    0.23
   5  -6   1   -0.02    0.04
  -5  -6  -1    0.02    0.06
   6  -6   1    4.56    0.20
  -6  -6  -1    4.99    0.25
  -7  -6  -1    0.13    0.07
   7  -6   1    0.26    0.07
  -8  -6  -1    0.44    0.11
   8  -6   1    0.46    0.09
   9  -6   1    6.80    0.28
  -9  -6  -1    6.67    0.32
  10  -6   1   -0.03    0.06
 -10  -6  -1    0.08    0.09
   8  -7  -1    9.79    0.34
  -8  -7   1    9.89    0.41
  -7  -7   1    3.87    0.25
   7  -7  -1    3.76    0.20
   6  -7  -1    0.03    0.05
  -6  -7   1    0.07    0.07
  -5  -7   1    2.38    0.19
   5  -7  -1    2.49    0.15
   4  -7  -1    4.94    0.20
  -4  -7   1    4.60    0.24
   3  -7  -1    0.66    0.09
  -3  -7   1    0.68    0.11
  -2  -7   1    2.68    0.18
  -2  -7  -1    3.06    0.18
  -3  -7  -1    8.17    0.31
  -4  -7  -1    7.12    0.30
  -5  -7  -1   15.03    0.46
   5  -7   1   14.65    0.38
   6  -7   1    6.00    0.24
  -6  -7  -1    6.16    0.29
  -7  -7  -1    2.05    0.21
   7  -7   1    2.11    0.16
   8  -7   1    2.99    0.19
  -8  -7  -1    2.32    0.21
  -6  -8   1   25.46    0.70
  -5  -8   1    9.77    0.39
  -4  -8   1   19.18    0.56
  -5  -8  -1    0.04    0.07
  -6  -8  -1   33.67    0.84
  13   0  -2   -0.04    0.04
  12   0  -2    1.70    0.12
  11   0  -2   -0.01    0.04
  10   0  -2   89.72    1.45
 -10   0   2   90.02    1.49
  -9   0   2   -0.02    0.03
   9   0  -2    0.04    0.03
   8   0  -2    1.14    0.08
  -8   0   2    1.09    0.08
  -7   0   2    0.00    0.02
   7   0  -2    0.02    0.02
   6   0  -2   31.68    0.54
  -6   0   2   30.84    0.55
   5   0  -2   -0.03    0.02
  -5   0   2   -0.02    0.02
  -4   0   2  138.05    2.12
   4   0  -2  137.87    2.03
   3   0  -2   -0.12    0.01
   2   0  -2  111.94    1.63
   1   0  -2    0.03    0.01
   0   0  -2   15.32    0.25
  -1   0  -2    0.07    0.02
  -2   0  -2  269.50    3.99
  -3   0  -2    0.01    0.02
  -4   0  -2   80.79    1.24
  -5   0  -2   -0.01    0.02
  -6   0  -2  270.64    3.99
  -7   0  -2    0.00    0.03
  -8   0  -2    1.47    0.10
  -9   0  -2    0.07    0.04
 -10   0  -2    2.08    0.13
 -11   0  -2    0.02    0.04
 -12   0  -2    5.87    0.24
 -13   0  -2    0.06    0.06
 -14   0  -2    0.05    0.06
  14  -1  -2    0.24    0.08
  13  -1  -2    0.21    0.07
 -12  -1   2    1.97    0.13
  12  -1  -2    2.00    0.14
 -11  -1   2    1.14    0.10
  11  -1  -2    1.07    0.11
  11   1  -2    1.30    0.10
  10  -1  -2    2.42    0.13
 -10  -1   2    2.68    0.14
  -9  -1   2    0.14    0.04
   9  -1  -2    0.22    0.05
   8  -1  -2    0.19    0.05
  -8  -1   2    0.33    0.06
  -8  -1   2    0.22    0.04
   7  -1  -2   21.87    0.43
  -7  -1   2   21.61    0.41
  -7  -1   2   22.15    0.45
  -7   1   2   22.51    0.40
  -6  -1   2    0.02    0.02
  -6  -1   2    0.03    0.03
   6  -1  -2   -0.01    0.02
  -6   1   2    0.00    0.02
  -5  -1   2  109.03    1.72
   5  -1  -2  106.58    1.64
  -5  -1   2  105.64    1.60
  -5   1   2  110.72    1.66
  -4  -1   2   11.00    0.24
   4  -1  -2   10.25    0.22
  -4   1   2   10.63    0.19
   3  -1  -2   34.96    0.56
   3   1  -2   35.42    0.52
  -3   1   2   34.09    0.54
   2  -1  -2  218.85    3.30
   2   1  -2  222.84    3.20
   1  -1  -2   43.78    0.66
   1   1  -2   42.06    0.62
   0  -1  -2   33.52    0.52
   0   1  -2   33.51    0.51
  -1   1  -2 1000.00   14.56
  -2  -1  -2  458.55    6.92
  -2  -1  -2  474.18    7.30
  -2   1  -2  455.29    6.95
  -3  -1  -2    6.92    0.15
  -3  -1  -2    6.83    0.17
  -3   1  -2    6.53    0.16
  -4  -1  -2    5.35    0.14
  -4  -1  -2    5.55    0.16
  -4   1  -2    5.65    0.15
  -5  -1  -2   12.26    0.28
  -5  -1  -2   12.44    0.26
  -5   1  -2   12.19    0.27
  -6  -1  -2    0.91    0.07
  -6   1  -2    0.87    0.07
  -7  -1  -2    0.38    0.05
  -7   1  -2    0.43    0.06
  -8  -1  -2    8.14    0.23
  -8   1  -2    8.00    0.25
  -9  -1  -2    8.67    0.26
  -9   1  -2    9.37    0.28
 -10  -1  -2    1.36    0.10
 -10   1  -2    1.31    0.12
 -11  -1  -2    3.18    0.16
 -11   1  -2    2.98    0.17
 -12  -1  -2    2.18    0.15
 -12   1  -2    2.22    0.16
 -13  -1  -2    1.32    0.14
 -13   1  -2    1.47    0.16
  14  -2  -2   14.64    0.43
  13  -2  -2    0.05    0.06
 -13  -2   2    0.17    0.07
 -12  -2   2    0.10    0.06
  12  -2  -2    0.12    0.06
  11  -2  -2   -0.02    0.04
 -11  -2   2    0.05    0.05
 -10  -2   2    0.09    0.05
  10  -2  -2   -0.01    0.04
   9  -2  -2  130.42    2.03
  -9  -2   2  127.43    2.13
  -8  -2   2    7.31    0.18
   8  -2  -2    6.86    0.22
  -8  -2   2    7.25    0.24
  -7  -2   2    1.23    0.10
  -7  -2   2    1.28    0.07
   7  -2  -2    1.24    0.09
   6  -2  -2   -0.04    0.03
  -6  -2   2   -0.03    0.03
   5  -2  -2    6.86    0.19
  -5  -2   2    7.05    0.21
  -5  -2   2    6.84    0.14
  -4  -2   2   23.41    0.36
   4  -2  -2   23.67    0.43
   3  -2  -2  216.27    3.17
   2  -2  -2   25.26    0.43
  -1  -2   2   55.87    0.78
   1  -2  -2   52.48    0.83
   1  -2  -2   52.09    0.84
   0  -2  -2    3.16    0.09
   0  -2  -2    3.25    0.09
   0   2  -2    3.22    0.08
  -1  -2  -2    5.37    0.14
  -1  -2  -2    5.66    0.13
  -1   2  -2    5.35    0.13
  -2  -2  -2   97.24    1.43
  -2  -2  -2   97.32    1.52
  -2   2  -2   93.07    1.44
  -3  -2  -2  160.32    2.48
  -3  -2  -2  157.99    2.33
  -3   2  -2  158.39    2.36
  -4  -2  -2    1.17    0.08
  -4  -2  -2    1.13    0.06
  -4   2  -2    1.08    0.07
  -5  -2  -2    0.18    0.04
  -5  -2  -2    0.37    0.04
  -5   2  -2    0.29    0.05
  -6  -2  -2    9.24    0.22
  -6  -2  -2    9.54    0.26
  -6   2  -2    9.43    0.25
  -7  -2  -2   17.58    0.41
  -7  -2  -2   18.21    0.37
  -7   2  -2   17.98    0.41
  -8  -2  -2   36.24    0.72
  -8  -2  -2   35.77    0.66
  -8   2  -2   36.57    0.70
  -9  -2  -2   14.87    0.35
  -9   2  -2   14.65    0.38
 -10  -2  -2   36.14    0.70
 -10   2  -2   36.97    0.75
 -11  -2  -2    1.36    0.11
 -11   2  -2    1.30    0.14
 -12   2  -2    0.22    0.08
 -14  -3   2    0.00    0.06
 -13  -3   2    2.91    0.20
  13  -3  -2    2.94    0.18
 -12  -3   2    5.25    0.25
  12  -3  -2    5.08    0.24
  11  -3  -2    0.05    0.05
 -11  -3   2    0.27    0.08
 -10  -3   2    7.84    0.29
  10  -3  -2    7.79    0.27
  -9  -3   2   60.87    1.15
   9  -3  -2   60.96    1.08
  -8  -3   2   10.15    0.32
   8  -3  -2   10.64    0.30
   7  -3  -2   43.97    0.80
  -7  -3   2   45.15    0.86
   6  -3  -2  109.62    1.74
  -6  -3   2  113.45    1.86
  -5  -3   2    2.78    0.14
   5  -3  -2    2.78    0.12
  -4  -3   2    0.08    0.01
   4  -3  -2    0.08    0.04
  -4  -3   2    0.06    0.04
   3  -3  -2   19.45    0.39
   3  -3  -2   21.20    0.33
   2  -3  -2    0.00    0.02
   2  -3  -2    0.03    0.01
  -2  -3   2    0.02    0.01
   1  -3  -2   73.85    1.19
  -1  -3   2   78.83    1.11
   1  -3  -2   73.18    1.16
   0  -3   2    2.45    0.07
   0  -3  -2    2.41    0.09
   0  -3  -2    2.40    0.09
  -1  -3  -2   14.68    0.28
  -1  -3  -2   14.77    0.30
   1  -3   2   14.57    0.27
  -2  -3  -2   52.56    0.89
  -2  -3  -2   52.97    0.82
   2  -3   2   51.08    0.83
  -3  -3  -2   23.19    0.40
  -3  -3  -2   23.34    0.46
  -4  -3  -2    3.75    0.12
  -4  -3  -2    3.71    0.15
  -4   3  -2    3.90    0.14
  -5  -3  -2   35.30    0.61
  -5  -3  -2   36.17    0.69
  -5   3  -2   36.77    0.66
  -6  -3  -2    3.77    0.13
  -6  -3  -2    3.35    0.16
  -6   3  -2    3.64    0.15
  -7  -3  -2   12.24    0.28
  -7  -3  -2   12.77    0.35
  -7   3  -2   12.25    0.33
  -8  -3  -2   11.96    0.29
  -8  -3  -2   12.16    0.35
  -8   3  -2   12.65    0.35
  -9  -3  -2    5.15    0.18
  -9  -3  -2    4.58    0.21
 -10  -3  -2   32.39    0.71
  11  -3   2    4.73    0.22
  12  -3   2    3.18    0.19
  13  -3   2    0.58    0.12
 -13  -4   2    1.03    0.15
 -12  -4   2    0.82    0.13
  12  -4  -2    1.11    0.14
  11  -4  -2   19.32    0.51
 -11  -4   2   19.25    0.55
  10  -4  -2    1.08    0.13
 -10  -4   2    1.17    0.14
  -9  -4   2    0.05    0.06
   9  -4  -2    0.08    0.05
  -8  -4   2    6.79    0.27
   8  -4  -2    6.59    0.24
   7  -4  -2   50.54    0.92
  -7  -4   2   52.06    1.00
   6  -4  -2   56.69    1.00
  -6  -4   2   60.17    1.10
  -5  -4   2    2.10    0.14
   5  -4  -2    2.23    0.12
   4  -4  -2    0.00    0.03
  -4  -4   2    0.02    0.03
   3  -4  -2    2.26    0.11
   2  -4  -2   34.45    0.62
  -2  -4   2   35.79    0.55
   2  -4  -2   36.04    0.60
   1  -4  -2    0.26    0.04
   1  -4  -2    0.23    0.04
  -1  -4   2    0.35    0.03
   0  -4  -2    7.61    0.19
   0  -4  -2    7.50    0.20
   0  -4   2    7.68    0.17
   1  -4   2   66.81    1.03
  -1  -4  -2   65.90    1.11
  -1  -4  -2   66.21    1.04
   2  -4   2    6.62    0.18
  -2  -4  -2    6.74    0.20
  -2  -4  -2    6.87    0.17
  -3  -4  -2    3.93    0.16
   3  -4   2    3.81    0.13
  -3  -4  -2    3.94    0.12
   4  -4   2    2.73    0.12
  -4  -4  -2    2.93    0.14
  -4  -4  -2    2.95    0.11
   5  -4   2   23.06    0.47
  -5  -4  -2   22.44    0.42
  -5  -4  -2   22.91    0.51
  -6  -4  -2    9.10    0.29
  -6  -4  -2    8.81    0.22
   6  -4   2    9.03    0.26
  -7  -4  -2    0.68    0.10
   7  -4   2    0.58    0.08
   8  -4   2    1.57    0.12
  -8  -4  -2    1.62    0.13
  -9  -4  -2    5.91    0.26
   9  -4   2    5.86    0.24
 -10  -4  -2    2.25    0.17
  10  -4   2    2.36    0.16
  11  -4   2    0.12    0.07
 -11  -4  -2    0.34    0.09
  12  -4   2    0.87    0.13
 -11  -5   2    0.98    0.15
  11  -5  -2    0.87    0.12
 -10  -5   2    0.09    0.07
  10  -5  -2    0.28    0.08
   9  -5  -2    8.78    0.31
  -9  -5   2    7.94    0.33
  -8  -5   2    0.09    0.06
   8  -5  -2    0.14    0.06
   7  -5  -2   25.13    0.55
  -7  -5   2   25.17    0.62
   6  -5  -2   20.03    0.45
  -6  -5   2   18.64    0.50
   5  -5  -2    6.86    0.23
  -5  -5   2    7.04    0.27
  -4  -5   2    0.49    0.08
   4  -5  -2    0.65    0.08
   3  -5  -2    1.95    0.11
  -3  -5   2    1.92    0.13
   2  -5  -2   96.70    1.53
   1  -5  -2   67.90    1.12
   1  -5  -2   66.63    1.09
   0  -5   2    0.14    0.03
   0  -5  -2    0.18    0.04
   0  -5  -2    0.12    0.04
  -1  -5  -2    0.11    0.04
  -1  -5  -2    0.10    0.03
   1  -5   2    0.12    0.03
  -2  -5  -2   10.34    0.29
   2  -5   2   11.12    0.26
  -2  -5  -2   10.47    0.24
  -3  -5  -2   17.93    0.36
  -3  -5  -2   18.18    0.43
   3  -5   2   17.96    0.38
  -4  -5  -2    7.54    0.26
   4  -5   2    7.42    0.22
   5  -5   2    8.83    0.26
  -5  -5  -2    9.14    0.30
   6  -5   2   12.28    0.33
  -6  -5  -2   12.06    0.37
  -7  -5  -2    0.43    0.09
   7  -5   2    0.43    0.08
  -8  -5  -2    1.72    0.16
   8  -5   2    1.66    0.14
  -9  -5  -2   18.17    0.52
   9  -5   2   18.91    0.48
 -10  -5  -2    6.99    0.31
  10  -5   2    7.06    0.28
  11  -5   2    9.54    0.35
 -11  -5  -2    9.76    0.38
  10  -6  -2    1.18    0.15
 -10  -6   2    1.20    0.17
   9  -6  -2    4.08    0.22
  -9  -6   2    4.39    0.26
  -8  -6   2    0.44    0.11
   8  -6  -2    0.28    0.08
  -7  -6   2    7.53    0.32
   7  -6  -2    7.96    0.28
  -6  -6   2    2.22    0.17
   6  -6  -2    2.42    0.15
  -5  -6   2    1.13    0.14
   5  -6  -2    0.97    0.10
   4  -6  -2    2.30    0.13
  -4  -6   2    2.35    0.17
   3  -6  -2    4.03    0.17
  -3  -6   2    4.64    0.22
   2  -6  -2    4.07    0.16
  -2  -6   2    3.99    0.20
  -1  -6   2   13.89    0.38
   1  -6  -2   13.48    0.32
   0  -6  -2    9.27    0.25
  -1  -6  -2    1.02    0.08
  -1  -6  -2    0.95    0.10
  -2  -6  -2   26.85    0.59
   3  -6   2   68.16    1.12
  -3  -6  -2   67.04    1.23
   4  -6   2    7.39    0.23
  -4  -6  -2    7.42    0.28
  -5  -6  -2    4.47    0.22
   5  -6   2    4.59    0.19
  -6  -6  -2    1.56    0.16
   6  -6   2    1.40    0.12
   7  -6   2    0.12    0.06
  -7  -6  -2    0.01    0.07
   8  -6   2    5.91    0.25
  -8  -6  -2    6.29    0.30
  -9  -6  -2    0.72    0.14
   9  -6   2    0.71    0.11
  10  -6   2    7.68    0.31
  -8  -7   2    0.07    0.08
   8  -7  -2    0.38    0.09
  -7  -7   2   -0.04    0.07
   7  -7  -2    0.06    0.06
  -6  -7   2    1.61    0.18
   6  -7  -2    1.34    0.13
   5  -7  -2    0.11    0.06
  -5  -7   2    0.08    0.07
   4  -7  -2    7.35    0.25
  -4  -7   2    7.24    0.30
   3  -7  -2    0.19    0.06
  -3  -7   2    0.18    0.07
  -2  -7   2    8.74    0.32
   2  -7  -2    8.18    0.26
  -1  -7   2    1.63    0.14
  -3  -7  -2    0.44    0.09
  -4  -7  -2   25.01    0.62
  -5  -7  -2    2.26    0.18
  -6  -7  -2   16.62    0.51
   6  -7   2   17.22    0.44
   7  -7   2    2.86    0.18
  -7  -7  -2    3.19    0.22
  -8  -7  -2    0.55    0.13
   8  -7   2    0.43    0.10
   6  -8  -2    7.60    0.29
  -6  -8   2    7.66    0.36
  -5  -8   2   22.44    0.63
   5  -8  -2   21.39    0.56
  -4  -8   2    3.01    0.22
  -3  -8   2   11.02    0.43
  -6  -8  -2   27.16    0.73
  12   0  -3    0.03    0.04
  11   0  -3   17.12    0.39
 -10   0   3    0.03    0.04
  10   0  -3   -0.01    0.03
   9   0  -3   16.82    0.36
  -9   0   3   17.43    0.38
   8   0  -3   -0.03    0.02
  -8   0   3    0.02    0.03
   7   0  -3   12.29    0.27
  -7   0   3   12.22    0.27
  -6   0   3    0.04    0.02
   6   0  -3    0.01    0.02
   5   0  -3   10.51    0.22
  -5   0   3   10.58    0.23
   4   0  -3    0.02    0.02
   3   0  -3   45.78    0.70
   2   0  -3    0.02    0.01
   1   0  -3   12.24    0.21
   0   0  -3    0.16    0.02
  -2   0  -3   -0.07    0.02
  -3   0  -3    9.76    0.21
  -4   0  -3    0.04    0.03
  -5   0  -3    0.95    0.07
  -6   0  -3   -0.03    0.02
  -7   0  -3   28.27    0.55
  -8   0  -3    0.01    0.03
  -9   0  -3   12.39    0.33
 -10   0  -3   -0.01    0.04
 -11   0  -3    2.42    0.15
 -12   0  -3   -0.03    0.04
 -13   0  -3    9.35    0.33
 -14   0  -3    0.01    0.06
  14  -1  -3    5.04    0.23
  13  -1  -3    8.09    0.28
  12  -1  -3    0.22    0.06
 -11  -1   3    7.69    0.26
  11  -1  -3    8.01    0.26
  10  -1  -3   15.54    0.37
 -10  -1   3   15.31    0.38
  10   1  -3   15.34    0.34
   9  -1  -3    0.91    0.09
  -9  -1   3    0.69    0.08
   9   1  -3    1.09    0.07
   8  -1  -3   68.55    1.11
  -8  -1   3   67.00    1.16
   8   1  -3   66.89    1.07
  -8   1   3   67.63    1.10
  -7  -1   3   12.14    0.30
   7  -1  -3   12.58    0.29
   7   1  -3   12.84    0.26
  -7   1   3   12.85    0.26
   6  -1  -3    2.65    0.11
  -6  -1   3    2.67    0.12
  -6   1   3    2.76    0.08
   6   1  -3    2.92    0.09
   5  -1  -3    5.08    0.15
   5   1  -3    5.61    0.12
  -5   1   3    5.30    0.12
   4  -1  -3   61.17    0.98
   4   1  -3   64.14    0.93
   3  -1  -3   55.81    0.87
   3   1  -3   55.76    0.82
   2  -1  -3    1.98    0.07
   2   1  -3    1.97    0.04
   1  -1  -3  194.94    2.90
   1   1  -3  193.84    2.86
   0  -1  -3   54.27    0.83
   0   1  -3   54.33    0.81
  -1  -1  -3  727.51   10.95
  -1   1  -3  754.92   10.92
  -2  -1  -3    0.43    0.04
  -2   1  -3    0.55    0.04
  -3  -1  -3   19.34    0.35
  -3   1  -3   18.84    0.35
  -4  -1  -3   12.26    0.25
  -4   1  -3   11.45    0.26
  -5  -1  -3    6.49    0.17
  -5   1  -3    6.14    0.18
  -6  -1  -3    0.15    0.04
  -6   1  -3    0.14    0.04
  -7  -1  -3    4.93    0.17
  -7   1  -3    4.86    0.18
  -8  -1  -3    1.22    0.09
  -8   1  -3    1.09    0.10
  -9  -1  -3    6.80    0.23
  -9   1  -3    6.59    0.23
 -10  -1  -3    2.10    0.13
 -10   1  -3    2.20    0.14
 -11  -1  -3   11.23    0.33
 -11   1  -3   10.96    0.34
 -12  -1  -3   20.71    0.51
 -12   1  -3   20.92    0.53
 -13  -1  -3    3.68    0.20
 -13   1  -3    3.91    0.21
 -14  -1  -3    0.02    0.06
  14  -2  -3   19.20    0.51
 -13  -2   3    0.02    0.05
  13  -2  -3   -0.03    0.05
 -12  -2   3    1.54    0.14
  12  -2  -3    1.61    0.13
  11  -2  -3    7.32    0.26
 -11  -2   3    7.19    0.27
  10  -2  -3    0.62    0.09
 -10  -2   3    0.43    0.08
  -9  -2   3    1.72    0.13
   9  -2  -3    1.67    0.11
   8  -2  -3   35.94    0.67
  -8  -2   3   35.19    0.71
   7  -2  -3   20.79    0.43
  -7  -2   3   21.16    0.47
   7   2  -3   21.68    0.37
  -6  -2   3   50.13    0.90
   6  -2  -3   48.80    0.84
   6   2  -3   50.04    0.76
   5  -2  -3   14.66    0.31
   5   2  -3   14.74    0.24
   4  -2  -3    2.98    0.11
   3  -2  -3   98.21    1.50
   2  -2  -3   13.67    0.27
   1  -2  -3   14.53    0.28
   1   2  -3   14.58    0.23
   0  -2  -3   12.52    0.24
   0   2  -3   12.88    0.23
  -1  -2  -3   17.03    0.31
  -1   2  -3   17.79    0.31
  -2  -2  -3   30.73    0.51
  -2  -2  -3   30.87    0.55
  -2   2  -3   30.28    0.52
  -3  -2  -3   41.01    0.66
  -3  -2  -3   40.40    0.71
  -3   2  -3   40.99    0.68
  -4  -2  -3    3.49    0.12
  -4   2  -3    3.55    0.13
  -5  -2  -3    0.65    0.05
  -5  -2  -3    0.52    0.06
  -5   2  -3    0.78    0.08
  -6  -2  -3    0.41    0.06
  -6  -2  -3    0.47    0.06
  -6   2  -3    0.47    0.06
  -7  -2  -3   19.94    0.41
  -7   2  -3   20.10    0.44
  -8  -2  -3   82.03    1.34
  -8   2  -3   82.81    1.38
  -9  -2  -3   34.18    0.66
  -9   2  -3   35.10    0.71
 -10  -2  -3    3.73    0.17
 -10   2  -3    3.64    0.19
 -11  -2  -3    0.88    0.10
 -11   2  -3    0.86    0.12
 -12  -2  -3    6.00    0.24
 -12   2  -3    6.07    0.27
 -13   2  -3    1.19    0.15
 -14  -3   3    1.97    0.18
  13  -3  -3    1.77    0.15
 -13  -3   3    2.00    0.20
  12  -3  -3    2.08    0.16
 -12  -3   3    2.09    0.17
 -11  -3   3   -0.06    0.05
  11  -3  -3   -0.02    0.05
  10  -3  -3    0.62    0.09
 -10  -3   3    0.52    0.09
   9  -3  -3    2.28    0.14
  -9  -3   3    2.48    0.17
  -8  -3   3    5.33    0.22
   8  -3  -3    5.04    0.20
   7  -3  -3   43.14    0.78
  -7  -3   3   43.00    0.85
   6  -3  -3  118.52    1.87
  -6  -3   3  120.65    1.99
   5  -3  -3    0.28    0.05
  -5  -3   3    0.36    0.06
   4  -3  -3   14.60    0.32
   3  -3  -3  118.85    1.81
  -2  -3   3    9.89    0.15
   2  -3  -3    9.49    0.23
   1  -3  -3    5.51    0.15
  -1  -3   3    5.81    0.11
   1  -3  -3    5.50    0.14
   0  -3  -3   88.64    1.41
   0  -3  -3   89.13    1.36
   0  -3   3   88.22    1.32
  -1  -3  -3   33.68    0.59
  -1  -3  -3   32.97    0.56
  -1   3  -3   33.37    0.55
  -2  -3  -3    0.36    0.05
  -2  -3  -3    0.25    0.04
  -2   3  -3    0.34    0.04
  -3  -3  -3   12.03    0.29
  -3  -3  -3   11.98    0.25
  -3   3  -3   11.93    0.27
  -4  -3  -3    1.76    0.10
  -4  -3  -3    1.65    0.08
  -4   3  -3    1.66    0.09
  -5  -3  -3   49.89    0.90
  -5  -3  -3   49.71    0.82
  -5   3  -3   48.61    0.85
  -6  -3  -3   21.71    0.42
  -6  -3  -3   20.99    0.47
  -6   3  -3   20.90    0.46
  -7  -3  -3    0.97    0.10
  -7  -3  -3    1.22    0.08
  -7   3  -3    1.32    0.10
  -8  -3  -3   14.76    0.34
  -8  -3  -3   15.25    0.40
  -8   3  -3   14.07    0.38
  -9  -3  -3   10.51    0.29
  -9   3  -3   10.78    0.33
 -10  -3  -3   16.48    0.40
 -10   3  -3   16.57    0.45
 -13  -4   3    0.33    0.11
 -12  -4   3    0.10    0.07
  12  -4  -3    0.18    0.08
 -11  -4   3   24.29    0.64
  11  -4  -3   24.04    0.59
  10  -4  -3    3.85    0.20
 -10  -4   3    4.14    0.23
   9  -4  -3    2.65    0.16
  -9  -4   3    2.51    0.18
  -8  -4   3    4.00    0.21
   8  -4  -3    3.68    0.18
   7  -4  -3    1.50    0.11
  -7  -4   3    1.53    0.13
   6  -4  -3   46.85    0.84
  -6  -4   3   46.89    0.93
   5  -4  -3    0.66    0.08
  -5  -4   3    0.75    0.10
   4  -4  -3   20.71    0.43
   3  -4  -3    1.14    0.08
   2  -4  -3    2.08    0.08
   2  -4  -3    2.14    0.11
   1  -4  -3    2.26    0.10
   1  -4  -3    2.38    0.09
  -1  -4   3    2.45    0.07
   0  -4  -3  130.76    2.08
   0  -4  -3  130.64    2.00
   0  -4   3  135.00    1.96
  -1  -4  -3    2.63    0.10
   1  -4   3    2.42    0.09
  -1  -4  -3    2.53    0.11
  -2  -4  -3    1.49    0.08
   2  -4   3    1.36    0.08
  -2  -4  -3    1.39    0.09
  -3  -4  -3    1.04    0.09
  -3  -4  -3    1.01    0.07
   3  -4   3    0.98    0.07
  -4  -4  -3    0.19    0.05
  -4  -4  -3    0.15    0.04
   4  -4   3    0.25    0.05
  -5  -4  -3   39.62    0.78
  -5  -4  -3   39.93    0.68
   5  -4   3   39.53    0.72
  -6  -4  -3    4.11    0.14
   6  -4   3    3.92    0.17
  -6  -4  -3    3.88    0.19
  -7  -4  -3    0.32    0.07
  -7  -4  -3    0.42    0.06
   7  -4   3    0.44    0.08
  -8  -4  -3    3.74    0.19
   8  -4   3    3.73    0.18
  -9  -4  -3    3.91    0.21
   9  -4   3    4.02    0.20
  10  -4   3    4.77    0.22
  11  -4   3    7.75    0.31
  11  -5  -3    0.61    0.11
 -11  -5   3    0.78    0.13
 -10  -5   3    1.64    0.18
  10  -5  -3    1.61    0.16
   9  -5  -3    1.04    0.12
  -9  -5   3    1.10    0.15
   8  -5  -3    0.09    0.06
  -8  -5   3    0.04    0.06
   7  -5  -3    1.81    0.13
  -7  -5   3    1.73    0.16
  -6  -5   3    5.37    0.24
   6  -5  -3    5.86    0.22
   5  -5  -3    0.03    0.04
  -5  -5   3   -0.03    0.05
   4  -5  -3    7.20    0.22
  -4  -5   3    6.75    0.26
   3  -5  -3    0.04    0.04
   2  -5  -3   23.13    0.47
   1  -5  -3    0.54    0.07
   0  -5  -3    4.45    0.16
   0  -5  -3    4.59    0.16
  -1  -5  -3   16.90    0.36
   1  -5   3   17.34    0.34
  -1  -5  -3   16.61    0.38
  -2  -5  -3    8.40    0.22
  -2  -5  -3    8.56    0.26
   2  -5   3    8.52    0.22
  -3  -5  -3    7.28    0.25
  -3  -5  -3    7.61    0.20
   3  -5   3    8.12    0.22
   4  -5   3    5.03    0.18
  -4  -5  -3    5.06    0.16
  -4  -5  -3    5.03    0.21
   5  -5   3    4.10    0.17
  -5  -5  -3    3.94    0.19
   6  -5   3    0.56    0.08
  -6  -5  -3    0.43    0.09
  -7  -5  -3    1.13    0.13
   7  -5   3    1.39    0.12
   8  -5   3    0.40    0.08
  -8  -5  -3    0.50    0.10
   9  -5   3    0.07    0.06
  -9  -5  -3   -0.04    0.06
  10  -5   3    0.60    0.11
 -10  -5  -3    0.62    0.11
  11  -5   3    1.00    0.15
  10  -6  -3    0.04    0.06
 -10  -6   3    0.07    0.08
  -9  -6   3    8.23    0.36
   9  -6  -3    7.99    0.31
  -8  -6   3    1.30    0.16
   8  -6  -3    1.18    0.13
  -7  -6   3   26.15    0.67
   7  -6  -3   25.54    0.58
   6  -6  -3    4.45    0.20
  -6  -6   3    4.22    0.23
  -5  -6   3    0.23    0.08
   5  -6  -3    0.22    0.06
   4  -6  -3    0.17    0.06
  -4  -6   3    0.09    0.06
  -3  -6   3   17.93    0.47
   3  -6  -3   16.90    0.40
   2  -6  -3   37.92    0.71
   1  -6  -3    0.30    0.06
   0  -6  -3    1.84    0.11
  -1  -6  -3    2.61    0.12
  -1  -6  -3    2.51    0.14
  -2  -6  -3    0.35    0.07
  -2  -6  -3    0.28    0.05
   3  -6   3   18.18    0.43
  -3  -6  -3   17.22    0.45
   4  -6   3   59.63    1.03
  -4  -6  -3   60.62    1.14
   5  -6   3    0.68    0.09
  -5  -6  -3    0.69    0.11
   6  -6   3    0.75    0.09
  -6  -6  -3    0.75    0.12
  -7  -6  -3    5.30    0.26
   7  -6   3    5.30    0.23
  -8  -6  -3    3.83    0.23
   8  -6   3    3.82    0.20
   9  -6   3   13.11    0.40
  -9  -6  -3   12.62    0.44
  -8  -7   3    9.55    0.40
   8  -7  -3   10.07    0.35
   7  -7  -3    6.18    0.26
  -7  -7   3    6.18    0.31
   6  -7  -3    0.83    0.11
  -6  -7   3    0.68    0.12
   5  -7  -3    3.15    0.17
  -5  -7   3    2.97    0.21
  -4  -7   3    5.73    0.27
   4  -7  -3    6.06    0.23
   3  -7  -3    1.32    0.11
  -3  -7   3    1.34    0.15
   2  -7  -3    2.08    0.13
  -2  -7   3    2.09    0.16
   1  -7  -3   21.62    0.48
  -1  -7   3   21.99    0.55
  -3  -7  -3    0.67    0.11
  -4  -7  -3   30.25    0.70
  -5  -7  -3    3.76    0.22
  -6  -7  -3    1.69    0.18
   7  -7   3    2.40    0.17
  -7  -7  -3    2.76    0.21
   8  -7   3    0.81    0.12
   6  -8  -3    0.49    0.09
   5  -8  -3    0.61    0.10
  -5  -8   3    0.41    0.10
  -4  -8   3    9.66    0.38
  -3  -8   3    0.50    0.11
  11   0  -4    0.04    0.04
  10   0  -4   18.36    0.40
   9   0  -4    0.02    0.03
  -9   0   4   -0.01    0.03
  -8   0   4    0.14    0.04
   8   0  -4    0.12    0.04
  -7   0   4    0.13    0.04
   7   0  -4   -0.02    0.02
  -6   0   4  101.77    1.63
   6   0  -4  102.19    1.55
   5   0  -4    0.07    0.02
   4   0  -4   65.40    1.00
   3   0  -4   -0.15    0.02
   2   0  -4    1.26    0.05
   1   0  -4    0.14    0.02
   0   0  -4   79.46    1.19
  -1   0  -4    0.05    0.02
  -2   0  -4   -0.06    0.02
  -3   0  -4    0.03    0.02
  -4   0  -4   13.20    0.28
  -5   0  -4    0.00    0.02
  -6   0  -4   24.56    0.48
  -7   0  -4    0.09    0.04
  -8   0  -4   10.49    0.29
  -9   0  -4    0.00    0.04
 -10   0  -4    0.23    0.06
 -11   0  -4    0.01    0.04
 -12   0  -4    2.63    0.17
 -13   0  -4    0.00    0.05
  13  -1  -4    3.90    0.19
  12  -1  -4    0.67    0.09
  11  -1  -4    6.66    0.23
 -11  -1   4    6.75    0.24
  10  -1  -4    4.61    0.18
 -10  -1   4    4.84    0.19
   9  -1  -4    6.41    0.20
  -9  -1   4    6.64    0.22
   9   1  -4    6.31    0.18
   8  -1  -4   57.88    0.97
  -8  -1   4   58.23    1.03
   8   1  -4   59.00    0.93
   7  -1  -4   13.83    0.31
  -7  -1   4   13.83    0.33
   7   1  -4   13.72    0.27
  -7   1   4   13.24    0.27
   6  -1  -4    5.25    0.16
   6   1  -4    5.45    0.13
  -6   1   4    5.13    0.13
   5  -1  -4   28.88    0.51
   5   1  -4   29.73    0.47
   4  -1  -4  244.52    3.62
   4   1  -4  251.01    3.68
   3  -1  -4    2.84    0.09
   3   1  -4    3.01    0.07
   2  -1  -4   31.83    0.52
   2   1  -4   31.97    0.49
   1  -1  -4   10.17    0.20
   0  -1  -4    7.68    0.16
   0   1  -4    7.58    0.15
  -1  -1  -4  154.90    2.28
  -1   1  -4  155.48    2.28
  -2  -1  -4   63.91    1.00
  -2   1  -4   64.56    1.00
  -3  -1  -4   10.06    0.22
  -3   1  -4    9.39    0.22
  -4  -1  -4   16.07    0.32
  -4   1  -4   16.04    0.33
  -5  -1  -4    3.82    0.14
  -5   1  -4    3.94    0.14
  -6  -1  -4    1.13    0.08
  -6   1  -4    1.22    0.09
  -7  -1  -4   39.62    0.72
  -7   1  -4   39.71    0.73
  -8  -1  -4   40.40    0.75
  -8   1  -4   40.66    0.77
  -9  -1  -4    3.52    0.16
  -9   1  -4    3.51    0.17
 -10  -1  -4    5.37    0.22
 -10   1  -4    5.69    0.23
 -11  -1  -4    0.21    0.07
 -11   1  -4    0.40    0.09
 -12  -1  -4    1.02    0.12
 -12   1  -4    1.26    0.14
 -13  -1  -4    0.78    0.12
 -13   1  -4    0.65    0.11
  14  -2  -4    1.38    0.15
  13  -2  -4    0.12    0.06
 -12  -2   4    1.67    0.14
  12  -2  -4    1.42    0.14
 -11  -2   4    0.02    0.05
  11  -2  -4    0.01    0.04
 -10  -2   4    2.90    0.17
  10  -2  -4    2.99    0.15
  -9  -2   4   26.40    0.58
   9  -2  -4   26.39    0.55
  -8  -2   4  127.23    2.11
   8  -2  -4  128.72    2.00
  -7  -2   4   32.76    0.65
   7  -2  -4   31.70    0.60
   6  -2  -4    3.17    0.13
   6   2  -4    3.51    0.09
   5  -2  -4   17.88    0.37
   5   2  -4   18.28    0.28
   4  -2  -4   69.60    1.10
   3  -2  -4   75.90    1.18
   2  -2  -4   63.23    1.01
   2   2  -4   65.92    0.94
   1  -2  -4   62.60    0.99
   1   2  -4   64.05    0.94
   0  -2  -4    7.27    0.17
   0   2  -4    7.15    0.15
  -1  -2  -4    0.87    0.05
  -1   2  -4    0.87    0.05
  -2  -2  -4  110.01    1.69
  -2   2  -4  115.22    1.70
  -3  -2  -4   80.73    1.24
  -3   2  -4   79.48    1.25
  -4  -2  -4   54.92    0.89
  -4   2  -4   55.48    0.91
  -5  -2  -4    1.59    0.09
  -5   2  -4    1.51    0.09
  -6  -2  -4    0.24    0.05
  -6   2  -4    0.17    0.05
  -7  -2  -4    5.85    0.19
  -7   2  -4    6.06    0.21
  -8  -2  -4   14.59    0.35
  -8   2  -4   14.24    0.37
  -9  -2  -4   16.28    0.40
  -9   2  -4   16.74    0.43
 -10  -2  -4    2.03    0.13
 -10   2  -4    2.02    0.15
 -11  -2  -4    0.47    0.08
 -11   2  -4    0.40    0.09
 -12  -2  -4    3.20    0.18
 -12   2  -4    3.13    0.19
 -13   2  -4    2.87    0.21
 -14  -3   4    0.86    0.14
 -13  -3   4    0.36    0.10
  13  -3  -4    0.22    0.08
  12  -3  -4    3.14    0.19
 -12  -3   4    2.99    0.20
 -11  -3   4   19.35    0.53
  11  -3  -4   18.90    0.48
  10  -3  -4    5.19    0.22
 -10  -3   4    5.13    0.24
   9  -3  -4    0.79    0.10
  -9  -3   4    1.00    0.12
  -8  -3   4   43.16    0.88
   8  -3  -4   44.98    0.82
  -7  -3   4    0.32    0.07
   7  -3  -4    0.42    0.07
   6  -3  -4    2.66    0.13
   5  -3  -4   27.63    0.53
   4  -3  -4    8.98    0.23
   3  -3  -4   20.87    0.41
   2  -3  -4    8.37    0.21
   1  -3  -4    4.68    0.14
  -1  -3   4    4.87    0.10
   0  -3  -4   83.70    1.30
   0   3  -4   83.63    1.26
  -1  -3  -4   16.99    0.33
  -1   3  -4   17.33    0.32
  -2  -3  -4   21.77    0.40
  -2   3  -4   21.25    0.40
  -3  -3  -4   13.29    0.28
  -3   3  -4   13.16    0.29
  -4  -3  -4    0.54    0.06
  -4   3  -4    0.54    0.06
  -5  -3  -4    0.08    0.03
  -5   3  -4    0.02    0.03
  -6  -3  -4    0.65    0.07
  -6   3  -4    0.68    0.08
  -7  -3  -4    0.04    0.04
  -7   3  -4    0.10    0.05
  -8  -3  -4   13.36    0.34
  -8   3  -4   13.68    0.37
  -9  -3  -4    0.59    0.08
  -9   3  -4    0.34    0.07
 -10  -3  -4    5.29    0.21
 -10   3  -4    5.62    0.25
 -11   3  -4   21.16    0.55
 -12   3  -4    2.42    0.19
 -13  -4   4    0.52    0.12
  12  -4  -4   25.33    0.62
 -12  -4   4   24.77    0.67
 -11  -4   4    1.13    0.15
  11  -4  -4    1.05    0.13
  10  -4  -4    0.02    0.05
 -10  -4   4    0.28    0.09
   9  -4  -4    0.02    0.05
  -9  -4   4    0.02    0.05
  -8  -4   4    0.05    0.06
   8  -4  -4    0.03    0.05
  -7  -4   4   16.74    0.46
   7  -4  -4   16.37    0.40
  -6  -4   4    2.13    0.15
   6  -4  -4    2.08    0.13
   5  -4  -4  140.54    2.18
   4  -4  -4    8.58    0.24
   3  -4  -4   21.71    0.44
   2  -4  -4    1.36    0.09
   1  -4  -4  163.19    2.46
   0  -4   4    6.56    0.15
   0  -4  -4    6.62    0.19
   0  -4  -4    6.64    0.18
  -1  -4  -4   13.75    0.31
  -1  -4  -4   13.69    0.30
   1  -4   4   13.93    0.28
  -2  -4  -4    0.40    0.06
   2  -4   4    0.25    0.04
  -2  -4  -4    0.29    0.04
  -3  -4  -4    0.14    0.04
  -3  -4  -4    0.07    0.04
  -4  -4  -4    0.39    0.06
  -4   4  -4    0.58    0.07
  -5  -4  -4   22.41    0.44
  -5  -4  -4   22.36    0.50
  -5   4  -4   21.56    0.47
  -6  -4  -4   10.79    0.27
  -6  -4  -4   10.09    0.31
  -6   4  -4   10.86    0.31
  -7  -4  -4    1.43    0.10
  -8  -4  -4    1.53    0.11
  -8   4  -4    1.61    0.13
  10  -4   4    1.03    0.13
  11  -4   4   65.82    1.24
 -11  -5   4    3.69    0.25
  11  -5  -4    3.43    0.21
  10  -5  -4    2.16    0.17
 -10  -5   4    2.31    0.19
  -9  -5   4    0.06    0.07
   9  -5  -4   -0.03    0.04
  -8  -5   4    0.47    0.10
   8  -5  -4    0.39    0.09
   7  -5  -4   15.71    0.41
  -7  -5   4   16.15    0.47
   6  -5  -4    3.57    0.17
  -6  -5   4    3.57    0.20
  -5  -5   4   25.47    0.61
   5  -5  -4   27.00    0.55
   4  -5  -4   -0.04    0.04
   3  -5  -4    0.21    0.05
   2  -5  -4    9.02    0.25
   1  -5  -4   93.35    1.49
   0  -5  -4   66.15    1.09
   0  -5  -4   66.77    1.12
  -1  -5  -4    0.10    0.04
  -1  -5  -4    0.10    0.04
  -2  -5  -4    2.20    0.12
   2  -5   4    2.21    0.10
  -2  -5  -4    2.29    0.11
  -3  -5  -4   14.11    0.36
   3  -5   4   13.98    0.32
  -3  -5  -4   13.87    0.32
   4  -5   4   24.48    0.50
  -4  -5  -4   24.39    0.48
  -4  -5  -4   25.03    0.55
  -5  -5  -4    8.36    0.28
  -5  -5  -4    8.30    0.23
   5  -5   4    8.21    0.25
  -6  -5  -4    1.02    0.12
   6  -5   4    1.03    0.11
   7  -5   4    3.74    0.18
  -7  -5  -4    3.84    0.20
   8  -5   4    0.20    0.07
   9  -5   4    2.92    0.18
  10  -5   4    0.31    0.08
  10  -6  -4    1.16    0.15
 -10  -6   4    0.94    0.15
  -9  -6   4    3.81    0.25
   9  -6  -4    4.31    0.23
   8  -6  -4   13.42    0.40
  -8  -6   4   13.54    0.46
  -7  -6   4    4.41    0.24
   7  -6  -4    4.06    0.20
  -6  -6   4    1.87    0.17
   6  -6  -4    2.01    0.14
   5  -6  -4    1.08    0.12
  -5  -6   4    0.68    0.11
  -4  -6   4    0.29    0.08
   4  -6  -4    0.46    0.08
   3  -6  -4   11.92    0.33
   2  -6  -4    1.25    0.10
   1  -6  -4   10.04    0.28
   0  -6  -4    0.62    0.08
  -1  -6  -4    0.30    0.06
  -2  -6  -4    2.43    0.12
  -2  -6  -4    2.38    0.14
  -3  -6  -4    7.67    0.27
  -3  -6  -4    7.53    0.23
  -4  -6  -4   41.61    0.85
   4  -6   4   42.42    0.79
   5  -6   4    0.01    0.04
  -5  -6  -4    0.06    0.06
  -6  -6  -4    1.19    0.14
   6  -6   4    1.24    0.12
   7  -6   4    0.27    0.08
  -7  -6  -4    0.21    0.08
   8  -6   4    0.78    0.12
   9  -6   4    7.04    0.29
  -8  -7   4    0.19    0.10
   8  -7  -4    0.13    0.07
  -7  -7   4    7.66    0.35
   7  -7  -4    7.46    0.29
   6  -7  -4    0.00    0.05
  -6  -7   4    0.00    0.06
  -5  -7   4    5.48    0.28
   5  -7  -4    5.63    0.23
   4  -7  -4    2.61    0.16
  -4  -7   4    2.43    0.19
  -3  -7   4    8.47    0.33
   3  -7  -4    8.53    0.28
   2  -7  -4    0.06    0.05
  -2  -7   4    0.08    0.07
   1  -7  -4    8.44    0.27
   0  -7  -4   10.35    0.30
  -4  -7  -4   22.65    0.57
  -5  -7  -4   17.34    0.50
  -6  -7  -4    2.35    0.19
  -7  -7  -4   26.87    0.69
   8  -7   4   12.56    0.40
   5  -8  -4   10.59    0.35
  -5  -8   4   10.11    0.40
  -4  -8   4    0.06    0.08
   4  -8  -4    0.01    0.05
  -3  -8   4    5.90    0.29
  11   0  -5    0.40    0.07
  10   0  -5   -0.04    0.03
   9   0  -5   61.06    1.00
  -9   0   5   60.26    1.05
   8   0  -5    0.01    0.03
  -8   0   5    0.03    0.03
  -7   0   5   13.83    0.31
   7   0  -5   13.65    0.29
   6   0  -5    0.07    0.03
   5   0  -5    3.39    0.10
   4   0  -5    0.07    0.02
   3   0  -5   63.44    0.97
   2   0  -5   -0.03    0.01
   1   0  -5   49.55    0.77
   0   0  -5   -0.11    0.01
  -1   0  -5    8.31    0.18
  -2   0  -5   -0.01    0.02
  -3   0  -5    3.26    0.12
  -4   0  -5    0.03    0.03
  -5   0  -5    0.35    0.05
  -6   0  -5    0.02    0.03
  -7   0  -5   29.99    0.59
  -8   0  -5    0.00    0.04
  -9   0  -5    1.63    0.12
 -10   0  -5   -0.03    0.04
 -11   0  -5    4.34    0.21
 -12   0  -5   -0.05    0.05
 -13   0  -5    9.30    0.34
  13  -1  -5   14.13    0.39
  12  -1  -5    3.63    0.17
  11  -1  -5    0.25    0.06
 -11  -1   5    0.41    0.08
 -10  -1   5    2.51    0.14
  10  -1  -5    2.77    0.14
  -9  -1   5   37.23    0.72
   9  -1  -5   35.94    0.67
  -8  -1   5   19.36    0.44
   8  -1  -5   19.04    0.40
   8   1  -5   19.46    0.36
   7  -1  -5   21.28    0.43
  -7   1   5   21.63    0.40
   7   1  -5   22.22    0.39
   6  -1  -5    1.08    0.07
   6   1  -5    1.18    0.05
   5  -1  -5    9.16    0.21
   5   1  -5    9.18    0.18
   4  -1  -5   90.75    1.41
   4   1  -5   93.30    1.36
   3  -1  -5    5.74    0.15
   3   1  -5    5.84    0.12
   2  -1  -5   90.00    1.36
   1  -1  -5   36.89    0.60
   1   1  -5   36.85    0.58
   0  -1  -5   13.50    0.26
   0   1  -5   13.44    0.25
  -1  -1  -5    2.88    0.10
  -1   1  -5    2.94    0.10
  -2  -1  -5  382.96    5.84
  -2   1  -5  387.74    5.74
  -3  -1  -5  335.39    5.12
  -3   1  -5  336.52    4.90
  -4  -1  -5    0.25    0.04
  -4   1  -5    0.22    0.04
  -5  -1  -5   16.59    0.36
  -5   1  -5   17.43    0.37
  -6  -1  -5    2.10    0.11
  -6   1  -5    2.10    0.12
  -7  -1  -5   22.32    0.47
  -8  -1  -5    9.20    0.27
  -8   1  -5    8.62    0.27
  -9  -1  -5   24.36    0.53
  -9   1  -5   23.88    0.54
 -10  -1  -5   15.64    0.41
 -10   1  -5   15.76    0.43
 -11  -1  -5    8.31    0.29
 -11   1  -5    7.80    0.30
 -12  -1  -5    0.28    0.08
 -12   1  -5    0.25    0.07
 -13  -1  -5    2.83    0.19
  14  -2  -5   24.33    0.59
  13  -2  -5    8.10    0.29
  12  -2  -5    0.20    0.07
 -12  -2   5    0.20    0.07
 -11  -2   5    0.73    0.10
  11  -2  -5    0.67    0.10
 -10  -2   5    0.19    0.06
  10  -2  -5    0.22    0.06
  -9  -2   5    3.21    0.17
   9  -2  -5    2.99    0.15
  -8  -2   5  117.79    2.00
   8  -2  -5  121.64    1.89
   7  -2  -5    7.42    0.22
   6  -2  -5    5.39    0.17
   5  -2  -5    3.86    0.14
   4  -2  -5   15.17    0.32
   3  -2  -5    5.96    0.17
   3   2  -5    6.10    0.11
   2  -2  -5   75.60    1.17
   2   2  -5   73.70    1.10
   1  -2  -5    7.03    0.18
   1   2  -5    6.72    0.14
   0  -2  -5    0.36    0.04
   0   2  -5    0.33    0.04
  -1  -2  -5    2.92    0.10
  -1   2  -5    2.77    0.10
  -2  -2  -5  114.09    1.73
  -2   2  -5  113.85    1.73
  -3  -2  -5    3.36    0.12
  -3   2  -5    3.71    0.13
  -4  -2  -5   45.13    0.76
  -4   2  -5   45.05    0.78
  -5  -2  -5    0.56    0.07
  -5   2  -5    0.67    0.07
  -6  -2  -5    0.62    0.07
  -6   2  -5    0.49    0.07
  -7  -2  -5    0.36    0.06
  -7   2  -5    0.24    0.06
  -8  -2  -5    3.03    0.15
  -8   2  -5    2.70    0.15
  -9  -2  -5    9.87    0.30
  -9   2  -5   10.11    0.32
 -10  -2  -5   14.54    0.39
 -10   2  -5   14.37    0.41
 -11  -2  -5   11.25    0.35
 -11   2  -5   11.18    0.37
 -12  -2  -5    1.67    0.14
 -12   2  -5    1.99    0.17
 -13  -2  -5    0.05    0.07
  13  -3  -5    0.01    0.06
 -13  -3   5   -0.03    0.06
  12  -3  -5    0.31    0.08
 -12  -3   5    0.27    0.09
  11  -3  -5    4.03    0.20
 -11  -3   5    4.19    0.23
 -10  -3   5    2.16    0.16
  10  -3  -5    2.27    0.15
  -9  -3   5    0.08    0.06
   9  -3  -5   -0.10    0.03
   8  -3  -5    0.66    0.09
  -8  -3   5    0.46    0.09
   7  -3  -5   13.04    0.33
  -7  -3   5   13.18    0.37
   6  -3  -5    0.23    0.05
   5  -3  -5   63.30    1.05
   4  -3  -5    3.55    0.14
   3  -3  -5    7.21    0.20
   2  -3  -5    1.73    0.09
   1  -3  -5    0.30    0.04
   1   3  -5    0.25    0.03
   0  -3  -5   63.92    1.02
   0   3  -5   63.23    0.98
  -1  -3  -5   10.51    0.25
  -1   3  -5   11.06    0.23
  -2  -3  -5    9.98    0.24
  -3  -3  -5    8.14    0.21
  -3   3  -5    7.96    0.21
  -4  -3  -5    2.17    0.10
  -4   3  -5    1.99    0.11
  -5  -3  -5    9.55    0.25
  -5   3  -5    9.38    0.26
  -6  -3  -5    5.11    0.18
  -6   3  -5    5.07    0.19
  -7  -3  -5    7.20    0.23
  -7   3  -5    6.74    0.24
  -8  -3  -5    0.00    0.04
  -8   3  -5   -0.03    0.04
  -9  -3  -5    8.23    0.27
  -9   3  -5    8.39    0.30
 -10  -3  -5    0.82    0.10
 -10   3  -5    0.77    0.11
 -11  -3  -5   15.97    0.43
 -11   3  -5   15.30    0.45
 -12   3  -5    1.26    0.16
  12  -4  -5    0.23    0.09
 -12  -4   5    0.21    0.09
 -11  -4   5    0.15    0.08
  11  -4  -5    0.23    0.08
  10  -4  -5    6.09    0.25
 -10  -4   5    6.27    0.29
  -9  -4   5    0.05    0.06
   9  -4  -5    0.03    0.05
  -8  -4   5    3.94    0.21
   8  -4  -5    4.04    0.19
  -7  -4   5    4.50    0.22
   7  -4  -5    5.20    0.20
   6  -4  -5   87.71    1.44
   5  -4  -5   58.82    1.02
   4  -4  -5    0.01    0.03
   3  -4  -5   -0.03    0.03
   2  -4  -5    9.51    0.25
   1  -4  -5   51.30    0.87
   0  -4   5   15.03    0.28
   0  -4  -5   15.28    0.34
  -1  -4  -5    6.05    0.18
  -2  -4  -5    0.02    0.03
  -2   4  -5    0.04    0.03
  -3  -4  -5    4.85    0.16
  -3   4  -5    4.70    0.16
  -4  -4  -5    0.21    0.05
  -4   4  -5    0.14    0.05
  -5  -4  -5    4.96    0.17
  -5   4  -5    5.02    0.19
  -6  -4  -5    2.52    0.13
  -6   4  -5    2.72    0.15
  -7  -4  -5   15.95    0.38
  -7   4  -5   17.16    0.43
  -8  -4  -5    1.05    0.11
  -8   4  -5    0.99    0.12
  -9   4  -5    0.42    0.09
 -10   4  -5    3.18    0.20
 -11  -5   5    1.07    0.15
  11  -5  -5    1.30    0.15
 -10  -5   5   13.11    0.46
  10  -5  -5   12.77    0.39
  -9  -5   5    0.20    0.08
   9  -5  -5    0.07    0.06
   8  -5  -5    1.92    0.14
  -8  -5   5    1.76    0.16
  -7  -5   5    4.54    0.24
   7  -5  -5    4.92    0.21
  -6  -5   5    0.23    0.07
   6  -5  -5    0.29    0.07
   5  -5  -5   37.99    0.74
   4  -5  -5    0.83    0.09
   3  -5  -5    4.93    0.19
   2  -5  -5   11.42    0.30
   1  -5  -5   31.23    0.60
   0  -5  -5   52.46    0.91
  -1  -5  -5    0.08    0.04
  -2  -5  -5    0.09    0.04
  -3  -5  -5    0.81    0.08
   3  -5   5    0.74    0.08
  -4  -5  -5    2.55    0.13
   4  -5   5    2.29    0.13
  -5  -5  -5    0.81    0.09
   5  -5   5    0.67    0.08
  -6  -5  -5   24.27    0.51
   6  -5   5   24.81    0.54
   7  -5   5    3.27    0.18
   8  -5   5    0.21    0.07
   9  -5   5   -0.01    0.05
  10  -5   5    3.21    0.20
   9  -6  -5   13.96    0.42
  -9  -6   5   13.69    0.48
  -8  -6   5   10.46    0.40
   8  -6  -5    9.94    0.34
  -7  -6   5    2.07    0.18
   7  -6  -5    2.04    0.16
   6  -6  -5    9.47    0.31
  -6  -6   5    9.34    0.36
   5  -6  -5    2.16    0.14
  -5  -6   5    1.80    0.16
   4  -6  -5    0.39    0.08
   3  -6  -5    0.09    0.05
   2  -6  -5    2.37    0.14
   1  -6  -5    0.02    0.04
   0  -6  -5    0.32    0.06
  -1  -6  -5    4.45    0.18
  -2  -6  -5    1.47    0.11
  -3  -6  -5    1.60    0.11
   5  -6   5    1.09    0.12
   6  -6   5    0.88    0.11
   7  -6   5    3.92    0.20
   8  -6   5    0.05    0.06
   9  -6   5    0.40    0.09
  -7  -7   5    5.04    0.29
   7  -7  -5    5.11    0.24
  -6  -7   5    2.70    0.21
   6  -7  -5    2.37    0.16
   5  -7  -5    7.37    0.28
  -5  -7   5    7.07    0.32
  -4  -7   5    1.67    0.18
   4  -7  -5    1.75    0.14
  -3  -7   5    0.05    0.06
   3  -7  -5    0.06    0.05
   2  -7  -5    6.29    0.24
   1  -7  -5   16.40    0.41
   0  -7  -5    5.68    0.22
   5  -8  -5    7.82    0.34
  -4  -8   5    3.46    0.23
   4  -8  -5    3.85    0.20
  -3  -8   5    2.20    0.19
   3  -8  -5    2.44    0.16
  -2  -8   5    0.24    0.09
  10   0  -6    3.09    0.13
   9   0  -6    0.05    0.04
   8   0  -6    1.27    0.08
  -8   0   6    1.19    0.09
   7   0  -6    0.01    0.02
   6   0  -6   48.99    0.79
   5   0  -6    0.00    0.02
   4   0  -6   29.36    0.49
   3   0  -6    0.03    0.02
   2   0  -6   78.92    1.20
   1   0  -6    0.02    0.02
   0   0  -6   16.90    0.32
  -1   0  -6    0.04    0.02
  -2   0  -6  126.31    1.91
  -3   0  -6    0.01    0.02
  -4   0  -6   53.99    0.91
  -5   0  -6    0.02    0.03
  -6   0  -6    2.29    0.12
  -7   0  -6   -0.05    0.03
  -8   0  -6    2.95    0.16
  -9   0  -6    0.05    0.05
 -10   0  -6    0.44    0.09
 -11   0  -6   -0.01    0.06
 -12   0  -6    1.72    0.17
  12  -1  -6    7.22    0.25
  11  -1  -6    0.05    0.04
 -10  -1   6   13.91    0.37
  10  -1  -6   14.27    0.35
   9  -1  -6    7.62    0.23
  -9  -1   6    8.19    0.26
   8  -1  -6   11.32    0.28
  -8  -1   6   11.97    0.32
   7  -1  -6  120.02    1.89
   7   1  -6  127.04    1.85
   6  -1  -6   34.02    0.60
   6   1  -6   34.54    0.56
   5  -1  -6    1.40    0.08
   5   1  -6    1.41    0.06
   4  -1  -6    3.19    0.11
   4   1  -6    2.98    0.08
   3  -1  -6   19.97    0.37
   3   1  -6   20.24    0.34
   2  -1  -6    1.61    0.07
   2   1  -6    1.48    0.06
   1  -1  -6    0.44    0.05
   1   1  -6    0.62    0.04
   0  -1  -6   10.62    0.23
   0   1  -6   10.95    0.22
  -1  -1  -6    0.13    0.03
  -1   1  -6    0.25    0.04
  -2  -1  -6  184.99    2.74
  -2   1  -6  183.29    2.73
  -3  -1  -6    0.30    0.05
  -3   1  -6    0.22    0.04
  -4  -1  -6    5.19    0.17
  -4   1  -6    5.06    0.17
  -5  -1  -6    7.53    0.22
  -5   1  -6    7.52    0.22
  -6  -1  -6    1.39    0.10
  -6   1  -6    1.32    0.10
  -7  -1  -6    1.86    0.12
  -7   1  -6    1.97    0.12
  -8  -1  -6    0.00    0.04
  -8   1  -6   -0.01    0.04
  -9  -1  -6    3.88    0.19
  -9   1  -6    3.91    0.19
 -10  -1  -6   23.47    0.54
 -10   1  -6   22.34    0.55
 -11  -1  -6    1.75    0.14
 -11   1  -6    2.04    0.16
 -12  -1  -6    0.69    0.11
 -12   1  -6    0.68    0.12
  14  -2  -6   30.76    0.69
  13  -2  -6   11.55    0.36
 -12  -2   6    4.43    0.22
  12  -2  -6    4.20    0.20
  11  -2  -6    0.00    0.04
 -11  -2   6    0.00    0.05
  10  -2  -6    0.05    0.05
 -10  -2   6    0.01    0.04
   9  -2  -6    4.63    0.18
  -9  -2   6    4.74    0.21
  -8  -2   6    2.08    0.14
   8  -2  -6    1.77    0.11
   7  -2  -6   21.20    0.44
   6  -2  -6    8.69    0.24
   5  -2  -6    0.23    0.05
   4  -2  -6   10.76    0.26
   3  -2  -6  101.97    1.57
   3   2  -6  101.92    1.49
   2  -2  -6  143.15    2.15
   2   2  -6  142.58    2.09
   1  -2  -6   16.27    0.33
   1   2  -6   16.21    0.29
   0  -2  -6    2.45    0.10
   0   2  -6    2.32    0.08
  -1  -2  -6    2.88    0.11
  -1   2  -6    2.95    0.10
  -2  -2  -6  117.02    1.79
  -2   2  -6  117.64    1.78
  -3  -2  -6    0.95    0.07
  -3   2  -6    0.72    0.07
  -4  -2  -6    0.99    0.08
  -4   2  -6    0.87    0.08
  -5  -2  -6    0.60    0.07
  -5   2  -6    0.44    0.06
  -6  -2  -6    0.86    0.09
  -6   2  -6    0.73    0.09
  -7  -2  -6    0.07    0.04
  -7   2  -6   -0.02    0.04
  -8  -2  -6   21.03    0.48
  -8   2  -6   20.23    0.49
  -9  -2  -6   46.69    0.87
  -9   2  -6   44.69    0.89
 -10  -2  -6    8.67    0.30
 -10   2  -6    8.47    0.31
 -11  -2  -6    4.46    0.22
 -11   2  -6    4.69    0.24
 -12  -2  -6    0.71    0.11
 -12   2  -6    0.43    0.10
 -13  -3   6    1.14    0.15
  13  -3  -6    0.99    0.13
  12  -3  -6    2.94    0.18
 -12  -3   6    3.08    0.21
 -11  -3   6    3.95    0.22
  11  -3  -6    3.89    0.19
 -10  -3   6    8.66    0.33
  10  -3  -6    8.61    0.29
  -9  -3   6    5.66    0.25
   9  -3  -6    5.95    0.22
   8  -3  -6    0.05    0.05
  -8  -3   6    0.02    0.05
   7  -3  -6    0.36    0.07
   6  -3  -6   27.76    0.55
   5  -3  -6   30.95    0.59
   4  -3  -6    2.52    0.12
   3  -3  -6    1.35    0.09
   2  -3  -6    4.85    0.16
   1  -3  -6    4.10    0.14
   1   3  -6    4.00    0.11
   0  -3  -6    7.68    0.21
   0   3  -6    7.91    0.18
  -1  -3  -6    0.49    0.06
  -2  -3  -6   12.34    0.29
  -2   3  -6   12.36    0.28
  -3  -3  -6    0.01    0.03
  -3   3  -6    0.00    0.03
  -4  -3  -6    0.03    0.03
  -4   3  -6    0.01    0.03
  -5  -3  -6   -0.01    0.03
  -5   3  -6   -0.06    0.03
  -6  -3  -6    8.47    0.25
  -6   3  -6    8.86    0.27
  -7  -3  -6    3.45    0.16
  -7   3  -6    3.49    0.18
  -8  -3  -6   -0.03    0.04
  -8   3  -6    0.06    0.05
  -9  -3  -6    2.82    0.16
  -9   3  -6    2.60    0.17
 -10  -3  -6    0.10    0.06
 -10   3  -6    0.10    0.07
 -11  -3  -6    0.02    0.05
 -11   3  -6    0.14    0.07
 -12  -4   6    0.68    0.12
  12  -4  -6    0.52    0.11
 -11  -4   6    5.48    0.28
  11  -4  -6    5.12    0.24
 -10  -4   6   35.27    0.83
  10  -4  -6   35.28    0.74
  -9  -4   6    0.06    0.06
   9  -4  -6   -0.04    0.04
  -8  -4   6    3.14    0.19
   8  -4  -6    3.11    0.17
   7  -4  -6    0.69    0.09
   6  -4  -6    1.63    0.12
   5  -4  -6   92.63    1.51
   4  -4  -6   10.13    0.28
   3  -4  -6    0.03    0.04
   2  -4  -6    0.12    0.04
   1  -4  -6   30.14    0.57
   0  -4  -6    8.78    0.24
  -1  -4  -6  204.14    3.09
  -1   4  -6  207.64    3.05
  -2  -4  -6    0.39    0.06
  -2   4  -6    0.49    0.06
  -3  -4  -6    2.68    0.12
  -3   4  -6    2.41    0.12
  -4  -4  -6    2.86    0.13
  -4   4  -6    2.45    0.13
  -5  -4  -6    3.28    0.15
  -5   4  -6    3.67    0.17
  -6  -4  -6   29.81    0.60
  -6   4  -6   31.06    0.63
  -7  -4  -6    0.02    0.04
  -7   4  -6    0.12    0.06
  -8  -4  -6    0.09    0.05
  -8   4  -6    0.10    0.06
  -9  -4  -6    0.81    0.11
  -9   4  -6    0.78    0.12
 -10   4  -6    2.70    0.19
 -11  -5   6   10.12    0.41
  11  -5  -6    9.98    0.36
 -10  -5   6    2.32    0.20
  10  -5  -6    2.58    0.18
  -9  -5   6    1.70    0.19
   9  -5  -6    1.79    0.15
   8  -5  -6    0.55    0.10
  -8  -5   6    0.56    0.11
   7  -5  -6    0.01    0.06
  -7  -5   6    0.07    0.07
   6  -5  -6    4.80    0.21
   5  -5  -6    0.84    0.10
   4  -5  -6    5.49    0.21
   3  -5  -6    0.02    0.04
   2  -5  -6    3.93    0.17
   1  -5  -6    3.14    0.15
   0  -5  -6    5.70    0.20
  -1  -5  -6    3.75    0.16
  -2  -5  -6    6.67    0.22
   3  -5   6    1.12    0.09
  -3  -5  -6    1.13    0.09
   4  -5   6    3.90    0.16
  -4  -5  -6    3.88    0.16
  -5  -5  -6    3.89    0.17
  -6  -5  -6    1.71    0.12
  -7  -5  -6    0.07    0.05
   8  -5   6    0.05    0.06
   9  -5   6    0.20    0.08
  -9  -6   6    0.36    0.11
   9  -6  -6    0.18    0.09
  -8  -6   6    0.13    0.09
   8  -6  -6    0.17    0.08
   7  -6  -6    0.32    0.09
  -7  -6   6    0.22    0.09
   6  -6  -6   20.84    0.51
  -6  -6   6   20.02    0.57
   5  -6  -6    1.79    0.14
   4  -6  -6    1.02    0.11
   3  -6  -6    2.00    0.13
   2  -6  -6    6.81    0.24
   1  -6  -6    1.91    0.13
   0  -6  -6    7.38    0.25
  -1  -6  -6    7.87    0.25
  -2  -6  -6   25.02    0.53
  -3  -6  -6    2.57    0.14
  -4  -6  -6    5.04    0.20
   7  -6   6    0.09    0.06
   8  -6   6   10.13    0.34
   7  -7  -6    7.92    0.31
  -7  -7   6    8.04    0.36
  -6  -7   6   11.02    0.42
   6  -7  -6   11.39    0.37
  -5  -7   6    1.00    0.15
   5  -7  -6    1.20    0.13
   4  -7  -6    1.08    0.12
   3  -7  -6   12.80    0.37
   2  -7  -6   -0.01    0.05
   1  -7  -6    1.88    0.14
   0  -7  -6    7.92    0.27
  -1  -7  -6    3.51    0.17
   4  -8  -6    1.27    0.15
   3  -8  -6   -0.01    0.05
  -3  -8   6   -0.06    0.07
   2  -8  -6    1.31    0.14
  -2  -8   6    1.50    0.17
   9   0  -7   15.00    0.33
   8   0  -7    0.01    0.03
   7   0  -7   35.06    0.60
   6   0  -7    0.00    0.02
   5   0  -7   18.98    0.36
   4   0  -7    0.06    0.02
   3   0  -7    5.73    0.15
   2   0  -7   -0.01    0.02
   1   0  -7   25.57    0.45
   0   0  -7   -0.03    0.02
  -1   0  -7   83.44    1.30
  -2   0  -7    0.00    0.02
  -3   0  -7    3.29    0.13
  -4   0  -7    0.00    0.03
  -5   0  -7    7.29    0.22
  -6   0  -7   -0.01    0.03
  -7   0  -7    4.67    0.19
  -8   0  -7    0.08    0.05
  -9   0  -7   11.75    0.36
 -10   0  -7   -0.04    0.05
 -11   0  -7   17.53    0.49
 -12   0  -7    0.01    0.06
  11  -1  -7    6.98    0.23
  10  -1  -7    3.23    0.15
 -10  -1   7    3.17    0.17
   9  -1  -7    2.36    0.12
  -9  -1   7    2.36    0.14
   8  -1  -7   10.15    0.26
   7  -1  -7  148.77    2.26
   6  -1  -7   24.01    0.46
   6   1  -7   24.26    0.42
   5  -1  -7    3.78    0.13
   5   1  -7    4.00    0.11
   4  -1  -7    3.53    0.12
   4   1  -7    3.58    0.10
   3  -1  -7   15.90    0.33
   3   1  -7   16.99    0.30
   2  -1  -7   22.58    0.41
   2   1  -7   21.87    0.38
   1  -1  -7   79.72    1.25
   1   1  -7   81.60    1.23
   0  -1  -7   41.15    0.68
   0   1  -7   40.08    0.67
  -1  -1  -7    4.19    0.14
  -1   1  -7    3.88    0.13
  -2  -1  -7   23.04    0.45
  -2   1  -7   24.14    0.45
  -3  -1  -7    6.33    0.19
  -3   1  -7    6.17    0.19
  -4  -1  -7    4.80    0.17
  -4   1  -7    4.43    0.16
  -5  -1  -7   29.46    0.57
  -5   1  -7   28.61    0.57
  -6  -1  -7    5.69    0.21
  -6   1  -7    5.67    0.21
  -7  -1  -7    0.37    0.07
  -7   1  -7    0.25    0.06
  -8  -1  -7   17.28    0.43
  -8   1  -7   17.46    0.44
  -9  -1  -7   29.07    0.63
  -9   1  -7   28.43    0.64
 -10  -1  -7    0.21    0.07
 -10   1  -7    0.20    0.08
 -11  -1  -7    9.10    0.33
 -11   1  -7    9.39    0.34
 -12  -1  -7    3.89    0.22
  13  -2  -7    2.35    0.16
  12  -2  -7    0.26    0.07
 -11  -2   7    0.83    0.12
  11  -2  -7    0.79    0.10
 -10  -2   7    1.13    0.13
  10  -2  -7    1.24    0.11
  -9  -2   7    2.60    0.16
   9  -2  -7    2.57    0.14
   8  -2  -7   25.72    0.53
   7  -2  -7   46.00    0.82
   6  -2  -7   15.63    0.35
   5  -2  -7    3.74    0.15
   4  -2  -7    9.12    0.24
   3  -2  -7   41.90    0.73
   3   2  -7   43.00    0.66
   2  -2  -7    8.99    0.23
   2   2  -7    9.36    0.19
   1  -2  -7   12.00    0.27
   1   2  -7   11.57    0.23
   0  -2  -7    7.90    0.20
   0   2  -7    7.88    0.19
  -1  -2  -7    0.25    0.05
  -1   2  -7    0.16    0.03
  -2  -2  -7    3.66    0.14
  -2   2  -7    3.61    0.13
  -3  -2  -7   48.16    0.83
  -3   2  -7   49.16    0.83
  -4  -2  -7   84.58    1.38
  -4   2  -7   87.09    1.39
  -5  -2  -7    1.16    0.09
  -5   2  -7    1.40    0.10
  -6  -2  -7    0.11    0.05
  -6   2  -7    0.08    0.05
  -7  -2  -7    0.53    0.08
  -7   2  -7    0.63    0.09
  -8  -2  -7    0.03    0.04
  -8   2  -7   -0.03    0.04
  -9  -2  -7    0.14    0.06
  -9   2  -7    0.13    0.07
 -10  -2  -7    0.89    0.12
 -10   2  -7    0.84    0.12
 -11  -2  -7    0.11    0.07
 -11   2  -7    0.10    0.08
 -12  -2  -7   -0.05    0.05
  13  -3  -7    0.94    0.12
 -13  -3   7    1.07    0.16
 -12  -3   7   -0.02    0.07
  12  -3  -7    0.09    0.06
  11  -3  -7    0.43    0.09
 -11  -3   7    0.39    0.10
 -10  -3   7    3.25    0.20
  10  -3  -7    2.98    0.17
  -9  -3   7    4.14    0.22
   9  -3  -7    4.44    0.19
   8  -3  -7    1.96    0.13
   7  -3  -7   13.28    0.34
   6  -3  -7   27.21    0.55
   5  -3  -7    0.31    0.06
   4  -3  -7    6.45    0.21
   3  -3  -7   28.31    0.55
   2  -3  -7    3.05    0.13
   1  -3  -7    2.30    0.11
   1   3  -7    2.15    0.08
   0  -3  -7   36.57    0.66
   0   3  -7   37.08    0.62
  -1  -3  -7   33.41    0.61
  -1   3  -7   33.77    0.59
  -2  -3  -7    5.25    0.18
  -2   3  -7    5.09    0.16
  -3  -3  -7   33.14    0.62
  -3   3  -7   32.98    0.61
  -4  -3  -7    0.16    0.05
  -4   3  -7    0.15    0.05
  -5  -3  -7    3.22    0.15
  -5   3  -7    3.52    0.16
  -6  -3  -7    6.27    0.22
  -6   3  -7    5.88    0.22
  -7  -3  -7    0.96    0.11
  -7   3  -7    0.96    0.11
  -8  -3  -7    0.32    0.07
  -8   3  -7    0.10    0.06
  -9  -3  -7    1.44    0.14
  -9   3  -7    1.00    0.12
 -10  -3  -7    4.02    0.21
 -10   3  -7    3.94    0.22
 -11  -3  -7    2.44    0.17
 -11   3  -7    2.15    0.19
 -12  -4   7   -0.01    0.07
  12  -4  -7    0.05    0.07
 -11  -4   7   27.41    0.71
  11  -4  -7   26.54    0.63
  10  -4  -7    2.35    0.17
 -10  -4   7    2.54    0.20
   9  -4  -7    0.02    0.05
  -9  -4   7   -0.01    0.06
   8  -4  -7    0.00    0.05
  -8  -4   7    0.03    0.06
   7  -4  -7    0.38    0.07
   6  -4  -7    2.68    0.15
   5  -4  -7    2.09    0.13
   4  -4  -7   94.83    1.55
   3  -4  -7    4.45    0.18
   2  -4  -7    5.19    0.19
   1  -4  -7    2.67    0.13
   0  -4  -7   79.54    1.30
  -1  -4  -7   12.30    0.31
  -2  -4  -7    9.59    0.26
  -2   4  -7    9.47    0.25
  -3  -4  -7    0.96    0.09
  -3   4  -7    0.94    0.08
  -4  -4  -7    3.68    0.16
  -4   4  -7    3.95    0.17
  -5  -4  -7    2.27    0.13
  -5   4  -7    2.26    0.14
  -6  -4  -7    0.05    0.04
  -6   4  -7    0.07    0.06
  -7  -4  -7    9.59    0.30
  -7   4  -7    9.84    0.32
  -8  -4  -7    0.85    0.10
  -8   4  -7    1.07    0.13
  -9  -4  -7    0.10    0.06
  -9   4  -7   -0.05    0.05
 -10   4  -7    4.41    0.24
  10  -5  -7    4.45    0.24
 -10  -5   7    4.24    0.26
  -9  -5   7    6.67    0.32
   9  -5  -7    7.70    0.30
   8  -5  -7    0.53    0.10
  -8  -5   7    0.45    0.11
   7  -5  -7    0.04    0.05
   6  -5  -7    0.38    0.08
   5  -5  -7    2.25    0.15
   4  -5  -7  100.80    1.66
   3  -5  -7    1.63    0.12
   2  -5  -7    5.56    0.21
   1  -5  -7    0.61    0.08
   0  -5  -7   16.97    0.40
  -1  -5  -7   13.51    0.34
  -2  -5  -7    1.00    0.10
  -3  -5  -7    2.52    0.14
  -4  -5  -7    2.80    0.15
  -5  -5  -7    2.37    0.14
  -5   5  -7    2.09    0.14
  -6  -5  -7    6.55    0.24
  -6   5  -7    6.25    0.24
  -7  -5  -7    6.00    0.23
  -7   5  -7    6.00    0.25
   8  -6  -7   15.57    0.45
  -8  -6   7   15.11    0.51
  -7  -6   7    0.38    0.10
   7  -6  -7    0.44    0.09
   6  -6  -7    1.91    0.15
   5  -6  -7    0.35    0.08
   4  -6  -7    9.49    0.31
   3  -6  -7    0.09    0.05
   2  -6  -7   14.90    0.39
   1  -6  -7    0.02    0.04
   0  -6  -7    0.73    0.09
  -1  -6  -7    5.49    0.21
  -2  -6  -7    2.58    0.15
  -3  -6  -7    3.08    0.16
  -4  -6  -7    3.81    0.18
  -5  -6  -7    7.95    0.27
   8  -6   7    9.14    0.33
  -6  -7   7    5.38    0.29
   6  -7  -7    5.26    0.25
  -5  -7   7   11.91    0.43
   5  -7  -7   12.44    0.39
   4  -7  -7    9.87    0.33
   3  -7  -7    7.48    0.28
   2  -7  -7    1.30    0.14
   1  -7  -7    0.43    0.09
   0  -7  -7    5.16    0.22
  -1  -7  -7    0.03    0.05
  -2  -7  -7    0.62    0.10
   2  -8  -7    0.05    0.06
   1  -8  -7    0.73    0.11
   8   0  -8    0.14    0.04
   7   0  -8   -0.04    0.03
   6   0  -8  141.42    2.13
   5   0  -8   -0.01    0.02
   4   0  -8    0.07    0.03
   3   0  -8    0.03    0.02
   2   0  -8    3.71    0.12
   1   0  -8    0.00    0.02
   0   0  -8    8.71    0.22
  -1   0  -8    0.03    0.03
  -2   0  -8   10.40    0.26
  -3   0  -8   -0.02    0.02
  -4   0  -8   65.57    1.10
  -5   0  -8    0.01    0.03
  -6   0  -8   15.80    0.39
  -7   0  -8    0.00    0.04
  -8   0  -8    1.44    0.14
  -9   0  -8    0.02    0.05
 -10   0  -8   11.65    0.38
 -11   0  -8    0.10    0.07
  10  -1  -8    0.39    0.07
   9  -1  -8    0.50    0.07
   8  -1  -8   21.69    0.44
   7  -1  -8   22.27    0.45
   6  -1  -8   15.56    0.34
   5  -1  -8   19.67    0.40
   5   1  -8   20.12    0.36
   4  -1  -8    7.09    0.19
   4   1  -8    7.14    0.17
   3  -1  -8   10.40    0.24
   3   1  -8   10.49    0.22
   2  -1  -8    0.22    0.04
   2   1  -8    0.12    0.03
   1  -1  -8   32.09    0.57
   1   1  -8   32.95    0.56
   0  -1  -8   21.57    0.42
   0   1  -8   21.12    0.40
  -1  -1  -8    5.90    0.18
  -1   1  -8    5.80    0.17
  -2  -1  -8    0.81    0.08
  -2   1  -8    0.84    0.07
  -3  -1  -8   68.67    1.13
  -3   1  -8   68.16    1.13
  -4  -1  -8   37.33    0.69
  -4   1  -8   37.65    0.70
  -5  -1  -8    0.31    0.06
  -5   1  -8    0.32    0.06
  -6  -1  -8    1.33    0.11
  -6   1  -8    1.25    0.12
  -7  -1  -8    1.23    0.11
  -7   1  -8    1.21    0.12
  -8  -1  -8    6.98    0.26
  -8   1  -8    6.84    0.26
  -9  -1  -8    7.22    0.28
  -9   1  -8    6.74    0.28
 -10  -1  -8   10.24    0.35
 -10   1  -8   10.12    0.35
 -11  -1  -8   14.17    0.44
 -11   1  -8   14.05    0.44
  12  -2  -8    0.10    0.06
 -11  -2   8    1.24    0.14
  11  -2  -8    1.09    0.12
  10  -2  -8    0.08    0.05
 -10  -2   8    0.15    0.07
   9  -2  -8    0.00    0.04
   8  -2  -8   38.43    0.72
   7  -2  -8   13.65    0.33
   6  -2  -8    0.18    0.05
   5  -2  -8    3.06    0.13
   4  -2  -8    0.60    0.07
   3  -2  -8   26.06    0.50
   2  -2  -8    0.11    0.04
   2   2  -8    0.01    0.02
   1  -2  -8    0.01    0.03
   1   2  -8    0.04    0.02
   0  -2  -8    0.69    0.07
   0   2  -8    0.62    0.06
  -1  -2  -8    9.26    0.24
  -1   2  -8    9.33    0.23
  -2  -2  -8    0.81    0.08
  -2   2  -8    0.85    0.07
  -3  -2  -8   80.63    1.31
  -3   2  -8   80.37    1.30
  -4  -2  -8   33.40    0.64
  -4   2  -8   33.58    0.64
  -5  -2  -8    4.24    0.17
  -5   2  -8    4.05    0.17
  -6  -2  -8    3.64    0.17
  -6   2  -8    3.80    0.18
  -7  -2  -8    0.47    0.08
  -7   2  -8    0.39    0.08
  -8  -2  -8    5.99    0.24
  -8   2  -8    5.88    0.24
  -9  -2  -8    0.06    0.05
  -9   2  -8    0.00    0.06
 -10  -2  -8    1.69    0.16
 -10   2  -8    1.80    0.17
 -11  -2  -8    3.87    0.22
  13  -3  -8    7.63    0.30
  12  -3  -8    1.92    0.15
 -12  -3   8    1.55    0.17
 -11  -3   8    0.97    0.13
  11  -3  -8    1.07    0.13
 -10  -3   8    6.56    0.28
  10  -3  -8    6.18    0.24
  -9  -3   8    0.04    0.06
   9  -3  -8    0.03    0.05
   8  -3  -8    1.07    0.11
   7  -3  -8    2.72    0.15
   6  -3  -8    2.79    0.15
   5  -3  -8   13.97    0.35
   4  -3  -8   25.74    0.52
   3  -3  -8    0.67    0.08
   2  -3  -8   15.09    0.35
   1  -3  -8    0.65    0.07
   0  -3  -8   14.70    0.34
   0   3  -8   14.93    0.31
  -1  -3  -8    5.58    0.19
  -1   3  -8    5.50    0.17
  -2  -3  -8   23.09    0.48
  -2   3  -8   23.38    0.46
  -3  -3  -8   16.19    0.38
  -3   3  -8   17.34    0.38
  -4  -3  -8    7.07    0.23
  -4   3  -8    7.40    0.23
  -5  -3  -8    0.01    0.04
  -5   3  -8    0.08    0.05
  -6  -3  -8    0.82    0.10
  -6   3  -8    0.87    0.11
  -7  -3  -8    7.53    0.26
  -7   3  -8    7.34    0.27
  -8  -3  -8    4.02    0.20
  -8   3  -8    4.24    0.21
  -9  -3  -8    0.53    0.09
  -9   3  -8    0.44    0.09
 -10  -3  -8    5.70    0.25
 -10   3  -8    6.12    0.28
 -12  -4   8    0.50    0.12
 -11  -4   8    6.54    0.32
  11  -4  -8    6.41    0.28
 -10  -4   8    1.63    0.18
  10  -4  -8    1.87    0.15
  -9  -4   8    1.54    0.17
   9  -4  -8    1.58    0.14
   8  -4  -8    0.12    0.06
   7  -4  -8    0.74    0.10
   6  -4  -8    0.17    0.06
   5  -4  -8   25.96    0.56
   4  -4  -8   19.63    0.45
   3  -4  -8    7.19    0.24
   2  -4  -8    0.16    0.05
   1  -4  -8   24.27    0.51
   0  -4  -8   23.56    0.50
  -1  -4  -8   25.50    0.53
  -2  -4  -8    2.93    0.14
  -3  -4  -8    4.83    0.19
  -3   4  -8    4.76    0.18
  -4  -4  -8    0.30    0.07
  -4   4  -8    0.28    0.06
  -5  -4  -8    5.13    0.20
  -5   4  -8    5.31    0.21
  -6  -4  -8    3.45    0.17
  -6   4  -8    3.24    0.17
  -7  -4  -8    0.20    0.06
  -7   4  -8    0.10    0.06
  -8  -4  -8    8.19    0.30
  -8   4  -8    8.59    0.31
  -9  -4  -8    1.27    0.14
  -9   4  -8    1.36    0.15
 -10  -4  -8    0.02    0.06
 -10  -5   8   -0.01    0.06
  10  -5  -8    0.07    0.07
  -9  -5   8    7.34    0.33
   9  -5  -8    7.56    0.30
   8  -5  -8    3.80    0.20
  -8  -5   8    3.87    0.24
   7  -5  -8    9.22    0.32
   6  -5  -8    7.34    0.27
   5  -5  -8    1.06    0.12
   4  -5  -8   50.35    0.94
   3  -5  -8    1.34    0.11
   2  -5  -8    0.05    0.05
   1  -5  -8    4.47    0.19
   0  -5  -8    3.48    0.17
  -1  -5  -8    2.22    0.13
  -2  -5  -8    1.55    0.11
  -3  -5  -8   10.06    0.30
  -4  -5  -8    1.11    0.12
  -5  -5  -8    2.33    0.15
  -6  -5  -8    0.00    0.04
  -6   5  -8    0.08    0.06
  -7  -5  -8    5.39    0.23
  -7   5  -8    5.42    0.24
  -8  -5  -8    1.08    0.13
  -8   5  -8    0.89    0.12
  -8  -6   8   38.32    0.93
   8  -6  -8   39.60    0.84
  -7  -6   8    4.05    0.24
   7  -6  -8    4.51    0.23
   6  -6  -8    0.32    0.09
   5  -6  -8    1.17    0.13
   4  -6  -8    0.40    0.09
   3  -6  -8    1.04    0.12
   2  -6  -8    4.08    0.20
   1  -6  -8    0.12    0.06
   0  -6  -8    0.03    0.05
  -1  -6  -8    7.00    0.26
  -2  -6  -8    1.66    0.13
  -3  -6  -8    4.30    0.20
  -4  -6  -8    5.28    0.22
  -5  -6  -8    4.09    0.20
   5  -7  -8    2.91    0.19
   4  -7  -8    6.92    0.28
   3  -7  -8    1.96    0.15
   2  -7  -8    0.39    0.09
   1  -7  -8    6.07    0.25
   0  -7  -8    7.52    0.28
  -1  -7  -8    0.47    0.09
  -2  -7  -8    1.42    0.14
   7   0  -9    0.13    0.04
   6   0  -9    0.04    0.03
   5   0  -9  122.89    1.87
   4   0  -9   -0.01    0.02
   3   0  -9    8.95    0.22
   2   0  -9    0.05    0.03
   1   0  -9    0.45    0.05
   0   0  -9    0.06    0.03
  -1   0  -9    2.64    0.12
  -2   0  -9   -0.01    0.03
  -3   0  -9    3.39    0.15
  -4   0  -9    0.00    0.04
  -5   0  -9   20.89    0.47
  -6   0  -9   -0.01    0.04
  -7   0  -9    3.55    0.18
  -8   0  -9    0.00    0.05
  -9   0  -9    3.66    0.20
 -10   0  -9   -0.03    0.06
  10  -1  -9    0.03    0.04
   9  -1  -9    0.11    0.05
   8  -1  -9   10.62    0.28
   7  -1  -9    1.34    0.09
   6  -1  -9   95.73    1.51
   5  -1  -9   29.61    0.55
   4  -1  -9    9.93    0.25
   4   1  -9   10.32    0.22
   3  -1  -9   21.79    0.42
   3   1  -9   20.89    0.39
   2  -1  -9    0.03    0.03
   2   1  -9   -0.02    0.02
   1  -1  -9   24.99    0.48
   1   1  -9   25.96    0.47
   0  -1  -9    0.04    0.03
   0   1  -9    0.02    0.03
  -1  -1  -9    0.82    0.07
  -1   1  -9    0.89    0.07
  -2  -1  -9    9.25    0.26
  -2   1  -9    9.50    0.25
  -3  -1  -9    9.95    0.28
  -3   1  -9   10.33    0.28
  -4  -1  -9    0.04    0.04
  -4   1  -9    0.08    0.05
  -5  -1  -9    0.02    0.04
  -5   1  -9    0.05    0.04
  -6  -1  -9    6.45    0.24
  -6   1  -9    6.45    0.24
  -7  -1  -9    4.13    0.20
  -7   1  -9    4.02    0.20
  -8  -1  -9    2.79    0.17
  -8   1  -9    2.77    0.17
  -9  -1  -9    1.75    0.15
  -9   1  -9    1.91    0.16
 -10  -1  -9    6.37    0.28
 -10   1  -9    6.44    0.29
  12  -2  -9    2.30    0.17
  11  -2  -9    6.56    0.24
  10  -2  -9    0.05    0.05
 -10  -2   9    0.09    0.06
   9  -2  -9    2.26    0.13
   8  -2  -9    7.49    0.24
   7  -2  -9    5.23    0.19
   6  -2  -9    8.39    0.25
   5  -2  -9    1.00    0.09
   4  -2  -9    0.06    0.04
   3  -2  -9    0.38    0.06
   2  -2  -9   51.11    0.87
   2   2  -9   50.73    0.82
   1  -2  -9   32.25    0.60
   1   2  -9   31.90    0.56
   0  -2  -9    0.71    0.07
   0   2  -9    0.74    0.06
  -1  -2  -9    0.23    0.05
  -1   2  -9    0.21    0.05
  -2   2  -9    4.19    0.16
  -3  -2  -9   61.04    1.05
  -3   2  -9   60.93    1.04
  -4  -2  -9    4.18    0.18
  -4   2  -9    4.16    0.17
  -5  -2  -9    0.29    0.06
  -5   2  -9    0.23    0.06
  -6  -2  -9    0.90    0.10
  -6   2  -9    0.60    0.09
  -7  -2  -9    0.22    0.07
  -7   2  -9    0.27    0.07
  -8  -2  -9    0.57    0.10
  -8   2  -9    0.60    0.10
  -9  -2  -9    8.71    0.32
  -9   2  -9    9.05    0.33
 -10  -2  -9   19.20    0.52
 -10   2  -9   18.58    0.53
  12  -3  -9    0.06    0.06
 -12  -3   9    0.04    0.07
 -11  -3   9    0.43    0.10
  11  -3  -9    0.47    0.10
 -10  -3   9   18.54    0.53
  10  -3  -9   17.97    0.46
   9  -3  -9   11.86    0.34
   8  -3  -9    0.00    0.05
   7  -3  -9    3.08    0.16
   6  -3  -9    0.28    0.07
   5  -3  -9   12.65    0.33
   4  -3  -9    0.44    0.07
   3  -3  -9    2.54    0.13
   2  -3  -9   14.96    0.36
   1  -3  -9    4.86    0.18
   0  -3  -9   26.15    0.53
  -1  -3  -9    9.79    0.27
  -1   3  -9    9.93    0.25
  -2  -3  -9   51.25    0.91
  -2   3  -9   51.52    0.88
  -3  -3  -9    1.18    0.11
  -3   3  -9    1.05    0.10
  -4  -3  -9    1.99    0.13
  -4   3  -9    1.96    0.12
  -5  -3  -9    3.22    0.16
  -5   3  -9    3.29    0.17
  -6  -3  -9   -0.02    0.04
  -6   3  -9    0.10    0.06
  -7  -3  -9   -0.04    0.04
  -7   3  -9    0.05    0.05
  -8  -3  -9    0.25    0.07
  -8   3  -9    0.31    0.08
  -9  -3  -9   -0.06    0.05
  -9   3  -9    0.04    0.07
  11  -4  -9    0.05    0.07
 -11  -4   9   -0.06    0.06
 -10  -4   9    5.56    0.29
  10  -4  -9    5.89    0.25
   9  -4  -9   13.37    0.39
   8  -4  -9    0.60    0.09
   7  -4  -9    2.13    0.15
   6  -4  -9    5.42    0.22
   5  -4  -9    2.22    0.14
   4  -4  -9   35.56    0.71
   3  -4  -9    9.10    0.28
   2  -4  -9    2.35    0.14
   1  -4  -9    0.73    0.09
   0  -4  -9    5.09    0.20
  -1  -4  -9   10.39    0.30
  -2  -4  -9   64.27    1.12
  -3  -4  -9    2.50    0.15
  -4  -4  -9    0.11    0.05
  -4   4  -9    0.26    0.06
  -5  -4  -9    4.73    0.20
  -5   4  -9    4.22    0.19
  -6  -4  -9    3.57    0.18
  -6   4  -9    3.69    0.19
  -7  -4  -9    7.17    0.27
  -7   4  -9    7.81    0.29
  -8  -4  -9    0.15    0.07
  -8   4  -9    0.15    0.07
  -9  -4  -9    0.02    0.06
  -9   4  -9    0.00    0.06
   9  -5  -9   23.46    0.59
  -9  -5   9   23.06    0.66
   8  -5  -9    0.01    0.06
   7  -5  -9    2.50    0.17
   6  -5  -9    0.15    0.07
   5  -5  -9    4.80    0.22
   4  -5  -9    1.04    0.12
   3  -5  -9   25.01    0.57
   2  -5  -9    2.94    0.17
   1  -5  -9    6.34    0.24
   0  -5  -9    2.45    0.14
  -1  -5  -9    6.74    0.25
  -2  -5  -9   29.12    0.62
  -3  -5  -9    0.18    0.06
  -4  -5  -9    0.74    0.11
  -5  -5  -9    0.87    0.11
  -6  -5  -9    1.22    0.13
  -7  -5  -9   10.60    0.35
  -7   5  -9   10.34    0.35
  -8  -5  -9    0.36    0.09
  -8   5  -9    0.56    0.11
   7  -6  -9    0.65    0.11
   6  -6  -9    0.25    0.08
   5  -6  -9    2.86    0.19
   4  -6  -9    3.55    0.20
   3  -6  -9    1.70    0.14
   2  -6  -9   22.18    0.54
   1  -6  -9    3.02    0.17
   0  -6  -9    0.27    0.07
  -1  -6  -9    3.12    0.18
  -2  -6  -9    1.23    0.13
  -3  -6  -9   19.35    0.49
  -4  -6  -9    0.15    0.07
  -5  -6  -9    2.41    0.17
  -6  -6  -9    1.40    0.15
   3  -7  -9    0.03    0.06
   2  -7  -9    2.50    0.18
   1  -7  -9    1.84    0.15
   0  -7  -9    0.02    0.06
  -1  -7  -9    0.22    0.07
  -2  -7  -9    0.50    0.10
  -3  -7  -9    1.34    0.14
   6   0 -10  140.54    2.13
   5   0 -10   -0.01    0.03
   4   0 -10   11.40    0.26
   3   0 -10   -0.01    0.03
   2   0 -10    9.77    0.24
   1   0 -10    0.00    0.03
   0   0 -10   60.43    1.01
  -1   0 -10    0.06    0.04
  -2   0 -10   14.87    0.36
  -3   0 -10   -0.03    0.03
  -4   0 -10    4.73    0.19
  -5   0 -10    0.04    0.04
  -6   0 -10   15.91    0.42
  -7   0 -10   -0.04    0.04
  -8   0 -10    0.36    0.09
  -9   0 -10   -0.05    0.05
   9  -1 -10    1.24    0.10
   8  -1 -10    6.96    0.22
   7  -1 -10    6.96    0.22
   6  -1 -10   41.20    0.73
   5  -1 -10    5.01    0.17
   4  -1 -10    0.86    0.08
   4   1 -10    0.96    0.07
   3  -1 -10    0.07    0.04
   3   1 -10    0.01    0.02
   2  -1 -10    2.53    0.12
   2   1 -10    2.56    0.11
   1  -1 -10   11.96    0.29
   1   1 -10   11.73    0.27
   0  -1 -10   13.54    0.32
   0   1 -10   13.73    0.31
  -1   1 -10   15.70    0.35
  -2  -1 -10    4.33    0.17
  -2   1 -10    4.16    0.17
  -3  -1 -10    0.47    0.07
  -3   1 -10    0.47    0.07
  -4  -1 -10    2.35    0.14
  -4   1 -10    2.17    0.13
  -5  -1 -10    8.64    0.28
  -5   1 -10    9.10    0.29
  -6  -1 -10    2.52    0.16
  -6   1 -10    2.42    0.15
  -7  -1 -10    0.80    0.11
  -7   1 -10    0.94    0.12
  -8  -1 -10    0.24    0.07
  -8   1 -10    0.22    0.07
  -9  -1 -10    5.47    0.26
  -9   1 -10    5.49    0.26
  11  -2 -10    0.03    0.05
  10  -2 -10    0.16    0.06
   9  -2 -10    0.24    0.06
   8  -2 -10   -0.03    0.04
   7  -2 -10   20.80    0.46
   6  -2 -10    0.59    0.08
   5  -2 -10    0.89    0.09
   4  -2 -10    8.69    0.25
   3  -2 -10    4.00    0.16
   2  -2 -10    2.90    0.14
   1  -2 -10    0.03    0.04
   1   2 -10    0.00    0.03
   0  -2 -10    0.03    0.03
   0   2 -10    0.08    0.04
  -1  -2 -10    3.64    0.16
  -1   2 -10    3.59    0.15
  -2  -2 -10    0.04    0.04
  -2   2 -10    0.00    0.03
  -3  -2 -10    5.48    0.21
  -3   2 -10    6.02    0.21
  -4  -2 -10   19.51    0.46
  -4   2 -10   19.12    0.45
  -5  -2 -10   36.36    0.73
  -5   2 -10   36.35    0.73
  -6  -2 -10    0.29    0.07
  -6   2 -10    0.68    0.10
  -7  -2 -10    0.43    0.09
  -7   2 -10    0.41    0.09
  -8  -2 -10    0.31    0.07
  -8   2 -10    0.42    0.09
  -9  -2 -10    0.17    0.07
  -9   2 -10    0.09    0.07
  12  -3 -10    6.52    0.27
 -11  -3  10    1.18    0.16
  11  -3 -10    1.24    0.14
 -10  -3  10    0.70    0.12
  10  -3 -10    0.63    0.10
   9  -3 -10    0.12    0.06
   8  -3 -10    0.31    0.07
   7  -3 -10   10.61    0.32
   6  -3 -10    5.60    0.22
   5  -3 -10   17.53    0.42
   4  -3 -10    0.53    0.08
   3  -3 -10   21.04    0.47
   2  -3 -10   12.78    0.33
   1  -3 -10    0.76    0.09
   0  -3 -10    1.33    0.10
  -1  -3 -10   25.21    0.53
  -2  -3 -10   20.60    0.47
  -2   3 -10   20.98    0.45
  -3  -3 -10   10.58    0.31
  -3   3 -10   10.57    0.29
  -4  -3 -10   22.03    0.51
  -4   3 -10   22.10    0.50
  -5  -3 -10   16.78    0.43
  -5   3 -10   16.68    0.43
  -6  -3 -10    9.80    0.32
  -6   3 -10    9.87    0.32
  -7  -3 -10    0.99    0.13
  -7   3 -10    1.11    0.13
  -8  -3 -10    3.50    0.20
  -8   3 -10    3.31    0.20
  -9   3 -10    4.30    0.25
  10  -4 -10    8.60    0.32
 -10  -4  10    8.67    0.37
   9  -4 -10   -0.01    0.04
   8  -4 -10    0.26    0.07
   7  -4 -10    0.04    0.06
   6  -4 -10    0.14    0.06
   5  -4 -10   10.43    0.32
   4  -4 -10    0.13    0.06
   3  -4 -10   12.05    0.34
   2  -4 -10    0.03    0.04
   1  -4 -10    1.38    0.11
   0  -4 -10    3.43    0.17
  -1  -4 -10   12.21    0.34
  -2  -4 -10    2.24    0.14
  -3  -4 -10    3.11    0.17
  -4  -4 -10    0.07    0.06
  -5  -4 -10    0.91    0.12
  -5   4 -10    0.85    0.11
  -6  -4 -10    0.29    0.07
  -6   4 -10    0.39    0.09
  -7  -4 -10    2.59    0.17
  -7   4 -10    2.78    0.18
  -8  -4 -10    2.77    0.19
  -8   4 -10    2.90    0.19
   8  -5 -10   10.79    0.37
   7  -5 -10   12.59    0.39
   6  -5 -10    2.01    0.15
   5  -5 -10    2.30    0.16
   4  -5 -10    3.46    0.19
   3  -5 -10   66.08    1.19
   2  -5 -10    4.66    0.22
   1  -5 -10    2.20    0.15
   0  -5 -10    1.32    0.13
  -1  -5 -10    3.15    0.18
  -2  -5 -10    0.64    0.10
  -3  -5 -10    0.14    0.06
  -4  -5 -10    1.50    0.15
  -5  -5 -10    1.40    0.15
  -6  -5 -10    0.62    0.10
   6  -6 -10    4.73    0.25
   5  -6 -10    0.14    0.08
   4  -6 -10    4.54    0.23
   3  -6 -10   47.43    0.95
   2  -6 -10    0.46    0.09
   1  -6 -10    3.06    0.18
   0  -6 -10    2.22    0.16
  -1  -6 -10    0.00    0.05
  -2  -6 -10    1.65    0.14
  -3  -6 -10    2.44    0.17
  -4  -6 -10    2.25    0.17
   5   0 -11  148.77    2.26
   4   0 -11   -0.03    0.03
   3   0 -11    4.10    0.15
   2   0 -11    0.01    0.03
   1   0 -11    5.57    0.19
   0   0 -11    0.03    0.04
  -1   0 -11   16.34    0.38
  -2   0 -11    0.02    0.04
  -3   0 -11    0.83    0.09
  -4   0 -11    0.00    0.04
  -5   0 -11   27.64    0.61
  -6   0 -11    0.01    0.05
  -7   0 -11   12.12    0.38
  -8   0 -11   -0.13    0.05
   8  -1 -11    0.17    0.06
   7  -1 -11    1.65    0.11
   6  -1 -11    6.74    0.21
   5  -1 -11    1.04    0.09
   4  -1 -11   19.23    0.41
   3  -1 -11    3.65    0.15
   2  -1 -11    1.09    0.09
   2   1 -11    0.91    0.08
   1  -1 -11    3.76    0.16
   1   1 -11    4.09    0.15
   0  -1 -11    5.55    0.19
   0   1 -11    5.42    0.18
  -1  -1 -11    5.80    0.21
  -1   1 -11    5.46    0.19
  -2  -1 -11    2.68    0.14
  -2   1 -11    2.63    0.14
  -3  -1 -11    0.75    0.10
  -3   1 -11    0.78    0.09
  -4  -1 -11   10.03    0.31
  -4   1 -11   10.33    0.31
  -5  -1 -11    1.37    0.13
  -5   1 -11    1.20    0.12
  -6  -1 -11    1.82    0.14
  -6   1 -11    1.90    0.14
  -7  -1 -11    1.37    0.14
  -7   1 -11    1.24    0.14
  -8  -1 -11    0.12    0.07
  -8   1 -11    0.03    0.07
  10  -2 -11    1.41    0.12
   9  -2 -11    0.42    0.08
   8  -2 -11    1.70    0.12
   7  -2 -11   45.91    0.85
   6  -2 -11    0.01    0.03
   5  -2 -11    0.23    0.06
   4  -2 -11   11.25    0.30
   3  -2 -11    1.61    0.11
   2  -2 -11    2.85    0.14
   1  -2 -11    0.02    0.04
   0  -2 -11    0.40    0.07
   0   2 -11    0.65    0.07
  -1  -2 -11    7.06    0.24
  -1   2 -11    6.85    0.22
  -2  -2 -11    1.89    0.13
  -2   2 -11    1.71    0.11
  -3  -2 -11    4.47    0.19
  -3   2 -11    4.53    0.19
  -4  -2 -11    8.16    0.28
  -4   2 -11    8.58    0.28
  -5  -2 -11   13.42    0.39
  -5   2 -11   13.85    0.39
  -6  -2 -11    1.49    0.15
  -6   2 -11    1.70    0.13
  -7  -2 -11    0.49    0.10
  -7   2 -11    0.21    0.07
  -8  -2 -11    0.68    0.12
  -8   2 -11    0.74    0.12
 -11  -3  11    6.22    0.31
  11  -3 -11    6.41    0.26
  10  -3 -11    1.33    0.14
   9  -3 -11   10.42    0.33
   8  -3 -11    4.60    0.21
   7  -3 -11    0.20    0.07
   6  -3 -11    0.62    0.09
   5  -3 -11    0.27    0.06
   4  -3 -11    5.83    0.22
   3  -3 -11   10.36    0.30
   2  -3 -11   12.63    0.34
   1  -3 -11   13.64    0.36
   0  -3 -11   13.82    0.36
  -1  -3 -11   18.52    0.45
  -2  -3 -11    0.22    0.06
  -3  -3 -11   20.41    0.49
  -3   3 -11   20.39    0.46
  -4  -3 -11   44.89    0.87
  -4   3 -11   44.87    0.85
  -5  -3 -11    4.69    0.22
  -5   3 -11    4.43    0.21
  -6  -3 -11    1.86    0.15
  -6   3 -11    2.09    0.16
  -7  -3 -11    0.43    0.09
  -7   3 -11    0.57    0.10
  -8   3 -11    5.92    0.27
   9  -4 -11    1.37    0.15
   8  -4 -11    1.21    0.14
   7  -4 -11    0.41    0.09
   6  -4 -11    0.95    0.12
   5  -4 -11    0.70    0.10
   4  -4 -11    4.19    0.20
   3  -4 -11    2.30    0.15
   2  -4 -11    0.67    0.10
   1  -4 -11    0.71    0.10
   0  -4 -11    7.09    0.26
  -1  -4 -11    2.32    0.15
  -2  -4 -11    2.75    0.17
  -3  -4 -11    1.33    0.13
  -4  -4 -11    2.19    0.16
  -5  -4 -11    0.10    0.06
  -6  -4 -11    1.12    0.13
  -6   4 -11    1.16    0.13
  -7   4 -11    0.43    0.09
   7  -5 -11   21.66    0.56
   6  -5 -11    2.39    0.17
   5  -5 -11    0.30    0.09
   4  -5 -11    0.11    0.07
   3  -5 -11   40.25    0.83
   2  -5 -11    2.56    0.17
   1  -5 -11    2.98    0.18
   0  -5 -11    0.90    0.12
  -1  -5 -11    0.05    0.05
  -2  -5 -11    3.91    0.21
  -3  -5 -11    2.79    0.18
  -4  -5 -11   18.71    0.50
  -5  -5 -11    0.25    0.08
   4  -6 -11    0.13    0.08
   3  -6 -11    1.21    0.14
   2  -6 -11    0.58    0.11
   1  -6 -11    0.62    0.11
   0  -6 -11    2.21    0.17
  -1  -6 -11   -0.04    0.06
  -2  -6 -11    1.46    0.15
   4   0 -12  123.93    1.92
   3   0 -12    0.01    0.04
   2   0 -12    0.83    0.09
   1   0 -12   -0.04    0.03
   0   0 -12   13.55    0.34
  -1   0 -12    0.01    0.04
  -2   0 -12   14.64    0.38
  -3   0 -12   -0.02    0.04
  -4   0 -12    0.40    0.08
  -5   0 -12   -0.03    0.05
  -6   0 -12    6.82    0.28
  -7   0 -12    0.04    0.05
   7  -1 -12    7.06    0.23
   6  -1 -12    0.07    0.05
   5  -1 -12   59.47    1.02
   4  -1 -12   -0.02    0.04
   3  -1 -12    3.53    0.16
   2  -1 -12    1.95    0.12
   2   1 -12    1.90    0.11
   1  -1 -12    0.29    0.06
   1   1 -12    0.35    0.06
   0  -1 -12    6.22    0.22
   0   1 -12    6.21    0.21
  -1  -1 -12    0.61    0.08
  -1   1 -12    0.81    0.09
  -2  -1 -12    1.53    0.12
  -2   1 -12    1.55    0.12
  -3  -1 -12    3.27    0.17
  -3   1 -12    2.99    0.16
  -4  -1 -12    0.12    0.06
  -4   1 -12   -0.01    0.05
  -5  -1 -12    0.23    0.07
  -5   1 -12    0.16    0.07
  -6  -1 -12   -0.03    0.05
  -6   1 -12   -0.05    0.05
  -7  -1 -12    7.06    0.29
  -7   1 -12    6.71    0.29
   9  -2 -12    3.44    0.18
   8  -2 -12    0.81    0.10
   7  -2 -12    0.06    0.05
   6  -2 -12    2.08    0.13
   5  -2 -12    1.66    0.12
   4  -2 -12   10.23    0.29
   3  -2 -12    1.72    0.12
   2  -2 -12    8.74    0.27
   1  -2 -12    3.84    0.17
   0  -2 -12    2.43    0.14
  -1  -2 -12   11.44    0.33
  -1   2 -12   11.80    0.31
  -2  -2 -12    3.69    0.19
  -2   2 -12    3.81    0.17
  -3  -2 -12   33.17    0.69
  -3   2 -12   31.99    0.66
  -4  -2 -12   19.47    0.49
  -4   2 -12   20.28    0.49
  -5  -2 -12    2.75    0.18
  -5   2 -12    2.35    0.16
  -6  -2 -12    0.38    0.09
  -6   2 -12    0.34    0.08
  -7  -2 -12    0.90    0.13
  -7   2 -12    0.90    0.13
  10  -3 -12    0.11    0.07
   9  -3 -12   15.03    0.42
   8  -3 -12    7.25    0.27
   7  -3 -12    0.31    0.08
   6  -3 -12    4.53    0.21
   5  -3 -12    0.92    0.11
   4  -3 -12    1.06    0.11
   3  -3 -12    0.34    0.07
   2  -3 -12    0.33    0.07
   1  -3 -12    9.01    0.29
   0  -3 -12    1.95    0.13
  -1  -3 -12    8.84    0.29
  -2  -3 -12    4.83    0.22
  -3  -3 -12   29.04    0.64
  -4  -3 -12   -0.04    0.05
  -4   3 -12    0.06    0.06
  -5  -3 -12    0.76    0.11
  -5   3 -12    0.94    0.12
  -6  -3 -12    2.31    0.17
  -6   3 -12    2.71    0.18
  -7   3 -12    0.25    0.08
   8  -4 -12    0.04    0.06
   7  -4 -12    0.51    0.10
   6  -4 -12   -0.07    0.05
   5  -4 -12    8.32    0.30
   4  -4 -12    1.24    0.13
   3  -4 -12    1.57    0.13
   2  -4 -12    1.23    0.13
   1  -4 -12   13.41    0.39
   0  -4 -12    3.42    0.19
  -1  -4 -12    0.90    0.12
  -2  -4 -12    6.17    0.25
  -3  -4 -12    2.05    0.15
  -4  -4 -12    1.02    0.13
  -5  -4 -12    4.04    0.22
   6  -5 -12    8.97    0.35
   5  -5 -12    0.10    0.07
   4  -5 -12   -0.02    0.06
   3  -5 -12    0.06    0.06
   2  -5 -12   18.68    0.50
   1  -5 -12    0.58    0.10
   0  -5 -12    4.80    0.23
  -1  -5 -12    0.45    0.09
  -2  -5 -12    1.32    0.15
  -3  -5 -12   18.45    0.52
   3   0 -13   10.46    0.29
   2   0 -13   -0.06    0.03
   1   0 -13    0.61    0.09
   0   0 -13   -0.05    0.04
  -1   0 -13   25.09    0.55
  -2   0 -13    0.09    0.05
  -3   0 -13    3.80    0.19
  -4   0 -13   -0.02    0.05
  -5   0 -13    0.93    0.12
  -6   0 -13   -0.05    0.05
   6  -1 -13    2.76    0.14
   5  -1 -13    0.84    0.10
   4  -1 -13    1.14    0.11
   3  -1 -13   23.54    0.51
   2  -1 -13    0.25    0.06
   1  -1 -13    2.52    0.14
   1   1 -13    2.63    0.14
   0  -1 -13    4.32    0.19
   0   1 -13    4.09    0.18
  -1  -1 -13    0.23    0.07
  -1   1 -13    0.17    0.06
  -2  -1 -13    2.11    0.15
  -2   1 -13    1.79    0.13
  -3  -1 -13    2.93    0.17
  -3   1 -13    2.82    0.17
  -4  -1 -13    0.61    0.10
  -4   1 -13    0.31    0.08
  -5  -1 -13    0.14    0.06
  -5   1 -13    0.15    0.07
  -6  -1 -13    6.01    0.27
  -6   1 -13    5.49    0.26
   8  -2 -13    0.50    0.09
   7  -2 -13    0.07    0.06
   6  -2 -13    2.99    0.16
   5  -2 -13    0.05    0.05
   4  -2 -13    2.10    0.14
   3  -2 -13    1.00    0.11
   2  -2 -13   17.92    0.44
   1  -2 -13    0.36    0.07
   0  -2 -13    0.15    0.06
  -1  -2 -13   -0.01    0.04
  -2  -2 -13    9.20    0.31
  -2   2 -13    9.08    0.29
  -3  -2 -13    0.98    0.12
  -3   2 -13    1.21    0.13
  -4  -2 -13    1.40    0.14
  -4   2 -13    1.40    0.14
  -5  -2 -13   12.58    0.40
  -5   2 -13   12.23    0.38
  -6   2 -13    1.59    0.16
   9  -3 -13    3.10    0.19
   8  -3 -13    1.42    0.14
   7  -3 -13    0.62    0.10
   6  -3 -13   20.01    0.49
   5  -3 -13    4.95    0.22
   4  -3 -13    0.06    0.05
   3  -3 -13    0.18    0.07
   2  -3 -13    4.34    0.20
   1  -3 -13    1.36    0.14
   0  -3 -13    0.32    0.08
  -1  -3 -13    2.00    0.15
  -2  -3 -13    4.49    0.22
  -3  -3 -13    6.40    0.27
  -4  -3 -13    7.65    0.30
  -6   3 -13   19.84    0.53
   7  -4 -13    2.56    0.18
   6  -4 -13    7.31    0.29
   5  -4 -13    0.15    0.07
   4  -4 -13   11.39    0.36
   3  -4 -13    1.36    0.14
   2  -4 -13    0.30    0.08
   1  -4 -13    1.74    0.15
   0  -4 -13    1.44    0.15
  -1  -4 -13    6.02    0.26
  -2  -4 -13    2.13    0.17
  -3  -4 -13    0.38    0.09
   2   0 -14    4.96    0.20
   1   0 -14   -0.02    0.04
   0   0 -14    9.74    0.30
  -1   0 -14    0.06    0.05
  -2   0 -14   11.29    0.35
  -3   0 -14    0.07    0.06
  -4   0 -14    2.90    0.18
  -5   0 -14    0.00    0.05
   5  -1 -14    2.92    0.16
   4  -1 -14    9.99    0.30
   3  -1 -14   10.85    0.32
   2  -1 -14    8.84    0.28
   1  -1 -14    2.08    0.14
   0  -1 -14    0.05    0.05
   0   1 -14    0.08    0.05
  -1  -1 -14    2.56    0.16
  -1   1 -14    2.72    0.16
  -2  -1 -14    1.17    0.13
  -2   1 -14    1.07    0.12
  -3  -1 -14    0.20    0.07
  -3   1 -14    0.33    0.08
  -4  -1 -14    4.04    0.22
  -4   1 -14    4.20    0.22
  -5  -1 -14    4.42    0.25
  -5   1 -14    4.32    0.23
   7  -2 -14    9.74    0.31
   6  -2 -14   11.76    0.34
   5  -2 -14   -0.08    0.05
   4  -2 -14    2.41    0.15
   3  -2 -14   12.37    0.36
   2  -2 -14    1.22    0.13
   1  -2 -14    0.88    0.11
   0  -2 -14    0.37    0.08
  -1  -2 -14    0.16    0.07
  -2  -2 -14   11.42    0.36
  -3  -2 -14    0.08    0.06
  -4  -2 -14    9.06    0.33
  -4   2 -14    8.22    0.31
  -5   2 -14    1.19    0.14
   8  -3 -14    4.82    0.23
   7  -3 -14    2.11    0.16
   6  -3 -14    2.73    0.17
   5  -3 -14    1.05    0.13
   4  -3 -14    1.53    0.15
   3  -3 -14    1.24    0.13
   2  -3 -14    2.19    0.16
   1  -3 -14    4.02    0.21
   0  -3 -14    8.53    0.31
  -1  -3 -14   10.45    0.35
  -2  -3 -14    4.26    0.23
   4  -4 -14    0.50    0.10
   3  -4 -14    0.42    0.09
   2  -4 -14    0.16    0.08
   1  -4 -14    1.58    0.16
   1   0 -15    0.06    0.05
   0   0 -15   -0.07    0.04
  -1   0 -15   10.15    0.33
  -2   0 -15    0.02    0.06
  -3   0 -15    2.40    0.17
   4  -1 -15   29.84    0.63
   3  -1 -15   15.08    0.40
   2  -1 -15    0.09    0.06
   1  -1 -15    4.38    0.21
   0  -1 -15    0.05    0.06
  -1  -1 -15   -0.02    0.05
  -2  -1 -15    3.17    0.19
  -2   1 -15    2.96    0.18
  -3  -1 -15    9.93    0.35
  -3   1 -15    9.66    0.34
  -4   1 -15    0.08    0.07
   6  -2 -15    1.18    0.13
   5  -2 -15    1.17    0.13
   4  -2 -15    1.44    0.14
   3  -2 -15    1.99    0.15
   2  -2 -15    0.02    0.05
   1  -2 -15    3.54    0.20
   0  -2 -15   -0.02    0.06
  -1  -2 -15    1.11    0.13
  -2  -2 -15    6.16    0.28
   5  -3 -15    4.94    0.24
   4  -3 -15    0.13    0.06
   3  -3 -15    0.52    0.10
   2  -3 -15    0.69    0.11
   1  -3 -15    0.20    0.08
   0   0 -16    0.77    0.11
  -1   0 -16   -0.01    0.06
   2  -1 -16   23.11    0.56
   1  -1 -16    0.84    0.11
   0  -1 -16    0.05    0.06
   5  -2 -16    0.33    0.09
   4  -2 -16    4.11    0.21
   3  -2 -16    0.12    0.07
   2  -2 -16    3.00    0.20
   0   0   0    0.00    0.00
;
_md-l_hkl_checksum               37504
loop_
_space_group_symop_operation_xyz
'x, y, z'
'-x+1/2, y+1/2, -z+1/2'
'-x, -y, -z'
'x-1/2, -y-1/2, z-1/2'
loop_
_atom_site_label
_atom_site_type_symbol
_atom_site_fract_x
_atom_site_fract_y
_atom_site_fract_z
_atom_site_U_iso_or_equiv
_atom_site_adp_type
_atom_site_occupancy
_atom_site_site_symmetry_order
_atom_site_calc_flag
_atom_site_refinement_flags_posn
_atom_site_refinement_flags_adp
O1 O 0.25745(7) 0.18272(11) 0.49148(6) 0.01696(18) Uani 1 1 d . .
O2 O 0.60159(6) 0.40937(12) 0.28158(7) 0.01752(18) Uani 1 1 d . .
N1 N 0.06016(7) 0.45923(13) 0.48942(7) 0.01388(19) Uani 1 1 d . .
C1 C 0.31279(8) 0.33930(14) 0.43089(8) 0.01163(19) Uani 1 1 d . .
C2 C 0.43075(8) 0.28799(14) 0.39190(8) 0.01219(19) Uani 1 1 d . .
H2A H 0.4706 0.1491 0.4094 0.015 Uiso 1 1 calc R U
C3 C 0.48924(8) 0.44336(14) 0.32689(8) 0.01196(19) Uani 1 1 d . .
C4 C 0.43229(9) 0.65114(15) 0.30265(8) 0.01356(19) Uani 1 1 d . .
H4A H 0.4732 0.7565 0.2589 0.016 Uiso 1 1 calc R U
C5 C 0.31699(8) 0.70043(14) 0.34275(8) 0.01206(19) Uani 1 1 d . .
H5A H 0.2793 0.8415 0.3272 0.014 Uiso 1 1 calc R U
C6 C 0.25331(8) 0.54602(14) 0.40654(7) 0.01124(18) Uani 1 1 d . .
C7 C 0.12768(8) 0.60082(15) 0.43892(8) 0.01247(19) Uani 1 1 d . .
H7A H 0.0936 0.7442 0.4228 0.015 Uiso 1 1 calc R U
C8 C 0.66310(9) 0.19949(16) 0.29948(9) 0.0182(2) Uani 1 1 d . .
H8A H 0.7444 0.1997 0.2651 0.027 Uiso 1 1 calc R U
H8B H 0.6047 0.0860 0.2610 0.027 Uiso 1 1 calc R U
H8C H 0.6823 0.1689 0.3846 0.027 Uiso 1 1 calc R U
H1 H 0.1800(16) 0.231(3) 0.5029(14) 0.031(4) Uiso 1 1 d . .
loop_
_atom_site_aniso_label
_atom_site_aniso_U_11
_atom_site_aniso_U_22
_atom_site_aniso_U_33
_atom_site_aniso_U_23
_atom_site_aniso_U_13
_atom_site_aniso_U_12
O1 0.0190(3) 0.0110(3) 0.0235(4) 0.0061(2) 0.0121(3) 0.0020(2)
O2 0.0135(3) 0.0126(3) 0.0290(4) 0.0034(3) 0.0116(3) 0.0023(2)
N1 0.0138(4) 0.0127(4) 0.0166(4) -0.0006(3) 0.0070(3) 0.0012(3)
C1 0.0138(4) 0.0088(4) 0.0131(4) 0.0009(3) 0.0048(3) -0.0005(3)
C2 0.0131(4) 0.0082(4) 0.0160(4) 0.0012(3) 0.0044(3) 0.0013(3)
C3 0.0101(4) 0.0103(4) 0.0162(4) -0.0004(3) 0.0043(3) -0.0006(3)
C4 0.0139(4) 0.0092(4) 0.0184(4) 0.0022(3) 0.0055(3) -0.0009(3)
C5 0.0136(4) 0.0078(4) 0.0152(4) 0.0008(3) 0.0034(3) 0.0002(3)
C6 0.0125(4) 0.0084(4) 0.0134(4) -0.0002(3) 0.0039(3) 0.0002(3)
C7 0.0136(4) 0.0105(4) 0.0138(4) -0.0011(3) 0.0038(3) 0.0009(3)
C8 0.0154(4) 0.0131(4) 0.0271(5) -0.0002(3) 0.0071(4) 0.0038(3)
loop_
_atom_type_symbol
_atom_type_description
_atom_type_scat_dispersion_real
_atom_type_scat_dispersion_imag
_atom_type_scat_source
C C 0.0033 0.0016 'International Tables Vol C Tables 4.2.6.8 and 6.1.1.4'
H H 0.0000 0.0000 'International Tables Vol C Tables 4.2.6.8 and 6.1.1.4'
N N 0.0061 0.0033 'International Tables Vol C Tables 4.2.6.8 and 6.1.1.4'
O O 0.0106 0.0060 'International Tables Vol C Tables 4.2.6.8 and 6.1.1.4'
loop_
_geom_angle_atom_site_label_1
_geom_angle_atom_site_label_2
_geom_angle_atom_site_label_3
_geom_angle
_geom_angle_site_symmetry_3
C1 O1 H1 107.6(11) .
C3 O2 C8 118.15(7) .
C7 N1 N1 113.18(9) 3_566
O1 C1 C2 117.44(8) .
O1 C1 C6 121.56(8) .
C2 C1 C6 120.99(8) .
C3 C2 C1 119.09(8) .
C3 C2 H2A 120.5 .
C1 C2 H2A 120.5 .
O2 C3 C2 124.24(8) .
O2 C3 C4 114.92(8) .
C2 C3 C4 120.83(8) .
C5 C4 C3 119.46(8) .
C5 C4 H4A 120.3 .
C3 C4 H4A 120.3 .
C4 C5 C6 121.41(8) .
C4 C5 H5A 119.3 .
C6 C5 H5A 119.3 .
C5 C6 C1 118.19(8) .
C5 C6 C7 119.02(8) .
C1 C6 C7 122.72(8) .
N1 C7 C6 121.67(8) .
N1 C7 H7A 119.2 .
C6 C7 H7A 119.2 .
O2 C8 H8A 109.5 .
O2 C8 H8B 109.5 .
H8A C8 H8B 109.5 .
O2 C8 H8C 109.5 .
H8A C8 H8C 109.5 .
H8B C8 H8C 109.5 .
loop_
_geom_bond_atom_site_label_1
_geom_bond_atom_site_label_2
_geom_bond_distance
_geom_bond_site_symmetry_2
O1 C1 1.3536(11) .
O1 H1 0.883(17) .
O2 C3 1.3572(11) .
O2 C8 1.4303(11) .
N1 C7 1.2974(12) .
N1 N1 1.3961(15) 3_566
C1 C2 1.3963(12) .
C1 C6 1.4121(12) .
C2 C3 1.3944(12) .
C2 H2A 0.9500 .
C3 C4 1.4072(12) .
C4 C5 1.3740(12) .
C4 H4A 0.9500 .
C5 C6 1.4106(12) .
C5 H5A 0.9500 .
C6 C7 1.4438(12) .
C7 H7A 0.9500 .
C8 H8A 0.9800 .
C8 H8B 0.9800 .
C8 H8C 0.9800 .
loop_
_geom_hbond_atom_site_label_D
_geom_hbond_atom_site_label_H
_geom_hbond_atom_site_label_A
_geom_hbond_distance_DH
_geom_hbond_distance_HA
_geom_hbond_distance_DA
_geom_hbond_angle_DHA
_geom_hbond_site_symmetry_A
C8 H8A O2 0.98 2.49 3.2540(12) 134.4 2_645
C8 H8C O1 0.98 2.59 3.3488(12) 134.0 3_656
O1 H1 N1 0.883(17) 1.855(17) 2.6475(10) 148.3(16) .
loop_
_geom_torsion_atom_site_label_1
_geom_torsion_atom_site_label_2
_geom_torsion_atom_site_label_3
_geom_torsion_atom_site_label_4
_geom_torsion
_geom_torsion_site_symmetry_1
O1 C1 C2 C3 178.58(8) .
C6 C1 C2 C3 -0.71(13) .
C8 O2 C3 C2 1.24(13) .
C8 O2 C3 C4 -178.12(8) .
C1 C2 C3 O2 -177.99(8) .
C1 C2 C3 C4 1.34(13) .
O2 C3 C4 C5 178.81(8) .
C2 C3 C4 C5 -0.58(13) .
C3 C4 C5 C6 -0.85(13) .
C4 C5 C6 C1 1.45(13) .
C4 C5 C6 C7 -175.46(8) .
O1 C1 C6 C5 -179.91(8) .
C2 C1 C6 C5 -0.65(13) .
O1 C1 C6 C7 -3.12(13) .
C2 C1 C6 C7 176.13(8) .
N1 N1 C7 C6 -178.18(9) 3_566
C5 C6 C7 N1 174.59(8) .
C1 C6 C7 N1 -2.18(13) .
