#------------------------------------------------------------------------------
#$Date: 2018-07-07 05:27:48 +0300 (Sat, 07 Jul 2018) $
#$Revision: 208908 $
#$URL: file:///home/coder/svn-repositories/cod/cif/1/54/96/1549666.cif $
#------------------------------------------------------------------------------
#
# This file is available in the Crystallography Open Database (COD),
# http://www.crystallography.net/. The original data for this entry
# were provided by IUCr Journals, http://journals.iucr.org/.
#
# The file may be used within the scientific community so long as
# proper attribution is given to the journal article from which the
# data were obtained.
#
data_1549666
loop_
_publ_author_name
'Djand\'e, Abdoulaye'
'Abou, Akoun'
'Kini, F\'elix'
'Kambo, Konan Ren\'e'
'Giorgi, Michel'
_publ_section_title
;
 2-Oxo-2<i>H</i>-chromen-7-yl 4-methylbenzoate
;
_journal_coeditor_code           BH4038
_journal_issue                   7
_journal_name_full               IUCrData
_journal_page_first              x180927
_journal_paper_doi               10.1107/S2414314618009276
_journal_volume                  3
_journal_year                    2018
_chemical_formula_iupac          'C17 H12 O4'
_chemical_formula_moiety         'C17 H12 O4'
_chemical_formula_sum            'C17 H12 O4'
_chemical_formula_weight         280.27
_chemical_melting_point          435
_chemical_melting_point_gt       435
_chemical_melting_point_lt       436
_chemical_name_systematic
;
2-Oxo-2<i>H</i>-chromen-7-yl 4-methylbenzoate
;
_space_group_crystal_system      monoclinic
_space_group_IT_number           7
_space_group_name_Hall           'P -2yc'
_space_group_name_H-M_alt        'P 1 c 1'
_symmetry_space_group_name_Hall  'P -2yc'
_symmetry_space_group_name_H-M   'P 1 c 1'
_atom_sites_solution_hydrogens   geom
_atom_sites_solution_primary     direct
_atom_sites_solution_secondary   difmap
_audit_creation_method           SHELXL-2014/7
_cell_angle_alpha                90
_cell_angle_beta                 90.751(3)
_cell_angle_gamma                90
_cell_formula_units_Z            2
_cell_length_a                   5.7029(2)
_cell_length_b                   4.03460(10)
_cell_length_c                   28.9081(10)
_cell_measurement_reflns_used    2863
_cell_measurement_temperature    298(2)
_cell_measurement_theta_max      68.1940
_cell_measurement_theta_min      4.6090
_cell_volume                     665.09(4)
_computing_cell_refinement
;
CrysAlis PRO (Rigaku OD, 2015)
;
_computing_data_collection
;
CrysAlis PRO (Rigaku OD, 2015)
;
_computing_data_reduction
;
CrysAlis PRO (Rigaku OD, 2015)
;
_computing_molecular_graphics
;
PLATON (Spek,2009) and Mercury (Macrae <i>et al.</i>,  2008)
;
_computing_publication_material
;
SHELXL2014 (Sheldrick, 2015), publCIF (Westrip, 2010) and
WinGX (Farrugia, 2012)
;
_computing_structure_refinement
;
SHELXL2014 (Sheldrick, 2015)
;
_computing_structure_solution
;
SIR2014 (Burla <i>et al.</i>,  2015)
;
_diffrn_ambient_temperature      298(2)
_diffrn_detector_area_resol_mean 5.3048
_diffrn_measured_fraction_theta_full 0.960
_diffrn_measured_fraction_theta_max 0.954
_diffrn_measurement_device_type
'Rigaku Oxford Diffraction SuperNova, Dual, Cu at zero, Atlas S2'
_diffrn_measurement_method       '\w scans'
_diffrn_radiation_monochromator  mirror
_diffrn_radiation_type           CuK\a
_diffrn_radiation_wavelength     1.54184
_diffrn_reflns_av_R_equivalents  0.0181
_diffrn_reflns_limit_h_max       6
_diffrn_reflns_limit_h_min       -6
_diffrn_reflns_limit_k_max       4
_diffrn_reflns_limit_k_min       -4
_diffrn_reflns_limit_l_max       34
_diffrn_reflns_limit_l_min       -34
_diffrn_reflns_number            4661
_diffrn_reflns_theta_full        67.000
_diffrn_reflns_theta_max         68.532
_diffrn_reflns_theta_min         6.124
_exptl_absorpt_coefficient_mu    0.828
_exptl_absorpt_correction_T_max  1.00000
_exptl_absorpt_correction_T_min  0.85758
_exptl_absorpt_correction_type   multi-scan
_exptl_absorpt_process_details
;
(CrysAlis PRO; Rigaku OD, 2015)
;
_exptl_crystal_colour            Pale-yellow
_exptl_crystal_density_diffrn    1.399
_exptl_crystal_description       prism
_exptl_crystal_F_000             292
_exptl_crystal_size_max          0.25
_exptl_crystal_size_mid          0.16
_exptl_crystal_size_min          0.09
_refine_diff_density_max         0.103
_refine_diff_density_min         -0.096
_refine_ls_abs_structure_details
;
Flack <i>x</i> determined using 559 quotients
[(<i>I</i>^+^)-(<i>I</i>^-^)]/[(<i>I</i>^+^)+(<i>I</i>^-^)]
(Parsons <i>et al.</i>,  2013)
;
_refine_ls_abs_structure_Flack   -0.02(10)
_refine_ls_extinction_method     none
_refine_ls_goodness_of_fit_ref   1.122
_refine_ls_hydrogen_treatment    constr
_refine_ls_matrix_type           full
_refine_ls_number_constraints    48
_refine_ls_number_parameters     191
_refine_ls_number_reflns         1780
_refine_ls_number_restraints     2
_refine_ls_restrained_S_all      1.121
_refine_ls_R_factor_all          0.0312
_refine_ls_R_factor_gt           0.0297
_refine_ls_shift/su_max          0.000
_refine_ls_shift/su_mean         0.000
_refine_ls_structure_factor_coef Fsqd
_refine_ls_weighting_details
'w=1/[\s^2^(Fo^2^)+(0.0313P)^2^+0.1164P] where P=(Fo^2^+2Fc^2^)/3'
_refine_ls_weighting_scheme      calc
_refine_ls_wR_factor_gt          0.0783
_refine_ls_wR_factor_ref         0.0794
_reflns_number_gt                1713
_reflns_number_total             1780
_reflns_threshold_expression     'I > 2\s(I)'
_cod_data_source_file            bh4038sup1.cif
_cod_data_source_block           I
_cod_database_code               1549666
_shelx_hkl_file
;
   0   0   3-2.40927 10.5978  36
   0   0  -3 611.795 60.8300  42
   0   0   4 408517. 4858.69  36
   0   0   5 52.4395 23.0602  36
   0   0   6 49062.9 930.757  42
   0   0   6 53066.7 732.867  36
   0   0   7-9.48570 48.7406  42
   0   0   8 164319. 2447.61  39
   0   0   8 167728. 2477.38  42
   0   0   9 18.0332 54.0828  39
   0   0   9 64.8856 71.0344  42
   0   0  -9-10.5822 61.9743   3
   0   0  10 14765.5 541.269  39
   0   0 -10 14817.4 546.674   3
   0   0  10 14779.0 547.228  42
   0   0 -11-35.5503 68.2805   3
   0   0  11-56.0666 72.5410  39
   0   0 -12 154887. 2645.12   3
   0   0  12 160202. 2606.38  39
   0   0 -13-16.4787 84.1889   3
   0   0  13 14.5474 80.3200  39
   0   0 -14 102363. 2070.94   3
   0   0  14 102130. 2017.52  39
   0   0 -15 11.2365 120.958   3
   0   0  15 33.0115 91.6196  39
   0   0  16 43122.2 1279.81  39
   0   0 -16 43133.6 1311.86   3
   0   0  17-6.82668 113.717  39
   0   0 -17-32.0965 109.641   3
   0   0  18 6521.72 507.999  39
   0   0 -18 6650.68 534.151   3
   0   0  19-81.8526 117.555  39
   0   0 -19 26.3032 121.799   3
   0   0  20 8336.56 625.085  39
   0   0 -20 8285.63 648.468   3
   0   0  21 84.8785 152.535  39
   0   0  22 37580.0 1457.89  39
   0   0  23 16.3785 183.262  39
   0   0 -24 60525.5 903.888  26
   0   0  24 58451.1 1954.79  39
   0   0 -24 60488.3 896.640  25
   0   0 -24 59859.2 885.845   9
   0   0 -25 35.7411 54.3369  25
   0   0 -25 68.2436 56.6901   9
   0   0  25 200.636 179.846  39
   0   0 -25 69.3681 58.6075  26
   0   0 -26 36677.1 614.823  25
   0   0 -26 35386.4 613.088  26
   0   0 -26 35037.9 594.389   9
   0   0 -27 76.3949 55.5387   9
   0   0 -27 121.648 66.7491  26
   0   0 -27 75.5509 60.6292  25
   0   0 -28 14757.6 333.335  25
   0   0 -28 14208.8 320.456   9
   0   0 -28 14832.5 335.071  26
   0   0 -29 16.8092 44.0913   9
   0   0 -29 11.6488 49.7946  25
   0   0 -29 35.6929 54.8181  26
   0   0 -30 4476.88 164.662  26
   0   0 -30 4592.72 158.870   9
   0   0 -30 4846.59 170.005  25
   0   0 -31 2.63210 41.4008   9
   0   0 -31 17.7701 43.0441  25
   0   0 -31 22.6851 41.7909  26
   0   0 -32 3099.68 124.465  26
   0   0 -32 3185.87 128.048  25
   0   0 -33-7.88934 36.7529  26
   0   0 -33 18.8106 38.7102  25
   0   0  33 22.7590 33.4347  13
   0   0  34 135.738 35.6510  13
   0   0 -34 154.081 36.7583  26
   0  -1   0 191213. 2648.69  42
   0   1   0 187001. 2653.21  40
   0  -1   1 157235. 2196.62  42
   0   1  -1 150516. 2180.60  40
   0  -1  -1 150973. 2224.81  42
   0  -1  -1 150707. 1937.65  38
   0  -1  -2 602524. 7672.39  42
   0   1  -2 610530. 7556.21  40
   0  -1  -2 616342. 7392.17  38
   0   1   3 500573. 6461.44  42
   0   1   3 507245. 6427.22  39
   0  -1  -3 496882. 6198.22  38
   0   1  -3 516270. 6270.22  40
   0  -1  -3 499100. 6419.93  42
   0   1  -3 505972. 6458.11  39
   0   1   4 83320.6 1453.36  39
   0   1  -4 81663.8 1300.66  40
   0  -1   4 80094.2 1497.78  39
   0  -1   4 84757.7 1343.27  40
   0   1  -4 81152.1 1486.65  39
   0  -1  -4 80511.7 1464.55  42
   0   1   4 79469.8 1494.81  42
   0   1   5 122549. 2004.07  39
   0  -1  -5 125250. 2066.11  42
   0  -1   5 119896. 2045.47  39
   0   1  -5 130110. 1852.81  40
   0   1   5 122728. 2074.23  42
   0   1  -5 119773. 2035.40  39
   0  -1   5 130063. 1883.65  40
   0  -1   6 82159.2 1349.27  40
   0   1   6 78298.2 1548.36  42
   0  -1  -6 79237.0 1521.16  42
   0  -1   6 75544.3 1508.70  39
   0   1   6 79050.2 1447.83  39
   0  -1   7 92774.4 1517.51  40
   0   1   7 87908.5 1614.26  39
   0  -1   7 87505.5 1708.43  39
   0   1   8 18593.4 618.740  39
   0   1  -8 18106.7 549.455  36
   0   1  -8 18085.3 532.905   3
   0  -1   8 19195.5 569.301  40
   0  -1   8 17383.7 651.544  39
   0   1  -9 37199.1 855.183  36
   0   1   9 36607.5 950.662  39
   0  -1   9 39050.7 896.167  40
   0   1  -9 37661.8 864.379   3
   0  -1   9 35803.0 1015.76  39
   0  -1  10 13992.3 520.165  40
   0   1  10 13437.2 549.957  39
   0   1 -10 13173.7 475.495  36
   0   1 -10 12957.0 499.458   3
   0  -1  10 13775.2 611.096  39
   0  -1  11 65752.2 1534.08  39
   0   1 -11 66456.2 1356.07   3
   0   1  11 64372.0 1414.40  39
   0  -1  12 40769.9 1202.77  39
   0   1 -12 40792.5 1050.69   3
   0   1  12 40814.5 1119.40  39
   0   1  13 35163.1 1040.16  39
   0  -1  13 34934.7 1135.21  39
   0   1 -13 33827.1 993.941   3
   0  -1  14 5719.55 466.124  39
   0   1  14 5654.09 420.553  39
   0   1 -14 5514.53 400.257   3
   0   1  15 16826.8 758.013  39
   0  -1  15 17173.5 825.824  39
   0   1 -15 18329.7 760.283   3
   0   1  16 16386.2 777.271  39
   0   1 -16 16295.1 750.146   3
   0  -1  16 14932.3 809.994  39
   0   1 -17 21069.5 894.654   3
   0   1  17 23056.9 954.310  39
   0  -1  17 22165.0 1010.15  39
   0   1 -18 45153.9 1400.81   3
   0   1  18 44747.0 1424.27  39
   0  -1  18 43436.7 1497.65  39
   0   1  19 40948.4 1401.58  39
   0  -1  19 40786.5 1481.97  39
   0  -1  20 5833.25 568.334  39
   0   1  20 6024.59 540.412  39
   0   1  21 6186.96 572.471  39
   0  -1  21 5560.94 574.845  39
   0   1  22 12331.2 823.901  39
   0  -1  22 12129.1 861.032  39
   0   1 -23 19407.7 375.400  25
   0   1 -23 19140.2 378.424   9
   0  -1  23 19524.7 1112.93  39
   0  -1 -23 19475.8 395.247  27
   0  -1 -23 18751.2 398.064  26
   0   1  23 19190.1 1051.30  39
   0  -1 -23 18983.6 396.665  25
   0   1  24 20784.3 1116.39  39
   0  -1  24 19932.9 1148.44  39
   0  -1 -24 20062.3 413.427  25
   0   1 -24 20111.9 395.786  25
   0  -1 -24 20354.4 419.435  26
   0   1 -24 20125.8 398.170   9
   0   1 -25 752.723 80.2739   9
   0   1 -25 912.114 80.5669  25
   0  -1 -25 1012.27 96.1899  26
   0  -1 -25 986.882 92.0804  25
   0   1 -26 2674.85 128.668  25
   0  -1 -26 2650.71 140.132  26
   0  -1 -26 2649.29 137.455  25
   0   1 -26 2712.55 130.317   9
   0  -1 -27 2023.38 119.703  25
   0   1 -27 2102.27 112.355  25
   0  -1 -27 1954.96 122.467  26
   0   1 -27 2237.62 121.862   9
   0  -1 -28 2727.31 144.089  26
   0   1 -28 2654.83 127.943   9
   0   1 -28 2548.38 118.910  25
   0  -1 -28 2509.06 129.713  25
   0   1 -29 1729.17 104.679   9
   0  -1 -29 1592.54 104.339  25
   0  -1 -29 1724.59 110.805  26
   0   1 -29 1477.76 90.0365  25
   0   1 -30 1460.18 87.9747  25
   0   1 -30 1363.18 92.0437   9
   0  -1 -30 1439.53 98.0847  26
   0   1 -31 1016.30 78.6815   9
   0  -1 -31 913.804 79.7633  26
   0   1 -32 1749.49 88.9405   9
   0  -1 -32 1561.17 89.3728  26
   0  -1 -33 4.23874 30.2097   6
   0  -1 -33 38.4049 36.5571  26
   0   1 -33 16.0095 35.4122   9
   0  -1  34 1217.16 65.8656  13
   0  -1 -34 1193.53 65.9028  26
   0   2   0 103.140 112.505  39
   0   2  -1 5913.92 436.712  39
   0   2   1 6266.30 448.033  39
   0   2  -2 12886.7 657.381  39
   0   2   2 13441.8 660.128  39
   0   2  -3 5098.36 418.581  39
   0   2   3 5263.51 409.130  39
   0   2   4 8769.77 530.862  39
   0   2  -4 8037.78 526.082  39
   0   2   5 592.116 173.950  39
   0   2  -5 234.797 127.264  39
   0   2  -6 5800.86 452.160  39
   0   2   6 6848.65 477.508  39
   0   2   7 16959.4 764.176  39
   0   2  -7 15996.5 774.224  39
   0   2   8 10638.7 610.800  39
   0   2  -8 9945.05 614.266  39
   0   2   9 14584.5 723.650  39
   0   2  -9 13088.2 715.967  39
   0   2 -10 14845.0 783.722  39
   0   2  10 15668.1 767.750  39
   0   2  11 37432.2 1243.73  39
   0   2 -11 35797.2 1283.60  39
   0   2  12 16304.4 809.881  39
   0   2 -12 14812.5 817.649  39
   0   2 -13 17277.2 905.825  39
   0  -2 -13 17159.6 905.989   4
   0   2  13 18402.5 878.762  39
   0  -2  14 12112.6 809.354  39
   0   2 -14 12499.0 786.259  39
   0  -2 -14 11973.3 774.496   4
   0   2  14 13642.0 765.553  39
   0  -2  15 8772.56 690.609  39
   0   2 -15 8360.66 655.009  39
   0   2  15 8906.70 642.725  39
   0  -2 -15 9572.46 717.527   4
   0   2  16 3396.03 411.721  39
   0  -2 -16 3603.04 461.676   4
   0   2 -16 3445.03 442.560  39
   0  -2  16 3614.19 466.891  39
   0   2  17 3206.49 405.703  39
   0  -2  17 3196.80 461.935  39
   0   2 -17 3269.58 437.871  39
   0  -2 -17 2462.05 394.045   4
   0  -2  18 13334.6 910.901  39
   0   2 -18 13291.9 886.874  39
   0  -2 -18 14673.8 952.819   4
   0   2  18 15544.3 900.308  39
   0  -2  19 5722.46 621.675  39
   0   2  19 7075.06 622.780  39
   0  -2 -19 6880.38 221.998  27
   0  -2 -19 6365.75 666.236   4
   0   2 -19 7082.78 659.313  39
   0   2 -19 7220.98 198.055  22
   0   2 -19 7071.90 200.688   9
   0  -2  20 3851.65 532.222  39
   0   2 -20 4481.62 161.901   9
   0   2 -20 4200.84 518.608  39
   0  -2 -20 4531.70 179.440  27
   0   2  20 4589.79 532.162  39
   0  -2 -20 3207.77 476.678   4
   0   2 -20 4522.72 155.305  22
   0  -2 -21 19506.1 409.630  26
   0  -2 -21 20490.6 1185.79   4
   0   2 -21 20535.5 391.927   9
   0  -2 -21 20957.3 427.099  27
   0   2 -21 20098.5 383.750  22
   0  -2 -22 5968.93 211.353  27
   0   2 -22 5867.76 182.287  22
   0   2 -22 5871.05 189.659   9
   0  -2 -22 5745.10 650.544   4
   0  -2 -22 5484.10 195.967  26
   0   2 -23 3975.17 154.241   9
   0  -2 -23 4091.64 166.372  26
   0  -2 -23 4263.82 570.434   4
   0   2 -23 4109.52 149.526  22
   0  -2 -23 4322.24 173.811  27
   0   2 -24 1018.58 84.3251   9
   0   2 -24 1084.86 80.6672  22
   0  -2 -24 1162.13 98.3596  27
   0  -2 -24 1201.03 96.7443  26
   0   2 -25 54.8615 40.3837  22
   0  -2 -25 149.950 54.4253  26
   0  -2 -25 53.3831 53.7397  27
   0   2 -25 39.9897 46.6217   9
   0  -2 -26 421.839 64.3391  26
   0   2 -26 373.565 54.5021  22
   0   2 -26 386.283 61.2242   9
   0  -2 -26 375.015 66.2536  27
   0   2 -27 67.9366 40.0347  22
   0  -2 -27 30.9163 47.2800  27
   0  -2 -27 71.6534 45.4341  26
   0   2 -27 83.8173 44.7615   9
   0   2 -28 197.128 46.4798   9
   0  -2 -28 163.363 50.0712  26
   0  -2 -28 182.725 47.3855  27
   0   2 -28 213.107 42.6824  22
   0  -2 -29-17.3959 38.9383  26
   0  -2 -29 9.64260 36.5471  27
   0   2 -29 47.2923 37.6241   9
   0  -2 -30 429.777 54.6591   6
   0  -2 -30 461.132 51.2813  27
   0   2 -30 527.051 54.0465   9
   0  -2 -30 431.029 52.2345  26
   0   2 -31 261.329 39.9315   9
   0  -2 -31 242.219 41.8776  26
   0  -2 -31 243.103 42.5516   6
   0   3   0 25459.3 1168.64  39
   0   3   1 13298.4 849.699  39
   0   3  -1 14119.6 897.829  39
   0   3  -2 3804.90 470.139  39
   0   3   2 4162.10 479.961  39
   0   3   3 1420.65 301.593  39
   0   3  -3 1194.78 282.482  39
   0   3   4 5547.57 544.134  39
   0   3  -4 5073.51 544.626  39
   0   3   5 10160.6 732.789  39
   0   3  -5 9302.16 716.854  39
   0   3   6 1190.68 287.975  39
   0   3  -6 889.367 233.294  39
   0   3   7 404.970 234.087  39
   0   3  -7 357.738 191.309  39
   0   3  -8 2682.78 416.178  39
   0   3   8 2342.10 378.012  39
   0   3  -9 6423.55 615.909  39
   0   3   9 6100.80 589.670  39
   0  -3 -10 8760.64 248.427  17
   0   3  10 9029.14 717.855  39
   0   3 -10 8260.46 720.724  39
   0  -3  10 9547.10 237.333  15
   0   3 -10 8941.98 222.875  22
   0   3 -11 3950.48 143.436  22
   0   3 -11 3183.58 456.834  39
   0  -3 -11 4190.98 164.267  17
   0  -3  11 3695.73 431.131  12
   0   3  11 3684.06 465.609  39
   0  -3  12 4717.77 492.399  12
   0   3  12 5807.37 578.395  39
   0   3 -12 5287.33 171.670  22
   0  -3 -12 5676.93 195.567  27
   0   3 -12 4903.92 573.176  39
   0  -3 -12 5601.15 191.783  17
   0  -3 -13 16929.8 375.515  27
   0   3 -13 17206.7 346.825  22
   0   3 -13 16611.8 1040.60  39
   0   3  13 17549.4 1004.18  39
   0  -3 -13 18115.1 375.145  17
   0   3 -14 491.032 69.6690  22
   0  -3 -14 461.645 86.2044  27
   0  -3 -15 7014.50 229.226  27
   0   3 -15 7345.54 204.749  22
   0   3 -16 10576.8 256.334  22
   0   3 -16 10701.3 252.295  10
   0  -3 -16 10272.0 284.054  27
   0   3 -17 12574.7 281.537  22
   0   3 -17 12340.7 271.624  10
   0  -3 -17 11689.7 308.242  27
   0   3 -18 7772.29 203.508  10
   0  -3 -18 7204.94 234.511  27
   0   3 -18 7856.93 213.296  22
   0  -3 -19 1807.25 117.133  27
   0   3 -19 2081.00 108.415  22
   0   3 -19 1946.38 101.460  10
   0  -3 -20 868.452 89.8151  27
   0   3 -20 909.149 76.8390  22
   0   3 -21 327.016 52.4297  22
   0  -3 -21 271.119 68.2468  27
   0  -3 -22 728.460 77.7452  27
   0   3 -22 734.696 66.3217  22
   0  -3 -23 925.847 86.1586  27
   0   3 -23 731.276 64.8413  22
   0  -3 -24 823.213 75.7635  27
   0   3 -24 774.382 62.6255  22
   0  -3 -25 1271.14 83.2345  27
   0   3 -25 1270.51 72.4329  22
   0  -3 -26 3647.66 125.730  27
   0   3 -26 3642.76 113.013  22
   0  -3 -27 2030.07 86.0087  27
   0   3 -27 2067.69 78.0209  22
   0  -4   0 1740.87 117.732  15
   0  -4   1 7129.23 212.795  15
   0  -4  -1 7097.86 216.785   7
   0  -4  -1 7505.15 219.829  15
   0  -4  -2 5411.69 192.439   7
   0  -4  -2 6060.23 190.882  15
   0  -4  -3 174.567 55.8534   7
   0  -4  -3 312.293 64.8771  15
   0  -4  -4 613.882 70.6285  15
   0  -4  -4 744.310 76.6866   7
   0  -4   4 788.833 79.8908  15
   0  -4  -5 898.953 82.3534   7
   0  -4  -5 897.085 76.0685  15
   0  -4   5 1015.77 83.6430  15
   0  -4   6 425.051 65.3712  15
   0  -4  -6 337.758 61.9145   7
   0  -4  -6 356.808 58.9342  15
   0  -4  -7 198.094 55.1150   7
   0  -4   7 226.492 53.2020  15
   0  -4  -7 185.874 48.5579  15
   0  -4  -8 493.910 68.0424   7
   0  -4   8 572.373 65.6064  15
   0  -4   9 172.371 49.8040  15
   0  -4  -9 96.4974 53.1887   7
   0   4  -9 95.8341 45.7053  10
   0   4  -9 186.316 41.3123  22
   0  -4 -10 344.844 61.6935   7
   0   4 -10 339.328 47.6826  22
   0   4 -10 235.520 52.0675  10
   0  -4  10 332.657 55.6876  15
   0   4 -11 1065.60 70.4879  22
   0  -4 -11 1107.65 93.0279   7
   0   4 -11 1060.64 77.7832  10
   0  -4 -12 2126.95 117.756   7
   0   4 -12 2193.92 95.6193  22
   0   4 -12 2246.65 105.391  10
   0   4 -13 2645.06 108.618  10
   0   4 -13 2500.10 102.004  22
   0  -4 -13 2468.79 122.560   7
   0   4 -14 3117.12 112.443  22
   0  -4 -14 2985.39 130.197   7
   0   4 -15 1906.77 87.9565  10
   0   4 -15 1879.93 85.6970  22
   0   4 -16 476.978 53.4506  10
   0   4 -16 466.876 48.0878  22
   0  -4 -16 401.063 53.0377   7
   0  -4 -17 442.804 52.0719   7
   0   4 -17 511.247 47.6086  22
   0   4 -17 449.549 47.0842  10
   0   4 -18 113.604 34.4729  10
   0  -4 -18 154.040 35.8281   7
   0   4 -18 149.120 32.0295  22
   0   4 -19 153.606 30.6551  22
   0   4 -19 138.702 31.0046  10
   0  -4 -19 207.342 34.2380   7
   1   0 -34 1444.23 75.4759  26
  -1   0  34 1565.13 74.9978  13
   1   0 -34 1424.12 73.4561  25
  -1   0  33-17.7446 32.1079  13
   1   0 -33 32.6132 40.0512  26
   1   0 -33 11.0535 35.3299  25
   1   0 -32 1034.63 75.9147  25
  -1   0  32 939.808 71.8119  13
   1   0 -32 1022.00 75.8522  26
   1   0 -31-8.57746 45.5474  26
   1   0 -31 21.5116 45.0805  25
  -1   0  31-37.7828 44.3841  13
   1   0 -30 1074.27 87.6199  25
   1   0 -30 1165.46 90.8916  26
  -1   0  30 1058.62 82.6375  13
   1   0 -29 24.3232 47.0030  25
   1   0 -29 16.6047 49.8480  26
   1   0 -28 1336.34 103.288  26
   1   0 -28 1508.97 104.283  25
   1   0 -27-249.030 63.2609  25
   1   0 -27-57.5947 68.8765  26
   1   0 -26 19981.9 411.904  26
   1   0 -26 20045.6 407.765  25
   1   0 -25 21.8269 52.5016  25
   1   0 -25-12.3901 56.9139  26
   1   0 -24 15148.3 979.162   3
   1   0 -24 14521.9 330.028  26
  -1   0  24 14843.8 967.994  39
   1   0 -24 14704.2 327.095  25
   1   0 -23 92.1203 173.803   3
   1   0 -23 45.5184 48.0430  26
   1   0 -23 51.8105 48.6872  25
  -1   0  23 175.193 164.248  39
   1   0 -22 9722.46 752.216   3
  -1   0  22 9576.59 744.051  39
  -1   0  21 21.4457 144.656  39
   1   0 -21 89.5046 156.953   3
  -1   0  20 11402.3 749.561  39
   1   0 -20 11251.7 758.089   3
  -1   0  19-99.9618 156.802  39
   1   0 -19-15.3255 121.703   3
  -1   0  18 8146.00 595.449  39
   1   0 -18 9079.86 632.038   3
   1   0 -17-45.9150 116.426   3
  -1   0  17 56.6840 133.020  39
   1   0 -16 5503.76 451.729   3
  -1   0  16 5304.93 446.011  39
  -1   0  15 16.1856 102.283  39
   1   0 -15-17.3659 111.659   3
   1   0 -14 99602.4 2074.37   3
  -1   0  14 102619. 2078.76  39
   1   0 -13-26.9857 88.0836   3
  -1   0  13-23.2970 82.6055  39
   1   0 -12 103456. 1990.11   3
  -1   0  12 105194. 1982.80  39
   1   0 -11 38.3783 79.5580   3
  -1   0  11 79.8640 77.6647  42
  -1   0  11-4.02726 87.7630  39
   1   0 -11 60.8153 68.5358  42
   1   0 -10 211379. 3092.28  42
   1   0 -10 216912. 3186.04   3
  -1   0  10 213545. 3132.66  42
  -1   0  10 208121. 3193.26  39
   1   0  -9-29.0647 65.6412   3
  -1   0   9-8.19643 54.9948  39
   1   0  -9 46.8493 59.1131  34
  -1   0   9 98.9837 70.0856  42
   1   0  -9 32.8021 53.6331  42
   1   0  -8 24342.4 625.203  42
  -1   0   8 24111.9 679.061  39
  -1   0   8 24842.3 648.197  42
   1   0  -7 11.2520 45.0569  42
  -1   0   7 17.9406 50.5626  42
  -1   0   7-15.7737 45.7739  39
   1   0  -7 1.44638 13.3472  36
   1   0  -6 59356.5 1026.01  42
   1   0  -6 58395.2 831.330  36
   1   0  -5 1.22409 25.4568  36
   1   0  -5 29.7861 47.7359  42
   1   0  -4 229306. 2996.10  42
  -1   0   3 311.212 56.7665  40
   1   0  -3 103.082 37.9206  42
  -1   0   2 693772. 8366.13  40
   1   0  -1 235.211 52.0442  40
  -1   0   1 9.45642 39.6747  40
  -1   0   0 858630. 10283.5  40
   1   0   0 854818. 10314.7  40
  -1   0  -1 40.3704 51.5404  40
   1   0   1-4.06760 42.6493  40
   1   0   2 430063. 5378.81  40
  -1   0  -3 89.1515 57.9361  38
   1   0   3 13.9656 48.5201  40
  -1   0  -4 6411.08 313.004  38
   1   0   4 6148.01 276.633  40
  -1   0  -5 2.80894 54.0465  38
   1   0   5 46.1257 58.1416  40
   1   0   5 7.75471 42.3168  36
  -1   0  -6 148280. 2389.61  38
   1   0   6 154901. 2193.40  36
   1   0   7 18.9721 43.3240  36
  -1   0  -7 61.5324 61.4551  38
   1   0   8 46595.6 928.560  36
  -1   0  -8 46895.2 1131.63  38
   1   0   9 2.02471 47.9436  36
   1   0   9-17.5929 48.7283  39
   1   0  10 27829.3 766.447  39
   1   0  10 31067.9 735.941  36
   1   0  11-8.40922 64.4721  39
   1   0  12 96404.3 1784.63  39
   1   0  13 55.4400 105.829  39
   1   0  14 376596. 5358.16  39
   1   0  15-11.4202 90.9051  39
   1   0  16 72966.5 1714.95  39
   1   0  17-88.1400 106.531  39
   1   0  18 15873.5 801.640  39
   1   0  19 108.278 132.348  39
   1   0  20 20019.0 954.958  39
   1   0  21 183.246 180.013  39
  -1   0 -23 15.9055 50.1325  25
  -1   0 -23 21.8635 52.7310   9
  -1   0 -23 50.0262 57.7799  26
  -1   0 -24 20145.5 402.319  25
  -1   0 -24 19786.1 400.005   9
  -1   0 -24 20172.9 407.479  26
  -1   0 -25 1.83960 49.4882   9
  -1   0 -25 16.0796 54.8945  25
  -1   0 -25 22.4175 50.4147  26
  -1   0 -26 10118.6 270.208   9
  -1   0 -26 10411.9 271.793  26
  -1   0 -26 10439.3 273.290  25
  -1   0 -27 45.7228 51.8036  26
  -1   0 -27 43.2065 52.7779   9
  -1   0 -27-25.0684 49.9996  25
  -1   0 -28 4936.83 176.548   9
  -1   0 -28 4922.90 178.740  25
  -1   0 -28 4906.77 176.041  26
  -1   0 -29 20.0966 46.7504  25
  -1   0 -29 1.72781 47.8248  26
  -1   0 -29 26.0155 47.7546   9
  -1   0 -30 6339.17 191.906  26
  -1   0 -31 51.6668 39.1870  26
  -1   0 -32 123.439 39.8711  26
  -1   0 -33 64.0928 33.7928  26
  -1  -1  33 1738.33 82.9183  13
   1   1 -33 1718.10 78.4463  25
   1  -1 -33 1623.42 81.6934  26
   1   1 -33 1656.35 76.7501   9
   1  -1 -32 1685.02 90.0602  26
   1   1 -32 1738.64 85.9340  25
  -1  -1  32 1714.03 89.2796  13
   1   1 -32 1788.30 86.4987   9
   1   1 -31 601.122 59.3469  26
   1  -1 -31 543.771 61.1738  25
   1   1 -31 574.986 59.2833  25
   1   1 -31 604.051 60.9731   9
  -1  -1  31 513.047 58.1527  13
   1  -1 -31 576.077 64.7149  26
   1  -1 -30 117.693 50.1246  26
   1   1 -30 188.798 47.0735  26
   1  -1 -30 63.5018 44.5967  25
   1   1 -30 143.421 47.9518  25
  -1  -1  30 95.6723 42.7046  13
   1   1 -30 171.105 48.6214   9
   1   1 -29 367.893 58.4097  26
   1   1 -29 319.310 57.8028  25
   1  -1 -29 398.618 65.0669  26
   1  -1 -29 367.355 60.5376  25
   1   1 -29 431.379 63.3222   9
   1   1 -28 190.471 55.0385  25
   1  -1 -28 124.828 51.0461  27
   1  -1 -28 273.011 63.4887  26
   1  -1 -28 223.823 57.5467  25
   1   1 -28 160.663 48.1693  26
   1   1 -28 169.386 51.4164   9
   1  -1 -27 2434.39 126.720  25
   1  -1 -27 2586.37 132.372  26
   1   1 -27 2435.18 122.934   9
   1  -1 -27 2381.41 124.867  27
   1   1 -27 2463.07 125.269  26
   1   1 -27 2447.37 123.702  25
   1  -1 -26 973.666 90.0013  27
   1   1 -26 1048.71 88.0333  26
   1  -1 -26 1110.74 96.2568  26
   1  -1 -26 1051.44 91.2160  25
   1   1 -26 1116.86 89.4335  25
   1   1 -26 1061.62 88.3474   9
   1   1 -25 23333.8 436.565   9
   1  -1 -25 23132.3 457.848  26
   1   1 -25 23462.7 441.913  26
   1   1 -25 23713.6 443.988  25
   1  -1 -25 23101.4 456.980  27
   1  -1 -25 23014.0 451.512  25
   1  -1 -24 42266.3 691.931  27
   1  -1 -24 39843.3 678.696  25
   1   1 -24 42214.7 669.983  25
   1   1 -24 41782.9 666.465   9
   1   1 -24 42371.5 669.572  26
   1  -1 -24 40890.5 685.193  26
   1   1 -23 15628.5 959.593   3
   1  -1 -23 15870.9 352.045  27
   1  -1 -23 15544.5 345.530  25
   1   1 -23 15886.7 335.599  26
   1   1 -23 15491.8 333.104   9
   1   1 -23 15864.6 334.091  25
  -1  -1  23 14078.2 970.594  39
  -1   1  23 15501.9 957.796  39
   1  -1 -23 15749.2 348.967  26
   1  -1 -22 8648.02 245.149  27
   1   1 -22 8590.08 701.154   3
   1   1 -22 8685.99 227.720   9
   1  -1 -22 8754.51 237.562  25
   1  -1 -22 8622.33 238.967  26
  -1  -1  22 8583.14 752.857  39
   1   1 -22 8495.62 226.928  25
  -1   1  22 8673.89 711.386  39
  -1   1  21 4854.39 523.569  39
   1   1 -21 5528.26 556.870   3
   1  -1 -21 5349.20 171.457  31
  -1  -1  21 4554.00 548.785  39
   1  -1 -20 2796.40 121.808  31
   1   1 -20 2187.38 358.440   3
  -1   1  20 2712.27 382.848  39
  -1  -1  20 2621.03 414.558  39
  -1  -1  19 6257.29 590.031  39
   1  -1 -19 6175.59 180.082  31
   1  -1 -19 5845.74 558.661   3
   1   1 -19 5839.16 531.415   3
  -1   1  19 5689.14 531.828  39
   1  -1 -18 5384.41 161.097  31
   1  -1 -18 4548.55 475.542   3
   1   1 -18 5088.60 477.963   3
  -1   1  18 5291.49 485.402  39
  -1  -1  18 5585.64 540.737  39
   1  -1 -17 24443.9 418.106  31
   1   1 -17 23584.9 1001.98   3
   1  -1 -17 23503.2 1044.99   3
  -1   1  17 25134.1 1036.49  39
  -1  -1  17 23938.4 1086.75  39
   1  -1 -16 6193.40 166.918  31
  -1   1  16 6379.67 494.014  39
   1  -1 -16 6484.21 523.655   3
  -1  -1  16 6035.67 521.389  39
   1   1 -16 6283.95 486.614   3
  -1   1  15 3756.58 363.227  39
   1  -1 -15 3037.70 346.517   3
   1   1 -15 2880.74 325.770   3
  -1  -1  15 3259.78 376.260  39
   1  -1 -15 3291.97 115.405  31
  -1  -1  14 27072.6 1050.87  39
   1   1 -14 28702.0 975.228   3
  -1   1  14 27279.2 972.522  39
   1  -1 -14 26009.8 988.330   3
   1   1 -13 45674.3 1251.26   3
  -1   1  13 45766.4 1255.34  39
  -1  -1  13 45651.2 1357.76  39
   1  -1 -13 43678.9 1267.33   3
  -1  -1  13 46396.1 1148.70  12
   1   1 -12 11391.1 552.807   2
  -1   1  12 11160.2 560.943  39
  -1  -1  12 11761.4 525.548  12
   1   1 -12 11747.7 565.544   3
   1  -1 -12 11676.2 586.764   3
  -1  -1  12 12546.3 650.042  39
   1  -1 -11 2105.43 242.239   3
  -1  -1  11 2136.19 267.112  39
  -1  -1  11 1590.16 191.650  12
  -1   1  11 1732.13 214.747  39
   1   1 -11 1861.43 211.935   2
   1  -1 -10 31198.8 925.539   3
  -1   1  10 33484.3 939.964  39
  -1  -1  10 33779.9 1029.56  39
   1  -1  -9 23228.3 742.350   3
  -1  -1   9 24078.4 832.561  39
   1  -1  -9 23995.0 684.332  21
  -1   1   9 23835.9 755.016  39
   1   1  -8 25918.8 717.416  35
  -1   1   8 24980.8 749.157  39
  -1  -1   8 26537.2 843.780  39
   1  -1  -8 24774.8 739.115   3
   1  -1  -8 24896.0 708.519  21
   1   1  -7 24049.3 670.919  35
  -1   1   7 22498.8 709.695  39
   1  -1  -7 23066.7 668.880   3
   1  -1  -7 23237.9 667.544  21
  -1  -1   7 24484.8 784.461  39
  -1   1   6 92880.5 1660.08  39
   1  -1  -6 91047.9 1642.71  21
   1   1  -6 92649.0 1665.98   1
   1  -1  -6 95142.2 1593.62   3
  -1   1   6 95035.2 1493.12  36
   1  -1  -5 218977. 3211.21  21
  -1   1   5 226019. 3221.09  11
   1   1  -5 227648. 3319.86  39
  -1   1   5 220922. 3212.57  39
  -1  -1   5 234508. 3350.02  39
  -1   1   5 222908. 3063.59  36
   1   1  -5 226214. 3244.04   1
   1   1  -4 374592. 5092.56  39
  -1   1   4 384031. 5005.10  39
   1   1  -4 373758. 5015.10   1
   1  -1  -4 378897. 5226.53  42
  -1   1   4 381525. 5233.35  40
  -1  -1   4 380278. 5104.77  39
   1  -1  -4 377399. 5027.45  21
  -1   1   4 376748. 4885.82  36
   1   1  -3 258658. 3616.92  39
   1  -1  -3 256257. 3586.79  21
  -1   1   3 252002. 3473.00  36
   1   1  -3 258694. 3590.49   1
  -1   1   3 256283. 3542.91  39
  -1  -1   3 263001. 3627.12  39
  -1   1   3 256405. 3748.78  40
   1  -1  -3 255878. 3742.40  42
   1  -1  -2 999803. 12146.1  21
  -1   1   2 982427. 12089.7  39
  -1   1   2 989873. 12040.5  36
   1  -1  -2 975000. 12311.9  42
   1   1  -2 991150. 12152.2  39
   1   1  -2 985630. 11672.1  40
  -1   1   1 999999. 12218.9  36
   1   1   0 66855.4 1064.52  42
   1   1   0 67543.7 1232.59  38
   1   1   1 160841. 2360.58  38
   1   1   1 162144. 2216.32  42
   1  -1   1 154496. 2484.87  40
  -1   1  -1 154695. 2337.72  36
   1  -1   1 152606. 2144.93  38
  -1   1  -1 151438. 2432.20  40
   1   1   2 140641. 2163.68  38
  -1   1  -2 135781. 2225.70  40
   1  -1   2 134571. 2273.76  40
   1   1   2 140694. 2070.69  42
  -1   1  -2 141850. 2161.51  36
   1  -1   2 135757. 1935.83  38
  -1  -1  -2 144355. 2065.09  42
   1  -1   3 200087. 3082.16  40
  -1   1  -3 202838. 2947.38  36
   1   1   3 206526. 2917.35  42
   1  -1   3 206180. 2732.49  38
  -1   1  -3 200859. 3017.46  40
   1   1   3 205906. 2992.84  38
   1   1   4 38867.6 874.816  39
   1   1   4 38895.9 934.956  38
  -1   1  -4 37995.6 884.263  39
   1   1   4 39066.2 902.043  42
  -1  -1  -4 40533.8 966.027  38
  -1   1  -4 39121.9 901.795  36
  -1   1  -4 38624.8 936.656  40
   1  -1   4 39700.9 990.202  40
  -1   1  -5 78633.6 1506.96  40
   1  -1   5 82266.3 1586.17  40
   1   1   5 79861.3 1510.85  42
  -1   1  -5 77305.4 1446.41  39
   1   1   5 78868.8 1428.45  39
  -1   1  -5 79002.7 1456.46  36
  -1  -1  -5 81693.1 1569.84  38
  -1   1  -6 86587.3 1571.63  39
   1   1   6 83715.9 1626.62  42
  -1   1  -6 83885.5 1451.56  38
  -1  -1  -6 87353.6 1688.48  38
   1   1   6 85546.1 1530.03  39
   1   1   7 3652.52 256.921  39
   1  -1   7 3032.23 262.229  39
  -1   1  -7 3393.01 265.732  39
  -1   1  -7 3457.26 241.374  38
   1   1   8 73999.2 1402.20  39
   1  -1   8 69612.9 1466.68  39
   1   1   9 18318.6 618.958  39
   1  -1   9 17662.5 672.226  39
  -1  -1  -9 18290.6 753.426   4
  -1  -1 -10 77919.5 1742.47   4
   1   1  10 74999.0 1486.92  39
   1  -1  11 156298. 2757.75  39
   1   1  11 165171. 2646.42  39
   1  -1  12 90041.0 1928.92  39
   1   1  12 93765.3 1818.73  39
   1   1  13 22665.4 806.510  39
   1  -1  13 22875.5 879.842  39
   1  -1  14 3902.76 384.466  39
   1   1  14 3801.94 335.330  39
   1  -1  15 1478.29 260.325  39
   1   1  15 1691.76 250.147  39
   1   1  16 2896.44 321.181  39
   1  -1  16 2357.97 314.929  39
   1  -1  17 7265.47 579.007  39
   1   1  17 7751.73 545.983  39
   1   1  18 2424.16 326.841  39
   1  -1  18 2243.17 350.715  39
   1   1  19 6731.27 541.448  39
   1  -1  19 5664.08 549.025  39
   1  -1  20 1258.42 286.816  39
   1   1  20 1022.41 236.674  39
   1   1  21 1934.14 327.178  39
  -1  -1 -21 1800.09 360.902   4
  -1  -1 -22 6716.09 668.987   4
  -1  -1 -22 6462.29 210.388  25
  -1  -1 -22 6520.43 213.743  26
  -1   1 -22 6744.70 194.978  22
  -1   1 -22 6726.13 202.108   9
  -1  -1 -23 16115.7 1049.69   4
  -1  -1 -23 15324.0 353.917  26
  -1  -1 -23 15049.7 348.514  25
  -1   1 -23 15801.7 336.643   9
  -1   1 -23 15313.8 322.882  22
  -1  -1 -24 18122.1 393.254  25
  -1   1 -24 18793.2 380.199   9
  -1   1 -24 18065.8 365.592  22
  -1  -1 -24 18429.0 396.748  26
  -1   1 -25 5305.09 174.491  22
  -1   1 -25 5446.88 185.980   9
  -1  -1 -25 5129.85 196.743  26
  -1  -1 -25 4819.07 611.287   4
  -1   1 -26 11160.2 266.443  22
  -1  -1 -26 11529.3 296.637  26
  -1  -1 -26 10732.7 874.201   4
  -1   1 -26 11488.8 282.511   9
  -1  -1 -27 9621.38 266.419  26
  -1   1 -27 9666.40 239.226  22
  -1  -1 -27 9294.41 792.238   4
  -1   1 -27 9726.76 256.316   9
  -1  -1 -28 1145.49 94.3698  26
  -1   1 -28 1028.98 89.5558   9
  -1  -1 -29 989.280 86.6950  26
  -1  -1 -29 996.361 83.5276   6
  -1   1 -29 992.060 81.2665   9
  -1  -1 -30 1013.86 83.8442  26
  -1  -1 -30 988.924 78.9007   6
  -1   1 -30 1072.86 83.6253   9
  -1  -1 -31 386.049 57.0531  26
  -1  -1 -31 299.703 49.0903   6
  -1   1 -31 318.177 51.3400   9
  -1  -1 -32 117.437 38.2329   6
  -1  -1 -32 129.309 42.0191  26
  -1  -1 -33 92.4390 31.4291   6
  -1  -1 -33 90.1557 35.6213  26
   1  -2 -31 216.185 36.8624  27
   1   2 -31 251.552 40.3846   9
   1   2 -30 841.412 63.2560   9
   1  -2 -30 715.378 61.8706  27
   1  -2 -29 498.646 56.5314  27
   1   2 -29 562.005 56.7969   9
   1   2 -28 390.358 56.1722   9
   1  -2 -28 370.489 59.3005  27
   1   2 -27 789.978 73.1052   9
   1  -2 -27 887.570 80.0242  27
   1   2 -26 2638.51 123.327   9
   1  -2 -26 2692.93 133.702  27
   1   2 -25 2136.67 117.452   9
   1  -2 -25 1963.21 124.641  27
   1   2 -24 13620.6 301.869   9
   1  -2 -24 13086.3 324.742  27
   1  -2 -23 8484.94 253.850  27
   1   2 -23 8695.25 233.754   9
   1   2 -22 12948.0 283.484  22
   1   2 -22 13090.6 303.553   9
   1  -2 -22 13151.7 329.774  27
   1  -2 -21 28985.5 553.639  27
   1   2 -21 29667.5 518.414   9
   1   2 -21 29876.4 496.130  22
  -1  -2  20 4000.37 534.926  39
   1  -2 -20 4038.09 177.081  27
   1   2 -20 4111.61 518.712  39
   1   2 -20 4003.61 145.877  22
  -1   2  20 4066.86 495.547  39
   1   2 -19 24648.9 1258.94  39
   1   2 -19 26422.1 456.078  22
   1  -2 -19 26359.0 502.795  27
  -1  -2  19 25034.2 1318.26  39
  -1   2  19 27278.6 1245.73  39
  -1  -2  18 8115.11 731.999  39
  -1   2  18 8554.60 685.261  39
   1   2 -18 7970.53 706.458  39
   1   2 -18 8524.95 216.318  22
   1  -2 -18 8295.41 245.344  27
  -1  -2  17 8929.42 759.681  39
   1  -2 -17 9628.04 255.727  31
  -1   2  17 9438.62 704.514  39
   1   2 -17 8238.00 700.291  39
   1  -2 -16 554.951 70.6907  31
  -1   2  16 646.147 212.344  39
   1   2 -16 747.228 228.010  39
  -1  -2  16 629.734 231.636  39
   1  -2 -15 310.190 60.6444  31
  -1  -2  15 397.522 211.719  39
   1   2 -15 283.590 157.938  39
  -1   2  15 489.421 184.304  39
   1   2 -14 1726.80 307.405  39
   1  -2 -14 2186.69 113.458  31
  -1  -2  14 1819.70 280.930  12
  -1   2  14 2140.82 327.590  39
  -1  -2  14 1859.43 327.969  39
   1  -2 -13 6721.79 196.364  31
   1   2 -13 6090.74 545.956  39
  -1   2  13 7160.24 547.646  39
  -1  -2  13 6656.62 587.921  39
  -1  -2  13 6309.74 491.628  12
   1  -2 -12 4663.70 158.894  31
  -1  -2  12 4420.37 404.417  12
  -1   2  12 4361.88 420.833  39
   1   2 -12 4143.21 440.477  39
   1  -2 -11 6292.36 183.330  31
   1  -2 -11 5763.13 492.075  18
   1   2 -11 5844.76 450.931  33
  -1  -2  11 5803.85 458.055  12
   1   2 -11 6666.21 537.970  39
  -1   2  11 5849.88 482.234  39
   1   2 -10 613.010 201.919  39
  -1  -2  10 518.674 171.887  12
  -1   2  10 445.039 166.650  39
   1  -2 -10 616.521 217.148  18
   1  -2 -10 701.359 71.3370  31
   1  -2  -9 36061.0 1226.26  18
   1   2  -9 34562.5 1223.02  39
  -1  -2   9 34211.4 1114.03  12
   1  -2  -9 35889.4 561.169  31
  -1   2   9 37039.6 1201.42  39
  -1   2   8 33761.6 1129.86  39
   1   2  -8 33837.1 1189.38  39
   1  -2  -8 32577.4 1164.59  18
   1  -2  -8 33641.9 531.093  31
  -1  -2   8 32899.6 1085.53  12
  -1   2   7 145326. 2698.44  39
   1  -2  -7 135265. 2717.99  18
   1   2  -7 138439. 2786.00  39
  -1  -2   7 139763. 2598.15  12
  -1   2   6 138786. 2652.50  39
   1   2  -6 141922. 2768.59  39
   1  -2  -6 142840. 2777.79  18
   1  -2  -5 110373. 2314.93  18
  -1   2   5 111077. 2236.29  39
   1   2  -5 108255. 2303.31  39
  -1   2   4 7729.54 506.090  39
   1   2  -4 6976.45 503.307  39
   1  -2  -3 31535.9 1090.75  18
  -1   2   3 32132.6 1044.53  39
   1   2  -3 32952.8 1100.97  39
   1  -2  -2 32207.0 1086.21  18
  -1   2   2 31255.0 1027.74  39
   1   2  -2 31735.0 1071.00  39
  -1   2   1 2737.70 314.386  39
   1   2  -1 3646.70 380.886  39
   1  -2  -1 4023.65 417.369  18
   1   2   0 80626.4 1867.43  39
   1  -2   0 82244.1 1792.04  20
  -1   2   0 81279.8 1814.76  39
   1  -2   0 82962.5 1872.80  18
   1  -2   1 25059.4 922.646  20
   1   2   1 23648.3 920.286  39
  -1   2  -1 23383.7 903.372  39
  -1   2  -2 85783.7 1889.56  39
   1   2   2 87424.1 1914.73  39
   1  -2   2 85465.9 1887.20  20
   1   2   3 28041.5 989.421  39
  -1   2  -3 26990.5 974.655  39
   1  -2   3 29324.8 1004.55  20
   1  -2   4 22365.3 879.073  20
  -1   2  -4 20617.4 842.298  39
   1   2   4 20379.8 835.461  39
   1   2   5 8886.88 544.125  39
   1  -2   5 9084.96 568.592  20
  -1   2  -5 7966.33 522.917  39
   1   2   6 28611.5 1007.24  39
  -1   2  -6 28954.0 1033.14  39
   1  -2   6 28921.6 1057.35  20
  -1  -2  -7 17795.9 845.439   4
   1  -2   7 19137.5 858.943  20
   1   2   7 18303.6 795.800  39
  -1   2  -7 17476.7 809.637  39
   1   2   8 27261.5 994.657  39
  -1   2  -8 26179.4 1015.71  39
  -1  -2  -8 26456.9 1057.85   4
  -1  -2  -9 120.938 141.997   4
   1   2   9 193.963 123.933  39
  -1   2  -9 207.971 149.238  39
  -1   2 -10 44457.7 1403.87  39
   1   2  10 45184.7 1347.87  39
  -1  -2 -10 43028.5 1460.35   4
  -1   2 -11 61824.3 1754.95  39
   1   2  11 66105.5 1706.72  39
  -1  -2 -11 63499.7 1861.83   4
   1   2  12 598.658 198.702  39
  -1   2 -12 640.673 221.328  39
  -1  -2 -12 496.929 227.723   4
  -1   2 -13 970.752 230.685  39
  -1  -2 -13 890.911 263.196   4
   1   2  13 1198.08 245.624  39
  -1  -2 -14 10274.4 765.678   4
  -1   2 -14 9402.00 681.026  39
   1   2  14 8806.04 612.852  39
   1   2  15 205.740 157.042  39
  -1   2 -15 402.547 207.113  39
  -1  -2 -15 386.232 211.016   4
   1   2  16 3887.87 434.957  39
  -1   2 -16 4597.79 498.872  39
  -1  -2 -16 3375.90 481.553   4
  -1   2 -17 1419.50 317.699  39
  -1  -2 -17 1459.02 334.706   4
   1   2  17 2044.15 335.848  39
  -1  -2 -18 6665.22 215.487  27
  -1  -2 -18 6628.41 212.551  26
  -1  -2 -18 6550.35 672.415   4
   1   2  18 7055.36 596.233  39
  -1   2 -18 6731.81 192.676  22
  -1   2 -18 6133.25 615.962  39
  -1   2 -19 59.0784 40.5941  22
  -1  -2 -19 137.172 57.9999  27
  -1  -2 -19 126.574 56.0621  26
  -1  -2 -19 162.349 168.854   4
   1   2  19 21.6886 186.861  39
  -1   2 -19 5.15226 155.966  39
  -1  -2 -20 374.170 252.273   4
  -1  -2 -20 332.342 66.2825  27
  -1  -2 -20 345.938 68.4008  26
  -1   2 -20 279.087 51.3741  22
  -1  -2 -21 4455.39 177.424  27
  -1  -2 -21 4380.92 176.471  26
  -1   2 -21 4337.12 159.415  22
  -1  -2 -21 4010.67 559.471   4
  -1   2 -22 4781.93 166.223   9
  -1  -2 -22 5230.49 191.401  27
  -1   2 -22 4989.13 171.431  22
  -1  -2 -22 4738.47 616.570   4
  -1  -2 -22 5044.56 188.481  26
  -1  -2 -23 13977.1 1009.59   4
  -1   2 -23 13884.9 305.782   9
  -1  -2 -23 14212.3 333.276  27
  -1   2 -23 13976.4 311.969  22
  -1  -2 -23 13778.0 329.466  26
  -1  -2 -24 7632.15 232.602  26
  -1   2 -24 7821.70 216.312  22
  -1   2 -24 7538.63 210.835   9
  -1  -2 -24 6869.62 714.993   4
  -1  -2 -24 7624.71 230.885  27
  -1  -2 -25 7763.42 237.898   6
  -1   2 -25 7832.19 215.978   9
  -1  -2 -25 7816.49 230.489  26
  -1   2 -25 8158.93 216.839  22
  -1  -2 -25 8181.13 230.337  27
  -1   2 -26 2682.82 123.124   9
  -1  -2 -26 2409.71 129.226   6
  -1  -2 -26 2635.32 125.245  27
  -1   2 -26 2801.31 121.345  22
  -1  -2 -26 2622.53 129.873  26
  -1  -2 -27 666.440 67.2253  27
  -1   2 -27 627.815 64.2696   9
  -1  -2 -27 573.929 70.3148  26
  -1  -2 -27 557.647 70.9466   6
  -1   2 -27 610.866 63.6140  22
  -1  -2 -28 893.780 70.7645  27
  -1  -2 -28 925.027 75.3928  26
  -1   2 -28 910.328 69.9183   9
  -1  -2 -28 988.683 81.7314   6
  -1   2 -28 991.744 70.3629  22
  -1  -2 -29 459.249 55.4772   6
  -1   2 -29 337.278 49.1719   9
  -1  -2 -29 350.416 52.6438  26
  -1   2 -29 413.258 49.3960  22
  -1   2 -30 29.1142 30.8570  22
  -1  -2 -30-31.6766 36.3474  26
  -1   2 -30-4.43460 30.8036   9
  -1  -2 -30-0.63505 34.3646   6
  -1  -2 -31 415.327 45.3454   6
  -1  -2 -31 462.831 45.2583  26
   1  -3 -27 638.289 51.8351  27
   1  -3 -26 1252.38 74.3360  27
   1   3 -26 1211.10 61.2909  22
   1   3 -26 1293.71 63.7755   9
   1   3 -25 747.590 57.0304   9
   1  -3 -25 798.938 67.2295  27
   1   3 -25 776.574 56.2876  22
   1   3 -24 1587.83 80.4417   9
   1  -3 -24 1707.70 94.9568  27
   1   3 -24 1534.74 78.3216  22
   1   3 -23 2947.37 110.613   9
   1  -3 -23 2836.50 128.028  27
   1   3 -23 3094.22 112.435  22
   1   3 -22 583.974 57.9902   9
   1   3 -22 565.632 60.3465  22
   1  -3 -22 610.634 73.0115  27
   1   3 -21 502.576 59.7695   9
   1  -3 -21 496.437 71.4066  27
   1   3 -21 473.631 58.4553  22
   1  -3 -20 902.595 87.6913  27
   1   3 -20 903.748 72.3123  22
   1   3 -20 756.835 69.9942   9
   1   3 -19 2564.35 113.571   9
   1   3 -19 2432.04 113.194  22
   1  -3 -19 2450.45 129.794  27
   1  -3 -18 350.592 65.6385  27
   1  -3 -18 337.138 58.5997  17
   1   3 -18 367.392 57.3855   9
   1   3 -18 343.136 54.9974  22
   1  -3 -17 628.445 78.0891  27
   1   3 -17 589.311 65.0740  22
   1  -3 -17 617.780 75.2941  17
   1  -3 -16 966.839 89.5162  27
   1  -3 -16 866.145 85.4000  17
   1   3 -16 937.492 78.4297  22
   1   3 -15 286.164 57.3015  22
   1  -3 -15 273.036 65.2424  27
   1  -3 -15 250.223 65.5922  17
  -1  -3  15 268.401 205.837  12
   1   3 -14 4180.80 152.785  22
   1  -3 -14 4505.19 175.629  17
   1   3 -13 2702.38 124.355  22
   1  -3 -13 2780.81 141.353  17
  -1  -3  13 2890.18 398.725  12
   1  -3 -13 2848.86 140.798  16
  -1  -3  12 15355.0 879.661  12
  -1   3  12 15183.3 923.929  39
   1   3 -12 15094.1 316.666  22
   1  -3 -12 14827.3 347.068  17
   1  -3 -12 15756.5 348.463  16
   1   3 -12 14974.1 310.350  24
   1   3 -12 13775.5 936.875  39
   1  -3 -11 1726.31 116.305  17
   1   3 -11 1409.86 95.8604  22
  -1   3  11 1495.52 305.411  39
  -1  -3  11 1555.66 96.3791  15
   1   3 -11 1065.11 287.771  39
   1   3 -11 1575.27 91.7829  24
   1  -3 -11 1493.01 112.614  16
  -1  -3  11 1253.75 278.870  12
   1   3 -10 5006.75 555.342  39
   1  -3 -10 5789.80 199.661  17
   1   3 -10 5422.79 167.502  24
   1  -3 -10 5628.99 196.699  16
  -1  -3  10 5550.35 178.372  15
   1   3 -10 5535.89 172.290  22
  -1  -3  10 5203.67 525.956  12
  -1   3  10 5296.25 542.763  39
  -1  -3   9 682.525 70.9073  15
   1  -3  -9 811.945 84.4008  17
   1   3  -9 658.976 64.7173  22
   1  -3  -9 795.961 83.4116  16
   1   3  -9 795.937 262.973  39
   1   3  -9 729.992 65.4872  24
   1  -3  -9 710.612 79.8915  15
  -1  -3   9 459.180 197.511  12
  -1   3   9 517.174 218.807  39
   1  -3  -8 241.575 63.7889  16
   1   3  -8 184.704 46.9369  22
   1   3  -8 36.2375 146.590  39
  -1  -3   8 169.422 52.1879  15
  -1  -3   8 117.513 163.974  12
   1  -3  -8 176.936 54.6514  17
  -1   3   8 74.3284 151.262  39
  -1   3   7 1006.51 279.017  39
   1   3  -7 1225.38 297.256  39
  -1  -3   7 770.694 240.452  12
  -1  -3   6-27.8620 142.186  12
  -1   3   6 91.2104 144.680  39
   1   3  -5-176.198 206.961  39
  -1   3   5 94.1983 150.202  39
  -1  -3   5 154.338 161.724  12
   1   3  -4 8058.33 675.119  39
  -1   3   4 8370.89 655.760  39
   1   3  -3 23290.1 1132.22  39
  -1   3   3 23714.0 1122.55  39
  -1   3   2 4055.54 487.334  39
   1   3  -2 3174.84 438.925  39
  -1   3   1 6205.76 569.929  39
   1   3  -1 6238.16 598.543  39
  -1   3   0 12098.5 793.972  39
   1   3   0 10594.1 761.801  39
   1   3   1 1433.20 302.128  39
  -1   3  -1 1595.19 344.539  39
  -1   3  -2-10.5747 169.124  39
  -1  -3  -2 73.5208 148.790   5
   1   3   2 125.736 178.300  39
  -1  -3  -3 1911.13 330.880   5
  -1   3  -3 1739.16 321.415  39
   1   3   3 1708.34 323.070  39
   1   3   4 742.968 242.932  39
  -1   3  -4 567.758 211.574  39
  -1  -3  -4 651.599 217.284   5
   1   3   5 521.787 219.369  39
  -1  -3  -5 361.383 189.641   5
  -1   3  -5 311.649 167.197  39
  -1  -3  -6 158.553 158.564   5
  -1   3  -6 37.2246 149.551  39
   1   3   6 350.245 217.378  39
  -1   3  -7 7.61504 154.869  39
  -1  -3  -7-11.0848 138.056   5
   1   3   7-77.4929 156.399  39
  -1  -3  -8 3268.61 148.188   7
   1   3   8 2822.61 409.041  39
  -1   3  -8 3446.57 460.534  39
  -1  -3  -9 1290.83 98.5651  27
   1   3   9 1165.69 302.531  39
  -1  -3  -9 955.304 301.726   5
  -1   3  -9 1097.48 284.116  39
  -1  -3  -9 1239.35 97.5165   7
  -1   3 -10 409.132 58.2060  10
  -1  -3 -10 413.057 65.9737  27
  -1   3 -10 409.221 54.1495  22
  -1   3 -10 569.000 227.513  39
   1   3  10 621.714 233.598  39
  -1  -3 -10 400.715 64.6410   7
   1   3  11 372.258 182.992  39
  -1  -3 -11 416.318 74.1378  27
  -1   3 -11 389.805 63.7555  10
  -1   3 -11 585.925 264.691  39
  -1  -3 -11 436.113 70.4359   7
  -1   3 -11 444.428 61.3840  22
   1   3  12 13379.2 861.678  39
  -1   3 -12 12383.9 278.816  10
  -1   3 -12 12552.0 868.025  39
  -1   3 -12 12135.0 272.802  22
  -1  -3 -12 12633.1 310.952  27
  -1  -3 -12 12735.7 316.309   7
  -1  -3 -13 7114.94 230.193   7
  -1   3 -13 7176.24 205.574  10
  -1   3 -13 7154.78 197.639  22
  -1  -3 -13 7069.26 227.407  27
  -1   3 -14 7173.13 201.506  22
  -1   3 -14 7350.81 206.446  10
  -1  -3 -14 7412.32 231.414   7
  -1  -3 -14 7082.18 229.679  27
  -1  -3 -15 1593.19 115.547  27
  -1   3 -15 1796.69 103.047  22
  -1   3 -15 1761.52 102.166  10
  -1  -3 -15 1661.18 109.028   7
  -1   3 -16 2258.03 112.258  10
  -1   3 -16 2310.45 115.307  22
  -1  -3 -16 2146.89 120.178   7
  -1  -3 -16 2199.11 129.002  27
  -1  -3 -17 6934.62 225.537  27
  -1   3 -17 6758.60 196.720  22
  -1   3 -17 6599.24 192.712  10
  -1  -3 -17 6890.91 214.391   7
  -1  -3 -18 1097.79 97.3684  27
  -1   3 -18 1020.97 81.8036  10
  -1   3 -18 994.934 80.6840  22
  -1   3 -19 823.790 71.5922  22
  -1  -3 -19 618.862 260.057   5
  -1   3 -19 711.212 66.6797  10
  -1  -3 -19 963.326 94.5318  27
  -1   3 -20 2325.09 106.713  10
  -1  -3 -20 2676.17 423.208   5
  -1  -3 -20 2705.93 134.994  27
  -1   3 -20 2493.72 114.000  22
  -1  -3 -21 2017.52 114.421  27
  -1   3 -21 1948.32 101.453  22
  -1   3 -21 1833.94 92.2588  10
  -1  -3 -22 1133.56 88.5826  27
  -1   3 -22 1132.79 77.1303  22
  -1  -3 -23 1332.16 91.2847  27
  -1   3 -23 1276.20 79.3747  22
  -1  -3 -24 1807.85 84.4008  41
  -1  -3 -24 2114.58 103.465  27
  -1   3 -24 1887.14 90.3607  22
  -1  -3 -25 6119.63 167.048  27
  -1   3 -25 6013.58 156.389  22
  -1   3 -26 4254.75 123.100  22
  -1  -3 -26 4658.55 134.273  27
   1   4 -19 65.0755 25.0786  22
   1  -4 -19 65.3403 29.9528   7
   1   4 -18 346.326 39.2143  10
   1  -4 -18 305.638 42.5694   7
   1   4 -18 357.641 38.5612  22
   1   4 -17 147.825 35.2928  22
   1   4 -17 131.068 36.4496  10
   1   4 -16 2790.72 100.421  22
   1   4 -16 2808.33 97.1082  10
   1   4 -15 6727.49 165.741  10
   1   4 -15 6917.39 166.220  22
   1  -4 -15 6839.27 183.102  17
   1  -4 -14 3092.76 118.518  16
   1   4 -14 3172.86 111.034  10
   1   4 -14 2940.95 110.290  22
   1  -4 -14 3330.77 127.713  17
   1   4 -13 2455.38 101.842  22
   1  -4 -13 2592.04 113.288  16
   1  -4 -13 2457.84 117.886  17
   1  -4 -12 2902.38 123.536  16
   1   4 -12 2744.00 108.547  22
   1  -4 -12 3008.68 129.863  17
   1   4 -11 3818.60 129.064  22
   1  -4 -11 4138.42 151.778  16
   1  -4 -11 4144.80 155.617  17
   1  -4 -10 2456.52 124.188  16
   1   4 -10 2431.80 103.159  22
   1  -4 -10 2465.16 124.412  17
   1  -4  -9 101.200 50.7223  15
  -1  -4   9 114.197 42.6526   8
   1   4  -9 135.218 41.3387  22
   1  -4  -9 107.592 58.6311  17
   1  -4  -9 109.501 58.9703  16
  -1  -4   8 251.277 48.2349   8
   1  -4  -8 225.402 53.9667  15
   1   4  -8 269.183 46.4180  22
   1  -4  -8 219.664 63.6467  17
   1  -4  -8 238.983 61.5329  16
   1  -4  -7 455.681 72.5159  16
   1  -4  -7 410.659 62.0597  15
  -1  -4   7 440.874 57.4691   8
   1  -4  -7 490.217 71.6239  17
   1   4  -7 485.380 53.8711  22
   1  -4  -6 193.660 52.7775   7
  -1  -4   6 287.442 51.5923   8
  -1  -4   6 192.406 50.4439  15
   1  -4  -6 246.537 55.2419  15
   1   4  -6 198.498 42.0029  22
   1  -4  -6 244.266 62.1644  17
   1  -4  -6 305.557 66.3952  16
  -1  -4   5 65.4653 47.4342  15
   1   4  -5 108.426 38.8094  22
   1  -4  -5 96.0893 49.9117  15
   1  -4  -5 49.7158 40.3082   7
   1  -4  -5 129.472 61.8136  16
   1  -4  -4 306.382 71.0263  16
  -1  -4   4 195.717 53.3390  15
   1  -4  -4 222.494 56.3487  15
   1   4  -4 234.735 46.8126  22
   1  -4  -4 194.073 49.1242   7
   1  -4  -3 478.719 80.8197  16
   1  -4  -3 400.301 66.7326  15
  -1  -4   3 486.249 67.8562  15
   1   4  -3 475.169 53.7843  22
   1  -4  -2 1751.75 111.348  15
  -1  -4   2 1932.36 107.077  15
   1  -4  -2 2137.24 125.369  16
   1  -4  -1 2269.43 130.840  16
   1  -4  -1 2088.21 118.302  15
  -1  -4   1 1838.90 107.370   7
  -1  -4   1 1952.86 109.351  15
  -1  -4   0 1019.33 84.5917   7
  -1  -4   0 1010.48 82.5363  15
   1  -4   1 374.429 76.5400  15
  -1  -4  -1 308.461 66.7663  15
  -1  -4  -1 237.143 61.7374   7
   1  -4   2 3308.38 142.636  15
  -1  -4  -2 3043.21 130.814  15
  -1  -4  -2 3294.86 144.720   7
  -1  -4  -3 375.940 60.4954  15
  -1  -4  -3 295.646 57.1503   7
   1  -4   4 134.497 51.6476  15
  -1  -4  -4 179.231 49.9396  15
  -1   4  -4 145.200 43.6699  10
  -1  -4  -4 155.499 50.8309   7
  -1   4  -5 214.387 47.1921  10
  -1  -4  -5 270.140 49.7586  15
  -1  -4  -5 412.387 64.7187   7
   1  -4   5 255.639 55.7792  15
  -1   4  -6 264.443 50.2350  10
  -1  -4  -6 310.328 59.9065   7
   1  -4   6 132.616 48.6872  15
  -1   4  -7 196.823 47.1687  10
   1  -4   7 70.5522 46.4854  15
  -1  -4  -7 122.148 40.8292   8
  -1  -4  -7 257.228 61.6362   7
  -1   4  -8 293.988 50.8550  10
  -1  -4  -8 296.469 59.3363   7
   1  -4   8 390.665 55.7250  15
  -1  -4  -8 310.412 51.9524   8
  -1   4  -9 2942.83 116.669  10
  -1  -4  -9 2987.63 137.956   7
   1  -4   9 2836.48 115.329  15
  -1  -4  -9 2777.86 110.721   8
   1  -4  10 412.176 56.4225  15
  -1  -4 -10 503.557 68.7276   7
  -1   4 -10 612.035 65.8992  10
  -1   4 -11 2981.40 116.664  10
  -1  -4 -11 2925.25 134.526   7
  -1   4 -12 8775.47 209.014  10
  -1  -4 -12 8401.48 231.510   7
  -1   4 -13 4831.06 146.663  10
  -1  -4 -13 4508.63 157.940   7
  -1  -4 -14 4740.89 155.634   7
  -1   4 -14 4670.05 143.419  10
  -1   4 -15 2875.40 108.380  10
  -1   4 -15 2568.76 94.8103  22
  -1  -4 -15 2934.27 115.835   7
  -1   4 -16 347.111 49.2743  10
  -1   4 -16 296.634 40.2554  22
  -1  -4 -16 400.555 51.3709  41
  -1  -4 -16 374.882 48.2448   7
  -1   4 -17 246.748 41.4228  10
  -1  -4 -17 248.411 43.4713  41
  -1   4 -17 211.768 34.8509  22
  -1  -4 -17 266.440 38.6253   7
  -1   4 -18 581.701 42.9805  22
  -1  -4 -18 604.903 47.0003   7
  -1  -4 -18 541.095 48.2455  41
  -1   4 -18 596.867 48.3266  10
  -1  -4 -19 17.5483 26.5528  41
   2   0 -33 19.0540 33.9874  26
  -2   0  33 13.4507 26.9649  13
   2   0 -33-7.83908 30.5916  25
   2   0 -32 1855.17 91.8030  26
   2   0 -32 1806.69 89.2657  25
  -2   0  32 1862.37 90.0277  13
  -2   0  31 26.9300 36.3097  13
   2   0 -31 38.4621 43.1847  26
   2   0 -31-10.2152 37.1553  25
   2   0 -30 2549.59 120.775  26
   2   0 -30 2696.53 120.228  25
  -2   0  30 2642.10 121.858  13
  -2   0  29 32.8082 47.7757  13
   2   0 -29 77.7877 59.5320  26
   2   0 -29 200.966 60.7635  25
   2   0 -28 19220.5 383.759  25
   2   0 -28 19709.8 394.720  26
  -2   0  28 18896.0 396.137  13
   2   0 -28 18983.6 372.090  23
  -2   0  27 129.263 66.8413  13
   2   0 -27 187.207 70.3645  26
   2   0 -27 255.339 69.7426  25
   2   0 -27 194.512 68.9132  23
   2   0 -26 46238.9 733.266  26
   2   0 -26 44961.3 723.178  25
  -2   0  26 45897.0 746.478  13
   2   0 -26 45773.2 719.427  23
   2   0 -25 230.274 84.2119  26
  -2   0  25 462.086 83.4643  13
   2   0 -25 253.279 76.4746  23
   2   0 -25 191.543 73.7276  25
   2   0 -24 28005.1 517.491  26
   2   0 -24 27780.6 507.340  25
   2   0 -24 29672.3 514.117  23
  -2   0  24 29292.0 536.552  13
   2   0 -23 65.6192 52.9610  25
   2   0 -23 2.63098 51.9432  26
  -2   0  23 142.389 155.992  39
  -2   0  23 91.6158 52.8200  13
   2   0 -23 87.1525 58.3594  23
   2   0 -22 4137.31 162.838  26
   2   0 -22 4213.26 163.912  27
   2   0 -22 4407.41 157.165  31
   2   0 -22 4308.92 157.651  25
  -2   0  22 4206.06 168.219  13
   2   0 -22 4060.55 159.692  23
   2   0 -22 4278.14 543.650   3
  -2   0  22 4143.00 515.800  39
   2   0 -21 16.7574 40.7547  31
  -2   0  21 55.8662 156.085  39
   2   0 -21 112.550 175.952   3
  -2   0  20 418.662 195.681  39
   2   0 -20 644.550 224.086   3
   2   0 -20 527.909 60.4456  31
  -2   0  19 67.9822 105.407  39
   2   0 -19 7.02916 37.6170  31
   2   0 -19-31.5704 147.214  32
   2   0 -19 24.5584 151.208   3
   2   0 -18 3881.83 136.551  31
   2   0 -18 3736.13 431.234  32
   2   0 -18 3324.22 415.962   3
  -2   0  18 3567.39 420.660  39
   2   0 -17 23.8212 37.3731  31
   2   0 -17 94.4139 146.148   3
   2   0 -17-36.3458 147.022  32
  -2   0  17 69.7638 129.850  39
   2   0 -16 22447.4 990.076   3
   2   0 -16 23252.2 978.056  32
  -2   0  16 22046.5 968.226  39
  -2   0  15 197.015 123.893  39
   2   0 -15 7.06225 149.129  32
   2   0 -15-47.6495 119.266   3
   2   0 -14 75456.0 1856.91   3
  -2   0  14 76813.9 1807.52  39
   2   0 -14 77886.4 1838.19  32
  -2   0  13 5.33183 90.4051  39
   2   0 -13 74.8572 144.805   3
   2   0 -13-32.6297 124.518  32
   2   0 -12 108335. 2163.16   3
   2   0 -12 107837. 2162.20  32
   2   0 -12 105503. 2111.82  34
   2   0 -12 102219. 2131.01   2
  -2   0  12 109116. 2113.73  39
   2   0 -11 82.0115 101.727  33
   2   0 -11 57.5597 124.609  34
   2   0 -11 72.4792 111.495   2
  -2   0  11 50.5760 93.2593  39
   2   0 -10 42970.5 1134.36   2
   2   0 -10 40469.3 1117.05  34
  -2   0  10 41030.0 1069.14  39
   2   0  -9 48.6011 74.9767   2
  -2   0   9 77.5566 93.1160  11
  -2   0   9 12.5091 68.5647  39
   2   0  -9 51.5209 75.2960  34
  -2   0   8 65025.9 1279.62  37
   2   0  -8 68626.2 1446.86  34
  -2   0   8 69364.2 1355.16  39
  -2   0   8 66374.3 1600.75  11
   2   0  -7-25.5237 75.6328  34
   2   0  -7 54.1393 74.7557  35
  -2   0   7 4.56271 62.9407  37
  -2   0   7 1.09094 82.3100  11
  -2   0   7 16.7141 58.2997  39
   2   0  -6 13025.1 521.658  34
  -2   0   6 12406.8 461.384  37
  -2   0   6 12440.9 592.058  11
   2   0  -6 12584.6 421.430  36
   2   0  -6 13069.3 540.011  35
   2   0  -5 42.2666 59.5292  36
   2   0  -5 76.1629 63.3193  42
  -2   0   5-20.4903 81.2441  11
   2   0  -5-23.3417 57.7247  35
  -2   0   5-38.9709 62.5490  40
   2   0  -5-30.5221 63.8312   1
  -2   0   5 64.8879 58.8807  37
  -2   0   4 38116.6 844.207  40
   2   0  -4 38683.0 853.420  36
  -2   0   4 41063.2 1081.44  11
   2   0  -4 38155.9 929.901   1
   2   0  -4 39865.4 963.549  35
  -2   0   4 38855.5 890.268  37
   2   0  -3 13.4838 64.9706   1
  -2   0   3 7.32461 70.1182  37
  -2   0   3 17.2271 57.0896  40
   2   0  -3 45.2832 55.8343  36
   2   0  -3 101.399 73.0914  35
   2   0  -2 122077. 1933.64  36
   2   0  -2 121112. 1970.82  40
   2   0  -2 120036. 1983.54   1
  -2   0   2 119854. 1882.25  40
  -2   0   2 120936. 2163.44  11
  -2   0   2 118120. 1937.37  37
   2   0  -1 46.2856 77.1252  40
   2   0  -1 261.471 126.032  36
  -2   0   1-48.9125 96.9385  11
  -2   0   1 103.537 95.0544  40
  -2   0   1 97.2438 95.1739  37
   2   0   0 38596.9 924.424  40
  -2   0   0 39156.5 910.771  37
  -2   0   0 39807.4 881.185  40
  -2   0   0 40545.0 1052.66  11
   2   0   0 39758.9 912.656  36
   2   0   1 20.8895 81.1558  40
  -2   0  -1-103.487 110.444  11
  -2   0  -1 144.226 117.960  37
  -2   0  -2 431984. 5648.91  37
   2   0   2 421842. 5710.01  40
  -2   0  -3 100.469 101.367  37
   2   0   3 81.5820 94.1604  40
  -2   0  -4 248575. 3581.86  37
  -2   0  -5 20.2907 72.3086  37
  -2   0  -6 6420.07 361.666  37
  -2   0  -7 124.977 84.6645  37
  -2   0 -11-4.73134 98.1813   4
  -2   0 -12 103962. 2177.44   4
  -2   0 -13-207.918 137.572   4
  -2   0 -14 14515.3 742.045   4
  -2   0 -15 245.753 157.247   4
  -2   0 -16 46083.6 1487.46   4
  -2   0 -17 105.640 140.862   4
  -2   0 -18 9567.49 699.989   4
  -2   0 -21-33.2353 44.3415   9
  -2   0 -22 7680.65 224.067   9
  -2   0 -22 7514.59 217.796  22
  -2   0 -23-40.0435 46.5077  22
  -2   0 -24 1429.09 95.3300  22
  -2   0 -25-21.2590 41.3189  22
  -2  -1  32 269.008 40.9513  13
   2  -1 -32 283.248 45.0809  26
   2   1 -32 344.450 43.4725  26
   2   1 -32 347.999 43.8727  25
   2   1 -31 1560.53 77.9075   9
   2  -1 -31 1515.38 79.7856  27
   2  -1 -31 1530.89 84.0769  26
   2   1 -31 1653.11 83.6299  26
   2  -1 -31 1574.01 80.7537  25
   2   1 -31 1728.24 85.4627  25
  -2  -1  31 1558.13 85.2437  13
   2  -1 -30 3362.64 127.891  27
   2   1 -30 3641.74 123.896   9
   2  -1 -30 3433.20 129.092  26
   2   1 -30 3430.29 126.692  26
   2  -1 -30 3390.67 123.151  25
   2   1 -30 3596.09 130.740  25
  -2  -1  30 3529.89 133.488  13
   2  -1 -29 904.664 78.3248  27
   2  -1 -29 900.718 77.8309  26
   2  -1 -29 844.100 70.6912  25
   2   1 -29 937.889 76.7194  25
  -2  -1  29 932.346 77.4630  13
   2   1 -29 880.445 69.9369   9
   2   1 -29 835.574 76.4212  26
   2  -1 -28 5463.58 182.162  27
   2  -1 -28 5528.38 179.591  26
   2   1 -28 5485.02 177.041  26
   2  -1 -28 5254.68 170.779  25
   2   1 -28 5542.68 169.755   9
  -2  -1  28 5721.52 185.204  13
   2   1 -28 5770.66 180.340  25
   2  -1 -27 2665.24 133.657  27
   2   1 -27 2808.36 122.696   9
   2  -1 -27 2795.79 133.600  26
   2   1 -27 2710.55 128.001  26
   2  -1 -27 2611.55 122.872  25
   2   1 -27 2831.10 131.199  25
  -2  -1  27 2780.50 134.552  13
   2  -1 -26 1470.01 106.518  27
   2   1 -26 1482.62 93.4232   9
   2  -1 -26 1362.63 99.6645  26
   2   1 -26 1516.82 102.731  26
   2  -1 -26 1509.85 99.9635  25
  -2  -1  26 1462.44 102.313  13
   2   1 -26 1490.61 101.531  25
   2  -1 -25 2733.91 144.484  27
   2   1 -25 2903.51 129.767   9
   2  -1 -25 2763.07 135.033  26
   2   1 -25 2788.58 136.288  26
   2  -1 -25 2812.77 133.773  25
   2   1 -25 2827.95 134.481  25
  -2  -1  25 2838.07 138.504  13
   2  -1 -25 2912.41 133.106  31
   2  -1 -24 10980.7 277.511  31
   2  -1 -24 11127.0 291.429  27
   2   1 -24 10669.3 264.117   9
   2  -1 -24 10267.5 273.619  26
   2   1 -24 10889.2 275.140  26
   2   1 -24 10833.3 273.651  25
  -2  -1  24 11247.4 288.475  13
   2  -1 -23 11080.6 276.903  31
   2  -1 -23 11024.5 294.434  27
   2   1 -23 10867.1 266.575   9
   2  -1 -23 10666.0 277.228  26
   2   1 -23 10829.3 275.384  26
   2   1 -23 10755.2 271.497  25
  -2  -1  23 11604.8 293.224  13
   2  -1 -23 10912.6 283.296  23
   2  -1 -22 9862.72 254.698  30
   2  -1 -22 9290.10 252.931  26
   2  -1 -22 9920.98 256.141  31
  -2  -1  22 8886.06 778.457  39
   2   1 -22 9377.52 252.289  26
   2  -1 -22 9756.07 271.167  27
   2  -1 -22 9542.02 773.475   3
   2   1 -22 9650.18 245.773   9
  -2  -1  22 9543.81 263.942  13
   2  -1 -22 9714.57 260.039  23
  -2   1  22 9657.35 756.703  39
   2   1 -22 9636.69 251.061  25
  -2   1  22 9112.40 792.274  11
   2  -1 -21 3246.98 141.164  31
  -2  -1  21 3288.06 482.547  39
   2  -1 -21 3295.92 145.200  30
   2  -1 -21 3265.10 151.382  27
   2   1 -21 3136.83 434.538   3
  -2   1  21 3267.00 442.250  39
   2  -1 -21 3203.13 140.433  26
   2   1 -21 3333.84 143.288  26
   2   1 -21 3298.78 137.832  25
   2  -1 -21 3049.38 454.202   3
   2  -1 -21 3331.51 145.554  23
  -2   1  21 2982.13 473.184  11
   2  -1 -20 3446.87 143.090  31
   2  -1 -20 3321.26 152.522  27
   2   1 -20 3398.27 466.365   3
   2   1 -20 3529.89 137.683  25
   2  -1 -20 2978.74 443.602   3
   2  -1 -20 3463.66 145.345  23
  -2   1  20 3257.11 427.620  39
  -2  -1  20 3505.49 484.432  39
  -2  -1  19 478.253 222.648  39
   2  -1 -19 533.671 68.4346  31
  -2   1  19 565.859 211.503  39
   2  -1 -19 606.766 232.659   3
   2   1 -19 562.688 217.439   3
   2  -1 -18 4426.23 158.704  31
   2   1 -18 4221.36 472.816   3
  -2  -1  18 4095.05 493.660  39
  -2   1  18 4441.99 468.741  39
   2  -1 -18 4127.13 462.096   3
   2  -1 -17 765.223 71.8564  31
  -2  -1  17 603.969 182.897  12
   2  -1 -17 685.471 204.414   3
   2   1 -17 568.451 198.092   3
  -2  -1  17 518.991 205.257  39
  -2   1  17 448.889 182.202  39
   2  -1 -16 2420.49 334.422   3
  -2  -1  16 1881.36 276.740  12
  -2   1  16 2100.25 308.526  39
  -2  -1  16 2162.62 348.546  39
   2   1 -16 2309.56 330.355   3
   2  -1 -16 2307.30 109.284  31
   2  -1 -15 1256.59 83.5030  31
   2   1 -15 951.199 231.539   2
  -2   1  15 957.459 228.814  39
   2  -1 -15 933.299 232.093   3
  -2  -1  15 1374.14 274.822  39
   2   1 -15 1531.29 271.925   3
  -2  -1  15 1182.94 221.820  12
   2  -1 -15 1385.89 268.854  18
   2  -1 -14 16257.3 793.653   3
  -2  -1  14 16227.7 839.209  39
   2   1 -14 16580.2 805.159   2
  -2  -1  14 15471.7 730.958  12
  -2   1  14 15838.6 869.211  11
   2  -1 -14 15349.6 311.694  31
  -2   1  14 16080.1 769.314  39
   2  -1 -14 16310.9 806.813  18
   2  -1 -13 3189.93 390.378  32
   2  -1 -13 3483.73 355.788   3
   2   1 -13 3396.03 370.758   2
  -2   1  13 3934.86 364.582  39
  -2  -1  13 3627.35 352.331  12
   2   1 -13 3458.34 366.337  33
  -2  -1  13 3231.11 362.375  39
  -2   1  13 3108.77 383.072  11
   2  -1 -13 3505.95 127.154  31
   2   1 -12 5643.49 449.089   2
   2  -1 -12 5640.75 436.204   3
  -2  -1  12 5997.57 442.170  12
   2   1 -12 5707.34 458.953  33
   2  -1 -12 5535.57 477.071  32
  -2   1  12 6244.10 436.106  39
  -2  -1  12 5996.28 479.755  39
  -2   1  12 5084.44 471.739  11
   2  -1 -12 5935.24 164.859  31
   2  -1 -11 97662.7 1276.20  31
  -2  -1  11 97731.3 2117.56  39
   2   1 -11 97595.3 2081.83   2
   2   1 -11 101651. 1966.53  34
  -2   1  11 97315.0 1971.84  39
  -2  -1  11 98318.3 2020.77  12
   2  -1 -11 99696.7 1991.20  21
  -2   1  11 97508.6 2222.85  11
  -2  -1  11 100232. 2204.62  11
   2  -1 -11 96271.1 2144.04  32
   2   1 -11 96980.6 2111.84  33
   2  -1 -10 45228.1 1353.53  32
  -2   1  10 47355.9 1208.52  39
   2   1 -10 46955.5 1307.34   2
   2   1 -10 47073.4 1290.87  35
  -2  -1  10 48176.3 1266.15  12
   2  -1 -10 48473.1 1263.99  21
  -2  -1  10 49065.4 1333.74  39
  -2   1  10 46957.5 1399.62  11
  -2  -1  10 49044.4 1383.29  11
   2   1 -10 46560.5 1307.37  33
   2   1  -9 15244.9 681.382  35
  -2   1   9 15388.7 614.958  39
   2   1  -9 15347.4 684.759   2
  -2  -1   9 15726.4 666.430  12
   2  -1  -9 15244.8 708.053  32
   2  -1  -9 15895.3 669.118  21
  -2  -1   9 16017.9 693.759  39
  -2   1   9 15641.0 750.724  11
  -2  -1   9 16115.4 732.944  11
   2   1  -9 15268.6 689.579  33
  -2  -1   8 93471.8 1878.25  12
   2   1  -8 95597.3 1923.26   2
   2   1  -8 91238.0 1922.51  35
  -2   1   8 89740.1 2000.33  11
   2   1  -8 95632.0 1945.14  33
   2  -1  -8 93490.6 1904.12  21
  -2   1   8 93394.0 1760.60  39
  -2  -1   8 94039.4 1895.34  39
  -2  -1   8 95119.9 1975.99  11
   2   1  -7 6088.51 411.901  33
   2   1  -7 5615.90 404.022   1
  -2  -1   7 5860.27 383.598  12
  -2   1   7 6069.32 348.689  39
   2   1  -7 5638.22 370.721  39
   2  -1  -7 5716.64 394.980  21
  -2  -1   7 5981.07 385.983  39
  -2   1   7 5562.49 422.940  11
  -2  -1   7 5475.65 405.007  11
   2   1  -7 5723.09 395.674  35
  -2   1   6 17918.6 606.702  39
  -2  -1   6 19760.1 702.658  12
   2   1  -6 17776.1 725.389   1
   2   1  -6 19526.9 675.085  39
   2  -1  -6 18495.1 711.566  21
  -2   1   6 17890.3 749.867  11
  -2  -1   6 17886.8 658.205  39
  -2  -1   6 19022.1 736.088  11
   2   1  -6 18474.9 713.353  35
  -2  -1   5 66750.1 1411.80  12
   2  -1  -5 64187.2 1457.46  21
  -2   1   5 63492.8 1511.23  11
  -2  -1   5 66389.0 1479.44  11
  -2  -1   5 65812.2 1362.64  39
   2   1  -5 63666.7 1498.12   1
  -2  -1   4 3129.07 261.077  12
   2   1  -4 2676.20 285.611   1
   2  -1  -4 3627.83 318.648  21
  -2   1   4 3470.31 313.395  11
  -2  -1   4 3051.67 279.826  11
   2  -1  -3 3839.45 314.021  18
   2  -1  -3 3812.77 335.870  21
  -2   1   3 3530.38 315.472  11
  -2  -1   3 3586.33 293.813  11
   2   1  -3 3583.86 319.270   1
   2  -1  -2 114246. 2037.42  19
   2  -1  -2 105100. 2055.93  21
  -2  -1   2 115189. 2058.15  11
  -2   1   2 106793. 2100.74  11
   2  -1  -1 52897.1 1305.23  21
  -2  -1   1 57166.7 1290.40  11
  -2   1   1 53395.9 1326.68  11
   2  -1  -1 55580.5 1287.47  19
   2  -1   0 34046.4 994.545  21
  -2  -1   0 37168.7 989.744  11
  -2   1   0 34366.1 1018.92  11
   2  -1   0 35965.3 981.236  19
   2  -1   1 10660.0 525.707  21
   2  -1   1 11097.5 529.637  38
   2  -1   1 11306.7 525.205  19
   2  -1   2 16313.3 630.406  21
   2  -1   2 16401.3 622.966  19
   2  -1   2 16442.6 644.953  38
  -2  -1  -2 16859.6 621.678  37
  -2  -1  -3 1945.71 212.440  37
   2  -1   3 2278.00 242.792  21
   2  -1   3 2041.98 232.401  19
  -2  -1  -4 63846.9 1366.65  37
   2  -1   4 60833.1 1356.56  21
   2  -1   4 61917.5 1348.92  19
  -2  -1  -5 104938. 1925.05  37
   2  -1   5 103439. 1908.03  19
   2  -1   6 69434.7 1612.93  20
   2  -1   6 68683.0 1452.43  19
  -2  -1  -6 72016.4 1485.64  37
  -2  -1  -7 32970.0 1097.46   4
  -2  -1  -7 33037.5 933.229  37
   2  -1   7 33695.4 1062.98  20
  -2  -1  -8 15265.2 749.088   4
   2  -1   8 16157.6 729.967  20
  -2  -1  -8 16096.0 632.587  37
  -2  -1  -9 9657.33 615.561   4
  -2  -1  -9 10285.3 503.143  37
   2  -1   9 9123.43 557.559  20
  -2  -1 -10 85894.8 2061.91   4
   2  -1  10 86607.6 1975.74  20
  -2  -1 -11 3782.43 419.080   4
  -2  -1 -11 4159.61 382.240   5
  -2  -1 -12 34804.4 1185.33   5
  -2  -1 -12 36044.2 1314.96   4
  -2  -1 -13 62336.9 1837.32   4
  -2  -1 -14 3858.46 450.932   4
  -2  -1 -15 2442.19 372.612   4
  -2  -1 -16 2890.19 422.159   4
  -2  -1 -17 20043.3 1102.29   4
  -2  -1 -18 8758.81 742.763   4
  -2  -1 -19 28398.4 1352.64   4
  -2  -1 -20 12164.3 306.531   6
  -2  -1 -20 12060.9 300.014  26
  -2   1 -20 11897.9 278.087  22
  -2   1 -20 11530.7 276.876   9
  -2  -1 -20 11333.4 875.592   4
  -2  -1 -21 26941.8 514.565   6
  -2  -1 -21 26673.5 505.254  26
  -2   1 -21 26316.8 476.205  22
  -2  -1 -21 27235.6 1361.71   4
  -2   1 -21 26649.2 479.952   9
  -2   1 -22 30686.9 541.803   9
  -2  -1 -22 31427.1 575.273   6
  -2  -1 -22 31241.8 561.704  26
  -2  -1 -22 31335.8 1498.00   4
  -2   1 -22 30747.1 533.818  22
  -2   1 -23 3481.55 153.125   9
  -2  -1 -23 3720.17 164.175  26
  -2  -1 -23 3549.56 164.183   6
  -2   1 -23 3599.10 149.642  22
  -2  -1 -24 4901.06 190.267   6
  -2  -1 -24 4160.68 572.744   4
  -2  -1 -24 4731.23 183.568  26
  -2   1 -24 4835.24 175.264   9
  -2   1 -24 4719.28 171.952  22
  -2  -1 -25 3740.72 164.212   6
  -2  -1 -25 3698.15 158.501  26
  -2   1 -25 3620.84 151.684   9
  -2   1 -25 3558.23 147.846  22
  -2  -1 -25 3297.24 496.308   4
  -2  -1 -26 2572.60 133.356   6
  -2   1 -26 2364.55 122.731   9
  -2  -1 -26 2601.58 134.215  26
  -2   1 -26 2416.26 119.555  22
  -2  -1 -27 151.169 53.7124  26
  -2  -1 -27 260.157 55.6610   6
  -2   1 -27 99.2056 41.9078  22
  -2  -1 -28 816.703 79.5811   6
  -2  -1 -28 672.628 73.0736  26
  -2   1 -28 596.017 64.3201  22
  -2  -1 -29 351.913 54.1634   6
  -2  -1 -29 285.236 53.0241  26
  -2   1 -29 288.856 47.0695  22
  -2  -1 -30 54.3195 35.7402   6
  -2  -1 -30 30.9928 38.6067  26
  -2  -1 -31 871.157 61.9531   6
  -2  -1 -31 794.137 61.1224  26
   2  -2 -30 225.521 38.8488  27
   2   2 -30 291.331 38.7318   9
   2   2 -29 515.939 51.0319   9
   2   2 -29 470.594 46.5552  25
   2  -2 -29 484.459 55.5855  27
   2  -2 -28 2176.18 105.305  27
   2   2 -28 2233.29 97.2789   9
   2   2 -28 2303.70 93.7610  25
   2  -2 -27 443.116 63.6976  27
   2   2 -27 408.038 58.2289   9
   2   2 -27 417.464 52.8385  25
   2   2 -26 4987.51 159.850   9
   2  -2 -26 4762.66 171.153  27
   2   2 -26 4621.31 151.335  25
   2  -2 -25 3380.18 147.926  27
   2   2 -25 3402.40 136.123   9
   2   2 -25 3154.18 129.163  25
   2  -2 -24 2630.28 136.269  27
   2   2 -24 2832.96 126.657   9
   2   2 -24 2640.83 118.609  25
   2  -2 -23 1925.66 121.098  27
   2   2 -23 2052.53 109.712   9
   2   2 -23 1839.86 103.702  25
   2  -2 -22-9.65798 58.0708  27
   2  -2 -22 12.7746 46.3468  17
   2   2 -22 24.8277 45.6221  25
   2  -2 -21 2380.76 131.509  17
   2  -2 -21 2565.66 136.414  31
   2  -2 -21 2659.97 136.113  30
   2  -2 -21 2725.34 133.189  29
   2  -2 -21 2385.50 138.333  27
   2   2 -21 2434.85 117.767  25
   2  -2 -20 752.178 88.3420  30
   2  -2 -20 796.541 83.2137  29
   2  -2 -20 643.512 85.3909  27
   2  -2 -20 855.166 92.0682  31
   2   2 -20 795.352 73.0629  25
   2  -2 -20 773.822 83.2454  17
   2  -2 -19 1923.41 118.266  29
   2  -2 -19 1869.41 119.759  31
   2  -2 -19 1648.26 118.160  27
   2  -2 -19 1792.78 117.411  17
   2   2 -19 1836.87 100.850  25
   2  -2 -19 1836.66 114.748  30
   2  -2 -18 1666.91 113.617  31
   2  -2 -18 1652.17 110.050  29
   2  -2 -18 1475.28 108.078  27
   2   2 -18 1362.06 90.7337  25
  -2   2  18 1282.72 276.671  39
   2   2 -18 1423.99 92.2594  28
   2  -2 -18 1524.04 108.848  17
   2   2 -18 1330.56 308.497  39
   2  -2 -18 1667.02 113.183  30
   2  -2 -17 1023.37 93.9340  29
   2   2 -17 1006.76 79.3134  28
   2  -2 -17 995.441 90.3770  27
   2   2 -17 873.200 75.0072  25
   2  -2 -17 960.844 92.7771  31
   2   2 -17 833.888 264.975  39
  -2  -2  17 541.873 193.264  12
  -2   2  17 831.402 248.724  39
   2  -2 -17 1021.51 92.6525  30
   2  -2 -16 215.109 66.9055  31
   2  -2 -16 131.430 56.0834  30
   2  -2 -16 115.114 57.1841  29
   2   2 -16 121.499 40.7370  28
   2   2 -16 225.315 189.535  39
   2  -2 -16 94.3228 53.4823  27
   2   2 -16 59.4139 39.8866  25
   2   2 -16 90.4644 37.1363  24
  -2  -2  16 249.271 158.223  12
  -2   2  16 164.001 175.375  39
   2  -2 -15 1924.34 118.481  31
  -2  -2  15 1719.85 303.796  12
   2  -2 -15 1677.27 332.807  18
   2   2 -15 1602.56 323.761  39
  -2   2  15 1801.93 320.447  39
  -2  -2  14 3154.96 377.815  12
   2  -2 -14 3285.75 148.201  31
   2   2 -14 2991.81 399.402  39
  -2   2  14 2649.31 372.721  39
   2  -2 -14 3441.64 427.936  18
   2   2 -13 13348.2 788.102  33
   2   2 -13 13160.7 753.481   2
  -2  -2  13 12965.1 756.995  12
   2  -2 -13 13166.7 303.044  31
   2   2 -13 12608.6 795.706  39
  -2   2  13 12695.0 744.534  39
   2  -2 -13 12093.5 786.649  18
   2   2 -12 15399.5 840.142  33
   2   2 -12 16571.2 833.202   2
  -2  -2  12 16355.7 835.550  12
   2   2 -12 14890.4 848.140  39
  -2   2  12 15534.0 805.517  39
   2  -2 -12 16314.0 916.546  18
   2  -2 -12 16078.6 339.325  31
   2  -2 -11 2060.87 340.814  18
   2   2 -11 2218.81 332.401  33
   2  -2 -11 2358.29 118.313  31
   2   2 -11 1973.37 320.087   2
  -2   2  11 2404.44 315.881  39
  -2  -2  11 2286.22 326.129  12
   2   2 -11 2227.47 335.511  39
   2  -2 -10 12166.9 276.737  31
  -2  -2  10 13123.7 726.239  12
   2   2 -10 12631.2 709.572   2
   2   2 -10 11558.2 712.763  39
  -2   2  10 12372.2 687.596  39
   2  -2 -10 12354.5 772.681  18
   2   2 -10 12431.1 730.463  33
   2   2  -9 23741.4 993.687  33
   2  -2  -9 21251.9 400.662  31
   2   2  -9 21860.3 924.097   2
  -2   2   9 21779.7 908.604  39
  -2  -2   9 22671.5 954.336  12
   2   2  -9 21048.7 967.643  39
   2  -2  -9 21474.7 1032.24  18
   2   2  -8 7740.49 562.037  33
  -2  -2   8 8096.45 568.127  12
   2   2  -8 8047.07 545.925   2
   2   2  -8 7560.72 567.231  39
  -2   2   8 7794.23 530.208  39
   2  -2  -8 8325.54 633.063  18
   2  -2  -8 8150.70 211.837  31
   2   2  -7 63144.6 1678.97  33
  -2   2   7 62551.1 1582.78  39
   2  -2  -7 61361.7 879.571  31
  -2  -2   7 64118.9 1671.55  12
   2   2  -7 67760.4 1715.40   1
   2   2  -7 62000.0 1698.93  39
   2  -2  -7 62932.5 1812.41  18
  -2  -2   6 30036.7 1095.01  12
   2   2  -6 29011.4 1089.40  39
  -2   2   6 30611.3 1036.47  39
   2   2  -6 31098.0 1110.07   1
   2  -2  -6 30835.7 495.861  31
   2  -2  -6 30643.4 1220.42  18
   2   2  -6 29455.0 1104.47  33
   2   2  -5 112356. 2334.64   1
   2   2  -5 107963. 2319.48  39
   2   2  -5 109063. 2317.63  33
  -2   2   5 107139. 2180.75  39
   2  -2  -5 107880. 2476.26  18
  -2  -2   5 110223. 2280.00  12
   2  -2  -5 106748. 1404.06  31
  -2  -2   4 91002.7 2041.09  12
   2   2  -4 91110.4 2077.74  33
   2   2  -4 95093.6 2099.03  39
  -2   2   4 90827.7 1955.75  39
   2  -2  -4 92313.4 2233.81  18
   2   2  -4 95195.2 2103.93   1
  -2  -2   3 58641.7 1527.84  12
   2   2  -3 58262.0 1573.79   1
   2  -2  -3 56263.1 1663.45  18
   2   2  -2 47428.5 1399.78   1
  -2  -2   2 49863.9 1505.72   5
  -2  -2   2 48350.3 1355.91  12
   2  -2  -2 47872.0 1500.37  18
  -2  -2   1 12816.7 663.254  12
  -2  -2   1 11781.1 709.838   5
   2  -2  -1 13624.9 791.147  18
  -2  -2   0 72698.6 1709.28  12
  -2  -2   0 77357.9 1961.35   5
   2  -2   0 71461.6 1856.99  18
  -2  -2  -1 40987.6 1367.83   5
   2  -2   1 41649.2 1351.28  18
  -2  -2  -1 41949.6 1209.83  12
  -2  -2  -2 36290.3 1107.88  12
  -2  -2  -2 38381.5 1331.02   5
   2  -2   2 36441.4 1278.99  20
   2  -2   2 35425.0 1230.28  18
  -2  -2  -3 18309.6 902.874   5
  -2  -2  -3 18134.6 754.341  12
   2  -2   3 18696.0 898.205  20
   2  -2   3 17692.8 842.342  18
   2  -2   4 1200.25 255.956  18
  -2  -2  -4 1247.17 270.229   5
   2  -2   4 1454.47 284.646  20
  -2  -2  -5 3591.58 342.187  37
  -2  -2  -5 3587.45 417.406   5
   2  -2   5 3749.96 415.675  20
  -2  -2  -6 17947.7 914.092   5
   2  -2   6 15916.2 859.635  20
  -2  -2  -7 14627.8 844.860   5
   2  -2   7 16210.7 875.091  20
  -2  -2  -8 46060.6 1574.63   5
   2  -2   8 47586.9 1582.29  20
  -2  -2  -9 9273.26 690.217   5
   2  -2   9 9754.92 711.178  20
  -2  -2 -10 28182.3 1230.24   5
  -2  -2 -11 2511.73 390.849   5
  -2  -2 -12 49.0468 123.825   5
  -2  -2 -13 4637.62 507.751   5
  -2  -2 -14 1399.08 293.708   5
  -2  -2 -15 209.206 155.773   5
  -2  -2 -15 273.112 206.195   4
  -2   2 -16 2337.47 109.321  10
  -2  -2 -16 2271.97 122.568  26
  -2  -2 -16 2293.81 125.255   6
  -2  -2 -16 2439.51 128.550  27
  -2   2 -16 2229.83 109.883  22
  -2  -2 -16 1740.27 343.202   5
  -2  -2 -16 2066.38 382.079   4
  -2  -2 -17 842.343 299.025   4
  -2   2 -17 792.252 71.8459  10
  -2  -2 -17 820.183 82.0609   6
  -2  -2 -17 884.649 86.5040  27
  -2  -2 -17 792.278 82.1263  26
  -2  -2 -17 582.104 231.043   5
  -2   2 -17 797.893 71.7168  22
  -2   2 -18 480.917 62.9248  10
  -2  -2 -18 528.005 70.5046  27
  -2  -2 -18 531.209 71.5572   6
  -2  -2 -18 501.849 74.3046  26
  -2  -2 -18 241.349 157.887   5
  -2   2 -18 555.230 63.8299  22
  -2  -2 -18 457.827 276.552   4
  -2   2 -19 2690.69 120.611  10
  -2  -2 -19 2451.32 136.422   6
  -2  -2 -19 2829.68 142.875  27
  -2  -2 -19 2449.52 135.665  26
  -2  -2 -19 2476.45 407.936   5
  -2   2 -19 2672.18 124.708  22
  -2  -2 -19 2668.37 458.998   4
  -2  -2 -20 6968.88 231.438   6
  -2  -2 -20 7530.76 228.374  27
  -2  -2 -20 7308.25 231.470  26
  -2   2 -20 7222.25 209.061  22
  -2  -2 -20 7166.86 742.345   4
  -2   2 -20 7237.30 197.654  10
  -2  -2 -21 6972.12 229.643   6
  -2  -2 -21 7204.37 221.230  27
  -2  -2 -21 6842.00 224.738  26
  -2   2 -21 6804.95 204.068  22
  -2  -2 -21 6941.24 729.333   4
  -2  -2 -22 4136.36 167.029  27
  -2  -2 -22 3922.05 170.276  26
  -2  -2 -22 4151.76 176.416   6
  -2   2 -22 4091.38 156.806  22
  -2  -2 -23 18268.2 387.813  26
  -2  -2 -23 17483.6 390.106   6
  -2  -2 -23 17625.9 370.469  27
  -2   2 -23 18610.8 366.473  22
  -2  -2 -24 29514.2 543.651   6
  -2  -2 -24 29638.3 515.843  27
  -2  -2 -24 30133.2 535.143  26
  -2   2 -24 30973.5 512.727  22
  -2  -2 -25 13197.1 312.581   6
  -2  -2 -25 13463.5 290.607  27
  -2  -2 -25 13511.3 309.430  26
  -2   2 -25 13357.6 292.029  22
  -2  -2 -26 454.300 67.9348   6
  -2  -2 -26 540.816 72.5945  26
  -2   2 -26 496.673 62.5518  22
  -2   2 -27 2162.90 99.5639  22
  -2  -2 -27 2214.84 109.186   6
  -2  -2 -28 589.815 58.8034   6
  -2   2 -28 456.578 50.8959  22
  -2  -2 -29 214.509 42.0821   6
  -2   2 -29 96.9918 32.2646  22
  -2  -2 -30-12.1044 26.9530   6
   2  -3 -25 1490.39 77.1396  27
   2   3 -25 1543.45 69.6565   9
   2  -3 -24 250.216 47.8347  27
   2   3 -24 267.048 45.8149   9
   2  -3 -23 3640.40 130.659  27
   2   3 -23 3849.70 121.510   9
   2  -3 -22 5500.25 161.766  17
   2  -3 -22 5629.34 171.665  27
   2   3 -22 5801.36 159.659   9
   2   3 -22 5726.51 150.209  22
   2  -3 -21 861.087 75.3343  27
   2   3 -21 812.747 68.6517   9
   2   3 -21 853.318 63.5403  22
   2  -3 -21 802.773 71.2641  17
   2  -3 -20 100.154 46.7026  17
   2  -3 -20 77.7287 52.1661  27
   2   3 -20 55.5094 34.5775  22
   2   3 -20 87.1440 44.5746   9
   2  -3 -19 600.074 72.0207  17
   2  -3 -19 681.365 74.7347  27
   2   3 -19 532.516 57.9677  22
   2  -3 -18 2088.15 119.571  17
   2  -3 -18 1817.38 108.016  27
   2   3 -18 1945.20 98.6577  22
   2  -3 -17 2361.88 131.341  17
   2  -3 -17 2545.27 125.760  16
   2   3 -17 2437.56 113.322  22
   2  -3 -16 1348.42 103.200  17
   2  -3 -16 1425.53 102.921  16
   2   3 -16 1275.74 88.8282  22
   2   3 -15 5551.42 177.330  28
   2   3 -15 5920.06 183.534  22
   2  -3 -15 5940.11 201.704  16
   2  -3 -15 5805.25 208.273  17
  -2  -3  15 5473.00 537.437  12
   2  -3 -14 17862.9 390.717  17
   2  -3 -14 17803.5 386.572  16
   2   3 -14 18158.6 356.842  22
   2   3 -14 17718.4 355.750  24
   2   3 -14 17065.6 349.055  28
   2   3 -13 13526.0 297.851  28
   2  -3 -13 13683.5 336.259  17
  -2  -3  13 13231.3 826.863  12
   2   3 -13 14180.6 303.214  22
   2   3 -13 13802.2 302.841  24
   2  -3 -13 14194.6 342.886  16
   2  -3 -12 16916.9 379.755  16
   2  -3 -12 15955.5 358.333  15
   2  -3 -12 16790.5 378.191  17
  -2  -3  12 16321.1 926.350  12
   2   3 -12 16797.1 342.160  24
   2   3 -12 16369.1 336.059  28
   2   3 -12 16949.9 345.067  22
   2  -3 -11 19666.5 417.760  17
   2  -3 -11 19657.8 421.026  16
   2   3 -11 19310.5 371.697  28
   2  -3 -11 19007.1 402.990  15
  -2  -3  11 20108.6 1025.36  12
   2   3 -11 19171.5 375.944  24
   2   3 -11 19730.6 382.623  22
   2  -3 -10 15353.0 363.670  16
   2   3 -10 15168.7 314.903  28
   2  -3 -10 14577.3 348.197  15
   2   3 -10 14908.0 318.798  24
  -2  -3  10 14797.6 875.169  12
   2   3 -10 15748.7 324.850  22
   2  -3 -10 15173.4 359.883  17
   2  -3  -9 15843.5 367.709  16
   2   3  -9 15523.4 319.846  28
  -2  -3   9 15855.7 916.664  12
   2  -3  -9 15119.6 354.815  15
   2  -3  -9 16203.1 364.411  17
   2   3  -9 15382.8 323.894  24
   2   3  -9 15749.8 331.519  22
   2   3  -8 11685.8 263.982  28
   2  -3  -8 11139.0 299.677  15
   2   3  -8 11801.3 273.692  22
   2  -3  -8 12268.8 310.478  16
   2  -3  -8 11068.2 300.573  17
   2   3  -8 11450.2 267.723  24
  -2  -3   8 11541.0 786.215  12
  -2  -3   8 11966.0 268.741   8
   2  -3  -7 9012.57 263.475  16
  -2  -3   7 7908.40 646.772  12
   2  -3  -7 8065.21 250.907  15
   2   3  -7 8199.03 220.830  24
   2  -3  -7 8447.70 252.336  17
  -2  -3   7 8959.78 228.292   8
   2   3  -7 8979.30 232.915  22
   2  -3  -6 4010.90 171.763  16
   2   3  -6 3811.22 147.534  22
   2  -3  -6 3866.09 169.553  15
   2   3  -6 3651.48 139.347  24
  -2  -3   6 3509.64 433.155  12
  -2  -3   6 3833.01 146.581   8
   2  -3  -6 3737.98 163.820  17
   2  -3  -5 2131.20 129.749  16
   2  -3  -5 2117.86 127.829  15
   2  -3  -5 2185.01 125.771  17
   2   3  -5 1991.24 106.903  22
  -2  -3   5 2191.05 111.907   8
   2  -3  -4 1195.08 102.767  16
   2   3  -4 1028.71 78.3568  22
   2  -3  -4 1176.81 101.530  15
  -2  -3   4 1189.09 84.9336   8
  -2  -3   4 1253.80 278.547  12
   2  -3  -4 1126.93 93.7715  17
   2  -3  -3 1098.66 92.8180  17
  -2  -3   3 1272.97 87.9711  15
   2  -3  -3 1086.72 97.1461  15
   2  -3  -3 1081.48 97.5450  16
   2   3  -3 1032.40 77.8128  22
  -2  -3   3 1097.85 84.0117   8
  -2  -3   3 1186.71 93.8398   7
  -2  -3   3 945.895 253.112  12
   2  -3  -2 2932.99 142.640  16
  -2  -3   2 3173.29 133.985  15
   2  -3  -2 2949.27 145.244  15
   2   3  -2 2856.18 124.366  22
  -2  -3   2 2759.38 391.708  12
  -2  -3   2 3019.64 130.324   8
  -2  -3   2 3262.02 146.093   7
   2  -3  -2 2814.10 134.287  17
   2  -3  -1 2246.77 135.215  16
  -2  -3   1 2780.78 131.783  15
   2  -3  -1 2411.27 139.753  15
  -2  -3   1 2788.27 130.485   8
   2   3  -1 2389.54 118.471  22
  -2  -3   1 2387.28 129.530   7
  -2  -3   1 1585.06 312.553  12
   2  -3  -1 1855.92 347.639  20
   2  -3  -1 2238.16 124.786  17
   2  -3   0 19239.4 398.491  16
  -2  -3   0 20461.1 386.301  15
   2  -3   0 18749.3 402.278  15
  -2  -3   0 19677.6 382.259   8
  -2  -3   0 17762.4 935.530  12
  -2  -3   0 19749.4 414.250   7
   2  -3   0 18470.8 1009.95  20
   2  -3   1 28479.0 511.577  16
  -2  -3  -1 28566.3 481.870  15
   2  -3   1 26929.2 510.372  15
  -2  -3  -1 25229.1 1248.39   5
  -2  -3  -1 24596.6 1090.16  12
  -2  -3  -1 26640.3 482.070   8
  -2  -3  -1 28719.3 518.473   7
   2  -3   1 26971.5 1241.52  20
   2  -3   2 11142.6 280.067  16
  -2  -3  -2 10170.7 245.415  15
   2  -3   2 11216.9 281.429  15
  -2  -3  -2 7521.06 696.031   5
  -2  -3  -2 9568.28 247.056   8
  -2  -3  -2 8362.24 621.263  12
  -2  -3  -2 9924.08 271.022   7
   2  -3   2 10937.9 795.309  20
   2  -3   3 2445.24 139.244  15
  -2  -3  -3 1698.04 348.087   5
  -2  -3  -3 2266.83 115.691   8
  -2  -3  -3 2148.29 124.381   7
   2  -3   3 1971.42 378.479  20
  -2   3  -4 2010.17 106.019  10
   2  -3   4 1867.40 118.103  15
  -2  -3  -4 1736.31 359.225   5
  -2  -3  -4 2033.20 108.742   8
  -2  -3  -4 2056.94 120.805   7
   2  -3   4 1420.85 332.041  20
  -2   3  -5 6026.34 177.159  10
   2  -3   5 5986.08 195.454  15
  -2  -3  -5 5716.49 612.098   5
  -2  -3  -5 6268.37 188.722   8
  -2  -3  -5 6494.10 212.452   7
  -2   3  -6 1409.80 90.3656  10
   2  -3   6 1333.94 98.3227  15
  -2  -3  -6 1437.34 92.0451   8
  -2  -3  -6 1316.15 102.240   7
  -2   3  -7 1128.35 84.5772  10
  -2  -3  -7 1142.92 84.5379   8
  -2  -3  -7 1340.14 101.591   7
  -2  -3  -8 5222.47 605.220   5
  -2  -3  -8 5112.77 165.823   8
  -2  -3  -8 5505.76 196.466   7
  -2   3  -8 5013.31 163.990  10
  -2   3  -9 3492.89 138.325  10
  -2  -3  -9 3295.22 500.182   5
  -2  -3  -9 3324.75 155.589   7
  -2  -3 -10 18288.5 391.966  27
  -2   3 -10 17567.2 353.356  10
  -2  -3 -10 18265.7 394.917   7
  -2   3 -11 7201.54 206.060  10
  -2  -3 -11 7242.72 232.315  27
  -2  -3 -11 7236.80 712.731   5
  -2  -3 -11 7225.22 227.029   7
  -2   3 -12 8368.61 223.813  10
  -2  -3 -12 8443.44 255.244  27
  -2  -3 -12 7948.91 746.900   5
  -2  -3 -12 8639.65 249.657   7
  -2   3 -13 1508.77 101.966  10
  -2  -3 -13 1584.85 112.752  27
  -2  -3 -13 1508.02 348.139   5
  -2  -3 -13 1611.75 104.762   7
  -2   3 -14 871.427 78.4676  10
  -2  -3 -14 933.564 90.6295  27
  -2  -3 -14 888.809 280.595   5
  -2   3 -14 813.225 67.9250  22
  -2  -3 -14 884.602 79.1268   7
  -2   3 -15-27.4546 55.4709  10
  -2  -3 -15 32.6212 52.5615  27
  -2   3 -15 66.0948 40.2040  22
  -2  -3 -15-23.8569 171.353   5
  -2  -3 -15 33.6889 39.3047   7
  -2   3 -16 226.248 51.1420  10
  -2  -3 -16 278.751 62.8679  27
  -2   3 -16 285.805 49.1704  22
  -2   3 -17 1042.93 79.7227  10
  -2  -3 -17 902.572 86.7460  27
  -2  -3 -17 954.705 290.838   5
  -2   3 -17 829.679 70.3579  22
  -2  -3 -17 1040.11 83.7317  41
  -2   3 -18 615.828 65.4138  10
  -2  -3 -18 595.872 76.2432  27
  -2   3 -18 480.387 58.4993  22
  -2  -3 -18 661.995 70.7222  41
  -2   3 -19 177.686 44.1855  22
  -2   3 -19 179.465 48.2016  10
  -2  -3 -19 193.491 57.8155  27
  -2  -3 -19 139.090 46.2006  41
  -2   3 -20 271.478 51.8295  10
  -2  -3 -20 286.788 56.5844  27
  -2  -3 -20 268.806 50.4040  41
  -2   3 -20 254.457 46.1319  22
  -2   3 -21 571.038 57.0755  10
  -2  -3 -21 548.343 57.7883  41
  -2   3 -21 584.154 57.0948  22
  -2   3 -22 870.717 61.8169  10
  -2   3 -22 839.822 63.4329  22
  -2  -3 -22 769.632 60.0537  41
  -2  -3 -23 105.980 34.2520  41
  -2   3 -23 105.681 35.3724  22
  -2   3 -23 81.8511 37.8716  10
  -2   3 -24 1031.01 63.4823  22
  -2   3 -25 2481.96 87.3748  22
   2   4 -17 1122.71 55.0257  22
   2  -4 -17 789.483 57.4747   7
   2   4 -16 849.822 51.3520  10
   2   4 -16 812.996 51.0940  22
   2  -4 -16 818.741 59.7472  17
   2  -4 -15 1769.65 82.6734  16
   2   4 -15 1869.74 74.2079  10
   2   4 -15 1728.14 74.9083  22
   2  -4 -15 1734.11 85.4161  17
   2  -4 -14 1823.99 88.4085  16
   2   4 -14 1732.36 78.2763  22
   2  -4 -14 1754.26 90.4215  17
   2  -4 -13 1060.61 77.3639  16
   2   4 -13 1028.65 64.5400  22
   2  -4 -13 1084.05 76.8625  17
   2  -4 -12 3382.46 130.080  16
   2   4 -12 3305.72 113.747  22
   2  -4 -12 3205.56 128.822  17
   2  -4 -11 3453.85 134.489  16
   2  -4 -11 3072.18 117.726  15
   2   4 -11 3411.19 115.937  22
   2  -4 -11 3345.12 135.132  17
   2  -4 -10 1750.71 102.703  16
   2  -4 -10 1657.60 91.8226  15
   2   4 -10 1621.22 82.2187  22
   2  -4 -10 1616.72 99.6956  17
   2  -4  -9 76.0335 50.5197  17
   2  -4  -9 141.084 52.7655  15
   2   4  -9 83.4939 37.4196  22
   2  -4  -9 139.391 59.6469  16
   2  -4  -8 229.782 57.1230  17
   2  -4  -8 207.517 54.7055  15
   2   4  -8 167.753 35.9445  24
  -2  -4   8 221.025 44.2751   8
   2   4  -8 122.457 37.4082  22
   2  -4  -8 237.191 61.5730  16
   2  -4  -7 844.342 82.0336  16
   2  -4  -7 824.269 78.3126  15
  -2  -4   7 754.573 62.4839   8
   2   4  -7 648.116 57.3308  22
   2  -4  -7 822.644 76.5688  17
   2  -4  -6 465.833 72.3722  16
   2  -4  -6 445.021 65.0046  17
   2  -4  -6 383.911 63.4785  15
  -2  -4   6 422.035 53.8086   8
   2   4  -6 296.093 45.5678  22
   2  -4  -5 29.0350 56.0651  16
   2  -4  -5 57.7671 51.1407  15
  -2  -4   5 57.8835 38.8882   8
   2   4  -5-20.1360 38.0948  22
   2  -4  -5 37.3733 46.4673  17
   2  -4  -4 142.741 58.7978  16
   2  -4  -4 172.646 58.4077  15
  -2  -4   4 103.224 42.5859   8
   2   4  -4 91.4932 37.8796  22
   2  -4  -4 72.0009 46.0350  17
   2  -4  -3 469.800 70.0351  15
  -2  -4   3 369.650 55.5270   8
   2   4  -3 363.484 48.8464  22
   2  -4  -3 429.886 68.2536  16
   2  -4  -2 252.396 62.9355  15
  -2  -4   2 311.530 55.1591   8
   2   4  -2 210.215 43.8517  22
   2  -4  -2 310.172 65.7713  16
   2  -4  -1 1859.77 109.723  16
   2  -4  -1 1834.81 109.860  15
   2   4  -1 1579.47 82.9213  22
  -2  -4   1 1768.82 97.9022   8
   2  -4   0 630.437 79.2299  16
   2   4   0 441.805 55.6293  22
  -2  -4   0 557.388 70.2863   8
   2  -4   1 1664.75 110.465  15
  -2  -4  -1 1898.31 106.630   8
   2   4   1 1787.75 95.1430  22
   2  -4   1 1726.84 109.453  16
   2  -4   2 7399.45 209.729  15
   2   4   2 7238.85 182.172  22
  -2  -4  -2 7458.17 199.556   8
   2  -4   3 7612.29 210.740  15
  -2  -4  -3 6971.39 196.204   8
   2  -4   4 7075.24 200.256  15
  -2  -4  -4 6930.12 188.886   8
   2  -4   5 4796.16 157.504  15
  -2  -4  -5 4512.45 147.735   8
   2  -4   6 1975.19 101.477  15
  -2  -4  -6 1886.75 94.8322   8
   2  -4   7 628.392 64.2014  15
  -2  -4  -7 707.509 63.4885   8
  -2  -4  -7 671.222 76.7220   7
  -2   4  -8 2836.29 110.058  10
  -2  -4  -8 2806.47 112.765  41
  -2  -4  -8 2758.63 107.655   8
  -2  -4  -8 2936.22 131.396   7
  -2  -4  -9 3406.21 115.789   8
  -2  -4  -9 3531.46 125.441  41
  -2  -4  -9 3752.55 145.374   7
  -2   4  -9 3793.89 123.618  10
  -2  -4 -10 3008.68 115.391  41
  -2  -4 -10 3160.33 130.278   7
  -2   4 -10 3451.86 118.942  10
  -2   4 -11 3044.98 110.601  10
  -2  -4 -11 2798.10 109.448  41
  -2   4 -12 2781.24 103.833  10
  -2  -4 -12 2557.38 103.713  41
  -2   4 -13 382.107 49.4053  10
  -2  -4 -13 324.211 50.0694  41
  -2   4 -14 806.983 58.5067  10
  -2  -4 -14 657.037 56.7098  41
  -2   4 -15 918.181 59.2958  10
  -2  -4 -15 838.153 58.7800  41
  -2   4 -16 402.883 42.7673  10
  -2  -4 -16 430.516 44.6153  41
  -2   4 -17 149.706 33.1708  10
   3   0 -31-12.4612 32.4061  26
   3   0 -31 34.4210 27.9123  25
  -3   0  31-0.49873 29.5186  13
   3   0 -30 31.6772 37.2720  26
   3   0 -30 50.6987 34.0931  25
  -3   0  30 51.1204 34.7299  13
   3   0 -29 10.9209 42.9302  26
   3   0 -29 26.2678 39.8846  25
  -3   0  29 6.63173 36.9153  13
   3   0 -28 624.778 69.1790  26
   3   0 -28 553.846 63.1462  25
  -3   0  28 604.619 68.3659  13
   3   0 -28 667.137 68.4021  23
   3   0 -27 65.9843 51.4133  27
   3   0 -27 150.572 58.3537  26
   3   0 -27 145.433 52.9639  25
   3   0 -27 168.692 63.5979  23
  -3   0  27 127.048 59.8111  13
   3   0 -26 22578.3 410.788  31
   3   0 -26 22034.6 421.459  27
   3   0 -26 22091.1 419.289  26
   3   0 -26 21585.3 405.884  25
  -3   0  26 22065.0 440.019  13
   3   0 -26 21751.1 421.475  23
   3   0 -25 248.105 59.4565  31
   3   0 -25 90.5991 59.1270  27
   3   0 -25 33.0838 58.3797  26
   3   0 -25 105.967 57.6092  25
   3   0 -25 133.063 66.7702  23
  -3   0  25 1.74402 56.3474  13
   3   0 -24 1240.12 91.5154  31
   3   0 -24 1058.29 96.4622  27
   3   0 -24 1034.88 91.3911  26
   3   0 -24 1044.90 85.3117  25
  -3   0  24 1045.01 93.1930  13
   3   0 -24 1092.38 95.3955  23
   3   0 -23 37.6907 52.9274  31
   3   0 -23 18.5403 58.5476  27
   3   0 -23-5.48163 58.9160  26
   3   0 -23-24.2528 48.8270  25
   3   0 -23-56.8294 58.5763  23
  -3   0  23-56.9232 57.2117  13
   3   0 -22 6195.34 208.895  27
   3   0 -22 5698.56 194.739  26
   3   0 -22 5796.85 186.187  25
  -3   0  22 5821.47 207.538  13
   3   0 -22 5932.73 200.528  23
   3   0 -22 6397.73 200.341  31
   3   0 -21 147.759 206.093  32
   3   0 -21 7.39839 52.0432  31
   3   0 -21-34.0746 63.7378  27
   3   0 -21 50.3285 49.3503  26
   3   0 -21-76.3245 52.9834  25
   3   0 -21-13.8161 53.6980  23
  -3   0  21 2.26256 49.9839  13
   3   0 -20 129.016 185.540  32
   3   0 -20 339.436 60.4538  31
   3   0 -20 331.736 206.953   3
   3   0 -20 232.285 64.8278  27
   3   0 -20 275.941 60.6810  26
   3   0 -20 221.949 51.3099  25
   3   0 -20 216.029 55.6012  23
  -3   0  20 225.178 56.9351  13
  -3   0  20 177.645 148.503  11
   3   0 -19-3.24912 212.006  32
   3   0 -19 33.5725 44.5388  31
  -3   0  19 58.5460 157.787  11
   3   0 -19 19.7904 45.0358  26
   3   0 -19-17.6116 40.8293  25
  -3   0  19 11.2502 43.0349  13
   3   0 -19 141.179 226.370   3
   3   0 -18 1967.61 108.600  26
  -3   0  18 2100.94 119.837  13
  -3   0  18 1924.71 382.153  11
   3   0 -18 2096.37 114.449  31
   3   0 -18 1870.41 366.360   3
   3   0 -18 1836.34 353.871  32
   3   0 -17 28.2705 161.336  32
   3   0 -17 0.42551 43.1503  31
   3   0 -17-50.2686 178.596   3
  -3   0  17 68.7880 163.944  11
   3   0 -16 1616.23 317.657  32
   3   0 -16 1714.35 101.994  31
   3   0 -16 1289.27 282.869   3
  -3   0  16 1362.90 326.468  11
  -3   0  15 90.4617 167.553  11
   3   0 -15 117.738 158.567   3
   3   0 -15-30.0396 156.608  32
   3   0 -14 15668.9 873.068  32
   3   0 -14 15778.2 844.844   3
  -3   0  14 14274.3 924.738  11
   3   0 -13 93.7642 226.554  32
   3   0 -13 220.210 198.242  34
  -3   0  13 218.520 216.937  11
   3   0 -13 43.5573 130.324   2
   3   0 -13 386.492 219.685   3
   3   0 -12 118649. 2454.07  33
   3   0 -12 122859. 2620.06  32
  -3   0  12 118591. 2842.80  11
   3   0 -12 118567. 2539.64   2
   3   0 -12 119638. 2586.29  34
   3   0 -11 83.4971 155.171  33
   3   0 -11 49.2608 182.493  32
  -3   0  11 185.802 195.143  11
   3   0 -11 320.707 166.757   2
   3   0 -11 182.920 168.432  34
   3   0 -10 47005.3 1320.18  33
   3   0 -10 44995.2 1360.49   2
   3   0 -10 45177.7 1397.80  34
  -3   0  10 47737.7 1594.74  11
   3   0  -9-53.9073 92.5439  33
   3   0  -9 27.5266 121.839  34
  -3   0   9-94.9486 140.950  11
   3   0  -9 0.32583 101.139   2
   3   0  -8 3187.72 319.537  33
   3   0  -8 2859.54 331.385  34
   3   0  -8 2443.87 286.457   2
  -3   0   8 2707.39 364.701  11
   3   0  -8 2789.30 328.475  35
   3   0  -7-10.9161 110.121  33
   3   0  -7 25.0952 136.770  34
   3   0  -7-29.9887 91.2245   2
  -3   0   7 55.4810 78.1470  37
  -3   0   7 30.6055 117.688  11
   3   0  -7 48.2813 113.167  35
   3   0  -6 31344.0 999.914   2
  -3   0   6 31510.5 1197.28  11
   3   0  -6 31443.9 980.463  33
  -3   0   6 30159.4 949.971  37
   3   0  -6 29311.4 1033.37  35
   3   0  -6 29968.1 1025.96  34
   3   0  -5-36.7874 95.0612   2
   3   0  -5-15.4122 81.8782   1
  -3   0   5-43.6620 151.567  11
  -3   0   5 54.2899 82.1270  37
   3   0  -5 11.5050 101.308  34
   3   0  -5-10.7231 87.1464  35
   3   0  -4 8939.54 511.594   1
  -3   0   4 9261.62 626.139  11
  -3   0   4 9236.96 494.042  37
   3   0  -4 8944.65 534.902  35
   3   0  -3 71.0319 101.060  35
  -3   0   3 110.818 149.426  11
  -3   0   3 86.4271 105.628  37
   3   0  -3-19.7772 106.212   1
  -3   0   2 60799.6 1666.91  11
  -3   0   2 60274.0 1429.83  37
   3   0  -2 61355.6 1457.03   1
   3   0  -2 60558.0 1492.86  35
   3   0  -1 361.007 169.392   1
  -3   0   1 747.793 304.938  11
  -3   0   1 962.936 219.363  37
  -3   0   0 140997. 2790.02  11
  -3   0   0 134020. 2459.06  37
   3   0   0 136546. 2464.89   1
  -3   0  -1 2071.63 295.242  37
  -3   0  -2 142072. 2569.48  37
  -3   0  -3 641.547 208.829  37
  -3   0  -4 66127.6 1575.35  37
  -3   0  -5 45.0719 125.381  37
  -3   0  -6 46777.6 1315.99  37
  -3   0  -7 19.4410 99.1377  37
  -3   0 -18 135223. 1786.92  22
  -3   0 -19 266.221 75.1139  22
   3  -1 -30 2359.87 94.1031  27
   3   1 -30 2445.43 94.9328  26
  -3  -1  30 2291.56 88.3896  14
   3   1 -30 2595.85 97.3228  25
  -3  -1  30 2451.76 96.9861  13
   3  -1 -29 6832.87 179.557  27
   3   1 -29 6920.62 177.594  26
   3   1 -29 7191.44 177.771  25
  -3  -1  29 6734.52 180.793  13
   3  -1 -28 6253.99 182.290  27
   3   1 -28 6450.97 177.453  26
   3   1 -28 6588.49 179.070  25
  -3  -1  28 6198.78 181.148  13
   3  -1 -27 1245.22 89.8865  27
   3   1 -27 1145.53 87.2442  26
   3   1 -27 1164.35 82.1367  25
  -3   1  27 1115.15 80.6974  13
  -3  -1  27 1112.73 82.9333  13
   3   1 -27 1132.55 78.3237  23
   3  -1 -26 1270.59 87.8762  30
   3  -1 -26 1405.88 98.3823  27
   3   1 -26 1301.58 91.8177  26
   3   1 -26 1263.37 89.7085  25
  -3   1  26 1262.57 88.2052  13
  -3  -1  26 1255.29 89.3551  13
   3   1 -26 1261.27 85.1499  23
   3  -1 -26 1224.98 88.8444  31
   3  -1 -25 1046.41 85.5608  31
   3  -1 -25 916.599 81.9406  30
   3  -1 -25 1019.96 92.5178  27
   3   1 -25 1088.99 87.5368  26
   3   1 -25 1037.18 83.0694  25
  -3   1  25 1076.25 85.2906  13
  -3  -1  25 1088.63 86.6149  13
   3   1 -25 1065.69 83.4545  23
   3  -1 -24 2721.49 131.633  31
   3  -1 -24 2884.16 131.105  30
   3  -1 -24 2703.30 140.192  27
   3   1 -24 2577.36 129.327  26
   3   1 -24 2680.31 127.651  25
  -3   1  24 2689.09 132.610  13
  -3  -1  24 2701.21 135.250  13
   3  -1 -24 2670.76 135.737  23
   3   1 -24 2589.11 125.355  23
   3  -1 -23 1269.10 98.9186  31
   3   1 -23 1244.45 88.8826  31
   3  -1 -23 1311.35 99.8968  30
   3  -1 -23 1270.78 104.347  27
   3   1 -23 1224.96 97.3362  26
   3   1 -23 1214.73 92.1061  25
  -3   1  23 1214.20 94.2856  13
  -3  -1  23 1171.44 94.8164  13
   3  -1 -23 1140.18 96.6882  23
   3   1 -23 953.584 85.3781  23
   3  -1 -22 2573.61 136.810  31
   3   1 -22 2577.54 125.309  31
   3  -1 -22 2686.88 135.089  30
   3  -1 -22 2615.12 142.192  27
   3   1 -22 2509.36 130.799  26
   3   1 -22 2507.52 126.014  25
  -3   1  22 2571.66 134.069  13
  -3  -1  22 2513.29 133.640  13
   3  -1 -22 2544.17 131.637  23
   3  -1 -21 438.934 71.3677  31
   3  -1 -21 347.491 67.8757  30
   3  -1 -21 344.476 73.5360  27
   3   1 -21 406.016 69.3128  26
   3   1 -21 363.395 60.2502  25
   3  -1 -21 411.543 69.6420  23
  -3   1  21 348.216 61.1686  13
  -3  -1  21 379.293 61.7080  13
   3  -1 -20 1008.66 88.9699  31
   3  -1 -20 816.729 86.4055  30
   3  -1 -20 894.908 92.4002  27
   3   1 -20 874.086 86.1704  26
   3   1 -20 775.802 75.7426  25
  -3   1  20 780.798 80.2071  13
  -3  -1  20 754.594 80.2335  13
   3  -1 -20 864.577 84.6640  23
   3  -1 -19 1249.90 98.5141  31
   3  -1 -19 1148.13 99.7316  27
   3   1 -19 1158.24 91.1561  26
   3   1 -19 1089.18 85.8410  25
  -3   1  19 1081.11 91.5337  13
  -3  -1  19 1064.29 91.4028  13
   3  -1 -19 1150.83 93.3612  23
  -3  -1  19 935.716 280.416  11
   3  -1 -18 769.188 83.0338  31
   3   1 -18 696.404 66.9278  28
   3  -1 -18 833.354 89.6425  27
   3   1 -18 760.308 76.1939  26
   3   1 -18 813.308 74.3565  25
  -3   1  18 908.879 85.7731  13
  -3  -1  18 745.364 78.4489  13
   3  -1 -18 753.254 79.3204  23
   3  -1 -18 1065.26 267.432  18
   3   1 -18 890.981 243.467   3
  -3  -1  18 778.483 281.779  11
  -3   1  18 883.390 272.447  11
   3   1 -17 6994.88 607.579  32
   3  -1 -17 7420.87 223.702  31
   3  -1 -17 7497.55 229.519  27
   3   1 -17 7508.28 213.323  26
   3   1 -17 7411.20 651.925   3
   3   1 -17 7194.96 205.805  25
  -3   1  17 7516.36 231.081  13
  -3  -1  17 7421.50 227.437  13
   3  -1 -17 7401.28 645.659  18
   3   1 -17 7343.90 201.227  28
   3  -1 -17 7274.00 215.503  23
  -3   1  17 7571.32 734.788  11
  -3  -1  17 6928.26 683.040  11
   3   1 -16 4184.31 480.594  32
   3  -1 -16 4693.82 170.652  31
   3   1 -16 4751.90 517.945   3
   3  -1 -16 4617.62 510.541  18
  -3   1  16 3776.90 525.596  11
  -3  -1  16 4544.23 550.669  11
   3   1 -16 4602.32 497.289   2
   3  -1 -15 5530.90 606.003  32
   3  -1 -15 5976.45 192.409  31
   3  -1 -15 5413.93 544.080  18
  -3   1  15 5888.27 624.976  11
  -3  -1  15 5056.82 571.889  11
   3   1 -15 6226.63 573.697   2
   3   1 -14 39177.8 1440.66  33
   3   1 -14 41163.0 1470.89   2
   3  -1 -14 36869.2 1486.62  32
   3  -1 -14 39288.3 633.018  31
  -3   1  14 37541.1 1551.58  11
  -3  -1  14 40868.4 1571.86  11
   3   1 -14 40010.7 1368.22  34
   3   1 -13 15469.4 867.975  33
   3  -1 -13 15157.5 897.820  32
   3  -1 -13 15049.9 320.134  31
   3   1 -13 16218.9 889.383   2
  -3  -1  13 15232.7 820.979  12
  -3   1  13 14247.4 921.576  11
  -3  -1  13 15070.2 916.742  11
   3   1 -13 15982.4 838.622  34
   3   1 -12 5585.96 510.848  33
   3  -1 -12 5726.06 543.053  32
   3  -1 -12 5416.22 170.180  31
   3   1 -12 5488.52 524.696   2
   3   1 -12 5475.58 482.000  34
  -3  -1  12 5266.67 480.930  12
   3  -1 -12 5135.31 489.543  21
  -3   1  12 5390.77 564.919  11
  -3  -1  12 5805.68 552.726  11
   3   1 -11 3816.06 412.629  33
   3  -1 -11 3662.17 443.272  32
   3  -1 -11 3503.97 131.822  31
   3   1 -11 3416.95 377.942  34
   3   1 -11 3819.52 418.180   2
  -3  -1  11 3621.41 373.638  37
  -3  -1  11 3496.95 386.480  12
   3  -1 -11 3713.57 407.529  21
  -3   1  11 3198.38 433.159  11
  -3  -1  11 3310.98 425.364  11
   3   1 -10 8938.54 623.660  33
   3  -1 -10 8232.68 612.773  32
   3  -1 -10 8652.31 217.652  31
   3   1 -10 9445.18 638.244   2
  -3  -1  10 10171.0 632.616  12
   3  -1 -10 8950.04 618.974  21
  -3   1  10 8358.57 662.603  11
  -3  -1  10 9169.70 667.017  11
  -3  -1  10 8947.08 570.969  37
   3   1 -10 8993.31 622.865  35
   3   1  -9 15475.8 799.733  33
   3  -1  -9 14264.4 795.061  32
   3  -1  -9 14285.5 287.560  31
   3   1  -9 15567.6 816.117   2
  -3  -1   9 14066.4 742.975  12
   3  -1  -9 14633.6 795.307  21
  -3   1   9 14993.0 872.189  11
  -3  -1   9 15636.1 860.049  11
  -3  -1   9 15089.5 743.765  37
   3   1  -9 14713.9 814.684  35
   3  -1  -8 7067.93 540.176  32
   3  -1  -8 7237.34 183.837  31
   3   1  -8 7818.48 557.506   2
  -3  -1   8 7303.87 518.558  12
   3   1  -8 7257.23 553.285  33
   3  -1  -8 6998.82 530.893  21
  -3   1   8 7404.14 608.587  11
  -3  -1   8 7444.08 582.568  11
  -3  -1   8 7085.11 515.100  37
   3   1  -8 7906.63 567.888  35
   3   1  -7 4438.22 419.790  33
   3  -1  -7 4701.39 432.963  32
   3  -1  -7 4202.83 131.819  31
  -3  -1   7 4402.01 399.023  12
   3   1  -7 4326.90 425.275   1
   3  -1  -7 4377.73 424.238  21
  -3   1   7 3696.82 438.080  11
  -3  -1   7 3919.40 426.330  11
  -3  -1   7 3936.87 375.574  37
   3   1  -7 3782.59 388.493  35
   3   1  -6 172.361 126.433  33
   3  -1  -6 434.701 190.206  32
   3   1  -6 88.3854 110.171   1
  -3  -1   6 184.978 125.534  12
   3  -1  -6 323.963 163.811  21
  -3   1   6 119.778 157.118  11
  -3  -1   6 27.3850 138.737  11
  -3  -1   6 79.6617 112.741  37
   3   1  -6 153.134 122.487  35
   3   1  -5 12551.1 704.446  33
   3  -1  -5 12757.3 668.688  32
  -3  -1   5 11978.8 627.783  12
   3  -1  -5 13086.7 712.091  21
  -3  -1   5 12653.2 725.566  11
  -3   1   5 10958.5 701.631  11
   3   1  -5 13299.5 721.917   1
  -3  -1   5 12199.4 661.904  37
   3   1  -5 13146.0 721.696  35
   3   1  -4 11288.3 672.253   1
  -3  -1   4 12152.6 623.696  12
   3  -1  -4 12030.3 675.814  21
  -3  -1   4 12378.1 705.520  11
  -3   1   4 11488.8 719.853  11
  -3  -1   4 11257.9 627.525  37
   3  -1  -3 12369.6 646.033  34
   3   1  -3 13932.1 736.674   1
  -3  -1   3 13067.9 672.048  37
  -3  -1   3 13513.7 647.910  12
   3  -1  -3 13802.7 730.403  21
  -3  -1   3 13397.8 738.333  11
  -3   1   3 12480.2 750.856  11
  -3  -1   2 52022.8 1347.27  12
  -3  -1   2 53288.9 1526.92  11
   3  -1  -2 52467.3 1471.69  21
  -3   1   2 50917.1 1565.40  11
   3   1  -2 51729.8 1515.14   1
  -3  -1   2 52235.1 1436.29  37
   3  -1  -2 53023.2 1442.25  18
   3  -1  -2 51149.2 1363.44  34
   3  -1  -1 53900.0 1392.90  34
  -3  -1   1 57461.8 1407.26  12
  -3   1   1 54111.1 1626.91  11
   3  -1  -1 58037.5 1550.98  21
  -3  -1   1 57649.3 1506.51  37
   3  -1  -1 55344.8 1499.67  19
   3  -1  -1 56631.4 1505.13  18
  -3  -1   0 86648.0 1786.29  12
  -3  -1   0 85911.7 1934.05  37
   3  -1   0 85619.7 1969.84  21
   3  -1   0 86671.7 1907.16  18
   3  -1   1 25705.4 994.566  21
   3  -1   1 24501.6 956.239  19
   3  -1   1 26234.3 947.539  18
  -3  -1  -1 25043.3 951.563  37
   3  -1   2 1895.11 288.838  21
   3  -1   2 1956.77 317.654  19
  -3  -1  -2 1898.99 278.791  37
   3  -1   3 7782.64 518.978  21
   3  -1   3 7610.30 511.295  19
  -3  -1  -3 8098.48 523.629  37
  -3  -1  -4 8876.90 552.976  37
   3  -1   4 9977.72 581.420  21
   3  -1   4 9738.08 567.635  19
  -3  -1  -5 2286.91 319.057   5
   3  -1   5 2101.49 281.622  21
  -3  -1  -5 2336.45 287.893  37
  -3  -1  -6 4719.95 451.396   5
   3  -1   6 4526.90 389.577  21
   3  -1   6 4026.36 411.340  20
  -3  -1  -6 4435.21 391.985  37
  -3  -1  -7 23451.1 983.304   5
   3  -1   7 21021.3 952.435  20
  -3  -1  -7 21107.3 878.496  37
  -3  -1  -8 2022.09 300.311   5
   3  -1   8 2228.59 326.734  20
  -3  -1  -8 2429.64 303.491  37
  -3  -1  -9 1633.62 276.132   5
  -3  -1  -9 1374.70 238.758  37
   3  -1   9 1506.42 282.112  20
   3  -1  10 7678.51 593.967  20
  -3  -1 -10 6272.86 489.964  37
   3  -1  11 6425.52 560.873  20
  -3  -1 -16 551.906 68.1364   6
  -3  -1 -17 3368.50 154.888   6
  -3  -1 -17 3250.31 149.469  26
  -3   1 -17 3290.43 132.518  10
  -3   1 -17 3192.60 137.961  22
  -3  -1 -18 18400.1 401.789   6
  -3  -1 -18 18014.8 390.508  26
  -3   1 -18 18138.4 373.182  22
  -3   1 -18 18697.0 359.694  10
  -3  -1 -19 8686.47 261.070   6
  -3  -1 -19 8705.93 254.217  26
  -3   1 -19 8673.70 241.065  22
  -3   1 -19 9061.56 229.451  10
  -3  -1 -20 11371.7 304.465   6
  -3  -1 -20 11546.6 295.340  26
  -3   1 -20 11407.4 282.198  22
  -3  -1 -21 10540.6 279.629  26
  -3   1 -21 10346.3 264.787  22
  -3  -1 -21 10402.9 287.205   6
  -3  -1 -22 12984.3 321.978   6
  -3  -1 -22 12492.7 307.560  26
  -3   1 -22 12659.1 298.268  22
  -3  -1 -23 3792.95 161.625   6
  -3  -1 -23 3716.84 157.229  26
  -3   1 -23 3555.37 148.201  22
  -3  -1 -24 688.044 75.6731   6
  -3  -1 -24 652.721 74.9322  26
  -3   1 -24 613.496 68.3454  22
  -3  -1 -25 925.499 81.4029   6
  -3   1 -25 870.070 75.8570  22
  -3  -1 -26 415.199 58.3662   6
  -3   1 -26 292.740 51.2916  22
  -3  -1 -27 407.119 55.4370   6
  -3  -1 -28-6.30300 32.2922   6
  -3  -1 -29 7.68585 30.0295   6
   3  -2 -28 114.581 36.6461  27
  -3  -2  28 123.969 31.7930  14
   3  -2 -27 334.319 49.2071  27
   3   2 -27 360.035 45.0672   9
  -3  -2  27 367.053 47.2985  14
   3   2 -27 356.547 43.5712  25
   3  -2 -26 20.3126 32.7176  17
   3  -2 -26 14.4893 39.7679  27
   3   2 -26 56.3669 37.8787   9
   3   2 -26 25.3136 33.6321  25
   3  -2 -25 21.1954 37.9083  17
   3  -2 -25 8.94032 44.8563  27
   3   2 -25 68.9426 40.0064   9
   3   2 -25 13.5484 36.5800  26
   3   2 -25 20.2847 34.0551  25
   3  -2 -24 66.0208 42.7114  17
   3  -2 -24 83.2199 49.9781  27
   3   2 -24 109.865 46.6093   9
   3   2 -24 187.968 47.6425  26
   3   2 -24 114.022 44.0932  25
   3  -2 -23 1135.74 85.7132  29
   3  -2 -23 1204.27 92.6943  27
   3   2 -23 1258.92 82.7704   9
   3   2 -23 1214.71 79.6372  26
   3   2 -23 1325.12 84.8227  25
   3  -2 -23 1184.45 87.0725  17
   3  -2 -22-51.4482 46.7675  17
   3  -2 -22-19.3177 47.0828  31
   3  -2 -22-19.3507 57.4309  30
   3  -2 -22 19.5563 49.8766  29
   3  -2 -22-23.2191 48.3798  27
   3   2 -22 5.94973 42.2851  26
   3   2 -22-2.06180 40.1281  25
   3  -2 -21 780.088 86.7468  31
   3  -2 -21 735.965 86.6760  30
   3  -2 -21 728.258 79.6842  29
   3  -2 -21 668.613 78.5127  27
   3   2 -21 750.810 72.9427  26
   3   2 -21 765.647 71.7278  25
   3  -2 -21 759.271 80.1823  17
   3  -2 -20 2337.69 128.185  31
   3  -2 -20 2251.14 127.976  30
   3  -2 -20 2275.79 126.228  29
   3  -2 -20 2160.86 128.729  27
   3   2 -20 2221.05 112.959  26
   3   2 -20 2233.53 114.656  25
   3  -2 -20 2137.85 124.035  17
   3  -2 -19 2167.40 129.843  17
   3  -2 -19 2396.14 133.967  31
   3  -2 -19 2171.27 133.169  30
   3  -2 -19 2318.46 130.524  29
   3  -2 -19 2336.13 133.423  27
   3   2 -19 2292.96 118.175  26
   3   2 -19 2405.60 120.474  25
   3  -2 -18 2826.84 146.136  31
   3  -2 -18 2837.94 146.342  30
   3  -2 -18 2714.97 144.014  29
   3   2 -18 2764.03 128.898  28
   3  -2 -18 2839.01 143.821  27
   3   2 -18 2798.69 129.382  26
   3   2 -18 2936.10 132.352  25
   3  -2 -17 1246.36 108.975  31
   3  -2 -17 1361.83 112.421  30
   3  -2 -17 1355.32 117.108  29
   3   2 -17 1374.50 96.0440  28
   3  -2 -17 1326.07 109.092  27
   3   2 -17 1317.79 94.6217  26
   3   2 -17 1348.44 98.7635  25
  -3  -2  17 1135.94 277.330  12
   3  -2 -17 1428.87 345.117  18
   3  -2 -16 21531.1 433.595  31
   3  -2 -16 20414.9 429.163  30
   3  -2 -16 21363.1 438.570  29
   3   2 -16 20900.4 405.527  28
   3  -2 -16 20513.2 426.945  27
   3   2 -16 21198.0 403.076  25
   3   2 -16 20527.3 395.991  24
  -3  -2  16 20580.4 1033.92  12
   3  -2 -16 20095.2 1110.54  18
   3  -2 -15 17021.7 376.055  31
   3  -2 -15 16915.5 374.177  30
   3  -2 -15 16577.6 382.775  29
   3   2 -15 17212.9 352.914  28
   3  -2 -15 16420.2 368.675  27
   3   2 -15 16587.4 342.825  24
  -3  -2  15 16139.7 918.201  12
   3  -2 -15 16742.2 1008.96  18
   3   2 -15 17390.2 984.750   2
   3   2 -14 22616.2 1114.37   2
   3   2 -14 23215.6 1156.07  33
   3  -2 -14 22064.7 441.862  31
   3  -2 -14 22381.7 455.557  29
   3   2 -14 22584.6 420.991  28
   3   2 -14 21832.6 411.362  24
  -3  -2  14 22677.0 1080.69  12
   3  -2 -14 22153.6 442.873  30
   3  -2 -14 21987.6 1161.03  18
   3   2 -13 6087.16 585.980  33
   3  -2 -13 6010.98 206.577  31
   3   2 -13 6165.46 587.795   2
   3  -2 -13 5941.15 208.943  30
   3  -2 -13 6519.31 218.860  29
   3   2 -13 6771.62 198.564  28
   3   2 -13 6302.53 188.577  24
  -3  -2  13 5615.52 543.570  12
   3  -2 -13 6490.98 597.712  19
   3  -2 -13 6180.90 623.757  18
   3   2 -12 18188.9 1000.85  33
   3  -2 -12 17315.8 371.381  30
   3  -2 -12 16943.3 368.195  31
   3  -2 -12 17726.3 386.184  29
   3   2 -12 17771.7 984.040   2
   3   2 -12 17926.6 356.156  28
   3   2 -12 17978.8 350.341  24
  -3  -2  12 17171.7 919.181  12
   3  -2 -12 16048.5 930.375  19
   3  -2 -12 16733.8 1012.21  18
   3   2 -11 5184.06 537.968  33
   3  -2 -11 4893.76 176.050  31
   3  -2 -11 5061.48 189.533  29
   3   2 -11 5292.09 170.666  28
   3   2 -11 4855.43 510.196   2
   3   2 -11 5008.77 163.613  24
  -3  -2  11 4854.50 494.015  12
   3  -2 -11 4453.89 511.336  19
   3  -2 -11 4996.48 565.293  18
   3  -2 -11 4638.41 177.225  30
   3   2 -10 2439.16 367.696  33
   3  -2 -10 2653.25 128.059  31
   3   2 -10 2788.97 390.964   2
  -3  -2  10 2337.42 354.484  12
   3  -2 -10 2498.07 385.921  19
   3  -2 -10 2851.77 431.704  18
   3   2  -9 1130.46 262.459  33
   3  -2  -9 1237.61 88.2364  31
   3   2  -9 1219.87 260.562   2
  -3  -2   9 1024.59 247.959  12
   3  -2  -9 1156.46 302.012  19
   3  -2  -9 1154.13 311.104  18
   3   2  -9 1095.02 235.052  35
   3   2  -8 610.686 210.725  33
   3  -2  -8 704.001 72.5466  31
   3   2  -8 537.928 186.636   2
  -3  -2   8 612.775 201.517  12
   3  -2  -8 684.901 266.734  19
   3  -2  -8 931.966 291.453  18
   3   2  -8 668.590 199.622  35
   3   2  -7 4846.22 504.096  33
   3   2  -7 4766.50 495.054   1
  -3  -2   7 4751.73 466.787  12
   3   2  -7 4744.62 498.484   2
   3  -2  -7 5005.78 532.464  19
   3  -2  -7 4915.30 544.072  18
   3   2  -7 5289.49 503.981  35
   3   2  -6 4143.05 466.137  33
   3   2  -6 3936.39 452.742   1
  -3  -2   6 4617.86 458.720  12
   3  -2  -6 3696.53 472.816  19
   3  -2  -6 3694.01 492.770  18
   3   2  -6 3859.94 431.828  35
   3   2  -5 8583.74 675.497  33
   3   2  -5 9679.60 701.938   1
  -3  -2   5 9305.57 635.863  12
   3  -2  -5 8996.76 674.691  19
   3  -2  -5 8663.72 691.355  18
   3   2  -5 10378.4 692.996  35
   3   2  -4 2247.11 373.299  33
   3   2  -4 1833.55 326.646   1
  -3  -2   4 1930.35 328.496  12
   3  -2  -4 2368.26 420.100  19
   3  -2  -4 2244.75 394.573  18
   3   2  -4 2259.90 347.916  35
   3   2  -3 23230.1 1099.92   1
  -3  -2   3 23098.6 982.763  12
   3  -2  -3 24593.8 1118.32  19
   3  -2  -3 23779.2 1116.15  18
   3   2  -2 14084.2 856.063   1
  -3  -2   2 14057.2 760.054  12
   3  -2  -2 15789.5 895.364  19
   3  -2  -2 13798.9 863.279  18
  -3  -2   2 13779.0 800.265  37
  -3  -2   1 8315.44 571.649  12
   3   2  -1 7583.91 622.571   1
   3  -2  -1 8594.59 655.128  19
   3  -2  -1 7960.43 635.096  18
  -3  -2   1 7620.42 598.473  37
   3   2   0 1023.13 252.865   1
  -3  -2   0 1250.39 254.529  12
  -3  -2   0 1713.24 295.268  37
   3  -2   0 1507.52 326.988  18
   3  -2   1 127.192 162.711  18
  -3  -2  -1 458.543 167.079  37
   3  -2   2 346.446 193.810  20
   3  -2   2 445.395 209.625  18
  -3  -2  -2 454.288 170.518  37
  -3  -2  -3 2813.45 413.507   5
   3  -2   3 2363.75 367.860  20
   3  -2   3 2847.92 381.701  18
  -3  -2  -3 2852.39 363.546  37
  -3  -2  -4 3092.74 431.714   5
   3  -2   4 2137.20 356.732  20
  -3  -2  -4 3359.60 392.758  37
  -3  -2  -5 629.305 235.082   5
   3  -2   5 497.720 232.998  20
  -3  -2  -5 901.122 224.883  37
  -3  -2  -6 1162.65 270.729   5
   3  -2   6 816.718 273.177  20
  -3  -2  -6 1043.88 229.815  37
  -3  -2  -7-60.6026 137.910   5
   3  -2   7-9.90358 164.117  20
  -3  -2  -8 8498.85 724.584   5
   3  -2   8 8603.70 721.802  20
  -3  -2  -9 30747.9 1368.67   5
   3  -2   9 30689.3 1376.31  20
  -3  -2 -10 32209.4 1411.91   5
   3  -2  10 31857.8 1416.00  20
  -3   2 -11 8153.50 216.906  10
  -3  -2 -11 8137.07 240.198   6
  -3  -2 -11 7907.96 223.815  41
  -3   2 -12 17775.4 355.459  10
  -3  -2 -12 17851.9 386.594   6
  -3  -2 -12 18582.4 1078.90   5
  -3  -2 -12 18096.8 368.549  41
  -3   2 -13 3206.39 136.868  10
  -3  -2 -13 3279.12 152.110   6
  -3  -2 -13 3529.10 481.072   5
  -3  -2 -13 3190.16 141.664  41
  -3  -2 -14 5580.52 198.528   6
  -3   2 -14 5485.68 176.884  10
  -3  -2 -14 4970.64 573.818   5
  -3  -2 -14 5484.64 183.865  41
  -3  -2 -15 4263.13 175.517   6
  -3  -2 -15 4635.79 541.126   5
  -3   2 -15 4342.14 152.674  22
  -3  -2 -15 4165.16 160.281  41
  -3   2 -15 4104.60 153.373  10
  -3  -2 -16 521.099 74.3981   6
  -3  -2 -16 443.642 201.712   5
  -3   2 -16 530.645 62.5888  22
  -3  -2 -16 560.241 69.0997  41
  -3   2 -16 537.940 70.3256  10
  -3   2 -17 405.490 62.7685  10
  -3  -2 -17 265.381 60.3951   6
  -3   2 -17 384.149 56.4097  22
  -3  -2 -17 340.146 57.5363  41
  -3  -2 -18 1105.57 94.0736   6
  -3   2 -18 1267.38 88.1927  10
  -3   2 -18 1308.62 90.0347  22
  -3  -2 -18 1294.54 90.6615  41
  -3  -2 -19 1277.14 98.8765   6
  -3   2 -19 1393.60 91.2979  22
  -3  -2 -19 1388.27 88.7552  41
  -3   2 -19 1289.97 87.7363  10
  -3   2 -20 355.654 55.8068  10
  -3  -2 -20 197.908 53.3835   6
  -3   2 -20 349.364 55.8797  22
  -3   2 -21 394.562 60.6010  10
  -3  -2 -21 201.351 54.1341   6
  -3   2 -21 386.505 61.6630  22
  -3  -2 -22 4442.27 170.292   6
  -3   2 -22 4591.03 157.354  22
  -3   2 -22 4606.02 147.284  10
  -3  -2 -23 3766.69 151.305   6
  -3   2 -23 3639.97 136.353  22
  -3  -2 -24 785.138 73.1927   6
  -3   2 -24 716.170 65.3588  22
  -3  -2 -25 308.476 49.6403   6
  -3   2 -25 234.354 44.3012  22
  -3  -2 -26 42.6003 36.1544   6
  -3   2 -26-7.15209 32.2117  22
  -3  -2 -27 134.298 35.0773   6
  -3   2 -27 58.1786 30.0275  22
   3   3 -23 258.743 36.8312   9
   3   3 -22 955.983 58.0981   9
   3  -3 -22 833.691 59.8114  17
   3  -3 -21-8.72886 35.9169  17
   3   3 -21 13.4032 34.9900   9
  -3  -3  21 23.6705 32.9293  14
   3   3 -21 12.4719 28.8933  25
   3  -3 -20 223.288 46.7657  17
   3  -3 -20 286.554 48.1314  16
   3   3 -20 242.153 39.4998  25
   3  -3 -19 809.975 71.0974  16
   3   3 -19 768.020 57.6090  25
   3  -3 -19 773.972 70.5888  17
   3  -3 -18 1006.21 77.1334  16
   3   3 -18 962.048 67.3128  25
   3  -3 -18 1009.21 82.5306  17
   3  -3 -17 1574.55 100.932  16
   3   3 -17 1670.61 86.6624  25
   3   3 -17 1671.27 82.3011  22
   3  -3 -17 1666.13 104.131  17
   3  -3 -16 1941.21 114.987  16
   3   3 -16 2146.83 102.500  28
   3   3 -16 2037.28 95.1322  25
   3   3 -16 2183.22 96.7085  22
   3  -3 -16 2149.81 117.199  17
   3  -3 -15 1404.58 106.294  17
   3  -3 -15 1495.31 107.576  16
   3   3 -15 1554.79 91.8342  28
   3   3 -15 1575.26 86.4346  25
   3   3 -15 1670.43 88.6648  22
   3  -3 -14 5162.97 187.053  17
   3  -3 -14 4892.58 186.352  16
   3   3 -14 5135.73 164.920  28
   3  -3 -14 4901.30 173.532  15
   3   3 -14 5091.35 157.991  22
   3   3 -14 5330.70 160.852  25
   3   3 -14 5369.22 168.841  24
   3  -3 -13 2289.06 127.944  17
   3  -3 -13 2290.29 132.616  16
   3   3 -13 2294.96 113.064  28
   3  -3 -13 2235.52 122.405  15
   3   3 -13 2495.39 117.545  24
   3   3 -13 2291.93 109.784  22
   3  -3 -12 830.891 89.5999  17
   3  -3 -12 962.093 107.266  16
   3  -3 -12 1042.66 100.737  29
   3   3 -12 787.688 76.8327  28
   3  -3 -12 718.595 84.1793  15
   3   3 -12 778.636 77.3054  24
   3   3 -12 856.630 78.5361  22
   3  -3 -11 12961.7 317.417  17
   3  -3 -11 13749.7 332.758  16
   3  -3 -11 13014.1 322.847  29
   3   3 -11 12887.1 288.618  28
   3  -3 -11 12723.3 313.353  15
   3   3 -11 13342.4 293.366  24
  -3  -3  11 12584.0 807.674  12
   3   3 -11 13664.0 289.890  22
   3  -3 -11 12291.8 881.996  18
   3  -3 -10 5002.32 193.786  17
   3  -3 -10 6002.08 214.025  16
   3  -3 -10 5345.47 198.796  29
   3   3 -10 5061.02 171.007  28
   3  -3 -10 5225.89 198.463  15
   3   3 -10 5307.01 175.278  24
  -3  -3  10 4987.81 507.199  12
   3   3 -10 5353.04 171.465  22
   3  -3 -10 5129.46 589.758  18
   3  -3  -9 7951.48 245.859  16
   3  -3  -9 7568.06 234.456  29
   3   3  -9 7144.70 205.244  28
   3  -3  -9 7548.49 234.754  15
   3   3  -9 7501.41 213.391  22
   3   3  -9 7610.20 211.890  24
  -3  -3   9 7144.74 197.433   8
  -3  -3   9 6964.66 607.213  12
   3  -3  -9 7159.55 696.359  18
   3  -3  -9 7311.12 228.294  17
   3  -3  -8 11045.9 299.267  16
   3  -3  -8 10340.6 279.817  29
   3   3  -8 10553.2 256.231  28
   3  -3  -8 10566.1 286.148  15
   3   3  -8 10830.6 259.622  24
  -3  -3   8 10328.9 248.379   8
  -3  -3   8 10433.7 736.042  12
   3   3  -8 10943.7 259.390  22
   3  -3  -8 9635.82 801.104  18
   3  -3  -8 10616.6 278.489  17
   3  -3  -7 2382.06 140.296  16
   3  -3  -7 2273.65 134.127  29
   3  -3  -7 2459.44 139.864  15
   3   3  -7 2031.04 111.711  24
   3   3  -7 2051.70 113.146  22
  -3  -3   7 2184.58 110.308   8
  -3  -3   7 2153.93 352.712  12
   3  -3  -7 2120.42 386.332  20
   3  -3  -7 1606.50 382.850  18
   3  -3  -7 2090.95 123.638  17
   3  -3  -6 2822.90 149.744  16
   3  -3  -6 2709.31 136.808  29
   3  -3  -6 2791.99 145.274  15
   3   3  -6 2801.50 126.298  22
   3   3  -6 2602.52 122.593  24
  -3  -3   6 2769.12 123.849   8
  -3  -3   6 2769.02 400.428  12
   3  -3  -6 2082.07 394.979  20
   3  -3  -6 2723.85 453.780  18
   3  -3  -6 2881.44 138.512  17
   3  -3  -5 4298.76 177.572  16
   3  -3  -5 4516.92 181.306  15
   3   3  -5 4255.37 157.641  22
   3   3  -5 4026.73 151.945  24
  -3  -3   5 4000.45 150.013   8
  -3  -3   5 4224.56 470.210  12
   3  -3  -5 3664.05 497.157  20
   3  -3  -5 4591.52 171.130  17
   3  -3  -4 2851.50 145.881  16
   3  -3  -4 2888.44 152.480  15
  -3  -3   4 2569.15 122.233   8
   3   3  -4 2504.16 125.504  22
  -3  -3   4 2304.80 360.790  12
   3  -3  -4 2334.05 131.352  17
   3  -3  -3 4518.60 184.678  16
   3  -3  -3 4669.41 187.519  15
   3   3  -3 4535.63 168.078  22
  -3  -3   3 4567.58 167.168   8
  -3  -3   3 4340.51 475.213  12
   3  -3  -3 3848.08 506.506  20
   3  -3  -2 4569.96 186.212  16
   3  -3  -2 4688.12 191.222  15
  -3  -3   2 3631.77 438.905  12
  -3  -3   2 4802.79 169.395   8
   3   3  -2 4617.84 174.053  22
   3  -3  -2 3947.79 523.364  20
   3  -3  -1 8370.86 252.975  16
   3  -3  -1 9041.40 268.496  15
  -3  -3   1 9986.27 251.803   8
  -3  -3   1 9405.14 689.822  12
   3  -3  -1 8153.53 742.323  20
   3  -3   0 44533.1 723.791  16
   3  -3   0 44925.3 738.551  15
  -3  -3   0 46406.6 711.604   8
   3  -3   1 26872.9 496.641  15
   3  -3   1 25375.4 1287.77  20
   3  -3   2 2871.83 170.597  15
  -3  -3  -2 2269.86 131.201   8
   3  -3   2 2366.50 467.204  20
   3  -3   3 14737.7 336.531  15
  -3  -3  -3 15371.9 328.004   8
  -3  -3  -3 14849.9 318.358  41
   3  -3   3 14257.8 955.527  20
   3  -3   4 2707.55 136.051  15
  -3  -3  -4 2264.74 119.079   8
  -3  -3  -4 1868.49 110.658  41
   3  -3   4 2140.48 413.588  20
  -3   3  -5 3169.26 128.840  10
  -3  -3  -5 3173.01 133.340   8
  -3  -3  -5 2991.63 135.215  41
  -3   3  -6 3151.48 132.203  10
  -3  -3  -6 3176.68 484.713   5
  -3  -3  -6 3067.55 133.524   8
  -3  -3  -6 3125.74 139.734  41
  -3   3  -7 14888.0 313.521  10
  -3  -3  -7 15126.9 1016.10   5
  -3  -3  -7 15734.0 321.409   8
  -3  -3  -7 15011.9 329.446  41
  -3   3  -8 12268.5 280.345  10
  -3  -3  -8 12856.3 282.611   8
  -3  -3  -8 12289.4 294.335  41
  -3   3  -9 3828.19 146.594  10
  -3  -3  -9 3664.56 135.959   8
  -3  -3  -9 3540.33 149.813  41
  -3   3 -10 2964.88 129.995  10
  -3  -3 -10 2807.79 443.567   5
  -3  -3 -10 2947.95 135.840  41
  -3   3 -11 1931.33 107.874  10
  -3  -3 -11 1647.86 354.354   5
  -3  -3 -11 2043.47 112.818  41
  -3   3 -12 25.5122 49.4426  10
  -3  -3 -12 79.0743 167.941   5
  -3  -3 -12 60.1156 52.7991  41
  -3   3 -13 617.981 69.6599  10
  -3  -3 -13 471.410 232.254   5
  -3  -3 -13 684.621 73.4526  41
  -3  -3 -14 1546.92 332.591   5
  -3  -3 -14 1604.23 98.5120  41
  -3   3 -14 1619.25 98.0570  10
  -3  -3 -15 1144.04 85.8909  41
  -3   3 -15 1193.34 85.1434  10
  -3  -3 -16 1236.34 84.9811  41
  -3   3 -16 1327.31 89.4709  10
  -3   3 -17 418.139 57.5422  10
  -3  -3 -17 397.648 57.3444  41
  -3  -3 -18 2781.81 112.646  41
  -3   3 -18 2729.15 111.058  10
  -3  -3 -19 1396.32 78.0385  41
  -3   3 -19 1520.43 81.1582  10
  -3  -3 -20 1029.31 64.3833  41
  -3   3 -20 1029.78 68.6817  10
  -3   3 -21 296.183 43.5383  10
  -3  -3 -21 267.630 39.7138  41
  -3   3 -21 200.274 36.1125  22
  -3   3 -22 846.744 53.8072  10
   3  -4 -12 4200.38 124.811  16
   3   4 -12 3949.62 107.919  22
   3  -4 -12 3896.19 118.748  17
   3  -4 -11 4521.62 135.290  16
   3  -4 -11 4086.39 121.033  15
   3   4 -11 4354.51 116.165  22
   3  -4 -11 4456.00 129.814  17
   3  -4 -10 1857.38 91.1067  16
   3  -4 -10 1748.00 83.0031  15
   3   4 -10 1754.78 75.4285  22
   3  -4 -10 1821.39 85.7680  17
   3  -4  -9 753.911 65.0144  16
   3  -4  -9 787.120 63.6433  15
   3   4  -9 663.595 50.0653  22
   3  -4  -9 742.780 63.6808  17
   3  -4  -8 128.483 40.4290  17
   3  -4  -8 146.332 45.8092  16
   3  -4  -8 136.359 47.0128  15
   3   4  -8 61.1274 29.3529  24
  -3  -4   8 119.263 34.9539   8
   3   4  -8 9.94537 31.1788  22
   3  -4  -7 204.090 45.4825  17
   3  -4  -7 201.698 49.0140  16
   3  -4  -7 181.138 44.7787  15
   3   4  -7 129.620 32.1911  24
  -3  -4   7 213.571 37.6476   8
   3   4  -7 90.4992 32.0767  22
   3  -4  -6 225.827 44.8259  17
   3  -4  -6 223.023 47.0949  15
   3   4  -6 185.288 34.8932  24
  -3  -4   6 204.198 40.2564   8
   3   4  -6 122.688 33.2803  22
   3  -4  -5 475.381 59.9978  16
   3  -4  -5 484.530 58.7384  15
   3   4  -5 401.897 43.6545  24
  -3  -4   5 494.382 49.2779   8
   3   4  -5 407.992 46.0423  22
   3  -4  -5 448.231 53.0339  17
   3  -4  -4 776.778 68.3740  16
   3  -4  -4 697.568 70.8581  15
   3   4  -4 829.801 57.8698  24
  -3  -4   4 829.136 63.3546   8
   3   4  -4 863.157 60.5741  22
   3  -4  -3 2575.71 109.118  16
   3  -4  -3 2431.83 110.859  15
   3   4  -3 2529.62 93.3973  24
  -3  -4   3 2702.29 103.484   8
   3   4  -3 2618.51 99.6872  22
   3  -4  -2 1375.54 87.6911  16
   3  -4  -2 1247.87 87.8289  15
  -3  -4   2 1183.46 74.7815   8
   3   4  -2 1107.57 67.8903  22
   3  -4  -1 2141.98 101.811  16
   3  -4  -1 1983.60 100.757  15
   3   4  -1 2156.87 92.2869  22
   3   4  -1 2290.64 89.2524  24
  -3  -4   1 2385.25 99.5154   8
   3  -4   0 4132.68 135.366  16
   3  -4   0 3907.75 137.420  15
   3   4   0 4041.41 123.289  22
   3   4   0 4150.84 120.090  24
  -3  -4   0 4195.67 131.720   8
   3  -4   1 2297.14 107.463  15
  -3  -4  -1 2283.81 100.189   8
   3   4   1 2315.29 97.5115  22
   3  -4   2 5095.99 156.338  15
   3   4   2 5636.44 141.449  24
  -3  -4  -2 5502.09 152.319   8
   3   4   2 5221.26 141.426  22
   3  -4   3 3751.84 126.575  15
   3   4   3 3662.67 109.753  24
  -3  -4  -3 3536.99 120.266   8
   3   4   3 3412.75 110.989  22
   3  -4   4 504.864 60.8744  15
  -3  -4  -4 522.617 57.0549   8
   3   4   4 477.381 51.8391  22
   3  -4   5 1643.05 81.1579  15
   3   4   5 1719.67 75.1449  22
   3   4   5 1780.67 74.4482  24
  -3  -4  -5 1834.01 83.4550   8
   3   4   6 1913.15 76.4836  22
   3   4   6 1731.79 71.8575  24
  -3  -4  -6 2020.81 83.9727   8
  -3  -4  -7 750.887 52.6108   8
   3   4   7 688.599 48.0631  22
  -3  -4  -8 216.963 34.2751   8
  -3  -4  -8 169.076 39.0189  41
  -3   4  -9 155.786 34.2457  10
  -3  -4  -9 143.748 33.3648  41
  -3   4 -10 110.084 31.7689  10
  -3  -4 -10 109.194 31.4657  41
  -3   4 -11 350.214 38.7999  10
  -3  -4 -11 359.699 39.5072  41
   4   0 -28 51.9570 32.7676  26
  -4   0  28 29.6022 30.2103  13
   4   0 -27 11.5458 36.6243  27
   4   0 -27 15.3335 35.1918  26
   4   0 -27 19.9002 38.6301  23
  -4   0  27-3.50800 34.3544  13
   4   0 -26 4000.62 130.333  30
   4   0 -26 4182.35 140.374  27
   4   0 -26 3957.94 133.516  26
  -4   0  26 4030.78 144.024  13
   4   0 -26 4268.55 140.472  23
   4   0 -25 131.699 49.7333  30
   4   0 -25 57.9092 49.5196  27
   4   0 -25 48.4385 45.4227  26
   4   0 -25 65.2031 50.9548  23
  -4   0  25 61.6603 45.3763  13
   4   0 -24 4118.16 154.374  27
   4   0 -24 4087.68 145.148  26
  -4   0  24 3967.37 158.592  13
   4   0 -24 4124.19 152.110  23
   4   0 -23 36.5371 43.2402  31
   4   0 -23 72.3434 55.5106  27
   4   0 -23 20.1050 45.1376  26
   4   0 -23 44.2530 51.1943  23
  -4   0  23 19.4857 48.2040  13
   4   0 -22 815.083 77.5471  31
   4   0 -22 748.772 81.7508  27
   4   0 -22 692.756 71.5501  26
  -4   0  22 679.943 80.1771  13
   4   0 -22 702.433 77.4003  23
   4   0 -21 23.7950 46.9213  31
   4   0 -21-17.0748 56.5933  27
   4   0 -21-8.85897 49.2101  26
   4   0 -21-28.2086 53.4763  23
  -4   0  21-41.6111 53.0385  13
   4   0 -20 934.656 83.7739  31
   4   0 -20 1029.24 96.4808  27
   4   0 -20 846.644 79.2101  26
  -4   0  20 837.648 85.4929  13
   4   0 -20 983.659 88.8519  23
   4   0 -19 67.1479 174.402  32
   4   0 -19 60.9220 48.4275  31
   4   0 -19-1.34073 48.1418  26
   4   0 -19 27.4530 49.5764  23
  -4   0  19-31.5424 55.5964  13
   4   0 -18 1698.63 108.219  31
   4   0 -18 1573.64 103.027  26
  -4   0  18 1626.41 114.730  13
   4   0 -17-141.788 187.626  32
   4   0 -17-3.58992 50.9557  31
   4   0 -17 34.9982 47.7035  26
  -4   0  17-23.2556 56.2948  13
   4   0 -16 5867.42 625.118  32
   4   0 -16 6252.39 204.198  31
   4   0 -16 6242.48 193.117  26
  -4   0  16 5987.17 215.158  13
   4   0 -15-0.56777 199.231  32
   4   0 -15 110.777 59.9356  31
   4   0 -15 27.0515 57.5349  26
  -4   0  15 18.7230 51.3176  13
   4   0 -15-24.2363 186.369   3
   4   0 -14 17209.3 1020.88  32
   4   0 -14 18061.5 369.378  31
   4   0 -14 17548.9 356.523  26
   4   0 -14 17540.1 989.457   3
  -4   0  14 17444.7 396.387  13
  -4   0  14 17855.5 1151.16  11
   4   0 -13 13.5334 253.078  32
   4   0 -13 367.705 78.5446  31
  -4   0  13 369.446 81.4950  13
   4   0 -13-123.996 171.164   3
  -4   0  13 60.0395 206.561  11
   4   0 -13 258.313 204.386  34
   4   0 -12 60688.0 1914.83  32
  -4   0  12 60292.5 935.687  13
   4   0 -12 64252.8 1905.32   3
  -4   0  12 60432.1 2160.82  11
   4   0 -12 59270.2 1818.39   2
   4   0 -12 59217.0 1926.02  34
   4   0 -11 44.7554 199.401  32
   4   0 -11 127.488 176.102   2
  -4   0  11 145.828 214.960  11
   4   0 -11 64.2203 187.677  34
   4   0 -10 5078.20 499.800   2
   4   0 -10 6505.98 590.472  32
  -4   0  10 5663.28 634.445  11
   4   0 -10 5515.77 544.418  34
   4   0  -9 116.068 175.812  32
   4   0  -9 143.662 164.462   2
  -4   0   9-253.048 198.164  11
   4   0  -9 66.0265 149.219  34
  -4   0   8 311.667 166.509  11
   4   0  -8 332.946 180.815   2
   4   0  -8 161.538 165.078  34
   4   0  -7-25.6987 143.549  34
   4   0  -7-59.0279 118.917   2
  -4   0   7 14.0754 135.497  11
   4   0  -7 17.6470 119.257  35
   4   0  -6 143.613 158.611  34
  -4   0   6 14.3638 143.729  11
   4   0  -6 273.935 168.436  35
   4   0  -5 71.2329 167.609  34
  -4   0   5 1.75708 133.516  11
  -4   0   5 26.0697 102.052  37
   4   0  -5 123.419 143.873  35
  -4   0   4 15103.7 950.026  11
  -4   0   4 14911.0 778.736  37
   4   0  -4 14133.7 816.506  35
   4   0  -4 15572.5 838.480  34
   4   0  -3 239.485 214.803  34
  -4   0   3 418.704 261.622  11
  -4   0   3 62.9832 143.541  37
   4   0  -3 188.627 136.852  35
  -4   0   2 30318.5 1154.56  37
   4   0  -2 32145.8 1209.13  35
   4   0  -2 30248.4 1160.80  34
   4   0  -1 396.353 218.560  34
  -4   0   1 394.172 206.084  37
   4   0  -1 109.210 162.799  35
  -4   0   0 8703.97 615.686  37
   4   0   0 9038.00 616.809  35
  -4   0  -1 108.002 136.124  37
   4   0   1 119.583 132.824  35
  -4   0  -2 2414.62 324.717  37
  -4   0  -3 59.5677 117.769  37
  -4   0  -4 2682.72 350.668  37
  -4   0 -12 27921.2 514.913   6
  -4   0 -13 90.3736 60.9793   6
  -4   0 -14 29171.5 531.305   6
  -4   0 -15 35.2193 58.5697   6
  -4   0 -16 29467.9 537.158   6
   4  -1 -27 753.930 54.6731  17
   4  -1 -27 715.739 56.1229  30
   4  -1 -27 785.909 60.8720  27
   4   1 -27 794.506 57.5682  26
   4   1 -27 746.233 54.2207  25
  -4  -1  27 672.186 53.1325  13
   4   1 -27 758.859 55.1564  23
   4  -1 -26 696.874 61.6145  30
   4  -1 -26 678.532 65.2068  27
   4   1 -26 691.327 59.9267  26
  -4  -1  26 665.980 54.1994  14
   4   1 -26 630.723 54.0665  25
  -4   1  26 597.048 54.7188  13
  -4  -1  26 666.698 57.1429  13
   4   1 -26 674.180 58.2378  23
   4  -1 -25 220.268 50.2922  30
   4  -1 -25 235.932 54.7195  27
   4   1 -25 194.701 49.8045  26
  -4  -1  25 190.668 41.9825  14
   4   1 -25 210.024 44.3532  25
  -4   1  25 156.147 41.7972  13
   4   1 -25 214.274 46.7274  23
  -4  -1  25 184.967 42.9265  13
   4  -1 -24 477.571 62.7714  30
   4  -1 -24 406.667 63.9179  27
   4   1 -24 386.710 59.5183  26
  -4  -1  24 429.859 55.7059  14
   4   1 -24 411.735 53.1793  25
  -4   1  24 379.096 53.7963  13
   4   1 -24 411.629 57.5197  23
  -4  -1  24 374.318 54.0889  13
   4  -1 -23 3533.55 139.136  30
   4  -1 -23 2880.45 122.799  29
   4  -1 -23 3362.58 143.007  27
   4   1 -23 3295.16 132.358  27
   4   1 -23 3462.44 138.334  26
  -4  -1  23 3115.37 127.625  14
   4   1 -23 3247.01 126.554  25
  -4   1  23 3181.85 135.600  13
  -4  -1  23 3291.93 135.335  13
   4  -1 -23 3220.18 131.582  23
   4   1 -23 3425.55 136.417  23
   4  -1 -22 733.136 77.4916  31
   4   1 -22 713.936 72.2898  31
   4  -1 -22 695.461 81.8581  30
   4  -1 -22 677.258 72.9316  29
   4   1 -22 626.391 71.7937  27
   4  -1 -22 699.533 82.0291  27
   4   1 -22 765.230 81.5129  26
  -4  -1  22 774.170 73.8638  14
   4   1 -22 703.230 70.0685  25
  -4   1  22 622.259 71.5760  13
  -4  -1  22 670.081 71.4549  13
   4  -1 -22 589.146 69.8801  23
   4  -1 -21 1687.71 107.956  31
   4   1 -21 1659.20 102.626  31
   4  -1 -21 1676.99 112.657  30
   4  -1 -21 1611.26 103.411  29
   4  -1 -21 1634.48 109.448  27
   4   1 -21 1739.28 108.512  26
  -4  -1  21 1442.70 98.7039  14
   4   1 -21 1543.56 98.5917  25
  -4   1  21 1441.41 100.076  13
  -4  -1  21 1552.10 101.962  13
   4  -1 -21 1310.24 94.5633  23
   4  -1 -20 1758.57 108.688  31
   4   1 -20 1853.69 106.304  31
   4  -1 -20 1831.18 118.919  30
   4  -1 -20 1732.50 120.154  27
   4   1 -20 1758.87 110.999  26
  -4  -1  20 1634.76 105.722  14
   4   1 -20 1540.45 95.9885  25
  -4   1  20 1704.46 111.037  13
  -4  -1  20 1650.80 107.950  13
   4  -1 -20 1492.49 101.690  23
   4   1 -19 222.876 236.707  32
   4  -1 -19 191.337 59.6840  31
   4  -1 -19 206.339 68.8778  30
   4  -1 -19 231.568 74.2804  27
   4   1 -19 230.442 65.2236  26
  -4  -1  19 242.978 61.8352  14
   4   1 -19 260.123 55.9191  25
   4  -1 -19 219.709 60.8747  23
  -4   1  19 231.861 58.9486  13
  -4  -1  19 256.422 58.8598  13
   4  -1 -19 88.4362 152.221  18
   4   1 -18 4276.93 503.190  32
   4  -1 -18 4168.74 167.166  31
   4  -1 -18 4099.70 170.585  30
   4  -1 -18 3995.99 173.422  27
   4   1 -18 4172.19 163.074  26
  -4  -1  18 3894.35 164.636  14
   4   1 -18 3805.43 149.592  25
  -4   1  18 3927.48 169.531  13
  -4  -1  18 3970.80 166.783  13
   4  -1 -18 3896.17 153.907  23
   4  -1 -18 3640.50 487.621  18
   4   1 -17 3359.31 454.758  32
   4  -1 -17 2884.40 143.582  31
   4  -1 -17 2919.44 151.096  27
   4   1 -17 3182.08 146.125  26
  -4  -1  17 2769.25 143.458  14
   4   1 -17 2895.41 130.908  25
  -4   1  17 2820.85 147.226  13
  -4  -1  17 3002.18 146.963  13
   4  -1 -17 2886.49 133.741  23
   4  -1 -17 2648.33 434.580  18
   4   1 -16 12542.1 843.606  32
   4  -1 -16 12013.6 295.649  31
   4  -1 -16 11829.1 306.691  27
  -4  -1  16 11757.5 302.375  14
   4   1 -16 11918.7 277.281  25
  -4   1  16 11549.0 309.457  13
  -4  -1  16 11703.9 307.153  13
   4  -1 -16 12114.2 840.704  19
   4  -1 -16 13553.7 921.409  18
   4   1 -15 25288.8 1202.26  32
   4  -1 -15 23277.9 446.851  31
   4  -1 -15 22727.7 458.686  27
  -4  -1  15 22837.6 458.595  14
  -4   1  15 22766.6 469.876  13
   4   1 -15 23341.9 423.923  25
  -4  -1  15 23457.4 466.358  13
   4  -1 -15 22967.2 1160.61  19
   4  -1 -15 23170.6 1209.79  18
   4   1 -15 22919.2 1181.46   2
   4   1 -15 23111.2 1142.43  34
   4   1 -14 22295.2 1140.58  33
   4  -1 -14 21054.6 1179.16  32
   4   1 -14 23690.7 1184.20  32
   4  -1 -14 22820.9 438.992  31
   4  -1 -14 22695.6 455.209  27
  -4  -1  14 22641.4 456.120  14
  -4   1  14 22752.0 467.596  13
   4   1 -14 22958.8 418.192  25
  -4  -1  14 22935.9 459.905  13
   4  -1 -14 23519.2 1153.69  19
   4  -1 -14 24006.9 1227.72  18
   4   1 -14 24316.9 1164.11  34
   4   1 -14 22984.3 1166.76   2
   4   1 -13 1428.16 338.287  33
   4  -1 -13 1439.63 354.511  32
   4  -1 -13 1513.32 107.704  31
  -4  -1  13 1647.62 115.153  14
  -4   1  13 1660.68 116.553  13
  -4  -1  13 1596.50 110.918  13
   4  -1 -13 1462.20 354.611  21
   4   1 -13 1437.85 326.723   2
   4  -1 -13 1740.79 353.475  19
  -4   1  13 1501.74 398.216  11
  -4  -1  13 1356.61 356.377  11
   4  -1 -13 1543.23 370.380  18
   4   1 -13 1149.31 267.172  34
   4   1 -12 6126.39 592.262  33
   4  -1 -12 5274.74 582.744  32
   4  -1 -12 5879.29 191.609  31
   4   1 -12 6369.09 622.422   2
   4  -1 -12 6423.94 629.243  18
  -4  -1  12 6001.01 204.537  14
  -4   1  12 6101.43 211.993  13
  -4  -1  12 6253.31 208.595  13
   4  -1 -12 6247.80 598.741  21
  -4  -1  12 5527.21 629.975  11
  -4   1  12 5249.62 629.844  11
   4  -1 -12 5867.22 578.747  19
   4   1 -12 6642.14 604.144  34
   4   1 -11 2948.10 423.374  33
   4  -1 -11 2717.02 430.614  32
   4  -1 -11 3351.11 138.222  31
   4   1 -11 3190.02 441.233   2
  -4  -1  11 3390.46 152.097  14
  -4   1  11 3292.56 156.158  13
   4  -1 -11 3409.39 462.280  21
   4  -1 -11 3439.29 448.675  19
  -4  -1  11 2950.76 471.255  11
  -4   1  11 3217.34 510.810  11
   4  -1 -11 3416.49 482.034  18
   4   1 -11 3234.08 445.652  34
   4   1 -10 5113.42 538.741  33
   4  -1 -10 3834.28 493.666  32
   4  -1 -10 5973.55 185.738  31
   4   1 -10 5927.57 588.412   2
  -4  -1  10 5916.35 198.650  14
  -4   1  10 5948.40 209.567  13
   4  -1 -10 6396.39 617.484  21
  -4  -1  10 6143.26 650.359  11
  -4   1  10 5028.26 625.739  11
   4  -1 -10 6515.61 608.838  19
   4  -1 -10 6100.77 607.729  18
   4   1 -10 5709.36 561.922  34
   4   1  -9 7747.62 643.565  33
   4  -1  -9 9163.38 715.458  32
   4   1  -9 8741.40 691.145   2
   4  -1  -9 8568.86 687.213  21
  -4  -1   9 8437.03 743.193  11
  -4   1   9 7231.99 721.027  11
   4  -1  -9 9089.92 694.856  19
  -4  -1   9 7933.48 625.695  37
   4  -1  -9 8910.55 714.565  18
   4   1  -9 7571.12 670.430  35
   4   1  -9 8668.88 666.368  34
   4   1  -8 15535.6 899.892  33
   4  -1  -8 14957.5 889.009  32
  -4  -1   8 14202.4 840.346  37
   4   1  -8 15196.5 894.559   2
   4  -1  -8 15170.0 919.413  21
  -4  -1   8 15144.9 970.975  11
  -4   1   8 15176.2 1024.22  11
   4  -1  -8 16388.9 952.581  18
   4   1  -8 14765.6 928.311  35
   4   1  -8 15257.3 892.410  34
   4   1  -7 10648.8 735.885  33
   4  -1  -7 10685.4 735.052  32
   4   1  -7 12474.0 796.207   2
   4  -1  -7 11855.5 803.098  21
  -4  -1   7 11605.5 844.385  11
  -4   1   7 11996.3 902.373  11
  -4  -1   7 11376.2 742.833  37
   4  -1  -7 12537.4 835.186  18
   4   1  -7 11786.1 807.479  35
   4   1  -6 29950.3 1250.30  33
   4   1  -6 29483.8 1279.68   1
   4   1  -6 29169.2 1234.33   2
   4  -1  -6 29015.8 1259.03  21
  -4  -1   6 31210.4 1378.75  11
  -4   1   6 28230.5 1375.76  11
   4  -1  -6 30796.7 1264.86  19
  -4  -1   6 29917.7 1217.35  37
   4  -1  -6 29100.0 1256.86  18
   4   1  -6 29148.5 1274.26  35
   4   1  -5 7460.22 619.398  33
   4   1  -5 7098.61 628.145   1
  -4  -1   5 7458.81 671.227  11
   4  -1  -5 7712.41 654.079  21
  -4   1   5 7964.56 748.579  11
   4  -1  -5 8401.27 689.076  19
   4  -1  -5 7470.57 639.380  18
  -4  -1   5 7245.04 594.747  37
   4   1  -5 6732.34 602.350  35
   4   1  -4 8350.03 642.669  33
   4   1  -4 7904.45 652.917   1
  -4   1   4 8345.54 739.234  11
   4  -1  -4 8722.43 683.392  21
   4  -1  -4 9314.10 682.178  19
   4  -1  -4 7958.09 634.479  18
  -4  -1   4 8455.83 642.585  37
   4   1  -4 8004.47 665.844  35
   4   1  -3 13898.8 832.806  33
   4   1  -3 13727.4 843.401   1
   4  -1  -3 14601.0 858.585  21
   4  -1  -3 13426.6 814.205  19
   4  -1  -3 11842.7 755.577  18
  -4  -1   3 13556.6 811.303  37
   4   1  -3 13054.1 833.729  35
   4  -1  -2 8394.40 660.109  21
   4  -1  -2 8395.38 649.652  19
   4   1  -2 8358.54 658.809   1
   4  -1  -2 8842.84 666.143  18
  -4  -1   2 8409.17 637.892  37
   4   1  -2 8062.41 643.240  35
   4   1  -1 3880.34 460.712   1
   4  -1  -1 4778.33 487.108  19
   4  -1  -1 4547.71 473.330  18
  -4  -1   1 4648.60 482.969  37
   4   1   0 8028.20 644.280   1
   4  -1   0 7574.28 628.605  21
   4  -1   0 7852.62 601.447  19
  -4  -1   0 7502.01 598.929  37
   4   1   1 16067.5 918.214   1
   4  -1   1 16478.6 902.223  21
   4  -1   1 16765.8 881.355  19
  -4  -1  -1 16268.3 886.156  37
   4   1   2 5847.48 559.086   1
   4  -1   2 6568.56 567.075  21
   4  -1   2 6268.17 548.323  19
  -4  -1  -2 6515.92 557.788  37
   4  -1   3 79.7331 171.251  21
   4  -1   3 222.913 201.577  19
  -4  -1  -3 125.400 163.199  37
   4  -1   4 1066.99 270.548  21
   4  -1   4 433.654 174.876  20
  -4  -1  -4 959.357 243.765  37
   4  -1   5 1789.09 337.365  21
   4  -1   5 1419.91 287.427  20
  -4  -1  -5 1560.14 299.581  37
  -4  -1  -6 2522.31 357.865  37
  -4  -1  -7 6870.07 580.533  37
  -4  -1  -8 7089.63 607.745  37
  -4  -1  -9 13060.6 317.555   6
  -4  -1  -9 13097.4 809.368  37
  -4   1  -9 12564.4 287.619  10
  -4  -1 -10 8686.92 252.520   6
  -4  -1 -10 8944.18 244.933  14
  -4  -1 -10 8434.11 227.679  41
  -4  -1 -10 8421.37 654.463  37
  -4   1 -10 8315.61 229.822  10
  -4  -1 -11 19400.3 413.551   6
  -4  -1 -11 19497.9 382.645  41
  -4   1 -11 19589.0 384.376  10
  -4  -1 -12 46455.5 755.741   6
  -4  -1 -12 45808.6 707.335  41
  -4   1 -12 44803.7 715.071  10
  -4  -1 -13 21804.9 455.643   6
  -4  -1 -13 22388.4 418.463  41
  -4   1 -13 22633.4 424.628  10
  -4  -1 -14 23076.0 469.584   6
  -4  -1 -14 23642.5 427.986  41
  -4   1 -14 22983.0 428.367  22
  -4   1 -14 23070.9 433.905  10
  -4  -1 -15 13599.9 336.788   6
  -4   1 -15 13216.0 301.887  22
  -4   1 -15 13663.8 305.376  10
  -4  -1 -16 4319.99 180.939   6
  -4   1 -16 4033.44 159.197  22
  -4   1 -16 4506.12 162.146  10
  -4  -1 -17 9185.62 267.923   6
  -4   1 -17 9326.79 244.497  10
  -4  -1 -18 2703.53 141.329   6
  -4  -1 -19 137.259 55.1877   6
  -4  -1 -20 39.7978 47.1248   6
  -4  -1 -21 166.535 52.2733   6
  -4  -1 -22 343.619 57.7998   6
  -4  -1 -23 1956.66 103.044   6
  -4  -1 -24 1698.15 92.3202   6
  -4  -1 -25 196.258 40.4606   6
  -4  -1 -26 895.046 59.9985   6
   4  -2 -24 686.698 55.1726  17
   4  -2 -24 654.428 55.9890  27
   4   2 -24 703.856 49.9776   9
   4   2 -24 595.799 48.4743  26
  -4  -2  24 632.532 51.8588  14
   4   2 -24 605.371 50.8100  25
   4  -2 -23 1462.29 82.2569  17
   4  -2 -23 1342.09 74.7604  16
   4  -2 -23 1406.30 79.8640  29
   4  -2 -23 1443.39 82.9699  27
   4   2 -23 1578.96 73.7873   9
   4   2 -23 1554.77 76.6089  26
  -4  -2  23 1471.54 78.6019  14
   4   2 -23 1542.96 76.6763  25
   4   2 -23 1533.41 74.1554  23
   4  -2 -22 16.3217 37.5269  17
   4  -2 -22-3.04128 38.7601  16
   4  -2 -22 97.3181 47.8915  29
   4  -2 -22 35.5177 39.4539  27
   4   2 -22 105.163 37.7356   9
   4   2 -22 80.5955 39.9196  26
  -4  -2  22 61.3345 38.0418  14
   4   2 -22 86.8022 38.3184  25
   4  -2 -21 365.334 56.8760  17
   4  -2 -21 341.906 59.8361  30
   4  -2 -21 288.087 55.1853  16
   4  -2 -21 376.349 58.7900  29
   4  -2 -21 371.358 55.2467  27
   4   2 -21 365.104 53.5856  26
  -4  -2  21 371.565 53.5223  14
   4   2 -21 321.223 48.0499  25
   4  -2 -20 824.344 76.4040  17
   4  -2 -20 824.625 77.3073  16
   4  -2 -20 866.393 78.5582  30
   4  -2 -20 809.482 78.4107  29
   4  -2 -20 824.916 72.8438  27
   4   2 -20 903.089 71.3583  26
  -4  -2  20 856.962 74.3602  14
   4   2 -20 812.446 67.7227  25
   4  -2 -19 33.9774 48.1696  17
   4  -2 -19 103.583 59.1935  30
   4  -2 -19 114.906 61.2694  29
   4  -2 -19 133.885 51.0649  27
   4   2 -19 121.315 47.8281  26
  -4  -2  19 139.882 50.6776  14
   4   2 -19 123.970 49.1186  25
   4  -2 -18 4916.95 176.353  17
   4  -2 -18 4596.87 169.791  31
   4  -2 -18 4824.09 173.459  30
   4  -2 -18 4648.91 177.843  29
   4   2 -18 4799.69 154.635  28
   4  -2 -18 4585.12 163.915  27
   4   2 -18 4887.83 160.724  26
  -4  -2  18 4561.43 166.479  14
   4   2 -18 4929.66 161.063  25
   4  -2 -17 2206.43 124.908  17
   4  -2 -17 2211.96 123.149  31
   4  -2 -17 2201.57 126.331  30
   4  -2 -17 2291.88 130.950  29
   4   2 -17 2326.61 110.943  28
   4  -2 -17 2243.04 117.268  27
  -4  -2  17 2308.60 123.714  14
   4   2 -17 2282.63 116.210  26
   4   2 -17 2367.84 117.153  25
   4  -2 -16 9928.92 270.403  17
   4  -2 -16 9520.02 260.304  31
   4  -2 -16 10042.7 266.182  30
   4  -2 -16 10415.1 280.960  29
   4   2 -16 10466.1 248.482  28
  -4  -2  16 9996.20 265.027  14
   4   2 -16 10553.0 257.789  26
   4   2 -16 10956.8 254.929  25
   4  -2 -15 2828.91 143.382  17
   4  -2 -15 2879.03 140.327  31
   4  -2 -15 2811.68 140.944  30
   4  -2 -15 2940.73 149.854  29
   4   2 -15 2976.84 127.854  28
  -4  -2  15 2871.22 141.208  14
   4   2 -15 3115.74 133.938  25
   4  -2 -14 768.353 85.4116  17
   4  -2 -14 819.382 84.4407  31
   4  -2 -14 869.977 86.3212  30
   4  -2 -14 741.273 93.9436  29
   4   2 -14 838.996 75.8994  28
  -4  -2  14 845.469 86.9041  14
   4   2 -14 858.688 70.1903  24
   4   2 -14 635.462 211.488   2
   4   2 -13 894.233 270.519  33
   4  -2 -13 616.262 75.9477  17
   4  -2 -13 629.268 77.3285  31
   4  -2 -13 759.949 83.8779  30
   4  -2 -13 688.380 89.4014  29
   4   2 -13 707.769 69.8098  28
  -4  -2  13 715.301 78.5909  14
   4   2 -13 710.693 66.0043  24
   4   2 -13 676.664 260.177   2
   4  -2 -13 363.511 196.069  18
   4   2 -12 55.1432 159.368  33
   4  -2 -12 137.729 54.5124  17
   4  -2 -12 218.306 61.1731  30
   4  -2 -12 226.512 70.3061  29
   4   2 -12 168.591 46.2289  28
  -4  -2  12 236.763 56.4615  14
   4   2 -12 192.110 45.8766  24
   4  -2 -12 147.456 159.829  19
   4   2 -12 294.693 176.694   2
   4  -2 -12 127.107 200.712  18
   4  -2 -11 1067.30 93.5715  17
   4   2 -11 1346.69 298.244   2
   4   2 -11 1322.75 307.528  33
   4  -2 -11 1240.11 97.8628  30
   4  -2 -11 1162.72 102.418  29
   4   2 -11 1255.38 88.0308  28
  -4  -2  11 1167.17 93.3394  14
   4   2 -11 1166.22 79.5135  24
  -4  -2  11 882.778 245.184  12
   4  -2 -11 1175.03 296.124  19
   4  -2 -11 1003.42 319.811  18
   4   2 -10 159.748 173.149  33
   4  -2 -10 133.660 55.1285  17
   4   2 -10-90.2514 151.499   2
   4  -2 -10 177.921 66.3922  29
  -4  -2  10 134.919 55.0372  14
   4   2 -10 157.740 43.6468  24
  -4  -2  10 354.733 165.884  12
   4  -2 -10 204.478 194.158  19
   4  -2 -10 120.350 235.973  18
   4  -2  -9 2161.68 123.018  17
   4   2  -9 2185.59 368.003  33
   4   2  -9 2355.98 389.803   2
   4  -2  -9 2168.72 127.781  29
  -4  -2   9 2227.49 125.221  14
   4   2  -9 2324.83 110.729  24
  -4  -2   9 2105.61 347.569  12
   4  -2  -9 2459.30 427.025  19
   4  -2  -9 1563.35 383.185  18
   4  -2  -8 2261.01 121.407  17
   4   2  -8 2488.19 391.252  33
   4   2  -8 2207.25 371.479   2
   4  -2  -8 2280.15 129.866  29
  -4  -2   8 2262.22 124.074  14
  -4  -2   8 2244.03 111.082   8
   4   2  -8 2399.95 113.297  24
  -4  -2   8 2144.59 344.649  12
   4  -2  -8 2327.97 426.741  19
   4  -2  -8 2414.88 455.855  18
   4   2  -8 2130.78 359.134  35
   4   2  -7 4639.84 532.361  33
   4  -2  -7 4905.32 181.174  29
  -4  -2   7 4738.09 179.189  14
  -4  -2   7 4871.00 165.710   8
   4   2  -7 4058.18 507.665   2
   4   2  -7 4856.80 163.663  24
  -4  -2   7 4726.43 497.555  12
   4  -2  -7 4167.65 533.708  19
   4  -2  -7 4359.34 552.975  18
   4   2  -7 5418.88 567.644  35
   4   2  -6 7580.14 682.531  33
   4  -2  -6 8332.92 239.101  29
  -4  -2   6 8355.55 238.961  14
  -4  -2   6 7864.14 214.901   8
   4   2  -6 8179.02 699.780   2
  -4  -2   6 7116.46 601.747  12
   4  -2  -6 7743.46 712.506  19
   4  -2  -6 7119.51 707.717  18
   4   2  -6 8211.75 690.055  35
   4   2  -5 28188.0 1294.18  33
  -4  -2   5 27730.7 507.635  14
   4   2  -5 29512.2 1312.07   2
  -4  -2   5 27785.4 483.341   8
  -4  -2   5 27786.8 1182.39  12
   4  -2  -5 28961.3 1319.42  19
   4  -2  -5 28147.8 1325.69  18
   4   2  -5 29068.1 1317.62  35
   4   2  -4 11807.2 876.829  33
  -4  -2   4 13457.1 315.321  14
  -4  -2   4 12886.8 294.131   8
  -4  -2   4 11828.0 761.902  12
   4  -2  -4 13479.0 931.926  19
   4  -2  -4 13496.5 921.097  18
  -4  -2   4 12889.5 855.115  37
   4   2  -4 11729.7 856.197  35
   4   2  -3 15920.2 974.387  33
  -4  -2   3 15766.0 344.434  14
  -4  -2   3 15678.8 328.752   8
   4   2  -3 15793.1 976.722   1
  -4  -2   3 14609.8 830.419  12
   4  -2  -3 15870.9 973.726  19
   4  -2  -3 15714.0 967.626  18
  -4  -2   3 15162.4 930.286  37
   4   2  -3 15564.8 958.184  35
   4   2  -2 10346.4 818.588  33
  -4  -2   2 10967.7 289.211  14
  -4  -2   2 11511.8 276.162   8
   4   2  -2 11057.1 855.097   1
   4  -2  -2 12637.7 882.158  19
   4  -2  -2 11485.6 836.814  18
  -4  -2   2 10661.8 783.057  37
   4   2  -2 9919.65 791.273  35
   4   2  -1 55520.7 1858.45  33
  -4  -2   1 54721.1 830.713  14
  -4  -2   1 55599.9 819.833   8
  -4  -2   1 54482.6 808.259  41
   4  -2  -1 51592.1 1796.52  18
  -4  -2   1 55239.1 1821.39  37
   4   2  -1 55361.9 1900.21   1
   4   2  -1 55617.2 1878.41  35
  -4  -2   0 4024.32 159.922  41
  -4  -2   0 3956.95 185.002  14
  -4  -2   0 5046.56 175.020   8
   4  -2   0 5326.16 625.233  18
  -4  -2   0 2250.50 425.288  37
  -4  -2  -1 1078.35 94.8494  14
  -4  -2  -1 1552.59 104.173   8
   4   2   1 743.008 258.963   1
  -4  -2  -1 1283.25 94.6392  41
   4  -2   1 1281.51 360.537  20
  -4  -2  -1 1178.71 280.737  37
  -4  -2  -2 2711.68 125.593   8
   4   2   2 1863.88 350.410   1
  -4  -2  -2 2603.27 121.488  41
   4  -2   2 2183.81 395.551  20
  -4  -2  -2 2527.74 380.907  37
  -4  -2  -3 1992.81 106.485   8
  -4  -2  -3 1901.78 107.007  41
  -4  -2  -3 1986.66 346.012  37
  -4  -2  -4 1370.96 93.1122  41
  -4  -2  -4 1286.16 89.2976   8
   4  -2   4 1194.00 304.896  20
  -4  -2  -4 1340.76 289.411  37
  -4  -2  -5 984.189 81.4374   8
  -4  -2  -5 1012.09 85.5912  41
   4  -2   5 505.498 254.737  20
  -4  -2  -5 892.442 271.185  37
  -4   2  -5 904.309 81.5743  10
  -4  -2  -5 836.832 86.1429   6
  -4  -2  -6 6888.77 199.459   8
  -4  -2  -6 6821.17 204.021  41
   4  -2   6 6184.95 641.160  20
  -4   2  -6 6454.64 192.577  10
  -4  -2  -6 6782.78 215.912   6
  -4  -2  -7 6702.42 197.380   8
  -4  -2  -7 6487.30 202.963  41
   4  -2   7 6312.46 652.273  20
  -4   2  -7 6449.50 192.854  10
  -4  -2  -7 6420.78 210.484   6
  -4  -2  -8 4418.39 155.420   8
  -4  -2  -8 4558.89 165.356  41
  -4   2  -8 4392.87 158.708  10
  -4  -2  -8 4233.92 173.722   6
  -4  -2  -9 7417.14 214.313  41
  -4   2  -9 7047.54 207.670  10
  -4  -2  -9 7059.89 226.129   6
  -4  -2 -10 23795.7 463.979   6
  -4  -2 -10 23699.5 439.775  41
  -4   2 -10 22697.0 433.963  10
  -4  -2 -11 21660.9 441.757   6
  -4  -2 -11 22466.3 421.493  41
  -4   2 -11 21944.3 415.190  10
  -4  -2 -12 3058.15 149.679   6
  -4  -2 -12 3242.17 140.473  41
  -4   2 -12 3365.96 149.056  10
  -4  -2 -13 4229.70 175.294   6
  -4  -2 -13 4575.48 164.388  41
  -4   2 -13 4612.54 166.860  10
  -4  -2 -14 938.282 88.7271   6
  -4  -2 -14 928.655 81.3969  41
  -4   2 -14 1149.37 92.7599  10
  -4   2 -15 346.658 62.5978  10
  -4  -2 -15 296.492 61.3502   6
  -4  -2 -15 205.225 50.9490  41
  -4  -2 -16 1308.11 97.2107   6
  -4  -2 -16 1322.54 86.0705  41
  -4   2 -16 1427.17 95.3595  10
  -4  -2 -17 1669.36 105.293   6
  -4  -2 -17 1556.91 88.9100  41
  -4   2 -17 1759.29 98.6024  10
  -4   2 -18 380.523 61.8571  10
  -4  -2 -18 317.013 59.0713   6
  -4  -2 -18 366.398 51.7287  41
  -4   2 -19 63.6546 45.0628  10
  -4  -2 -19 64.4591 41.4106   6
  -4  -2 -19 96.1435 35.9951  41
  -4   2 -20 129.824 42.9712  10
  -4  -2 -20 326.035 56.7182   6
  -4  -2 -21 813.471 69.1792   6
  -4  -2 -22 72.1329 38.2394   6
  -4  -2 -23 724.283 59.4078   6
  -4  -2 -24 2900.12 100.476   6
   4  -3 -18-42.7262 35.9837  17
   4  -3 -18 40.6862 34.0661  16
   4   3 -18 49.5166 28.2601  25
   4  -3 -17 323.818 47.3962  16
   4   3 -17 282.369 37.1600  25
   4  -3 -16 218.493 44.5826  17
   4  -3 -16 296.085 51.3979  16
   4  -3 -16 262.472 44.2862  15
   4   3 -16 334.952 41.8927  25
   4  -3 -15 747.043 68.1297  16
   4   3 -15 669.738 54.4944  28
   4  -3 -15 603.701 60.4597  15
   4   3 -15 693.511 55.3914  25
   4  -3 -15 666.967 62.6313  17
   4  -3 -14 162.637 45.2455  17
   4  -3 -14 169.388 54.6657  16
   4   3 -14 185.500 39.6502  28
   4  -3 -14 193.231 48.1614  15
   4   3 -14 125.225 39.0126  25
   4  -3 -13 1305.40 91.3247  16
   4   3 -13 1471.72 80.3947  28
   4  -3 -13 1309.13 88.0159  15
   4   3 -13 1423.93 78.2697  25
   4  -3 -13 1274.32 83.6498  17
   4  -3 -12 349.562 55.9626  17
   4  -3 -12 280.867 62.1068  16
   4   3 -12 434.389 52.8550  28
   4  -3 -12 316.500 62.8583  15
   4   3 -12 306.148 46.7768  24
   4  -3 -11 1274.92 92.6826  16
   4   3 -11 1408.24 82.4560  28
   4  -3 -11 1154.80 91.0246  15
   4   3 -11 1330.78 77.5365  24
   4   3 -11 1341.59 73.5745  22
   4  -3 -11 1197.10 82.8089  17
   4  -3 -10 272.117 56.0575  17
   4  -3 -10 332.475 65.5538  16
   4   3 -10 290.146 49.9768  28
   4  -3 -10 297.697 62.7461  15
   4   3 -10 374.806 51.2831  24
   4   3 -10 351.530 48.1850  22
   4  -3  -9 416.419 60.1522  17
   4  -3  -9 448.391 70.8875  16
   4   3  -9 413.156 54.2131  28
   4  -3  -9 358.002 68.2287  15
   4   3  -9 460.214 55.0244  24
   4   3  -9 448.681 52.4961  22
  -4  -3   9 422.456 51.4608   8
   4  -3  -8 1536.50 102.619  16
   4   3  -8 1457.82 86.8466  28
   4  -3  -8 1400.67 104.130  15
  -4  -3   8 1430.45 80.7384   8
   4   3  -8 1519.15 87.3237  24
   4   3  -8 1542.94 84.7258  22
   4  -3  -8 1368.03 87.4556  17
   4  -3  -7 2139.58 118.903  16
   4   3  -7 2158.40 106.034  28
   4  -3  -7 1981.69 121.435  15
  -4  -3   7 2068.40 98.4265   8
   4   3  -7 2179.62 105.128  24
   4   3  -7 2126.23 102.279  22
   4  -3  -6 1882.97 113.532  16
   4   3  -6 1802.03 98.7476  28
   4  -3  -6 1965.36 119.107  15
  -4  -3   6 1823.74 94.5987   8
   4   3  -6 1798.69 98.2750  24
   4   3  -6 1820.43 94.7168  22
   4  -3  -5 1508.94 102.751  16
   4  -3  -5 1588.58 111.707  15
  -4  -3   5 1433.66 87.8841   8
   4   3  -5 1446.15 91.9797  24
   4   3  -5 1549.96 91.5918  22
   4  -3  -4 2492.15 124.019  16
   4  -3  -4 2525.71 132.162  15
  -4  -3   4 2465.55 112.608   8
   4   3  -4 2454.02 113.659  24
   4   3  -4 2651.22 117.273  22
   4  -3  -3 1259.30 95.8558  16
   4  -3  -3 1531.73 112.002  15
  -4  -3   3 1429.25 90.6485   8
   4   3  -3 1327.72 90.9919  22
   4  -3  -2 4353.33 168.829  15
  -4  -3   2 4490.49 153.434   8
   4   3  -2 4414.80 152.584  22
  -4  -3   1 459.434 69.7726   8
   4   3  -1 412.334 71.8722  22
   4  -3   0 2546.43 130.488  15
  -4  -3   0 3008.48 126.965   8
   4  -3   1 2598.81 127.223  15
  -4  -3  -1 2652.89 120.347   8
   4  -3   2 2014.59 116.469  15
  -4  -3  -2 2277.15 112.982   8
  -4  -3  -3 2890.25 121.501   8
  -4  -3  -3 2532.17 112.127  41
  -4  -3  -4 447.327 59.6095   8
  -4  -3  -4 360.034 55.5214  41
  -4  -3  -5 679.692 66.2071   8
  -4  -3  -5 706.951 64.8373  41
  -4  -3  -6 426.179 56.1908   8
  -4  -3  -6 398.832 55.5000  41
  -4   3  -7 65.6569 40.4532  10
  -4  -3  -7 88.0289 38.4921   8
  -4  -3  -7 84.8010 43.6347  41
  -4   3  -8 246.009 47.6286  10
  -4  -3  -8 322.521 47.5521   8
  -4  -3  -8 284.001 50.9711  41
  -4   3  -9 187.436 46.4576  10
  -4  -3  -9 252.548 43.2837   8
  -4  -3  -9 202.438 48.3827  41
  -4   3 -10 63.9446 38.7462  10
  -4  -3 -10 81.3250 43.0942  41
  -4   3 -11 209.891 49.0042  10
  -4  -3 -11 202.006 46.6959  41
  -4  -3 -12 730.871 64.2735  41
  -4   3 -12 636.841 61.2535  10
  -4  -3 -13 3844.65 129.660  41
  -4   3 -13 3675.73 124.021  10
  -4  -3 -14 1018.22 68.8620  41
  -4   3 -14 1026.62 68.3166  10
  -4  -3 -15 1517.14 77.5795  41
  -4   3 -15 1488.55 78.7620  10
  -4  -3 -16 1412.96 71.7171  41
  -4   3 -16 1514.10 74.9785  10
  -4   3 -17 156.006 38.3249  10
  -4  -3 -17 156.368 34.1280  41
  -4   3 -18 1636.78 71.1213  10
   5   0 -24 1753.26 76.8301  30
   5   0 -24 1694.36 80.1415  27
  -5   0  24 1545.96 76.0283  13
   5   0 -24 1682.65 74.6050  23
   5   0 -23 162.974 44.3391  30
   5   0 -23 128.215 48.1052  27
  -5   0  23 125.210 42.2671  13
   5   0 -23 81.8931 43.5717  23
   5   0 -22 5187.37 150.574  30
   5   0 -22 4957.20 156.011  27
  -5   0  22 4891.54 154.336  13
   5   0 -22 4776.24 144.292  23
   5   0 -21 80.0035 52.3662  27
  -5   0  21 32.4031 41.9935  13
   5   0 -21 57.7160 41.1315  23
   5   0 -20 874.117 79.9329  27
  -5   0  20 733.019 72.8982  13
   5   0 -20 725.721 66.7360  23
   5   0 -19 160.815 58.8878  27
  -5   0  19 11.5114 48.5384  13
   5   0 -19 33.1838 45.9134  23
   5   0 -18 4959.08 166.400  31
  -5   0  18 4821.56 178.096  13
   5   0 -18 4834.52 161.079  23
   5   0 -17 76.7776 54.1623  31
  -5   0  17 138.277 62.1122  13
   5   0 -17 114.175 54.6270  23
   5   0 -16 9499.83 745.509  32
   5   0 -16 9301.35 240.220  31
  -5   0  16 9135.37 259.425  13
   5   0 -16 9212.05 231.724  23
   5   0 -15 135.691 63.7346  31
  -5   0  15 329.765 79.1411  13
   5   0 -14 14554.9 936.763  32
   5   0 -14 14968.9 325.499  31
  -5   0  14 14716.3 353.610  13
   5   0 -13 442.476 304.520  32
   5   0 -13 457.679 78.0948  31
  -5   0  13 587.971 101.057  13
   5   0 -12 37030.0 1517.32  32
   5   0 -12 38877.4 623.172  31
  -5   0  12 38398.8 670.100  13
   5   0 -11 1041.20 356.435  32
  -5   0  11 1239.31 130.132  13
   5   0 -10 41283.5 1600.53  32
  -5   0  10 41331.8 701.800  13
  -5   0  10 40320.8 629.671  41
  -5   0   9 1109.71 100.065  41
  -5   0   9 1052.23 129.229  13
   5   0  -8 36336.1 1453.04  32
  -5   0   8 35140.8 594.097  14
  -5   0   8 35891.1 631.676  13
  -5   0   8 34216.9 566.252  41
   5   0  -7 436.892 334.469  32
  -5   0   7 634.554 99.3334  14
  -5   0   7 764.107 117.287  13
  -5   0   7 569.762 87.8195  41
   5   0  -6 10312.6 751.307  32
  -5   0   6 10513.7 271.027  14
  -5   0   6 10872.8 295.098  13
  -5   0   6 10745.3 257.937  41
   5   0  -6 9948.20 771.486  34
   5   0  -5 306.781 215.342  32
  -5   0   5 154.899 71.1881  14
  -5   0   5 160.986 88.0941  13
  -5   0   5 155.488 61.6712  41
   5   0  -5 3.88332 201.649  34
   5   0  -4 1243.10 299.206  32
  -5   0   4 1251.89 93.8230  14
  -5   0   4 1357.57 104.047  13
  -5   0   4 1358.70 91.3106  41
   5   0  -4 1304.90 301.138  34
  -5   0   3-16.3703 47.8603  14
  -5   0   3-0.44867 55.2246  13
  -5   0   3-4.16249 44.9196  41
   5   0  -3 153.343 193.225  34
  -5   0   2 239.437 52.2211  14
  -5   0   2 256.762 58.8165  13
  -5   0   2 296.790 55.6682  41
  -5   0   1 11.7030 49.6404  14
  -5   0   1 36.8862 63.3687  13
  -5   0   1 45.9849 48.4131  41
  -5   0   0 1745.85 107.664  14
  -5   0   0 1620.53 112.512  13
  -5   0   0 1791.01 101.178  41
  -5   0  -1 100.298 64.0012  14
  -5   0  -1 109.358 54.3798  41
  -5   0  -2 2048.14 118.285  14
  -5   0  -2 2061.35 107.728  41
  -5   0  -3 39.4423 56.9067  14
  -5   0  -3 128.752 57.3894  41
  -5   0  -4 3548.34 155.338  14
  -5   0  -4 3585.26 140.646  41
  -5   0  -5 60.0520 57.6464  14
  -5   0  -5 101.430 51.7315  41
  -5   0  -6 1365.13 102.912  14
  -5   0  -6 1290.29 90.2533  41
  -5   0  -7 203.622 62.7857  41
  -5   0  -8 24004.4 434.395  41
  -5   0  -9 480.731 77.7637  41
   5  -1 -23 258.857 40.7175  17
   5  -1 -23 300.554 43.2408  30
   5  -1 -23 284.499 43.6107  27
   5   1 -23 281.798 38.9685  26
   5   1 -23 249.909 38.8510  23
   5  -1 -22-5.61086 36.3265  30
   5  -1 -22 3.65299 33.7002  29
   5  -1 -22 32.5564 36.6462  27
   5   1 -22 44.9982 34.6820  27
  -5  -1  22-51.1818 31.7028  14
   5   1 -22 43.9670 33.8970  26
  -5   1  22-29.4272 32.4648  13
  -5  -1  22-35.2074 30.5444  13
   5   1 -22-6.97168 33.2373  23
   5  -1 -21 254.762 49.2108  30
   5  -1 -21 145.327 45.7905  29
   5  -1 -21 117.667 43.5894  27
   5   1 -21 158.697 44.0691  27
  -5  -1  21 153.476 36.5722  14
   5   1 -21 207.210 44.4037  26
  -5   1  21 148.897 38.9387  13
  -5  -1  21 124.320 35.3913  13
   5   1 -21 142.996 40.3856  23
   5  -1 -20 100.061 47.2196  30
   5  -1 -20 101.456 44.7627  29
   5  -1 -20-0.19840 43.7927  27
   5   1 -20 61.7700 39.6164  27
  -5  -1  20 69.4724 34.6744  14
   5   1 -20 44.2090 40.3057  26
  -5   1  20 45.4319 36.5460  13
  -5  -1  20 49.7442 34.4613  13
   5   1 -20 32.3421 40.6399  23
   5  -1 -19 146.912 48.1850  30
   5  -1 -19 145.934 50.8880  29
   5  -1 -19 123.768 46.2064  27
  -5  -1  19 103.810 40.1488  14
   5   1 -19 118.139 47.2401  26
  -5   1  19 102.171 41.8492  13
  -5  -1  19 77.4301 36.9911  13
   5  -1 -18 1178.97 85.7174  30
   5  -1 -18 1099.59 86.0139  27
  -5  -1  18 1027.52 75.3872  14
   5   1 -18 1094.88 78.6663  26
  -5   1  18 1011.29 79.1622  13
  -5  -1  18 977.586 75.2506  13
   5  -1 -17 430.247 66.8687  30
   5  -1 -17 427.566 66.4798  27
  -5  -1  17 547.072 64.0783  14
   5   1 -17 470.068 62.4511  26
  -5   1  17 368.238 60.6683  13
  -5  -1  17 439.858 59.6959  13
   5   1 -16 1807.66 102.544  31
   5  -1 -16 1696.84 103.792  30
   5  -1 -16 1740.54 106.233  27
  -5  -1  16 1658.60 100.316  14
   5   1 -16 1638.62 98.6940  26
  -5   1  16 1485.33 102.798  13
  -5  -1  16 1668.50 101.186  13
   5   1 -15 1788.61 325.129  32
   5   1 -15 2002.01 109.109  31
   5  -1 -15 2039.79 113.250  30
   5  -1 -15 1862.24 110.816  27
  -5  -1  15 1964.47 111.814  14
   5   1 -15 1928.74 108.761  26
  -5   1  15 1744.26 112.524  13
  -5  -1  15 1846.04 108.426  13
   5  -1 -14 7931.24 221.612  30
   5  -1 -14 7830.85 221.038  27
  -5  -1  14 7623.90 220.990  14
  -5   1  14 7345.83 235.659  13
  -5  -1  14 7583.20 221.885  13
   5   1 -13 3825.42 499.564  32
   5  -1 -13 3967.36 157.734  27
  -5  -1  13 4083.19 165.440  14
  -5   1  13 3813.12 168.560  13
  -5  -1  13 4042.24 161.363  13
   5   1 -12 7412.73 654.368  32
  -5  -1  12 7153.32 219.865  14
  -5   1  12 6718.72 226.725  13
   5   1 -11 9847.99 734.491  33
   5   1 -11 10251.6 768.114   2
   5  -1 -11 9183.15 762.362  32
   5   1 -11 11351.5 814.235  32
  -5  -1  11 10096.2 267.752  14
  -5   1  11 9924.40 280.378  13
   5  -1 -11 10617.3 802.506  18
   5   1 -10 233.490 219.582  33
  -5  -1  10 296.749 77.0581  14
  -5   1  10 214.861 72.0401  13
   5   1 -10 319.015 211.238   2
   5  -1 -10 441.075 219.383  18
   5   1  -9 5041.88 536.549  33
   5   1  -9 5026.63 552.215   2
  -5  -1   9 5166.27 187.446  14
  -5   1   9 4944.87 193.772  13
   5  -1  -9 5154.64 555.295  19
   5  -1  -9 4801.17 569.401  18
   5   1  -8 3750.27 480.905  33
   5   1  -8 3572.38 469.047   2
  -5  -1   8 3867.43 163.687  14
  -5   1   8 3835.69 170.429  13
   5  -1  -8 4036.10 516.949  19
   5  -1  -8 3756.58 508.578  18
   5   1  -7 2917.80 441.614  33
   5   1  -7 3161.09 475.458   2
  -5  -1   7 3279.94 153.212  14
  -5  -1   7 3086.85 133.076   8
  -5   1   7 3085.84 158.076  13
  -5  -1   7 3111.95 129.482  41
   5  -1  -7 2858.14 443.035  19
   5  -1  -7 2895.65 452.156  18
   5   1  -6 13049.8 844.456  33
   5   1  -6 12926.7 849.212   2
  -5  -1   6 13593.8 323.972  14
  -5  -1   6 12827.2 293.665   8
  -5   1   6 12964.9 331.686  13
  -5  -1   6 13261.0 289.244  41
   5  -1  -6 12758.5 873.303  19
   5  -1  -6 12929.0 898.914  18
   5   1  -5 10776.9 787.646  33
  -5  -1   5 11463.9 299.064  14
  -5  -1   5 11223.4 272.104   8
   5   1  -5 9895.02 776.103   2
  -5   1   5 11169.1 310.367  13
  -5  -1   5 11018.3 264.473  41
   5  -1  -5 10982.8 828.412  19
   5  -1  -5 10714.0 814.563  18
   5   1  -4 11209.9 789.348  33
  -5  -1   4 12415.5 310.292  14
  -5  -1   4 11525.1 279.324   8
  -5   1   4 12812.3 330.236  13
   5   1  -4 11401.2 816.083   2
  -5   1   4 12910.2 283.367  41
  -5  -1   4 11227.9 271.566  41
   5  -1  -4 12558.8 864.836  19
   5  -1  -4 12770.0 858.812  18
   5   1  -3 11144.5 793.494  33
  -5  -1   3 12465.0 306.359  14
  -5  -1   3 11526.4 281.959   8
  -5   1   3 12823.2 326.715  13
  -5  -1   3 11384.1 273.879  41
   5   1  -3 11136.5 784.666   2
  -5   1   3 12208.9 273.312  41
   5  -1  -3 11197.7 811.218  19
  -5  -1   2 6215.59 210.042  14
  -5  -1   2 5713.39 188.645   8
  -5   1   2 6615.31 227.093  13
   5   1  -2 5660.65 566.351   2
  -5   1   2 6228.39 187.664  41
  -5  -1   2 5534.93 184.219  41
   5  -1  -2 6069.60 606.047  19
   5   1  -1 1894.78 362.035  33
  -5  -1   1 2373.61 135.259  14
  -5   1   1 2541.81 146.538  13
  -5  -1   1 2312.95 119.735   8
  -5   1   1 2682.83 122.556  41
  -5  -1   1 2144.81 115.948  41
   5  -1  -1 2038.06 383.574  19
  -5  -1   0 2495.84 132.216  14
  -5  -1   0 2630.89 124.271   8
  -5   1   0 2607.96 119.701  41
  -5  -1   0 2601.78 124.546  41
   5  -1   0 2535.95 411.538  19
  -5  -1  -1 1939.66 116.647  14
  -5  -1  -1 2189.10 113.944   8
  -5   1  -1 1944.04 105.554  41
  -5  -1  -1 2094.93 113.633  41
  -5  -1  -2 512.200 70.8207  14
  -5  -1  -2 683.003 73.7129   8
  -5   1  -2 652.080 71.0511  41
  -5  -1  -2 555.051 68.2728  41
  -5  -1  -3 462.197 68.9433  14
  -5  -1  -3 570.815 67.4184   8
  -5   1  -3 536.540 63.6891  41
  -5  -1  -3 677.814 71.1555  41
  -5  -1  -4 672.419 78.6110  14
  -5  -1  -4 712.594 72.3375   8
  -5   1  -4 541.221 63.5905  41
  -5  -1  -4 676.529 72.3697  41
  -5  -1  -5 1243.32 98.2216  14
  -5  -1  -5 1404.01 94.4731   8
  -5  -1  -5 1263.70 91.0792  41
  -5  -1  -6 3448.68 153.243  14
  -5  -1  -6 3598.23 143.302   8
  -5  -1  -6 3507.76 144.068  41
  -5  -1  -7 10988.5 283.736  14
  -5  -1  -7 11224.7 268.232  41
  -5  -1  -8 3099.23 145.851  14
  -5  -1  -8 3076.71 135.216  41
  -5  -1  -9 329.297 68.5492  41
  -5  -1 -10 19335.6 376.733  41
  -5  -1 -10 19763.2 413.413   6
  -5  -1 -11 2629.61 123.741  41
  -5  -1 -11 2715.45 142.923   6
  -5  -1 -12 6379.36 185.544  41
  -5  -1 -12 6183.91 212.345   6
  -5  -1 -13 7896.87 206.376  41
  -5  -1 -13 7869.71 233.929   6
  -5  -1 -14 963.243 72.9488  41
  -5  -1 -14 973.585 90.8502   6
  -5  -1 -15 3879.52 156.597   6
  -5  -1 -16 987.355 84.5662   6
  -5  -1 -17 179.676 50.2789   6
  -5  -1 -18 989.918 76.6291   6
  -5  -1 -19 1760.47 93.8320   6
  -5  -1 -20 455.604 52.7700   6
   5  -2 -19 971.870 61.9940  17
   5  -2 -19 1106.40 68.8847  16
   5  -2 -19 1033.57 66.6727  29
  -5  -2  19 1084.95 61.4181  14
   5   2 -19 1152.81 62.9815  26
   5   2 -19 1108.38 58.8877  25
   5  -2 -18 160.481 39.9447  17
   5  -2 -18 200.089 44.1552  16
   5  -2 -18 137.768 43.2127  29
   5  -2 -18 168.489 38.5479  15
  -5  -2  18 179.765 38.6393  14
   5   2 -18 281.557 42.1155  26
   5   2 -18 246.043 37.4847  25
   5  -2 -17 369.373 51.3793  17
   5  -2 -17 299.411 47.9087  30
   5  -2 -17 385.502 58.5779  16
   5  -2 -17 364.609 53.7554  29
   5   2 -17 425.924 49.9969  26
  -5  -2  17 343.925 46.7864  14
   5   2 -17 410.404 45.7857  25
   5  -2 -16 1323.30 81.4764  17
   5  -2 -16 1412.77 88.2437  16
   5  -2 -16 1097.61 74.2303  30
   5  -2 -16 1320.72 85.7063  29
  -5  -2  16 1361.84 79.0113  14
   5   2 -16 1464.11 79.8857  26
   5   2 -16 1355.64 73.9725  25
   5  -2 -15 340.213 50.4662  17
   5  -2 -15 296.210 53.2886  30
   5  -2 -15 424.051 63.7984  16
   5  -2 -15 321.827 59.3537  29
   5   2 -15 360.779 44.6079  28
  -5  -2  15 392.645 53.4854  14
   5   2 -15 336.756 50.4563  26
   5   2 -15 356.591 48.8462  25
   5  -2 -14 250.770 49.4595  17
   5  -2 -14 230.580 59.8819  16
   5  -2 -14 226.749 57.2074  29
   5   2 -14 307.539 43.5809  28
  -5  -2  14 270.741 50.2805  14
   5   2 -14 259.996 50.2778  26
   5   2 -14 274.110 46.1756  25
   5  -2 -13 535.236 62.6309  17
   5  -2 -13 572.721 72.0181  29
   5   2 -13 642.783 56.4285  28
  -5  -2  13 586.353 64.0289  14
   5   2 -13 734.183 60.7607  25
   5  -2 -12 1810.18 98.8528  17
   5  -2 -12 1796.80 108.628  29
   5   2 -12 2024.05 92.9958  28
  -5  -2  12 1935.66 102.944  14
   5   2 -12 1973.90 95.3395  25
   5  -2 -11 1264.39 98.9096  29
   5   2 -11 1515.36 83.8023  28
  -5  -2  11 1476.95 95.0244  14
   5  -2 -10 64.8259 53.6092  29
   5   2 -10 66.7437 37.7373  28
  -5  -2  10 86.4322 48.7015  14
   5  -2  -9 1019.76 88.9614  29
   5   2  -9 1152.56 77.4174  28
  -5  -2   9 1130.86 86.1637  14
  -5  -2   9 1125.20 73.7217   8
   5  -2  -8 408.356 68.1603  29
   5   2  -8 471.245 56.5718  28
  -5  -2   8 386.808 63.3158  14
  -5  -2   8 431.624 53.8259   8
   5  -2  -7 1373.33 97.8261  16
  -5  -2   7 1490.45 98.3773  14
  -5  -2   7 1391.62 85.5699   8
   5  -2  -6 2170.43 123.146  16
  -5  -2   6 2448.97 123.399  14
  -5  -2   6 2515.82 112.975   8
   5   2  -5 5609.62 560.509  33
  -5  -2   5 5962.94 191.999  14
  -5  -2   5 6144.70 180.137   8
   5   2  -4 2967.98 435.546  33
  -5  -2   4 3054.26 138.652  14
  -5  -2   4 3161.29 130.849   8
  -5  -2   3 1137.67 92.3761  14
  -5  -2   3 1053.61 82.3654   8
  -5  -2   3 1067.35 76.4089  41
  -5  -2   2 1157.18 92.1543  14
  -5  -2   2 1236.19 90.1127   8
  -5  -2   2 1157.50 83.0172  41
   5   2  -1 6024.87 584.484  33
  -5  -2   1 6247.26 193.508  14
  -5  -2   1 6618.90 192.672   8
  -5  -2   1 6726.99 187.554  41
  -5  -2   0 1629.97 109.997  14
  -5  -2   0 1388.98 94.5974   8
  -5  -2   0 1346.99 89.4359  41
  -5  -2  -1 618.922 73.6735  14
  -5  -2  -1 808.644 75.3413   8
  -5  -2  -1 713.754 72.0443  41
  -5  -2  -2 985.414 81.4227  14
  -5  -2  -2 1074.33 80.8305   8
  -5  -2  -2 1212.31 84.1613  41
  -5  -2  -3 120.010 50.9530  14
  -5  -2  -3 159.675 52.0896   8
  -5  -2  -3 105.513 48.0455  41
  -5  -2  -4 539.668 63.7099  14
  -5  -2  -4 576.404 62.4933   8
  -5  -2  -4 715.595 69.8996  41
  -5  -2  -5 817.876 72.0019  14
  -5  -2  -5 760.640 68.6333   8
  -5  -2  -5 907.951 75.2832  41
  -5  -2  -6 131.224 48.9221  14
  -5  -2  -6 152.648 45.1177   8
  -5  -2  -6 189.968 53.6049  41
  -5  -2  -7 1761.71 93.1700   8
  -5  -2  -7 2021.22 105.394  41
  -5  -2  -8 3410.28 128.560   8
  -5  -2  -8 3443.48 135.723  41
  -5  -2  -9 5887.78 165.620   8
  -5  -2  -9 6057.11 179.543  41
  -5  -2 -10 4797.18 158.380  41
  -5  -2 -11 14058.6 288.934  41
  -5  -2 -12 5646.70 165.993  41
  -5  -2 -13 11132.8 238.323  41
  -5  -2 -14 1253.38 75.2811  41
  -5  -2 -15 717.815 55.9377  41
  -5  -2 -16 97.7012 33.8333  41
  -5  -2 -17 637.491 46.8287  41
   5   3 -10 670.323 46.3686  28
   5  -3 -10 624.407 53.1875  15
   5   3 -10 625.878 45.0083  25
   5  -3  -9 455.886 47.9977  16
   5   3  -9 450.644 42.7177  28
   5  -3  -9 404.627 49.7643  15
   5   3  -9 460.474 40.9114  25
   5   3  -9 400.096 36.4210  24
   5  -3  -8 1595.86 75.8614  16
   5   3  -8 1719.40 73.1912  28
   5  -3  -8 1582.71 80.9043  15
  -5  -3   8 1662.81 68.2922   8
   5   3  -8 1650.47 67.1819  24
   5  -3  -7 2158.76 89.9313  16
   5   3  -7 2251.74 85.5333  28
   5  -3  -7 2124.96 95.1933  15
  -5  -3   7 2268.78 81.9795   8
   5   3  -7 2214.07 80.4748  24
   5   3  -6 1741.70 76.8789  28
   5  -3  -6 1735.48 88.0810  15
  -5  -3   6 1582.65 71.6454   8
   5   3  -6 1645.96 70.8239  24
   5   3  -5 226.866 41.3224  28
   5   3  -5 250.239 39.5622  24
  -5  -3   5 267.575 41.7097   8
   5   3  -4 579.414 50.9811  28
   5  -3  -4 536.995 58.2509  15
  -5  -3   4 546.513 49.9284   8
   5   3  -4 527.931 48.3569  24
   5   3  -4 601.697 46.8261  22
   5   3  -3 1191.19 66.9613  28
   5  -3  -3 1195.37 76.5970  15
  -5  -3   3 1161.20 65.1161   8
   5   3  -3 1138.36 62.6516  24
   5   3  -3 1069.35 59.7976  22
   5  -3  -2 830.757 65.9641  15
  -5  -3   2 746.030 57.6148   8
   5   3  -2 762.884 53.4685  24
   5   3  -2 743.943 52.3595  22
   5   3  -1 151.513 36.3383  24
  -5  -3   1 100.343 35.1536   8
   5   3  -1 156.453 36.2976  22
   5  -3   0 181.265 43.4601  15
   5   3   0 244.175 46.2467  24
  -5  -3   0 183.931 39.0360   8
   5   3   0 188.623 36.6002  22
  -5  -3  -1 1346.66 72.7421   8
   5   3   1 1438.38 72.8353  24
   5   3   1 1337.16 70.3569  22
  -5  -3  -2 2567.13 96.8232   8
   5   3   2 2479.39 91.9155  24
   5   3   2 2553.60 94.4006  22
  -5  -3  -3 331.460 44.2170   8
  -5  -3  -3 366.443 45.9108  41
   5   3   3 291.585 44.0966  22
  -5  -3  -4 1217.76 67.0584   8
  -5  -3  -4 1295.28 68.8721  41
   5   3   4 1107.41 66.3489  22
  -5  -3  -5 6461.57 151.297   8
  -5  -3  -5 6436.12 150.424  41
  -5  -3  -6 2193.17 83.3299   8
  -5  -3  -6 2292.73 86.9897  41
   5   3   6 2227.69 86.2406  22
  -5  -3  -7 2291.71 81.6230   8
  -5  -3  -7 2419.88 88.3778  41
  -5  -3  -8 3814.67 109.698  41
  -5  -3  -9 4544.96 118.872  41
  -5  -3 -10 876.185 52.3847  41
   6   0 -17 4.09065 28.6667  30
   6   0 -17 37.0645 34.3060  27
  -6   0  17 15.4569 26.7581  13
   6   0 -16 297.948 43.1194  30
   6   0 -16 324.659 47.5684  27
  -6   0  16 320.653 45.1845  13
   6   0 -15 59.1785 42.2081  27
  -6   0  15 24.5207 34.8162  13
   6   0 -14 1369.25 81.2095  27
  -6   0  14 1284.37 80.1008  13
   6   0 -13 149.783 49.4584  27
  -6   0  13 72.4674 43.7814  13
  -6   0  12 2163.95 107.936  13
  -6   0  11 324.789 64.4455  13
  -6   0  10 13542.8 297.557  13
  -6   0   9 751.683 91.7378  13
  -6   0   8 11585.9 276.704  13
  -6   0   7 572.478 93.6689  13
  -6   0   7 2568.32 113.524  41
  -6   0   6 4267.50 147.376  14
  -6   0   6 4087.93 161.369  13
  -6   0   5 776.828 88.4452  14
  -6   0   5 1051.46 86.4623  41
  -6   0   4 8730.66 222.171  14
  -6   0   4 9273.08 216.568  41
  -6   0   3 1449.79 106.944  14
  -6   0   3 736.971 81.3060  41
  -6   0   2 3269.11 133.702  14
  -6   0   2 3366.02 127.317  41
  -6   0   1 905.104 94.0929  14
  -6   0   1 470.561 70.4458  41
  -6   0   0 4046.90 149.194  14
  -6   0   0 4207.58 141.898  41
  -6   0  -1 694.694 91.1054  14
  -6   0  -1 437.527 66.9956  41
  -6   0  -2 3055.91 121.372  41
  -6   0  -3 540.742 72.4958  41
  -6   0  -4 7935.69 199.509  41
  -6   0  -5 479.331 68.9042  41
  -6   0  -6 10103.6 225.649  41
  -6   0  -7 406.312 59.9836  41
  -6   0  -8 11194.4 231.004  41
  -6   0  -9 202.092 43.7613  41
   6  -1 -15 853.069 64.2102  29
  -6  -1  15 907.332 57.9407  14
  -6   1  15 883.988 61.3447  13
   6  -1 -14 6831.29 173.515  29
  -6  -1  14 7103.34 166.200  14
   6   1 -14 7359.83 161.228  26
  -6   1  14 7004.56 176.118  13
  -6  -1  13 6003.76 155.801  14
   6   1 -13 6026.09 148.110  26
  -6   1  13 5777.52 163.911  13
  -6  -1  12 3629.26 123.404  14
   6   1 -12 3809.20 118.381  26
  -6   1  12 3664.75 133.390  13
  -6  -1  11 6239.72 168.089  14
   6   1 -11 6261.19 157.458  26
  -6   1  11 5865.40 175.372  13
  -6  -1  10 3153.79 120.676  14
   6   1 -10 3098.53 110.951  26
  -6  -1   9 2340.32 106.268  14
  -6  -1   8 291.804 54.0301  14
  -6  -1   7 452.558 59.9312  14
  -6  -1   7 469.542 51.2210  41
  -6  -1   6 1145.94 82.3230  14
  -6  -1   6 1041.63 67.6773  41
  -6  -1   5 829.180 78.9413  14
  -6  -1   5 674.918 59.1601  41
  -6  -1   4 1749.87 101.117  14
  -6  -1   4 1564.75 82.4403  41
  -6  -1   3 2029.65 107.680  14
  -6  -1   3 1682.96 87.2405  41
  -6  -1   2 1686.67 102.125  14
  -6  -1   2 1302.58 77.7690  41
  -6  -1   1 332.058 68.1007  14
  -6  -1   1 284.670 52.7806  41
  -6  -1   0 1360.81 92.3576  14
  -6  -1   0 1605.29 87.2245  41
  -6  -1  -1 2231.35 113.161  14
  -6  -1  -1 2172.25 100.519  41
  -6  -1  -2 1153.52 88.6143  14
  -6  -1  -2 967.002 73.9245  41
  -6  -1  -3 1984.38 105.172  14
  -6  -1  -3 1903.79 94.6628  41
  -6  -1  -4 203.159 49.5283  41
  -6  -1  -5 1241.87 78.9791  41
  -6  -1  -6 869.416 68.9393  41
  -6  -1  -7 789.056 64.9943  41
  -6  -1  -8 1594.92 84.9392  41
  -6  -1  -9 6065.12 159.389  41
  -6  -1 -10 4006.70 122.437  41
  -6  -1 -11 1287.80 68.6496  41
  -6  -1 -12 435.217 47.3975  41
   6  -2  -9-8.14465 31.6328  15
  -6  -2   9 47.8458 29.6522  14
  -6  -2   8 417.537 43.3654  14
  -6  -2   7 127.572 34.3193  14
  -6  -2   6 142.873 36.4795  14
   6   2  -5 305.231 36.0471  28
   6  -2  -5 242.466 43.9158  15
  -6  -2   5 311.203 41.9047  14
   6   2  -4 114.693 30.3080  28
   6  -2  -4 70.1543 38.1552  15
  -6  -2   4 116.346 38.1604  14
   6   2  -3 363.733 47.7821  28
   6  -2  -3 261.437 44.5174  15
  -6  -2   3 437.368 50.4359  14
  -6  -2   2 1948.30 85.2421  14
  -6  -2   2 1747.17 72.5726  41
  -6  -2   1 1156.28 75.2038  14
  -6  -2   1 985.379 59.0118  41
  -6  -2   0 3024.29 105.901  14
  -6  -2   0 2788.29 94.3904  41
  -6  -2  -1 1003.58 60.7111  41
  -6  -2  -2 644.724 53.0554  41
  -6  -2  -3 2241.13 86.3548  41
  -6  -2  -4 1805.09 77.8489  41
  -6  -2  -5 355.746 43.4231  41
  -6  -2  -6 433.938 44.3347  41
  -6  -2  -7 651.278 48.6180  41
  -6  -2  -8 664.182 47.1392  41
   0   0   0    0.00    0.00   0
TITL cr4 in P2(1)/c
REM P2(1)/c (#14 in standard setting)
CELL 1.54184   5.702908   4.034629  28.908132  90.0000  90.7510  90.0000
ZERR    2.00   0.000226   0.000143   0.001052   0.0000   0.0034   0.0000
LATT  1
SYMM -x, y+1/2,-z+1/2
SFAC C H O
UNIT 24.00 24.00 10.00
TREF
HKLF 4
END
;
_shelx_hkl_checksum              54481
_shelx_res_file
;
    shelx.res created by SHELXL-2014/7
TITL SIR2014 run in space group P c
CELL  1.54184   5.7029   4.0346  28.9081   90.000   90.751   90.000
ZERR     2.00   0.0002   0.0001   0.0010    0.000    0.003    0.000
LATT  -1
SYMM    X, - Y, 1/2 + Z
SFAC  C    H    O
UNIT  34 24 8
MERG   2
FMAP   2
PLAN   25
ACTA  134
BOND   $H
HTAB  C16 O3
CONF
L.S.  10
TEMP    25.00
WGHT    0.031300    0.116400
FVAR      13.56143
O1    3    0.542871    0.084299    0.497332    11.00000    0.04349    0.05886 =
         0.05302    0.00540   -0.00566    0.00178
O3    3    0.652300   -0.469130    0.356491    11.00000    0.05605    0.07895 =
         0.04804    0.00076   -0.00037   -0.02173
C6    1    0.608606   -0.182110    0.426462    11.00000    0.03746    0.05345 =
         0.04901    0.01136   -0.00638   -0.00858
AFIX  43
H6    2    0.463935   -0.105661    0.415758    11.00000   -1.20000
AFIX   0
C7    1    0.749005   -0.372395    0.398730    11.00000    0.04859    0.05691 =
         0.04540    0.00681   -0.00246   -0.01700
C5    1    0.687487   -0.107350    0.470532    11.00000    0.04064    0.04485 =
         0.04962    0.01001   -0.00189   -0.00667
O2    3    0.469140    0.353442    0.561747    11.00000    0.07226    0.08007 =
         0.07075   -0.00899    0.00308    0.00883
C4    1    0.902381   -0.221216    0.487615    11.00000    0.03781    0.04740 =
         0.05067    0.01352   -0.00601   -0.00844
C11   1    0.626312   -0.501601    0.275826    11.00000    0.04458    0.04542 =
         0.04934    0.00139    0.00059    0.00344
O4    3    0.933604   -0.215242    0.316228    11.00000    0.06108    0.09040 =
         0.06305    0.00863   -0.00382   -0.03145
C9    1    1.039382   -0.414462    0.458180    11.00000    0.04042    0.05277 =
         0.06458    0.01308   -0.00203   -0.00141
AFIX  43
H9    2    1.183302   -0.494042    0.468830    11.00000   -1.20000
AFIX   0
C2    1    0.827402    0.055957    0.559493    11.00000    0.06118    0.06630 =
         0.04907    0.00467   -0.01305   -0.00480
AFIX  43
H2    2    0.873433    0.111801    0.589475    11.00000   -1.20000
AFIX   0
C16   1    0.416202   -0.673678    0.279767    11.00000    0.05167    0.05629 =
         0.04882    0.00159    0.00338   -0.00449
AFIX  43
H16   2    0.357754   -0.721153    0.308909    11.00000   -1.20000
AFIX   0
C3    1    0.968519   -0.132615    0.534004    11.00000    0.04608    0.06040 =
         0.05614    0.01417   -0.01274   -0.00534
AFIX  43
H3    2    1.110353   -0.206764    0.546416    11.00000   -1.20000
AFIX   0
C10   1    0.759148   -0.379118    0.316398    11.00000    0.04837    0.04780 =
         0.05174    0.00549    0.00078    0.00173
C15   1    0.294620   -0.773826    0.240994    11.00000    0.05306    0.05960 =
         0.05844   -0.00057   -0.00071   -0.00845
AFIX  43
H15   2    0.154162   -0.887961    0.244314    11.00000   -1.20000
AFIX   0
C8    1    0.966322   -0.489234    0.413982    11.00000    0.04777    0.05700 =
         0.05767    0.00494    0.00455   -0.00414
AFIX  43
H8    2    1.059993   -0.615284    0.394626    11.00000   -1.20000
AFIX   0
C14   1    0.376278   -0.708837    0.196958    11.00000    0.05968    0.04921 =
         0.05444   -0.00239   -0.00656    0.00516
C13   1    0.587266   -0.540480    0.193219    11.00000    0.06450    0.06930 =
         0.04475    0.00497    0.00412    0.00113
AFIX  43
H13   2    0.646617   -0.496513    0.164042    11.00000   -1.20000
AFIX   0
C1    1    0.604891    0.175455    0.541651    11.00000    0.05773    0.05622 =
         0.05551    0.00370   -0.00080   -0.00680
C12   1    0.710587   -0.437145    0.231907    11.00000    0.05503    0.05537 =
         0.05909    0.00603    0.00549   -0.00721
AFIX  43
H12   2    0.851217   -0.323463    0.228570    11.00000   -1.20000
AFIX   0
C17   1    0.238701   -0.818386    0.155110    11.00000    0.08446    0.07223 =
         0.05865   -0.00600   -0.01160   -0.00307
AFIX 137
H17A  2    0.258578   -0.660461    0.130633    11.00000   -1.50000
H17B  2    0.075613   -0.833341    0.162657    11.00000   -1.50000
H17C  2    0.293854   -1.031477    0.145254    11.00000   -1.50000
AFIX   0
HKLF 4
REM  SIR2014 run in space group P c
REM R1 =  0.0297 for    1713 Fo > 4sig(Fo)  and  0.0312 for all    1780 data
REM    191 parameters refined using      2 restraints
END
WGHT      0.0310      0.1178
REM Highest difference peak  0.103,  deepest hole -0.096,  1-sigma level  0.025
Q1    1   0.8950 -0.2766  0.2367  11.00000  0.05    0.10
Q2    1   0.3485 -0.8786  0.1281  11.00000  0.05    0.10
Q3    1   1.2129 -0.8847  0.4303  11.00000  0.05    0.10
Q4    1   0.6820 -0.3631  0.4247  11.00000  0.05    0.10
Q5    1   0.1151 -0.6439  0.1491  11.00000  0.05    0.09
Q6    1   0.9409 -0.2419  0.3539  11.00000  0.05    0.09
Q7    1   0.5197 -0.3409  0.1395  11.00000  0.05    0.09
Q8    1   0.9511 -0.3942  0.4825  11.00000  0.05    0.09
Q9    1   1.2512 -0.3870  0.3616  11.00000  0.05    0.08
Q10   1   0.3982 -0.1460  0.3636  11.00000  0.05    0.08
Q11   1   1.2769 -0.5983  0.4778  11.00000  0.05    0.08
Q12   1   0.7096 -0.0824  0.4386  11.00000  0.05    0.08
Q13   1   0.9901 -0.1233  0.2772  11.00000  0.05    0.08
Q14   1   1.0541 -0.7883  0.3911  11.00000  0.05    0.08
Q15   1   0.9486 -0.2043  0.4635  11.00000  0.05    0.08
Q16   1   0.6939 -0.6972  0.1325  11.00000  0.05    0.08
Q17   1   0.0069 -0.9634  0.1285  11.00000  0.05    0.08
Q18   1   0.0086 -0.6176  0.2482  11.00000  0.05    0.07
Q19   1   1.0724 -0.8077  0.3511  11.00000  0.05    0.07
Q20   1   0.5897 -0.2338  0.3494  11.00000  0.05    0.07
Q21   1   0.2964 -0.5710  0.3203  11.00000  0.05    0.07
Q22   1   0.7652 -0.2426  0.4798  11.00000  0.05    0.07
Q23   1   1.0065 -0.4621  0.3860  11.00000  0.05    0.07
Q24   1   0.0471 -0.5675  0.1985  11.00000  0.05    0.07
Q25   1   0.6843 -0.3490  0.1577  11.00000  0.05    0.07
;
_shelx_res_checksum              9750
loop_
_space_group_symop_operation_xyz
'x, y, z'
'x, -y, z+1/2'
loop_
_atom_site_type_symbol
_atom_site_label
_atom_site_fract_x
_atom_site_fract_y
_atom_site_fract_z
_atom_site_U_iso_or_equiv
_atom_site_adp_type
_atom_site_calc_flag
_atom_site_occupancy
O O1 0.5429(3) 0.0843(6) 0.49733(7) 0.0518(5) Uani d 1
O O2 0.4691(5) 0.3534(7) 0.56175(10) 0.0743(7) Uani d 1
O O3 0.6523(4) -0.4691(6) 0.35649(8) 0.0610(6) Uani d 1
O O4 0.9336(4) -0.2152(7) 0.31623(9) 0.0716(7) Uani d 1
C C1 0.6049(6) 0.1755(9) 0.54165(12) 0.0565(8) Uani d 1
C C2 0.8274(6) 0.0560(9) 0.55949(12) 0.0590(8) Uani d 1
H H2 0.8734 0.1118 0.5895 0.071 Uiso calc 1
C C3 0.9685(5) -0.1326(8) 0.53400(11) 0.0543(8) Uani d 1
H H3 1.1104 -0.2068 0.5464 0.065 Uiso calc 1
C C4 0.9024(5) -0.2212(7) 0.48762(11) 0.0454(6) Uani d 1
C C5 0.6875(5) -0.1073(7) 0.47053(10) 0.0451(7) Uani d 1
C C6 0.6086(5) -0.1821(7) 0.42646(11) 0.0467(7) Uani d 1
H H6 0.4639 -0.1057 0.4158 0.056 Uiso calc 1
C C7 0.7490(5) -0.3724(8) 0.39873(10) 0.0503(7) Uani d 1
C C8 0.9663(5) -0.4892(8) 0.41398(11) 0.0541(8) Uani d 1
H H8 1.0600 -0.6153 0.3946 0.065 Uiso calc 1
C C9 1.0394(5) -0.4145(8) 0.45818(12) 0.0526(8) Uani d 1
H H9 1.1833 -0.4940 0.4688 0.063 Uiso calc 1
C C10 0.7591(5) -0.3791(8) 0.31640(11) 0.0493(7) Uani d 1
C C11 0.6263(5) -0.5016(7) 0.27583(11) 0.0464(6) Uani d 1
C C12 0.7106(6) -0.4371(8) 0.23191(11) 0.0565(8) Uani d 1
H H12 0.8512 -0.3235 0.2286 0.068 Uiso calc 1
C C13 0.5873(6) -0.5405(9) 0.19322(11) 0.0595(9) Uani d 1
H H13 0.6466 -0.4965 0.1640 0.071 Uiso calc 1
C C14 0.3763(6) -0.7088(8) 0.19696(11) 0.0545(8) Uani d 1
C C15 0.2946(6) -0.7738(8) 0.24099(12) 0.0570(8) Uani d 1
H H15 0.1542 -0.8880 0.2443 0.068 Uiso calc 1
C C16 0.4162(5) -0.6737(8) 0.27977(11) 0.0522(7) Uani d 1
H H16 0.3578 -0.7212 0.3089 0.063 Uiso calc 1
C C17 0.2387(8) -0.8184(10) 0.15511(14) 0.0719(10) Uani d 1
H H17A 0.2586 -0.6605 0.1306 0.108 Uiso calc 1
H H17B 0.0756 -0.8333 0.1627 0.108 Uiso calc 1
H H17C 0.2939 -1.0315 0.1453 0.108 Uiso calc 1
loop_
_atom_site_aniso_label
_atom_site_aniso_U_11
_atom_site_aniso_U_22
_atom_site_aniso_U_33
_atom_site_aniso_U_12
_atom_site_aniso_U_13
_atom_site_aniso_U_23
O1 0.0435(11) 0.0589(13) 0.0530(13) 0.0018(9) -0.0057(10) 0.0054(10)
O2 0.0723(16) 0.0801(18) 0.0708(16) 0.0088(14) 0.0031(13) -0.0090(14)
O3 0.0560(13) 0.0790(16) 0.0480(12) -0.0217(11) -0.0004(10) 0.0008(11)
O4 0.0611(14) 0.0904(19) 0.0631(14) -0.0315(13) -0.0038(12) 0.0086(13)
C1 0.0577(19) 0.0562(18) 0.0555(18) -0.0068(16) -0.0008(16) 0.0037(15)
C2 0.061(2) 0.066(2) 0.0491(17) -0.0048(16) -0.0131(16) 0.0047(15)
C3 0.0461(17) 0.0604(18) 0.0561(18) -0.0053(14) -0.0127(14) 0.0142(16)
C4 0.0378(14) 0.0474(15) 0.0507(16) -0.0084(11) -0.0060(12) 0.0135(12)
C5 0.0406(15) 0.0448(15) 0.0496(16) -0.0067(11) -0.0019(13) 0.0100(13)
C6 0.0375(14) 0.0535(16) 0.0490(15) -0.0086(12) -0.0064(12) 0.0114(13)
C7 0.0486(17) 0.0569(17) 0.0454(16) -0.0170(13) -0.0025(14) 0.0068(13)
C8 0.0478(17) 0.0570(18) 0.0577(19) -0.0041(13) 0.0045(15) 0.0049(14)
C9 0.0404(16) 0.0528(18) 0.0646(19) -0.0014(12) -0.0020(15) 0.0131(14)
C10 0.0484(17) 0.0478(15) 0.0517(17) 0.0017(13) 0.0008(13) 0.0055(13)
C11 0.0446(15) 0.0454(15) 0.0493(16) 0.0034(12) 0.0006(13) 0.0014(12)
C12 0.0550(18) 0.0554(18) 0.0591(19) -0.0072(13) 0.0055(16) 0.0060(15)
C13 0.064(2) 0.069(2) 0.0448(17) 0.0011(16) 0.0041(16) 0.0050(15)
C14 0.0597(18) 0.0492(17) 0.0544(18) 0.0052(14) -0.0066(15) -0.0024(14)
C15 0.0531(17) 0.0596(19) 0.0584(19) -0.0084(14) -0.0007(15) -0.0006(15)
C16 0.0517(17) 0.0563(18) 0.0488(16) -0.0045(14) 0.0034(14) 0.0016(14)
C17 0.084(3) 0.072(2) 0.059(2) -0.0031(19) -0.0116(19) -0.0060(18)
loop_
_atom_type_symbol
_atom_type_description
_atom_type_scat_dispersion_real
_atom_type_scat_dispersion_imag
_atom_type_scat_source
C C 0.0181 0.0091 'International Tables Vol C Tables 4.2.6.8 and 6.1.1.4'
H H 0.0000 0.0000 'International Tables Vol C Tables 4.2.6.8 and 6.1.1.4'
O O 0.0492 0.0322 'International Tables Vol C Tables 4.2.6.8 and 6.1.1.4'
loop_
_geom_angle_atom_site_label_1
_geom_angle_atom_site_label_2
_geom_angle_atom_site_label_3
_geom_angle
C1 O1 C5 121.7(2)
C10 O3 C7 119.7(2)
O2 C1 O1 116.6(3)
O2 C1 C2 126.2(4)
O1 C1 C2 117.2(3)
C3 C2 C1 121.7(3)
C3 C2 H2 119.2
C1 C2 H2 119.2
C2 C3 C4 120.3(3)
C2 C3 H3 119.8
C4 C3 H3 119.8
C5 C4 C9 117.6(3)
C5 C4 C3 118.0(3)
C9 C4 C3 124.4(3)
O1 C5 C6 116.9(3)
O1 C5 C4 121.1(3)
C6 C5 C4 122.0(3)
C7 C6 C5 118.4(3)
C7 C6 H6 120.8
C5 C6 H6 120.8
C6 C7 O3 116.2(3)
C6 C7 C8 121.8(3)
O3 C7 C8 121.7(3)
C9 C8 C7 118.6(3)
C9 C8 H8 120.7
C7 C8 H8 120.7
C8 C9 C4 121.6(3)
C8 C9 H9 119.2
C4 C9 H9 119.2
O4 C10 O3 122.1(3)
O4 C10 C11 127.0(3)
O3 C10 C11 110.9(2)
C12 C11 C16 118.5(3)
C12 C11 C10 119.0(3)
C16 C11 C10 122.5(3)
C13 C12 C11 120.4(3)
C13 C12 H12 119.8
C11 C12 H12 119.8
C12 C13 C14 121.3(3)
C12 C13 H13 119.4
C14 C13 H13 119.4
C15 C14 C13 117.8(3)
C15 C14 C17 120.4(3)
C13 C14 C17 121.8(3)
C16 C15 C14 121.5(3)
C16 C15 H15 119.2
C14 C15 H15 119.2
C15 C16 C11 120.5(3)
C15 C16 H16 119.8
C11 C16 H16 119.8
C14 C17 H17A 109.5
C14 C17 H17B 109.5
H17A C17 H17B 109.5
C14 C17 H17C 109.5
H17A C17 H17C 109.5
H17B C17 H17C 109.5
loop_
_geom_bond_atom_site_label_1
_geom_bond_atom_site_label_2
_geom_bond_distance
O1 C1 1.375(4)
O1 C5 1.377(3)
O2 C1 1.210(4)
O3 C7 1.389(4)
O3 C10 1.366(4)
O4 C10 1.195(4)
C2 C1 1.446(5)
C2 C3 1.336(5)
C2 H2 0.9300
C3 H3 0.9300
C4 C3 1.434(4)
C4 C9 1.400(4)
C5 C4 1.393(4)
C6 C5 1.379(4)
C6 C7 1.375(4)
C6 H6 0.9300
C7 C8 1.392(5)
C8 H8 0.9300
C9 C8 1.372(5)
C9 H9 0.9300
C11 C10 1.473(5)
C11 C12 1.388(4)
C11 C16 1.391(4)
C12 H12 0.9300
C13 C12 1.378(5)
C13 H13 0.9300
C14 C13 1.387(5)
C14 C17 1.500(5)
C15 C14 1.386(4)
C15 H15 0.9300
C16 C15 1.371(5)
C16 H16 0.9300
C17 H17A 0.9600
C17 H17B 0.9600
C17 H17C 0.9600
loop_
_geom_hbond_atom_site_label_D
_geom_hbond_atom_site_label_H
_geom_hbond_atom_site_label_A
_geom_hbond_site_symmetry_A
_geom_hbond_distance_DH
_geom_hbond_distance_HA
_geom_hbond_distance_DA
_geom_hbond_angle_DHA
_geom_hbond_publ_flag
C16 H16 O3 . 0.93 2.38 2.708(4) 100.2 y
C1 O2 Cg1 1_565 1.210(4) 3.294(3) 3.431(4) 86.1(2) y
C1 O2 Cg4 1_565 1.210(4) 3.613(3) 3.412(4) 70.8(2) y
loop_
_geom_torsion_atom_site_label_1
_geom_torsion_atom_site_label_2
_geom_torsion_atom_site_label_3
_geom_torsion_atom_site_label_4
_geom_torsion
C5 C6 C7 O3 173.7(2)
C5 C6 C7 C8 -0.1(4)
C10 O3 C7 C6 120.7(3)
C10 O3 C7 C8 -65.6(4)
C1 O1 C5 C6 -179.5(3)
C1 O1 C5 C4 0.9(4)
C7 C6 C5 O1 179.8(2)
C7 C6 C5 C4 -0.6(4)
O1 C5 C4 C9 -179.9(2)
C6 C5 C4 C9 0.6(4)
O1 C5 C4 C3 0.0(4)
C6 C5 C4 C3 -179.5(3)
C5 C4 C9 C8 0.2(4)
C3 C4 C9 C8 -179.7(3)
C12 C11 C16 C15 -0.7(5)
C10 C11 C16 C15 177.9(3)
C1 C2 C3 C4 0.3(5)
C5 C4 C3 C2 -0.6(4)
C9 C4 C3 C2 179.3(3)
C7 O3 C10 O4 -0.8(5)
C7 O3 C10 C11 -179.0(3)
C12 C11 C10 O4 2.7(5)
C16 C11 C10 O4 -175.8(3)
C12 C11 C10 O3 -179.2(3)
C16 C11 C10 O3 2.3(4)
C11 C16 C15 C14 0.2(5)
C4 C9 C8 C7 -0.9(4)
C6 C7 C8 C9 0.8(4)
O3 C7 C8 C9 -172.6(3)
C16 C15 C14 C13 0.5(5)
C16 C15 C14 C17 -179.4(3)
C15 C14 C13 C12 -0.8(5)
C17 C14 C13 C12 179.1(3)
C5 O1 C1 O2 177.6(3)
C5 O1 C1 C2 -1.2(4)
C3 C2 C1 O2 -178.0(3)
C3 C2 C1 O1 0.6(5)
C14 C13 C12 C11 0.4(5)
C16 C11 C12 C13 0.4(5)
C10 C11 C12 C13 -178.2(3)

_cod_database_fobs_code 1549666
