#------------------------------------------------------------------------------
#$Date: 2024-01-03 17:11:50 +0200 (Wed, 03 Jan 2024) $
#$Revision: 288647 $
#$URL: file:///home/coder/svn-repositories/cod/cif/1/54/94/1549468.cif $
#------------------------------------------------------------------------------
#
# This file is available in the Crystallography Open Database (COD),
# http://www.crystallography.net/
#
# All data on this site have been placed in the public domain by the
# contributors.
#
data_1549468
loop_
_publ_author_name
'Birger Dittrich'
'Justin Bergmann'
'Peter Roloff'
'Guido J. Reiss'
_publ_section_title
;
 New Polymorphs of the Phase-Change Material Sodium Acetate
;
_journal_name_full               Crystals
_journal_page_first              213
_journal_paper_doi               10.3390/cryst8050213
_journal_volume                  8
_journal_year                    2018
_chemical_formula_moiety         'C2 H3 Na O2'
_chemical_formula_sum            'C2 H3 Na O2'
_chemical_formula_weight         82.03
_chemical_name_common            'Sodium Acetate'
_chemical_name_systematic        'Sodium Acetate'
_space_group_crystal_system      tetragonal
_space_group_IT_number           129
_space_group_name_Hall           '-P 4a 2a'
_space_group_name_H-M_alt        'P 4/n m m :2'
_symmetry_space_group_name_Hall  '-P 4a 2a'
_symmetry_space_group_name_H-M   'P 4/n m m :2'
_atom_sites_solution_hydrogens   difmap
_atom_sites_solution_primary     direct
_audit_conform_dict_location     ftp://ftp.iucr.org/pub/cif_core.dic
_audit_conform_dict_name         cif_core.dic
_audit_conform_dict_version      2.3
_audit_creation_date             '14-Mar-03 T13:40:03-00:00'
_audit_creation_method           SHELXL-2014/6
_cell_angle_alpha                90
_cell_angle_beta                 90
_cell_angle_gamma                90
_cell_formula_units_Z            2
_cell_length_a                   4.156(3)
_cell_length_b                   4.156
_cell_length_c                   10.053(7)
_cell_measurement_reflns_used    5837
_cell_measurement_temperature    100(2)
_cell_measurement_theta_max      37.9498
_cell_measurement_theta_min      4.0540
_cell_volume                     173.64(17)
_computing_cell_refinement       'SAINT V8.38A (Bruker AXS, 2014)'
_computing_data_collection       'APEX2 v2014.11-0'
_computing_data_reduction        'SAINT V8.38A (Bruker AXS, 2014)'
_computing_molecular_graphics    'H\"ubschle, (2011)'
_computing_publication_material  'enCIFer 1.5.1, CCDC, 2012'
_computing_structure_refinement  'XDLSM, Volkov et al, (2006)'
_computing_structure_solution    'SHELXT (Sheldrick, 2014)'
_diffrn_ambient_temperature      100(2)
_diffrn_measured_fraction_theta_full 1.000
_diffrn_measured_fraction_theta_max 0.997
_diffrn_measurement_device_type  'Huber Type 512 four circle diffractometer'
_diffrn_measurement_method       '\w and \f scans'
_diffrn_radiation_type           MoK\a
_diffrn_radiation_wavelength     0.71073
_diffrn_reflns_av_R_equivalents  0.0460
_diffrn_reflns_av_unetI/netI     0.0154
_diffrn_reflns_Laue_measured_fraction_full 1.000
_diffrn_reflns_Laue_measured_fraction_max 0.997
_diffrn_reflns_limit_h_max       7
_diffrn_reflns_limit_h_min       -7
_diffrn_reflns_limit_k_max       6
_diffrn_reflns_limit_k_min       -6
_diffrn_reflns_limit_l_max       17
_diffrn_reflns_limit_l_min       -17
_diffrn_reflns_number            15026
_diffrn_reflns_point_group_measured_fraction_full 1.000
_diffrn_reflns_point_group_measured_fraction_max 0.997
_diffrn_reflns_theta_full        25.242
_diffrn_reflns_theta_max         38.710
_diffrn_reflns_theta_min         2.026
_diffrn_source                   'Incoatec 3.0 microsource'
_exptl_absorpt_coefficient_mu    0.237
_exptl_absorpt_correction_T_max  0.6507
_exptl_absorpt_correction_T_min  0.5694
_exptl_absorpt_correction_type   empirical
_exptl_absorpt_process_details
;
SADABS version 2016/2, multi-scan. (G. M. Sheldrick, 2016)
;
_exptl_crystal_colour            colorless
_exptl_crystal_density_diffrn    1.569
_exptl_crystal_description       plate
_exptl_crystal_F_000             84.0
_exptl_crystal_size_max          0.54
_exptl_crystal_size_mid          0.45
_exptl_crystal_size_min          0.12
_refine_diff_density_max         0.482
_refine_diff_density_min         -0.34
_refine_diff_density_rms         0.058
_refine_ls_extinction_method     none
_refine_ls_goodness_of_fit_ref   1.7752
_refine_ls_matrix_type           full
_refine_ls_number_parameters     17
_refine_ls_number_reflns         306
_refine_ls_number_restraints     0
_refine_ls_R_factor_all          0.037
_refine_ls_R_factor_gt           0.027
_refine_ls_shift/su_max          0
_refine_ls_structure_factor_coef Fsqd
_refine_ls_weighting_details
;    calc w2 = q/[s^2^(Fo^2^) + (0.03 P)^2^ + 0.05 P + 0.00 + 0.00 sin(th)]
     where P = (0.3333 Fo^2^ + 0.6667 Fc^2^)
           q = 1.0
;
_refine_ls_weighting_scheme      calc
_refine_ls_wR_factor_ref         0.078
_reflns_Friedel_coverage         0.000
_reflns_Friedel_fraction_full    .
_reflns_Friedel_fraction_max     .
_reflns_number_gt                307
_reflns_number_total             342
_reflns_threshold_expression     'I > 2\s(I)'
_iucr_refine_instructions_details
;
!!!!!!!!!!!!!!!!!!!!!!!!!!!!!!!!!!!!!!!!!!!!!!!!!!!!!!!!!!!!!!!!!!!!!!!!!!!!!!!
! <<< X D MASTER FILE >>> $Revision: 6.03 (Jul 23 2008)$             10-Jan-01!
!!!!!!!!!!!!!!!!!!!!!!!!!!!!!!!!!!!!!!!!!!!!!!!!!!!!!!!!!!!!!!!!!!!!!!!!!!!!!!!
TITLE MERG    
CELL     4.1563    4.1563   10.0533     90.000    90.000    90.000
WAVE     0.71073
CELLSD    0.0030    0.0000   0.0070      0.000     0.000     0.000
LATT  C P
SYMM     0.50000 - Y ,              X ,              Z
SYMM     0.50000 - X ,    0.50000 - Y ,              Z
SYMM               Y ,    0.50000 - X ,              Z
SYMM     0.50000 + X ,            - Y ,            - Z
SYMM     0.50000 + Y ,    0.50000 + X ,            - Z
SYMM             - X ,    0.50000 + Y ,            - Z
SYMM             - Y ,            - X ,            - Z
BANK VM 
!!!!!!!!!!!!!!!!!!!!!!!!!!!!!!!!!!!!!!!!!!!!!!!!!!!!!!!!!!!!!!!!!!!!!!!!!!!!!!!
MODULE *XDLSM
SELECT  *model 4 2 1 0 based_on F\^2 test 
SELECT  cycle 10 dampk 1. cmin 0.6 cmax 1. eigcut 1.d-09 convcrit 0.0
SAVE  deriv lsqmat *cormat
SOLVE  *inv diag *cond
!------------------------------------------------------------------------------
SCAT CORE SPHV DEFV   1S  2S  3S  4S  2P  3P  4P  3D  4D  4F
5S  5P  6S  6P  5D  7S  6D  5F  DELF'   DELF''  NSCTL
Na   CHFW CHFW CSZD    2   2  -1   0   6   0   0   0   0   0
0   0   0   0   0   0   0   0  0.0360  0.0250  0.363
O    CHFW CHFW CSZD    2  -2   0   0  -4   0   0   0   0   0
0   0   0   0   0   0   0   0  0.0110  0.0060  0.580
C    CHFW CHFW CSZD    2  -2   0   0  -2   0   0   0   0   0
0   0   0   0   0   0   0   0  0.0030  0.0020  0.665
H    CHFW CHFW CSZD   -1   0   0   0   0   0   0   0   0   0
0   0   0   0   0   0   0   0  0.0000  0.0000 -0.374
END SCAT
!------------------------------------------------------------------------------
ATOM     ATOM0    AX1 ATOM1    ATOM2   AX2 R/L TP TBL KAP LMX SITESYM  CHEMCON
Na(1)    O(3)      Z  Na(1)    C(1)     Y   R   2  1   1   4  _6
O(3)     C(1)      X  O(3)     C(2)     Y   R   2  2   2   4  _mz
C(1)     O(3)      X  C(1)     DUM1     Y   R   2  3   3   4  _mz
C(2)     C(1)      Z  C(2)     H(2B)    X   R   2  3   4   4  _3my
H(2A)    C(2)      Z  H(2A)    H(2B)    Y   R   1  4   5   4  _6
H(2B)    C(2)      Z  H(2B)    H(2A)    Y   R   1  4   5   4  _6
H(2C)    C(2)      Z  H(2C)    H(2A)    Y   R   1  4   5   4  _6
DUM0       0.000000  0.000000  0.000000
DUM1 0.25        0.51799        0.35745 
END ATOM
GROUP2  Na(1) O(3) C(1) C(2) H(2A) H(2B)
KEEP CHARGE GROUP2
!------------------------------------------------------------------------------
!GROUP2   atom1 atom2 ...
KEEP     kappa  1  2  3  4
KEEP     charge group1
!KEEP     rigid group1
!RESET    bond C(1) H(1) 1.09 ...
! RESET BOND C(2) H(2A) 1.091370! it was 0.979970 A before.
! RESET BOND C(2) H(2B) 1.091370! it was 0.979960 A before.
! RESET BOND C(2) H(2B) 1.091370! it was 0.979960 A before.

! Special position constraints for Na1
! x = -0.2500              y = -0.2500              U22 = 1.0
* U11          U23 = 0                  U13 = 0
! U12 = 0                  sof = 0.12500            
! Input constraints retained (at least in part) for  sof

! Special position constraints for O3
! x =  0.2500              U13 = 0                  U12 = 0 
sof = 0.50000
! Input constraints retained (at least in part) for  sof

! Special position constraints for C1
! x =  0.2500              y =  0.2500              U22 = 1.0
* U11          U23 = 0                  U13 = 0
! U12 = 0                  sof = 0.12500            
! Input constraints retained (at least in part) for  sof

! Special position constraints for C2
! x =  0.2500              y =  0.2500              U22 = 1.0
* U11          U23 = 0                  U13 = 0
! U12 = 0                  sof = 0.12500            
! Input constraints retained (at least in part) for  sof


WEIGHT   0.03     .05 .0 .0 .0 0.3333
!SWAT g 0.00 U 0.00
SKIP      *obs -500. 1.d10  *sigobs 2. 1.d06 sinthl 0. 2.
PRINT    sinthl .0 2.  *obs -500. 15. delta 0. 10. *del% 80 100
extcn 80. 100. *abssc
!EXTCN    *iso aniso *type_1 type_2 type_3 distr_g *distr_l msc_0  msc_1
DMSDA    1.1  1.8
FOUR     fmod1 4 2 0 0  fmod2 -1 2 0 0
!CON      num1 par1/iat1 num2 par2/iat2 ... = num0


!These are hydrogen Uiso constraints like in SHELXL 
CON 0.900000 U11/4  0.900000 U22/4  0.900000 U33/4   -1 U11/5 = 0
! Atom 4 is C(2), atom 5 is H(2A)
CON 0.900000 U11/4  0.900000 U22/4  0.900000 U33/4   -1 U11/6 = 0
! Atom 4 is C(2), atom 6 is H(2B)
!These are riding hydrogen constraints.

!These are riding hydrogen constraints.
!CON 1.0 X/4  -1.0 X/5 = 0
!CON 1.0 Y/4 -1.0 Y/5 = 0
CON 1.0 Z/4 -1.0 Z/5 = 0! Atom 4 is C(2), atom 5 is H(2A)
!CON 1.0 X/4  -1.0 X/6 = 0
!CON 1.0 Y/4 -1.0 Y/6 = 0
CON 1.0 Z/4 -1.0 Z/6 = 0! Atom 4 is C(2), atom 6 is H(2B)
!CON 1.0 X/4  -1.0 X/7 = 0
!CON 1.0 Y/4 -1.0 Y/7 = 0
CON 1.0 Z/4 -1.0 Z/7 = 0! Atom 4 is C(2), atom 7 is H(2C)

CON 1.0 U22/1 -1.0 U11/1 =0
CON 1.0 U11/3 -1.0 U22/3 =0
CON 1.0 U11/4 -1.0 U22/4 =0

!------------------------------------------------------------------------------
KEY     XYZ --U2-- ----U3---- ------U4------- M- -D- --Q-- ---O--- ----H----
Na(1)   001 111000 0000000000 000000000000000 00 000 00000 0000000 000000000
O(3)    011 111001 0000000000 000000000000000 00 000 00000 0000000 000000000
C(1)    001 111000 0000000000 000000000000000 00 000 00000 0000000 000000000
C(2)    001 111000 0000000000 000000000000000 00 000 00000 0000000 000000000
H(2A)   001 100000 0000000000 000000000000000 00 000 00000 0000000 000000000
H(2B)   001 100000 0000000000 000000000000000 00 000 00000 0000000 000000000
H(2C)   001 100000 0000000000 000000000000000 00 000 00000 0000000 000000000
KAPPA   000000
KAPPA   000000
KAPPA   000000
KAPPA   000000
KAPPA   000000
EXTCN   0000000
OVTHP   0
SCALE   1
END KEY
!------------------------------------------------------------------------------
END XDLSM
!!!!!!!!!!!!!!!!!!!!!!!!!!!!!!!!!!!!!!!!!!!!!!!!!!!!!!!!!!!!!!!!!!!!!!!!!!!!!!!
MODULE XDFFT
SELECT   *fobs *fmod1 fmod2  snlmin 0. snlmax 2.  sig 3. phase 0.
SELECT   gridsize 0.2 scale 1. npeak 10  nhole 10  neutron  gridf  peakf
END XDFFT
!!!!!!!!!!!!!!!!!!!!!!!!!!!!!!!!!!!!!!!!!!!!!!!!!!!!!!!!!!!!!!!!!!!!!!!!!!!!!!!
MODULE *XDFOUR
SELECT   *fobs *fmod1 fmod2 print snlmin 0. snlmax 2.
GRID     3-points perp *cryst
ATOM     label ato(1) symm 1 trans 0 0 0 *mark on plot
ATOM     label ato(2) symm 1 trans 0 0 0 *mark on plot
ATOM     label ato(3) symm 1 trans 0 0 0 *mark on plot
LIMITS   xmin 0.0 xmax 1.0 nx 100
LIMITS   ymin 0.0 ymax 1.0 ny 100
LIMITS   zmin 0.0 zmax 1.0 nz 100
END XDFOUR
!!!!!!!!!!!!!!!!!!!!!!!!!!!!!!!!!!!!!!!!!!!!!!!!!!!!!!!!!!!!!!!!!!!!!!!!!!!!!!!
MODULE XDPROP
!
!-----General section-----
!
SIZE     napl 8
MODEL    iam *multipole
! *au will print results in a.u. but input is always given in Ang
SELECT   numdx  esd  au  verbose 1
PROPERTY rho gradrho d2rho nucpot core valence defden *esp ef efg
!
! Define the cluster of atoms to be included:
!CRYSTAL alim [amin] [amax] blim [bmin] [bmax] clim [cmin] [cmax]
APPLY    symm 3 translations 0 0 0 O(3) 
!GROUP    ato(1) ato(2) ... (atom label)
!OMIT     1 2 ... 4 -8 (number in atom list)
!
! Parameters for topological analysis:
SELECT   cpcut 1.0d-6 lmax 4  nstep 20  rcut 4.0 
SELECT   scale 0.05  dx 0.001  ds 0.005 
SELECT   rEcrit 0.00001  rNcrit 0.00001
!
! Parameters for the integration routine:
ODESOLVE *rk bs eps 1.D-06 stepi 0.01
QUADINT  iqt 2  Nrad 50  Nang 194  Becke  *Stock
!
! Method for calculation of ESP/EF/EFG
EPFG  EP aMM mMM *EPMM  rCrit1 6.0 rCrit2 15.
! Origin of the coordinate system for molecular moments
ORIGIN  *mass charge geom ucell
!
! Export atomic moments to Orient/MIN16
!EXPORT  *orient *min16 lmax [4] nmol [k] natmol [i=1..k]
!
!------End of General section-----
!
! Atomic/Molecular moments from pseudoatoms :
MULTMOM
!
! Calculate d-orbital populations for transition metals
!D-POP use *Pv *P00
!
! Atomic/Molecular from STOCKHOLDER partitioning:
!STOCKMOM atoms all *unique select ato(1) ato(2) ...
!
! Evaluation of intermolecular interaction energy and lattice energy:
!
!ATATPOT  *EXREP spack  wilcox lj *saptP  saptA
!ATATPOT  *DISPR spack  wilcox lj *saptP  saptA
!ATATPOT   INDUC                   saptP  saptA
!HBONDS   atoH(1) ato(1) rHBOND(1) atoH(2) ato(2) rHBOND(2) ...
!HPOLAR   atoH(1) atoH(2) ....
!
!INTEREN  frag 1  nat1 -nat2 *neutral
!INTEREN  frag 2  nat3 -nat4 *neutral
!INTEREN  EP aMM  mMM *EPMM  rCrit1 4. rCrit2 15.
!
!LATEN    frag1 1 -10  *neutral
!LATEN    radii  0. 100. 
!LATEN    EP aMM  mMM *EPMM  rCrit1 4. rCrit2 15.
!
NUCPROP (*)all (*)selected [n1] [n2] [-n3] ...
!
! Atomic charges fitting electrostatic potential:
!QFIT     grid 11 length 7.0 width 1.0 constrain false
!CONSTRAIN ato(1) ato(2) ...
!
! Function plots:
!POINT    x y z
!LINE     ato(1) ato(2)  npts 50
!LINE     points x1 y1 z1 x2 y2 z2 npts 50
!VECPLOT  *labels *zcut 1.2 omitrad 0.2 *vcut 0.8  vscale 1. xytol 0.4
!MAP      atoms ato(1) ato(2) ato(3) npts 50 stepsize 0.1
!MAP      bvect1 x1 y1 z1 bvect2 x2 y2 z2 cen x0 y0 z0 npts 50 stepsize 0.1
CUBE     centre  0.31707     0.04656     3.20784   npts 100  stepsize 0.1
!CUBE     ato(1) ato(2)  npts 20  stepsize 0.1
!CUBE     hirshf xd_iam_mol.grd xd_iam_xtal.grd
!
! Gradient field plots (only for rho and esp functions):
!TRAJPLT  origin atom ato(1)
!TRAJPLT  xaxis  atom ato(2) Xdim1 -3.0 Xdim2 3.0
!TRAJPLT  yaxis  point x y z Ydim1 -3.0 Ydim2 3.0
!TRAJPLT  mark *atoms *labels *bonds *cps *basins *hbonds
!TRAJPLT  params Circle 0.1 ATrad 0.05 CPrad 0.08 CPgrid 0.3 CPlim 1.0d-4
!TRAJPLT  *plot *plane npath 36 *zcut 0.3 *xytol 0.5 *all select ato(1)
!
! Local Source Function (only for rho and esp functions):
!SOURCE   refpoint x y z
!SOURCE   point x y z 
!SOURCE   line  ato(1) ato(2)  npts 50
!SOURCE   map atoms ato(1) ato(2) ato(3) npts 100 stepsize 0.1
!SOURCE   cube ato(1) ato(2) ato(3) npts 20 stepsize 0.1
!
! Topological analysis:
!CPSEARCH bond ato(1) ato(2)
!CPSEARCH bond rmin  1.2 rmax  1.6
!CPSEARCH ring ato(1) ato(2) ...
!CPSEARCH shell ato(1) rmin 0.3 rmax 0.5 nrad 5 nang 11 11 cutoff 16.0
!CPSEARCH bubble ato(1) rmin 0.3 rmax 0.5 curv -3 ncps 3
!CPSEARCH point x y z
!CPSEARCH line vec1 x1 y1 z1  vec2 x2 y2 z2  npts 15
!CPSEARCH start file.cps
!BPATH    ato(1) ato(2) algrithm 2
!MOLGR    *auto level 1 rmin 0.8 rmax 3.5  algrithm 2  profile
!
! Atomic basin integration:
!TOPINT step 0.01 accur 0.001 rmax 8.0 nmax 20
!TOPINT spheres ato(1) r1 ato(2) r2 .....
!TOPINT atoms all *unique select ato(1) ato(2) ...
!
! DFT Energy calculation:
!DFTENERG *run  rCrit 1.D-04
!
END XDPROP
!!!!!!!!!!!!!!!!!!!!!!!!!!!!!!!!!!!!!!!!!!!!!!!!!!!!!!!!!!!!!!!!!!!!!!!!!!!!!!!
MODULE XDGEOM
SELECT   rmin 0.8 rmax 1.8  tor *ato *bon *ang loc non *export
END  XDGEOM
!!!!!!!!!!!!!!!!!!!!!!!!!!!!!!!!!!!!!!!!!!!!!!!!!!!!!!!!!!!!!!!!!!!!!!!!!!!!!!!
MODULE XDVIB
SELECT   temp 100. scale 1. *nlinear linear
MODES    *all frqmin 0. frqmax 1500.
!MODES    include 1 2 3 ...
!MODES    exclude 1 2 3 ...
DATAFILE *gaussian g98.out orient *standard input
END  XDVIB
!!!!!!!!!!!!!!!!!!!!!!!!!!!!!!!!!!!!!!!!!!!!!!!!!!!!!!!!!!!!!!!!!!!!!!!!!!!!!!!
MODULE TOPXD
SIZE napl 2000
COMT just a comment for this run
DEBG symeqv deriv check
TRSH eigenvec 1.0d-10 nr 1.D-08
CGEN alim -0.5 1.5 blim -0.5 1.5  clim -0.5 1.5
MPAR  rcut 4.0d0  dstep 5.d-3  au iam esp
!DGRD *use *gen fra gstep 0.2 0.2 0.2 read *ascii fort.69
!
!TRHO *seed all ail debug nstep 12 nnb 15 rmax 3.0 th 2.7
!  fra  0. 0. 0.
!  car  0. 0. 0.
!TRHO *cluster all ail debug nstep 11 nnb 10 rmax 3.0 th 2.7
!TRHO *pairs nr ail debug nstep 11 nnb 9 rmax 5. th 2.2 pc 0.3
!TRHO *points nr ail debug nstep 20 nnb 9 rmax 5 fra
!  0.0  0.0  0.0
!  0.5  0.5  0.5
!TRHO *line nr ail debug nstep 10 nnb 20 rmx 5. pc 0.3
!  point fra  0. 0. 0.   0.5 0.5 0.5
!  point car  0. 0. 0.    2. 2. 2.
!TRHO *grid nr ail debug nstep 10 nnb 9 rmax 5 ncons 0
!  xmin 0.  xmax 1.  xstep  0.01
!  ymin 0.  ymax 1.  ystep  0.01
!  zmin 0.  zmax 1.  zstep  0.01
!TRHO *profile perstep 2.
!  *atom ato(1) toneighbor 1 2 3
!  *point fra  0. 0. 0.   1. 1. 1.
!  *point car  0. 0. 0.   2. 2. 2.
!
!TLAP *auto ef CCCP ail debug nstep 15 nnb 10 rmax 3.0 ntheta 8 nphi 16
!  atoms ato(1) ato(2) ... nmax 0 rstar 0.d0
!  atoms ato(3) ato(4) ... nmax 2 rstar 0.d0
!  nna x 1.  y 1.  z 1.  nmax 4 rstar 3.2
!  nna x 2.  y 2.  z 2.  nmax 4 rstar 3.2
!TLAP *auto nr ail debug nstep 20 nnb 12 rmax 3.0 ntheta 16  nphi 8
!  atoms ato(1) ato(2) ... nmax 0 rstar 0.d0
!TLAP *points nr ail debug nstep 23 nnb 11 rmax 4.0 nmax 14
!  car  1. 1. 1.
!  fra  0. 0. 0.
!TLAP *line nr ail debug nstep 12 nnb 12 rmax 3.0 nmax 0
!  atom ato(1) toneighbor 1 2 3
!  points fra 0. 0. 0.  1. 1. 1.
!  points car 0. 0. 0.  2. 2. 2.
!
!ATBP Params PhInSph 48 ThInSp 32  *SavSurf
!ATBP Spheres ato(1) 0.2 ato(2) 0.2 ...
!ATBP AltGuess BigStep 0.5 Accur 0.002 MaxRInt 10.00 Rmax 10.0
Step0 0.025 A 0.0 B 0.0
!ATBP *atoms ato(1) iZFS nvi 100 IRsur 0 *IRSav Rest Debug Phi
32 Th 24 Rad 120 Accur 1.D-3
!ATBP nna 0
! x 0. y 0. z 0. *integ sphere 0.2 iZFS nvi 5 irsur -1 irsav
rest debug phi 8 th 4 rad 120 ncp 0
!
!VZ3D *plot
!  files rays.dat
!  basins ato(1) ato(2) ...
!  range *default xmi 0. ymi 0. zmi 0. xma 1. yma 1. zma 1.
!  grid *default dx 0.05 dy 0.05 dz 0.05 rvec *default 0.20
!END VZ3D
!
!PL2D general
!  point car 0. 0. 0.
!  atom  1   0 -1  0
!  atom  2  -1  0 -1
!  plotdim xmin -2. xmax 2.  xstep 0.5 ymin -2. ymax 2.  ystep 0.5
!  origin ishift 5  origin 0. 0. 0. vmod 0.5
!  misc size a4 scale 0.4 name 'test2d' title 'TOPXD rulez!'
!PL2D *rhoo nstar 10 rmax 3.0 test cut 0.5  0.2
!PL2D *lapp nstar 10 rmax 3.0 test cut 0.5  0.2
!PL2D *lapm nstar 10 rmax 3.0 test cut 0.5  0.2
!PL2D *grho nstar 10 rmax 3.0 test cut 0.5  0.2
!PL2D *trajgrad nstar 10 rmax 5.0 test cut 0.5 0.2  toler 0.5
0.5 *plane npath 36 nextr 0
!PL2D *molgraph nstar 10 rmax 5.0 test cut 0.5 0.2  toler 0.5
0.5 *plane thr 1.6 *tr1 *tr2 *tr3
!PL2D *trajmolg nstar 10 rmax 5.0 test cut 0.5 0.2  toler 0.5
0.5 *plane thr 1.6 *tr1 *tr2 *tr3 npath 36 nextr 0
!
!PL3D general fra
! xmin 0.0  xmax 0.5  xstep 0.05
! ymin 0.0  ymax 0.5  ystep 0.05
! zmin 0.0  zmax 0.5  zstep 0.05
! name 'test3d'
!PL3D *plot rhoo lapp grho
!
!P2DCRY *diff rhoo file1 file2
!P2DCRY *diff lapm file3 file4
!P2DCRY  diff test2d rhoo
!P2DCRY  diff test2d trajmolg
!
END  TOPXD
!!!!!!!!!!!!!!!!!!!!!!!!!!!!!!!!!!!!!!!!!!!!!!!!!!!!!!!!!!!!!!!!!!!!!!!!!!!!!!!
MODULE XDPDF
SELECT   atom atom(1) scale 1.0 orth
CUMORD   second  third  fourth
GRID     3-points *cryst
!ATOM     label atom(2) symm 1 trans 0 0 0
!ATOM     xyz  0. 0. 0.
LIMITS   xmin -0.8  xmax 0.8  nx 51
LIMITS   ymin -0.8  ymax 0.8  ny 51
LIMITS   zmin -0.8  zmax 0.8  nz 51
END  XDPDF
!!!!!!!!!!!!!!!!!!!!!!!!!!!!!!!!!!!!!!!!!!!!!!!!!!!!!!!!!!!!!!!!!!!!!!!!!!!!!!!
MODULE XDHKL
SELECT   *merge  zero  remove  crypher
SELECT   export  stlmin 0.0 stlmax 1.1 nbatch -1
INPUT    xd.hkl
END  XDHKL
!!!!!!!!!!!!!!!!!!!!!!!!!!!!!!!!!!!!!!!!!!!!!!!!!!!!!!!!!!!!!!!!!!!!!!!!!!!!!!!
MODULE XDSFR
SELECT  *resol  hklim  hklist  print 100  Uiso 0.0
SELECT  title <title string>
UCELL   30.0 30.0 30.0 90.0 90.0 90.0
WFNFL   file <wfn filename>
INT3D   iqt  1  Nr 70  Nang 590
RESOL   stlmin  0  stlmax 1.1
HKLIM   hmin -10  hmax 10  kmin -10  kmax 10  lmin -10  lmax 10
HKLIST  file <hkl listfile>  maxref -1
EXPORT  *xd  *shelx  crystal  nbatch -1
END  XDSFR
!!!!!!!!!!!!!!!!!!!!!!!!!!!!!!!!!!!!!!!!!!!!!!!!!!!!!!!!!!!!!!!!!!!!!!!!!!!!!!!
!!!!!!!!!!!!!!!!!!!!!!!!!!!!!!!!!!!!!!!!!!!!!!!!!!!!!!!!!!!!!!!!!!!!!!!!!!!!!!!


!!!!!!!!!!!!!!!!!!!!!!!!!!!!!!!!!!!!!!!!!!!!!!!!!!!!!!!!!!!!!!!!!!!!!!!!!!!!!!!
! <<< X D PARAMETER FILE >>> $Revision: 6.03 (Jul 23 2008)$          14-Mar-03!
!!!!!!!!!!!!!!!!!!!!!!!!!!!!!!!!!!!!!!!!!!!!!!!!!!!!!!!!!!!!!!!!!!!!!!!!!!!!!!!
XDPARFILE VERSION  2
   MERG     MODEL   4  2  1  0
LIMITS nat     7 ntx  31 lmx  4 nzz   5 nto  0 nsc  20 ntb   4 nov     46
USAGE      7   2  4   5   0   1   0   8   4   8    25   1  10  2
0.026996  0.032829  0.026996  0.032829  0.043542  0.077731
1.775195 0.911E+03
  0.030000  0.050000  0.000000  0.000000  0.000000  0.333300
   0.0000000000   0.0000000000   0.0000000000
   0.2500000000   0.5179900000   0.3574500000
Na(1)     3 2    2   1   3 2  1  1 4  1   0 -0.250000 -0.250000
0.416432 0.1250
  0.006998  0.006998  0.014774  0.000000  0.000000  0.000000
0.0000  0.0000  0.0000  0.0000  0.0000  0.0000  0.0000  0.0000
0.0000  0.0000
0.0000  0.0000  0.0000  0.0000  0.0000  0.0000  0.0000  0.0000
0.0000  0.0000
  0.0000  0.0000  0.0000  0.0000  0.0000  0.0000
O(3)      1 2    3   2   4 2  2  2 4  1   0  0.250000 -0.017435
0.357487 0.2500
  0.009121  0.007938  0.020523  0.000000  0.000000  0.003038
1.5762  0.0000 -0.0168 -0.0003  0.0000 -0.0135  0.0000  0.0000
-0.0152  0.0003
0.0000 -0.0031 -0.0004  0.0000  0.0000  0.0084  0.0013 -0.0009
0.0000  0.0000
 -0.0002  0.0001  0.0000  0.0000  0.0018  0.0014
C(1)      1 2    2   3   9 2  3  3 4  1   0  0.250000  0.250000
0.298609 0.1250
  0.007486  0.007486  0.014334  0.000000  0.000000  0.000000
0.5111  0.0000  0.0018  0.0036  0.0000 -0.0287  0.0000  0.0000
0.0075 -0.0089
0.0000  0.0005  0.0012  0.0000  0.0000  0.0342  0.0084  0.0010
0.0000  0.0000
  0.0018 -0.0020  0.0000  0.0000 -0.0011 -0.0057
C(2)      3 1    3   4   6 2  3  4 4  1   0  0.250000  0.250000
0.147522 0.1250
  0.032716  0.032716  0.012800  0.000000  0.000000  0.000000
0.4770  0.0000  0.0000  0.0000  0.0013 -0.0005  0.0000  0.0000
0.0000  0.0000
0.0271  0.0000  0.0000  0.0000  0.0000  0.0210  0.0000  0.0033
0.0000  0.0000
  0.0000  0.0000 -0.0094  0.0000  0.0000  0.0000
H(2A)     3 2    4   5   6 1  4  5 4  1   0  0.027649  0.143832
0.111475 0.1250
  0.039596  0.000000  0.000000  0.000000  0.000000  0.000000
0.1452  0.0000  0.0000  0.0000  0.0189  0.0079  0.0000  0.0000
0.0000  0.0000
0.0020  0.0000  0.0000  0.0000  0.0000  0.0000  0.0000  0.0005
0.0000  0.0000
  0.0000  0.0000  0.0000  0.0000  0.0000  0.0000
H(2B)     3 2    4   6   5 1  4  5 4  1   0  0.453120  0.110523
0.111475 0.1250
  0.039596  0.000000  0.000000  0.000000  0.000000  0.000000
0.1452  0.0000  0.0000  0.0000  0.0189  0.0079  0.0000  0.0000
0.0000  0.0000
0.0020  0.0000  0.0000  0.0000  0.0000  0.0000  0.0000  0.0005
0.0000  0.0000
  0.0000  0.0000  0.0000  0.0000  0.0000  0.0000
H(2C)     3 2    4   7   5 1  4  5 4  1   0  0.269231  0.495645
0.111474 0.1250
  0.071277  0.000000  0.000000  0.000000  0.000000  0.000000
0.1452  0.0000  0.0000  0.0000  0.0189  0.0079  0.0000  0.0000
0.0000  0.0000
0.0020  0.0000  0.0000  0.0000  0.0000  0.0000  0.0000  0.0005
0.0000  0.0000
  0.0000  0.0000  0.0000  0.0000  0.0000  0.0000
  1  1.000000  1.000000  1.000000  1.000000  1.000000  1.000000
  2  0.989501  1.078251  1.078251  1.078251  1.078251  1.078251
  3  1.000202  1.000000  1.000000  1.000000  1.000000  1.000000
  3  1.018393  1.000000  1.000000  1.000000  1.000000  1.000000
  4  1.114404  1.200000  1.200000  1.200000  1.200000  1.200000
0.0000E+00 0.0000E+00 0.0000E+00  0.0000E+00  0.0000E+00  0.0000E+00
0.0000E+00
 0.0000E+00
 0.281238E+01

;
_cod_data_source_file            NaAc_tetra.cif
_cod_data_source_block           tetra
_cod_database_code               1549468
_shelx_res_file
;
TITL Sodium Acetate in P4/nmm
CELL  0.71073    4.1563    4.1563   10.0533    90.000    90.000    90.000
ZERR        2    0.0030    0.0000    0.0070     0.000     0.000     0.000
LATT   1
SYMM     0.50000 - Y ,              X ,              Z
SYMM     0.50000 - X ,    0.50000 - Y ,              Z
SYMM               Y ,    0.50000 - X ,              Z
SYMM     0.50000 + X ,            - Y ,            - Z
SYMM     0.50000 + Y ,    0.50000 + X ,            - Z
SYMM             - X ,    0.50000 + Y ,            - Z
SYMM             - Y ,            - X ,            - Z
SFAC  C  H Na  O
UNIT 4 8 2 4
LIST 6 ! automatically inserted. Change 6 to 4 for CHECKCIF!!
TEMP  -173
L.S. 5
FMAP 2
PLAN -20
ACTA
BOND $H
CONF
WGHT    0.031300    0.050500
FVAR       2.78866
RESI 0
NA1   3   -0.250000   -0.250000    0.416506    10.12500    0.00669    0.00669 =
         0.01397    0.00000    0.00000    0.00000
O3    4    0.250000   -0.018121    0.357456    10.25000    0.00803    0.00761 =
         0.01921    0.00325    0.00000    0.00000
C1    1    0.250000    0.250000    0.298582    10.12500    0.00741    0.00741 =
         0.01188    0.00000    0.00000    0.00000
C2    1    0.250000    0.250000    0.147934    10.12500    0.03198    0.03198 =
         0.01176    0.00000    0.00000    0.00000
AFIX 137
H2A   2    0.421210    0.391793    0.115441    10.12500   -1.50000
H2B   2    0.041599    0.327375    0.115441    10.12500   -1.50000
H2C   2    0.287192    0.030831    0.115441    10.12500   -1.50000
AFIX   0
HKLF 4

REM  Sodium Acetate in P4/nmm
REM R1 =  0.0319 for     307 Fo > 4sig(Fo)  and  0.0370 for all     342 data
REM     17 parameters refined using      0 restraints

END

WGHT      0.0313      0.0505

REM Highest difference peak  0.741,  deepest hole -0.178,  1-sigma level  0.059
Q1    1  -0.7500 -0.7500  0.2318  10.12500  0.05    0.74
Q2    1  -0.2500 -0.2500  0.3627  10.12500  0.05    0.47
Q3    1  -0.7500 -0.7500  0.5205  10.12500  0.05    0.41
Q4    1  -0.2500  0.0211  0.5841  10.50000  0.05    0.23
Q5    1  -0.4411 -0.7500  0.2993  10.50000  0.05    0.20
Q6    1  -0.6240  0.1240  0.3417  10.50000  0.05    0.16
Q7    1  -0.7500 -0.7500  0.3571  10.12500  0.05    0.16
Q8    1  -0.7500 -0.7500  0.0952  10.12500  0.05    0.16
Q9    1  -0.6142 -0.7500  0.3043  10.50000  0.05    0.14
Q10   1  -0.7500  0.0978  0.5794  10.50000  0.05    0.14
Q11   1  -0.6529 -0.8471  0.1213  10.50000  0.05    0.14
Q12   1  -0.6559  0.1559  0.5791  10.50000  0.05    0.13
Q13   1  -0.2500  0.1647  0.6733  10.50000  0.05    0.10
Q14   1  -0.7500 -0.8321  0.0219  10.50000  0.05    0.09
Q15   1  -0.5338 -0.9662 -0.0577  10.50000  0.05    0.09
Q16   1  -0.5876 -0.9123  0.0427  10.50000  0.05    0.09
Q17   1  -0.6544 -0.1771  0.2786  11.00000  0.05    0.08
Q18   1  -0.7500 -1.2500  0.1102  10.25000  0.05    0.08
Q19   1  -0.5560 -0.8183  0.0613  11.00000  0.05    0.08
Q20   1  -0.3702 -0.7500  0.3567  10.50000  0.05    0.08
;
_shelx_res_checksum              29473
_shelx_hkl_file
;
   1   0   0 -0.1928 1.52989   3
   1   0   0 -0.3147 1.00015   7
   1   0   0 -2.2769 1.30031   8
   1   0   0 0.12934 1.55127   9
   1   0   0 1.07740 1.71364   2
  -1   0   0 -1.2155 3.91356   1
  -1   0   0 0.08021 1.75508   1
  -1   0   0 -0.8191 1.61633   2
  -1   0   0 0.73321 1.56296   2
  -1   0   0 1.12363 2.13447   3
  -1   0   0 -1.2564 1.64325   3
  -1   0   0 -0.3771 1.16911   7
  -1   0   0 0.56136 1.12396   8
   0  -1   0 -1.2974 1.11577   2
   0  -1   0 0.14113 1.01989   2
   0  -1   0 -0.0702 1.41830   3
   0  -1   0 -0.6283 1.05761   3
   0   1   0 0.78346 1.02279   2
   0   1   0 0.31170 0.32002   2
   0   1   0 1.13471 1.25986   3
   0   1   0 -0.0504 0.27586   3
   1   0   0 -0.7359 4.16654   1
   1   0   0 2.77987 2.24931   1
   1   0   0 -1.0496 1.68162   2
   1   0   0 -0.4316 2.02689   3
   1  -1   0 7541.35 263.873   7
  -1   1   0 7737.52 267.865   9
   1  -1   0 7511.44 272.218   1
   1  -1   0 7613.45 267.039   2
   1  -1   0 7767.38 268.251   3
  -1   1   0 7840.58 267.415   2
   1   1   0 8088.77 263.833   2
   1   1   0 7866.70 264.070   3
  -1  -1   0 7560.52 263.716   2
  -1  -1   0 7932.25 263.360   2
  -1  -1   0 7707.88 264.135   3
  -1  -1   0 7836.34 263.640   3
  -1   1   0 7736.99 272.471   1
  -1   1   0 6901.22 265.040   6
  -1   1   0 7593.57 267.861   3
   2   0   0 5512.05 191.754   7
   0  -2   0 5550.16 191.319   2
   0  -2   0 5546.75 190.674   2
   0  -2   0 5587.43 191.882   3
   0  -2   0 5436.88 190.923   3
   0  -2   0 5180.97 189.642   8
   2   0   0 5828.60 192.738   8
   2   0   0 5403.40 194.738   9
  -2   0   0 5323.77 191.772   7
  -2   0   0 5454.78 192.127   8
  -2   0   0 5341.77 196.270   9
  -2   0   0 5534.75 197.072   3
  -2   0   0 5683.71 192.520   5
  -2   0   0 5393.79 192.644   6
  -2   0   0 5597.79 200.297   1
  -2   0   0 5375.39 196.226   2
   2   0   0 5424.87 193.829   6
  -2   0   0 5738.16 204.004   1
   2   0   0 5338.42 192.705   5
   0   2   0 5716.67 190.761   2
   0   2   0 5596.28 191.076   3
   2   0   0 5971.40 205.650   1
   2   0   0 5616.02 201.011   1
   2   0   0 5314.43 195.939   2
   2   0   0 5544.48 197.768   3
   2   0   0 5674.20 192.850   4
   2  -1   0 0.34061 5.10727   1
   2   1   0 -0.6325 1.48301   1
   2   1   0 1.26873 2.02334   2
   2   1   0 -0.6145 2.18062   6
   2   1   0 -0.2717 1.16305   7
   2  -1   0 -0.7478 1.87523   9
  -2   1   0 2.46050 5.95014   9
   2   1   0 -1.7680 1.37084   5
  -2   1   0 -1.6590 1.63596   5
   2  -1   0 -0.0565 1.44263   7
   2  -1   0 1.01885 2.01284   8
  -1   2   0 -0.2047 2.24561   3
  -1   2   0 -1.4698 1.16988   5
  -1   2   0 -1.3535 1.54793   6
  -1   2   0 2.70297 1.75887   7
  -1   2   0 -0.4024 1.19359   8
  -1   2   0 3.62227 4.67462   9
   1  -2   0 8.20608 4.90937   1
   1  -2   0 -0.9026 2.45535   1
   1  -2   0 1.60574 2.03886   2
   1  -2   0 1.37521 3.15631   3
   1  -2   0 7.52042 2.68092   4
   1  -2   0 2.27956 2.25604   5
   1  -2   0 0.63813 1.39341   7
  -2  -1   0 -1.3140 4.64068   1
  -2  -1   0 -0.6397 1.51245   1
  -2  -1   0 0.19463 1.95864   2
  -2  -1   0 -0.9694 1.72909   3
  -2  -1   0 -0.1036 1.45248   4
  -2  -1   0 -0.9442 1.07447   5
  -2  -1   0 0.04135 1.44515   7
  -2  -1   0 -0.2418 1.32603   8
  -1   2   0 -0.3329 2.35257   1
  -1   2   0 1.26232 2.32368   2
   2  -1   0 2.44619 2.54264   2
   1  -2   0 1.78353 1.89104   8
   2   1   0 -6.7998 5.05313   1
  -2   1   0 5.18786 5.67607   1
  -2   1   0 -0.3247 2.25885   1
  -2   1   0 -0.9556 2.49349   2
  -2   1   0 -1.3906 2.52381   3
  -2   1   0 1.26390 1.93587   4
  -2   1   0 -0.5456 1.46628   8
   2   1   0 -1.8856 1.99816   3
   2  -1   0 -4.6064 2.59208   3
   2  -1   0 -1.8130 1.84851   4
   2  -1   0 -1.6656 2.00986   5
   2  -1   0 1.26650 2.82217   6
   2   1   0 -0.4352 1.60403   9
  -2   1   0 -1.0979 1.79711   6
   2   1   0 -0.5993 1.64070   8
   2  -1   0 1.06844 2.92695   1
  -2   1   0 -0.6138 1.42298   7
   2  -2   0 303.820 17.1009   6
   2   2   0 280.051 13.7595   2
   2   2   0 311.343 13.5108   2
   2  -2   0 318.956 21.2143   3
   2  -2   0 305.594 16.3653   4
   2  -2   0 299.637 16.2719   5
  -2   2   0 291.566 16.3395   6
  -2   2   0 315.898 15.4094   7
   2  -2   0 320.534 19.4266   2
  -2   2   0 317.118 22.8779   9
   2  -2   0 302.081 22.4737   1
   2   2   0 284.441 13.6262   3
   2   2   0 318.551 15.1806   3
  -2  -2   0 281.648 13.9795   2
  -2  -2   0 274.127 12.4830   2
  -2  -2   0 274.120 12.4769   8
   2  -2   0 294.297 15.8486   8
   2  -2   0 302.761 17.1757   9
  -2  -2   0 330.084 16.2729   3
  -2  -2   0 288.765 12.9392   3
  -2  -2   0 263.701 12.3372   4
  -2  -2   0 270.795 11.9524   7
   2  -2   0 304.780 14.9308   7
  -2   2   0 301.284 15.1792   8
  -2   2   0 293.865 19.3448   2
  -2   2   0 332.302 20.9373   3
  -2   2   0 312.859 22.7386   1
  -2   2   0 310.362 25.2055   1
  -2   2   0 302.478 15.8743   4
  -2   2   0 297.332 15.7609   5
   2   2   0 285.810 11.9943   7
   3   0   0 -0.7212 6.27693   1
   3   0   0 -1.4192 2.20891   2
   0  -3   0 5.08516 2.67092   3
   0  -3   0 2.65449 1.64321   4
   0   3   0 0.00882 1.27721   2
   0   3   0 1.37569 1.58872   3
  -3   0   0 -1.0657 5.75198   9
   3   0   0 0.56602 1.69510   7
   3   0   0 0.11203 2.42623   8
   3   0   0 -1.1945 2.68491   9
  -3   0   0 -1.7906 2.62807   2
  -3   0   0 -0.3298 2.48410   6
  -3   0   0 -1.3907 1.87069   7
  -3   0   0 -1.6576 1.72893   8
  -3   0   0 -0.4436 2.01789   5
   3   0   0 0.62774 3.18162   1
   0  -3   0 -0.6113 1.13198   2
   0   3   0 0.51348 1.45892   6
   3   0   0 -0.9799 3.38043   6
  -3   0   0 -3.3510 2.81219   3
  -3   0   0 0.23750 1.89139   4
   3   0   0 -4.9772 3.04233   3
   3   0   0 -2.4326 2.14880   4
   3   0   0 -0.7398 2.24682   5
  -3   0   0 -2.5397 4.33832   1
  -3  -1   0 2644.75 95.7943   8
  -1   3   0 2673.23 94.1644   7
   1  -3   0 2605.05 95.8583   4
   1  -3   0 2686.56 95.6348   5
  -3   1   0 2726.12 116.471   1
  -3  -1   0 2705.98 95.6243   5
  -1   3   0 2626.95 101.214   9
   1  -3   0 2647.53 98.3652   2
   3  -1   0 2579.47 101.536   9
  -3   1   0 2648.22 110.463   1
  -3   1   0 2605.09 104.682   2
  -3   1   0 2675.54 106.005   3
  -3   1   0 2500.52 98.1606   4
   3   1   0 2687.31 96.4067   5
   3   1   0 2676.93 98.3092   6
   3   1   0 2748.63 95.3171   7
   3   1   0 2778.71 96.0627   8
   3   1   0 2712.35 99.8868   9
   3  -1   0 2420.05 114.843   1
   3  -1   0 2638.39 104.035   2
   3  -1   0 2684.28 107.012   3
   3  -1   0 2713.39 99.0214   4
   3  -1   0 2615.54 98.8290   5
   3  -1   0 2659.32 100.613   6
   3  -1   0 2593.13 96.6679   7
   3  -1   0 2599.16 97.9856   8
  -3  -1   0 2746.07 101.472   2
  -3  -1   0 2731.36 101.447   3
  -3  -1   0 2639.23 96.4273   4
   3   1   0 2651.54 106.533   1
   3   1   0 2752.42 101.146   2
   1  -3   0 2759.07 101.164   3
  -1   3   0 2579.85 100.099   3
  -1   3   0 2589.51 95.0946   5
  -1   3   0 2658.92 96.3831   6
  -3  -1   0 2715.62 95.4483   7
  -3   1   0 2607.24 105.108   9
   3   1   0 2795.27 102.693   3
   3  -1   0 2629.01 111.064   1
  -3   1   0 2589.67 97.4242   8
  -3   1   0 2516.26 98.5093   6
  -3   1   0 2555.32 97.0185   7
  -1   3   0 2694.94 98.7138   2
  -3   1   0 2627.78 98.0867   5
  -1   3   0 2602.04 105.039   1
  -1   3   0 2514.65 103.055   1
  -2   3   0 4.77334 7.16633   9
   2  -3   0 -2.1626 2.48551   2
  -2   3   0 3.04290 2.42135   7
  -2   3   0 -0.1476 1.94826   8
  -2   3   0 -3.2714 2.20695   6
  -2   3   0 2.74495 3.63567   2
   3   2   0 -3.8459 2.84644   3
  -2   3   0 2.34395 2.37353   5
   3  -2   0 1.76731 2.60224   8
   3  -2   0 1.12236 3.10167   9
   3  -2   0 -1.1514 1.52359  10
  -2   3   0 1.87766 3.40320   3
  -3  -2   0 -0.4062 1.93716   3
  -3  -2   0 0.78145 1.97685   4
  -3  -2   0 0.95748 2.33587   8
  -2   3   0 5.60989 6.98382   1
  -3   2   0 -0.0539 2.35066   7
  -3   2   0 -0.2981 2.32751   8
  -3   2   0 2.70194 8.58308   9
  -3   2   0 -0.5616 1.24138  10
  -3  -2   0 3.81261 3.50361   2
   2  -3   0 2.06253 3.13408   4
   2  -3   0 -2.4220 2.37344   5
   2  -3   0 -1.4391 1.78836   7
  -3   2   0 -1.1198 2.18284   5
   2  -3   0 5.36548 5.44976   3
   3  -2   0 0.07677 3.52257   6
   3  -2   0 -0.5933 2.09049   7
   2  -3   0 2.71572 3.29501   8
   3   2   0 1.99580 2.64528   2
   3  -2   0 -5.3670 3.76284   3
   3  -2   0 -2.2064 2.87736   4
   3   2   0 -0.2186 3.03428   6
   3   2   0 0.14202 2.44018   9
   3  -2   0 1.98959 3.55273   2
  -3   2   0 0.49086 2.29476   4
  -3   2   0 -0.6363 6.85092   1
  -3   2   0 -3.3135 3.25232   2
  -3   2   0 1.28380 4.08946   3
   3  -2   0 -3.2962 2.57291   5
  -3   2   0 3.77749 3.77384   6
   3  -3   0 1807.46 73.0974   6
   3  -3   0 1657.52 68.2792   7
  -3   3   0 1705.08 72.0079   6
  -3   3   0 1751.87 69.3052   7
  -3   3   0 1926.11 81.4169   3
  -3   3   0 1776.05 81.0451   9
   3  -3   0 1653.32 71.2294   4
  -3   3   0 1709.37 89.3973   1
  -3   3   0 1769.48 78.2423   2
   3  -3   0 1712.88 80.2465   3
  -3   3   0 1799.31 70.6541   4
  -3   3   0 1697.17 68.7233   8
   3  -3   0 1742.97 76.9703   2
  -3   3   0 1706.31 70.2943   5
   3  -3   0 1716.91 70.3891   8
   3  -3   0 1789.28 68.3275  10
  -3   3   0 1752.23 67.4273  10
   3  -3   0 1685.22 70.9760   5
   4   0   0 3481.10 134.412   2
   4   0   0 3421.11 130.326   6
   4   0   0 3520.66 127.648   4
  -4   0   0 3459.66 127.000   6
   4   0   0 3483.65 126.847   8
   4   0   0 3478.23 132.557   9
   4   0   0 3464.25 143.243   1
  -4   0   0 3405.44 126.416   5
   4   0   0 3379.31 124.610  10
   0   4   0 3427.88 121.641   6
  -4   0   0 3478.05 135.164   2
  -4   0   0 3448.09 135.598   3
   4   0   0 3497.13 137.413   3
  -4   0   0 3495.58 123.741  10
   4   0   0 3512.39 125.592   7
  -4   0   0 3302.72 127.177   4
  -4   0   0 3382.22 126.345   8
   4   0   0 3413.11 127.626   5
  -4   0   0 3410.82 125.804   7
  -4  -1   0 -3.5973 3.48467   2
   4  -1   0 -3.8013 2.73673   2
  -1   4   0 2.94322 7.28890   9
   4  -1   0 0.22537 3.61777   1
   4  -1   0 0.86410 3.41203   8
   4  -1   0 0.94508 4.69499   6
  -4  -1   0 0.75104 3.35235   3
  -4   1   0 -2.0585 4.58064   2
  -4   1   0 -1.9665 3.84442   3
  -4  -1   0 3.09061 3.00240   8
  -1   4   0 3.01303 2.96344   6
   4   1   0 -0.7797 3.22120   5
   1  -4   0 -2.4505 2.08202   4
   4   1   0 -1.5888 5.37023   1
   4   1   0 0.45907 3.34875   9
   1  -4   0 3.77318 3.17196   8
  -4  -1   0 -1.8812 2.56375   4
   4  -1   0 2.39143 3.94979   5
  -4   1   0 0.55171 3.01559   4
  -4   1   0 -2.4959 2.77074   5
   4  -1   0 -3.9901 4.28012   3
   4  -1   0 0.37387 3.62315   4
  -4   1   0 -2.0931 2.56743   8
  -4   1   0 0.82466 1.61344  10
   4  -1   0 3.47777 2.50039  10
  -4   1   0 -2.2549 3.21785   6
   4   1   0 -0.0105 4.19832   6
   4   1   0 -1.3670 4.61707   3
   4   1   0 -0.0843 2.04012   7
   4  -1   0 -1.5372 2.14807   7
  -4  -1   0 2.67234 2.95946   5
  -4   1   0 -0.7055 2.84995   7
   4  -1   0 -0.0541 3.83476   9
   4   1   0 3.59901 3.88437   2
  -4  -1   0 0.67268 2.73254   7
  -4   2   0 973.189 50.9891   2
  -4   2   0 862.244 50.0253   3
  -4   2   0 925.994 42.8328   4
   4  -2   0 927.915 42.4690   8
  -4   2   0 888.336 38.8923  10
  -4   2   0 959.665 41.8003   7
  -4   2   0 901.262 42.1374   5
  -4   2   0 881.788 51.1516   9
  -2   4   0 928.684 37.8400   7
  -2   4   0 931.021 48.6284   9
   4  -2   0 902.552 45.3492   6
   4  -2   0 923.235 43.8073   4
   2  -4   0 919.615 37.5180   7
   4   2   0 861.406 40.4038   6
  -2   4   0 962.940 41.7930   6
  -4  -2   0 912.819 38.3744   4
   4  -2   0 887.052 52.2731   3
   2  -4   0 908.529 40.8219   4
  -2   4   0 885.597 43.5516   2
  -2   4   0 920.265 39.2343   5
   2  -4   0 981.203 40.7839   5
   4  -2   0 968.827 44.0144   5
   4  -2   0 937.081 40.8507   7
  -4   2   0 904.864 43.6340   6
   4  -2   0 906.160 40.1170  10
  -2   4   0 900.374 45.9384   3
  -4   2   0 914.344 41.5592   8
   4  -2   0 901.794 48.8269   2
   4   2   0 889.136 42.8802   9
  -4  -2   0 897.413 38.1450   8
   3  -4   0 2.86707 4.64947   4
   3  -4   0 2.31940 2.41757  10
   3  -4   0 0.90847 3.31633   7
   4  -3   0 -2.5751 3.72141   4
   4  -3   0 6.41730 6.95531   6
   3  -4   0 -4.8203 5.79895   3
   4  -3   0 9.01138 8.82737   3
   3  -4   0 -1.8718 4.78931   8
   4  -3   0 0.86326 4.81754   5
  -4   3   0 -3.0121 3.05641   5
  -4   3   0 -2.7245 3.88650   3
  -3   4   0 3.10935 5.12162   3
  -3   4   0 0.23637 3.14621   5
  -4   3   0 -2.2418 2.80296   4
  -4   3   0 -0.0815 2.24053  10
  -4   3   0 0.30827 3.48054   8
  -3   4   0 -8.8018 3.83781   2
  -4   3   0 7.98642 12.3605   9
  -3   4   0 0.15950 3.41159   7
  -3   4   0 9.49770 11.3568   9
   4  -3   0 7.63962 6.81605   2
   3  -4   0 3.70629 4.64476   2
  -3   4   0 -4.2411 1.36571  10
  -4   3   0 0.23942 4.71053   6
   3  -4   0 7.11444 5.17590   5
   4  -3   0 -2.3661 3.20959   7
  -4   3   0 3.55827 5.92600   2
   4  -3   0 -2.0309 4.07876   8
   4   3   0 0.81713 4.12544   9
  -3   4   0 -1.6710 3.47997   6
   4  -3   0 -0.0334 3.09034  10
  -4   3   0 1.34066 4.12506   7
   4  -4   0 1230.24 51.8854  10
  -4   4   0 1181.73 56.7701   6
  -4   4   0 1139.60 50.1143  10
  -4   4   0 1228.58 54.5871   5
  -4   4   0 1214.56 68.3108   9
   4  -4   0 1174.25 56.4270   4
  -4   4   0 1230.49 53.0411   7
   4  -4   0 1164.32 51.7299   7
   5   0   0 -0.6259 3.06730   7
  -5   0   0 5.59010 4.75614   7
  -5   0   0 2.06484 4.02464   8
   5   0   0 10.6335 7.14849   3
  -5   0   0 5.49917 4.96756   3
   5   0   0 5.26908 4.85304   5
  -5   0   0 1.62827 5.40066   2
  -5   0   0 -1.8146 3.56472   5
   5   0   0 1.97949 5.67330   9
  -5   0   0 -1.5446 3.12820   4
   5   0   0 2.96919 5.83055   6
   5   0   0 0.48375 4.33642   2
   5   0   0 5.70671 3.67987  10
   5   0   0 2.04496 4.43479   8
  -5   0   0 1.34079 2.00570  10
  -5  -1   0 409.440 22.1292   5
  -5   1   0 390.393 24.6063   5
   5   1   0 457.364 29.3491   9
  -5   1   0 405.793 24.5398   8
   5   1   0 411.067 28.4799   2
  -1   5   0 379.011 20.7843   6
   5   1   0 428.300 22.4300   7
  -5   1   0 396.104 24.2727   7
   5   1   0 421.855 20.9335  10
  -5  -1   0 420.150 19.7435  10
  -5   1   0 377.053 21.1377  10
   5  -1   0 305.678 30.1947   3
   5  -1   0 382.233 25.6206   4
   5  -1   0 387.685 25.8702   5
   5  -1   0 395.511 28.6850   6
   5  -1   0 399.969 23.4935   7
   5  -1   0 355.066 24.0197   8
   5  -1   0 342.432 27.8317   9
   5  -1   0 379.822 22.5884  10
  -5   1   0 400.135 25.3801   6
   5   1   0 449.154 30.7590   3
   5   1   0 409.862 26.7171   6
  -5  -1   0 419.710 22.7321   7
  -5   1   0 352.936 30.1162   3
  -5  -1   0 417.379 23.6202   8
  -5  -1   0 409.227 23.5681   4
  -5   1   0 362.909 24.3204   4
   5   1   0 416.403 24.0356   5
  -5   2   0 -1.1940 4.81653   8
  -2   5   0 0.40564 3.86651   6
  -5   2   0 5.52311 5.02478   4
  -5   2   0 1.28893 4.77602   7
  -2   5   0 4.70527 10.7453   9
   5   2   0 0.03460 4.72663   9
  -5  -2   0 -0.7175 3.07410   4
  -5  -2   0 2.34856 4.28886   8
   5   2   0 -0.9584 4.94528   6
   2  -5   0 -4.5999 4.00433   8
   5  -2   0 4.76046 5.09328   7
   5  -2   0 -0.9316 4.35967   8
   5  -2   0 -4.0199 3.51950  10
   5  -2   0 1.61676 5.42869   4
  -5   2   0 -4.8617 3.80029   5
  -5   2   0 4.62396 6.03696   6
   5  -2   0 -3.1728 4.69189   5
  -5   2   0 -2.7309 2.42891  10
   5  -2   0 7.64358 7.92398   6
   2  -5   0 0.06597 4.41415   4
  -5   3   0 332.453 23.9587   4
  -5   3   0 359.389 27.0029   6
  -5   3   0 360.140 21.9281  10
   5  -3   0 361.872 26.8049   5
   5  -3   0 364.874 27.0488   4
   3  -5   0 368.285 23.6532   8
  -5   3   0 357.060 25.0145   5
  -5   3   0 374.867 27.0005   7
  -5   3   0 319.011 24.4053   8
   5   3   0 334.886 26.2795   9
  -3   5   0 393.666 41.0083   9
   5  -3   0 388.442 23.9022  10
  -3   5   0 384.318 25.4967   6
   5  -3   0 367.244 25.4886   7
   3  -5   0 330.737 24.8628   4
   5  -3   0 319.342 27.8611   8
   5  -4   0 6.18328 6.82000   5
  -5   4   0 -4.7631 10.7945   7
  -4   5   0 3.97791 32.5851   9
  -4   5   0 2.30699 6.69912   6
  -5   4   0 7.81008 6.27875   5
   5  -4   0 4.10424 10.3308   7
   5  -4   0 7.57195 5.48422  10
   5  -4   0 0.02610 5.55401   4
   4  -5   0 16.0841 14.8378   8
   4  -5   0 9.91943 8.49154   4
   5  -4   0 5.45708 16.9064   8
  -5   4   0 3.92040 4.63072  10
  -5   4   0 8.93622 7.89840   6
   5  -5   0 70.9951 16.6432   4
  -5   5   0 64.1537 13.4682   6
  -5   5   0 69.1290 15.1244   5
  -5   5   0 70.2932 12.9511  10
   6   0   0 411.361 28.6707   5
  -6   0   0 458.692 31.3472   8
  -6   0   0 403.967 22.8065  10
  -6   0   0 384.864 27.0374   4
   6   0   0 427.202 31.6272   6
   6   0   0 409.406 33.9725   9
   6   0   0 421.845 27.9218   7
   6   0   0 400.941 25.2224  10
  -6   0   0 412.881 26.3305   5
  -6   0   0 407.883 26.5639   7
   6  -1   0 -4.5495 9.57726   7
  -6  -1   0 0.34137 6.84857   8
  -6   1   0 4.61853 10.9081   8
   6   1   0 1.69194 7.35214   6
   6  -1   0 0.38890 4.78301  10
  -6   1   0 -3.3898 3.05369  10
  -6   1   0 -7.2051 8.63649   7
  -6  -1   0 -1.7705 4.05802   4
   6  -1   0 -6.7957 5.03089   5
   6  -1   0 4.72043 9.00653   8
  -1   6   0 -8.0413 18.8276   9
  -6   1   0 0.35318 5.23042   5
   6   1   0 -3.6521 13.1753   9
   6  -1   0 12.3104 9.99640   6
  -6   1   0 3.95070 5.13714   4
  -6   2   0 50.8242 11.6948   4
   6   2   0 35.2825 17.8038   9
   6  -2   0 46.8816 11.8698   4
   6  -2   0 40.9295 13.1672   6
   6  -2   0 40.6087 10.1939  10
   6   2   0 51.7420 10.9766   6
   6  -2   0 54.8036 13.9179   5
  -6   2   0 51.5407 13.1153   6
  -6  -2   0 42.6131 8.66745   4
   6  -2   0 30.5048 14.7545   7
  -6   2   0 46.6571 16.4667   8
  -6   2   0 44.3189 11.4286   5
  -6   2   0 34.4322 8.20787  10
  -6   2   0 35.5489 15.5538   7
   6  -2   0 50.8114 17.0387   8
   6  -3   0 20.6968 8.91517   4
   6  -3   0 9.43898 21.8127   7
  -6   3   0 6.66743 6.88292   6
  -6   3   0 9.67840 6.42950   5
  -6   3   0 1.85347 4.89528  10
   6  -3   0 -1.3013 8.83370   6
   6  -3   0 2.09134 5.20271  10
   6   3   0 -4.3915 14.9971   9
  -6   3   0 -15.233 13.5111   8
   6  -3   0 19.0008 8.65334   5
   3  -6   0 12.0236 7.31095   4
   6  -3   0 0.89726 16.8562   8
  -3   6   0 9.27656 5.75545   6
  -6   3   0 -8.1614 18.1453   7
  -6   3   0 3.97377 3.79110   4
  -6   4   0 240.719 27.3800   5
  -4   6   0 219.244 25.9747   6
   6  -4   0 177.952 24.5564   5
  -6   4   0 241.009 32.6853   6
   6  -4   0 192.696 24.3802  10
   6  -4   0 183.152 28.6061   4
  -6   4   0 167.954 20.9335  10
   7   0   0 9.80190 10.2686  10
   7   0   0 25.4030 9.80278   6
   7   0   0 20.0524 6.87393   5
  -7   0   0 9.64899 6.37145   4
  -7   1   0 292.577 23.5562   4
   7   1   0 313.791 25.8074   6
  -7  -1   0 320.846 21.7700   4
   7  -1   0 301.772 30.3242  10
  -7   1   0 244.319 22.2628  10
   7  -1   0 290.434 27.3290   6
  -7   1   0 316.400 43.5349   5
   7  -1   0 353.336 27.1747   5
  -7   2   0 -2.9492 11.3508  10
   7   2   0 18.0566 7.99134   6
  -7   2   0 9.57303 10.5752   4
   7  -2   0 8.90487 16.9046  10
   7  -2   0 11.9277 15.6289   6
  -7  -2   0 9.02092 3.70854   4
   0   0   1 6357.20 229.353   1
   0   0  -1 6717.75 229.945   1
  -1   0  -1 2612.05 93.1210   7
   0   1   1 2759.01 95.1511   1
  -1   0   1 2618.35 95.0561   2
  -1   0   1 2532.26 95.3125   3
   1   0  -1 2673.66 92.8474   7
   1   0   1 2637.74 95.2025   2
   1   0  -1 2700.33 95.1135   2
  -1   0  -1 2645.04 96.6545   1
   0   1  -1 2782.61 93.1909   2
   0   1   1 2729.46 93.6018   3
   1   0  -1 2663.21 94.3598   9
   0  -1  -1 2707.38 93.4779   3
   0  -1  -1 2914.87 93.2930   3
   0  -1   1 2705.82 92.8856   2
  -1   0  -1 2559.37 94.5805   2
  -1   0  -1 2392.96 97.3101   3
   0  -1  -1 2696.30 95.0791   1
   1   0   1 2643.02 92.8966   7
  -1   0  -1 2772.84 100.870   1
   1   0  -1 2665.70 95.9994   3
   0   1   1 2855.17 92.9596   3
  -1   0  -1 2614.03 95.2635   3
  -1   0   1 2674.14 97.6317   1
   0   1   1 2664.60 93.3621   9
   1   0  -1 2723.52 93.2036   8
   1   0   1 2595.37 95.0480   2
   1   0   1 2622.16 95.7577   3
   1   0   1 2459.18 96.6041   3
   1   0  -1 2582.70 95.2885   3
  -1   0   1 2659.68 98.4462   1
   0   1   1 2694.62 94.4477   1
   1   0  -1 2772.20 99.4527   1
   0  -1   1 2963.58 92.8846   2
  -1   0   1 2601.18 92.9240   8
  -1   0  -1 2753.32 93.2883   8
   0   1   1 2745.61 92.5980   2
   0  -1  -1 2672.54 92.0299   8
  -1   0   1 2606.50 94.9779   2
  -1   0   1 2564.89 92.7964   7
  -1   0  -1 2593.61 95.4154   2
   1   0   1 2626.18 94.4146   9
   1   0   1 2618.92 97.3756   1
   0   1   1 2677.95 93.2143   2
   0  -1  -1 2765.32 92.8758   2
   0  -1   1 2835.13 92.9657   3
   0  -1   1 2678.44 93.1240   3
   0  -1  -1 2643.06 93.0632   2
   1   0   1 2639.61 93.3152   8
  -1   0   1 2613.17 95.6578   3
   0   1  -1 2627.92 93.3075   3
   1   0  -1 2674.69 97.7045   1
   1   0   1 2817.61 101.123   1
   1   0  -1 2575.33 95.1785   2
   1   1   1 899.698 31.3345   9
  -1   1  -1 873.417 32.3601   7
  -1   1   1 786.203 35.1646   9
   1  -1   1 840.886 34.8355   2
   1  -1  -1 828.686 35.9214   3
   1   1   1 879.311 32.5534   3
   1   1   1 876.991 32.3305   3
  -1  -1  -1 854.456 32.8049   3
   1   1  -1 924.101 31.5910   2
   1   1   1 897.708 32.2822   2
   1   1   1 1012.63 31.8932   7
  -1   1  -1 863.590 40.3628   1
  -1   1  -1 861.519 37.1506   1
  -1   1  -1 851.855 35.2988   2
   1  -1   1 836.836 31.9843   7
  -1   1  -1 859.936 35.3037   3
   1  -1  -1 833.204 39.6240   1
  -1   1   1 859.292 38.0983   1
   1  -1  -1 828.250 32.6962   4
  -1   1   1 819.386 34.7212   2
  -1   1   1 833.015 35.7295   3
  -1   1  -1 829.990 32.2759   8
   1  -1   1 857.170 37.6981   1
  -1   1   1 830.620 31.9759   7
  -1   1   1 847.025 32.0261   8
  -1   1   1 816.490 32.7640   6
   1   1   1 905.610 33.7618   1
   1  -1  -1 868.777 38.0085   1
   1  -1  -1 822.125 34.6026   2
  -1   1  -1 849.007 36.5871   9
  -1  -1  -1 905.420 30.8451   8
  -1  -1  -1 889.735 32.6182   2
   1  -1  -1 827.560 31.8592   7
  -1  -1  -1 916.207 31.3529   2
  -1   1   1 827.747 38.9645   1
  -1  -1  -1 869.801 31.5237   3
  -1  -1  -1 823.437 32.9274   7
   1  -1   1 833.358 32.6507   4
  -1  -1  -1 867.834 32.4062   1
  -1  -1   1 902.632 30.6010   8
   1   1  -1 916.881 31.8363   3
   1  -1   1 792.969 39.5646   1
  -1   1  -1 814.153 32.6226   6
  -1  -1   1 939.991 31.8341   3
  -1  -1   1 872.483 31.4082   2
   1  -1   1 866.871 35.7420   3
   1  -1   1 833.499 32.5261   8
  -1  -1   1 862.091 31.8368   2
  -1  -1   1 854.797 32.1370   3
  -2   0   1 1145.25 43.2320   5
  -2   0   1 1120.80 43.5941   4
   2   0   1 1159.37 50.7697   1
   0   2   1 1150.78 43.3221   3
   0  -2   1 1215.78 41.7963   2
   2   0  -1 1150.68 42.4327   7
  -2   0  -1 1091.05 46.7578   3
   2   0   1 1179.41 43.5188   8
   2   0   1 1274.33 56.2264   1
   2   0   1 1129.49 47.6788   3
   2   0  -1 1171.71 46.6321   2
   0  -2  -1 1132.83 43.3175   3
  -2   0   1 1082.09 46.4147   2
  -2   0   1 1128.94 42.7332   8
   0  -2   1 1170.75 41.9397   3
   0   2  -1 1116.04 42.2757   3
   2   0  -1 1124.75 43.4956   4
  -2   0  -1 1114.97 42.8124   7
  -2   0  -1 1159.03 43.1601   8
   0  -2  -1 1146.47 40.5040   8
  -2   0  -1 1138.31 43.2418   4
   0  -2   1 1076.10 40.5135   8
   0   2  -1 1139.10 42.0084   2
   2   0   1 1136.05 46.6802   2
   2   0  -1 1139.74 44.7191   6
   0  -2  -1 1140.69 42.7754   2
   0   2   1 1143.67 41.0232   6
   0   2   1 1211.74 41.7839   3
   0   2   1 1151.92 42.7737   2
  -2   0  -1 1091.87 46.8582   2
  -2   0   1 1109.94 43.4865   6
  -2   0  -1 1163.07 54.2426   1
   2   0  -1 1125.47 45.2043   9
   2   0   1 1158.14 44.5791   6
   0  -2  -1 1150.38 41.4988   2
   2   0   1 1140.05 45.5417   9
   0  -2  -1 1147.47 40.9693   4
   0  -2  -1 1116.23 39.9522   7
  -2   0   1 1093.00 42.4185   7
   2   0   1 1173.31 43.6803   4
   2   0  -1 1089.91 43.4496   5
   2   0   1 1077.50 43.1688   5
   2   0  -1 1156.98 54.0698   1
   0   2   1 1183.50 41.2928   2
  -2   0   1 1093.85 49.8191   1
   0   2   1 1170.38 39.8859   7
  -2   0   1 1044.85 45.9660   9
   2   0  -1 1160.74 50.7269   1
  -2   0  -1 1114.07 42.7512   5
   0  -2   1 1128.71 41.7816   2
  -2   0  -1 976.309 47.1435   9
  -2   0  -1 1160.83 49.6097   1
   2   0   1 1128.97 42.5519   7
   0  -2  -1 1169.88 41.9547   3
  -2   0   1 1153.97 52.8692   1
  -2   0  -1 1142.13 43.2378   6
   2   0  -1 1081.39 47.8871   3
   2   0  -1 1156.05 43.1401   8
  -2   0   1 1126.39 47.5991   3
  -1   2   1 280.732 18.5361   1
   2   1   1 242.859 15.0157   3
  -1   2   1 290.580 16.8727   3
  -1   2   1 289.927 15.5438   2
  -2  -1   1 260.113 14.9383   3
   2  -1  -1 271.141 13.2303   7
  -2  -1   1 249.483 14.3163   2
   2   1   1 249.325 12.5939   8
   2   1   1 243.475 16.7238   1
  -2   1  -1 272.983 17.6203   3
  -2   1  -1 283.097 14.1722   4
  -1  -2  -1 252.415 10.7002   3
   2   1   1 244.357 13.4436   6
  -2  -1   1 264.362 12.7757   4
  -1   2   1 288.194 12.3303   8
   1  -2   1 289.543 13.3616   8
  -1  -2  -1 270.358 10.2508   8
   2   1   1 243.327 11.9632   7
   1  -2   1 270.268 17.7705   1
   2  -1  -1 292.195 15.8473   6
  -1  -2  -1 251.686 10.4494   2
   2  -1  -1 300.550 14.9134   4
  -2   1  -1 288.304 14.7216   6
  -2   1  -1 268.807 13.6915   7
   2  -1  -1 291.439 17.1733   2
   1  -2   1 283.104 16.5725   3
  -2   1  -1 273.701 19.5010   1
  -1   2   1 287.521 13.2929   5
  -1   2   1 278.969 13.7149   6
   2  -1  -1 284.979 18.8165   3
   1  -2   1 283.692 12.5250   7
   2  -1  -1 289.906 20.4156   1
   1  -2   1 281.452 15.5253   2
   2  -1  -1 285.965 14.1685   8
  -2   1  -1 273.589 17.5658   2
  -2  -1   1 232.094 12.0160   5
   2   1   1 247.561 13.8837   9
   2  -1  -1 292.243 14.7542   5
   2  -1  -1 287.168 15.7848   9
   2   1   1 239.232 12.4867   5
  -1   2   1 286.328 12.4837   7
  -2  -1   1 244.433 12.0343   8
  -2  -1   1 249.524 11.8626   7
  -1   2   1 278.551 17.0661   9
  -1  -2  -1 253.837 11.3038   2
  -2   1  -1 270.106 13.8092   8
   2  -1  -1 258.814 22.0770   1
  -2   1  -1 297.829 14.1633   5
  -2   1  -1 268.827 19.8624   9
   1  -2   1 287.767 13.3338   5
   1  -2   1 292.440 13.5851   4
  -1  -2  -1 254.091 11.4782   3
   2   1   1 248.422 14.5838   2
  -2  -1   1 280.695 18.8666   1
  -2   1  -1 299.227 23.8471   1
  -1   2   1 274.309 19.0895   1
   2   1  -1 252.988 16.6021   1
   1  -2  -1 293.879 18.3418   1
   2   1  -1 228.030 12.3209   5
  -1   2  -1 263.733 17.2446   1
  -2   1   1 280.224 14.1751   5
  -2  -1  -1 242.806 14.2006   3
   1  -2  -1 307.999 13.4839   8
  -1   2  -1 290.153 12.8951   5
  -2  -1  -1 247.692 16.0984   1
  -2   1   1 282.790 14.5726   4
   2   1  -1 255.666 14.2826   2
  -2  -1  -1 241.282 12.3086   4
   2  -1   1 262.628 14.2703   5
  -2  -1  -1 287.199 20.5020   1
   2  -1   1 270.943 13.3943   7
  -1   2  -1 291.106 16.1845   3
   1  -2  -1 312.632 13.8124   5
   2   1  -1 249.567 13.5210   6
  -2   1   1 281.972 17.3141   2
   2  -1   1 303.440 14.8860   4
   1  -2  -1 291.946 13.6741   4
   2   1  -1 243.591 15.2809   3
   2  -1   1 284.615 15.4703   6
  -2   1   1 291.027 14.8938   6
   2   1  -1 250.106 13.7625   9
   2  -1   1 266.270 18.2375   3
  -1   2  -1 267.488 19.9807   1
  -2   1   1 300.709 20.6604   1
   2  -1   1 275.269 17.0926   2
  -2   1   1 280.490 18.1363   9
  -2   1   1 301.748 22.7258   1
   1  -2  -1 282.559 15.2690   2
  -2   1   1 277.601 13.4671   7
  -2  -1  -1 237.549 12.1404   7
   1   2   1 253.422 10.9956   2
  -2  -1  -1 243.022 12.3246   8
   2  -1   1 258.697 23.4053   1
   1   2   1 255.936 11.1953   3
  -2   1   1 282.153 13.6216   8
  -1   2  -1 265.678 12.5803   7
   2  -1   1 268.545 14.2127   8
   2   1  -1 249.824 11.7785   7
   2   1  -1 243.737 11.9430   8
  -1   2  -1 275.760 12.5892   8
  -2  -1  -1 251.732 11.8670   5
   2  -1   1 274.790 19.9403   1
   1   2   1 252.579 10.7047   2
   2   1  -1 275.473 19.8630   1
  -1   2  -1 271.340 15.8314   2
  -2   1   1 286.771 18.3743   3
  -1   2  -1 293.113 18.9760   9
  -1   2  -1 289.407 13.6320   6
  -2  -1  -1 231.156 14.6140   2
   2  -1   1 288.067 16.1549   9
   1  -2  -1 270.786 19.7348   1
   1  -2  -1 298.574 17.2957   3
   2  -2   1 22.0997 4.74645   5
  -2   2  -1 28.4060 10.7448   1
  -2  -2   1 13.4523 2.61166   4
   2  -2  -1 18.0952 4.68241   4
  -2   2  -1 19.5318 4.75396   6
   2   2  -1 10.8368 3.11846   6
  -2   2   1 19.6769 6.93678   3
   2  -2  -1 17.1666 6.70959   1
   2  -2   1 12.7569 5.20126   2
   2  -2  -1 24.8344 7.31899   3
   2   2  -1 17.0903 3.01028   3
   2   2   1 16.1570 3.63876   2
   2  -2  -1 13.9531 4.88753   2
   2  -2   1 10.0064 5.24068   3
   2  -2  -1 10.9778 3.93553   5
  -2   2  -1 21.5822 6.56867   2
  -2   2   1 17.6127 3.70545   8
   2  -2   1 14.5651 3.46356   7
  -2  -2  -1 15.3632 2.63310   7
   2  -2   1 21.2438 4.78388   4
   2   2  -1 18.0670 2.08111   7
   2   2   1 10.8620 2.11507   7
  -2   2  -1 20.6707 4.24639   4
  -2   2   1 18.6600 4.41225   4
  -2   2   1 21.4733 4.63667   5
  -2  -2  -1 16.9457 2.56633   4
  -2  -2   1 14.0410 2.56558   2
  -2  -2   1 15.0940 3.11496   3
   2   2  -1 14.2510 3.19332   3
   2   2   1 17.5205 3.49040   6
  -2   2   1 15.0326 6.24895   1
   2  -2  -1 20.1012 4.51808   8
   2  -2  -1 15.9471 4.43524   9
  -2   2  -1 26.3171 10.9726   9
  -2  -2  -1 13.8250 3.56803   2
  -2   2  -1 16.9320 6.23782   1
   2  -2   1 16.4503 4.78857   9
  -2  -2   1 10.2217 2.69075   3
  -2  -2  -1 18.4014 2.81427   3
  -2  -2  -1 15.4567 2.83914   8
  -2   2  -1 15.6737 5.68802   3
  -2  -2   1 18.4316 2.68033   8
   2  -2   1 21.9671 5.32883   6
   2  -2  -1 18.0854 3.66402   7
  -2   2   1 18.5045 4.64425   6
  -2   2   1 28.9845 9.29499   1
   2  -2   1 17.1281 6.78435   1
  -2   2   1 20.5207 5.82612   2
   2   2  -1 15.3385 3.15447   2
  -2   2  -1 21.3402 4.23627   7
  -2  -2  -1 11.6809 1.99465   2
   2   2  -1 15.3038 2.70623   2
  -2  -2   1 11.4352 2.14166   7
   2  -2   1 16.8235 4.31699   8
   2   2   1 9.96464 2.81079   9
  -2   2   1 36.4541 9.43940   9
  -2  -2   1 12.1208 2.76572   2
   2   2   1 16.2363 3.57080   3
  -2   2  -1 16.7509 3.82808   8
   2  -2  -1 22.1963 5.68629   6
  -2   2  -1 13.8487 3.62301   5
  -2   2   1 10.9819 3.20565   7
   0  -3  -1 373.424 14.6599   7
   0   3   1 368.348 13.9637   7
  -3   0  -1 353.507 18.1972   5
  -3   0   1 320.155 22.4236   9
  -3   0  -1 365.833 18.7405   6
   3   0  -1 383.311 22.5561   2
  -3   0  -1 377.306 18.8387   8
  -3   0  -1 381.472 18.5225   7
   0  -3  -1 381.911 18.4485   3
   0  -3   1 356.618 15.5114   4
   3   0  -1 348.080 24.0134   3
   3   0  -1 374.742 21.3045   9
  -3   0   1 369.904 18.0430   7
  -3   0   1 361.777 18.2079   8
   3   0  -1 360.829 29.8772   1
  -3   0   1 350.403 19.0392   4
   0  -3  -1 370.562 15.8904   2
   0   3   1 393.261 16.4053   6
   0  -3  -1 369.851 14.9721   8
   3   0   1 372.686 18.0215   7
   3   0   1 404.314 19.4850   8
   3   0   1 384.861 21.8341   9
   0  -3   1 362.658 15.8123   2
  -3   0  -1 370.198 18.9160   4
   3   0  -1 351.636 19.2026   5
  -3   0   1 369.825 23.6065   3
   3   0   1 364.728 32.3891   1
   0   3   1 349.432 17.8489   3
  -3   0  -1 369.333 23.0073   3
   0   3  -1 370.379 15.8716   3
  -3   0   1 382.855 22.9449   2
   3   0   1 380.079 20.7963   6
   0   3  -1 367.669 15.5831   6
   0   3   1 380.673 15.4655   2
   3   0  -1 371.520 17.7880   7
   3   0  -1 397.155 18.9289   8
  -3   0   1 369.505 19.0729   6
   0  -3   1 354.807 16.2332   3
  -3   0   1 389.607 19.0301   5
  -3   0  -1 376.728 23.4634   2
   0  -3  -1 373.648 16.0176   4
   3   0   1 363.495 23.8201   3
   3   0   1 368.868 19.2505   4
  -3   0  -1 361.966 25.6209   9
   3   0   1 359.646 26.1949   1
   3   0   1 383.857 22.9981   2
  -3   0   1 401.189 29.6329   1
   3   0  -1 348.553 25.7652   1
  -3   0  -1 376.502 30.5483   1
   3   0  -1 368.610 20.7770   6
   3   0  -1 389.962 19.4173   4
   3   0   1 364.658 19.1464   5
   0   3  -1 371.470 15.9191   2
  -3   1  -1 712.097 31.1012   7
  -1   3   1 689.655 30.1771   6
  -3  -1   1 677.044 33.6391   2
  -3  -1   1 719.668 29.6803   5
  -1   3   1 712.215 34.2395   3
   3   1   1 736.114 30.5580   4
   3  -1  -1 794.437 33.2364   4
   3  -1  -1 703.299 39.2504   3
  -1  -3  -1 747.079 25.7535   4
   3   1   1 723.123 34.9667   3
   3   1   1 679.996 33.7742   2
   3   1   1 739.803 30.1344   8
  -3   1  -1 673.343 31.0024   5
  -3   1  -1 707.972 32.1272   6
  -1   3   1 732.914 28.0148   7
   3   1   1 702.586 29.1196   7
  -1   3   1 710.661 37.2058   1
   3   1   1 680.066 31.5312   6
  -1   3   1 740.922 28.4810   8
   3  -1  -1 692.361 36.0970   2
  -1   3   1 718.505 34.6974   9
   3   1   1 706.176 33.0661   9
   1  -3   1 685.790 31.8249   2
  -3   1  -1 682.619 37.1212   2
   3  -1  -1 722.059 41.8986   1
  -1   3   1 739.203 31.9220   2
   3  -1  -1 697.072 34.2478   9
   3  -1  -1 715.873 32.6079   5
  -1   3   1 714.179 29.3951   5
   3  -1  -1 732.959 34.4590   6
  -3   1  -1 702.513 46.0915   1
  -3  -1   1 684.160 29.3392   8
   1  -3   1 672.168 28.9715   8
  -3   1  -1 627.452 38.4612   9
  -3   1  -1 651.411 31.1648   4
  -3   1  -1 673.886 40.0625   1
  -3  -1   1 682.952 28.9450   7
   3  -1  -1 684.125 30.1519   7
  -3   1  -1 688.716 31.1885   8
   1  -3   1 739.066 33.5654   3
   1  -3   1 661.519 29.2937   4
  -3  -1   1 718.239 34.6375   3
   3   1   1 719.002 30.2087   5
  -3  -1   1 677.187 30.1578   4
   3   1   1 703.147 38.3409   1
   3  -1  -1 656.315 31.0167   8
   1  -3   1 717.979 29.1518   5
   3   1   1 900.981 60.3143   1
  -1   3   1 837.102 38.8265   1
  -3   1  -1 719.429 37.7629   3
  -3  -1  -1 688.870 29.7709   4
   1  -3  -1 697.032 28.8597   8
   3   1  -1 685.086 32.0634   6
  -1   3  -1 727.771 36.0274   9
   3   1  -1 723.546 32.9059   9
  -1   3  -1 678.273 34.4542   1
   3  -1   1 766.889 39.1823   3
   3  -1   1 675.288 36.2170   2
   3   1  -1 702.559 35.6202   3
  -3  -1  -1 718.951 29.0332   5
  -3   1   1 684.937 36.7204   2
  -3   1   1 695.651 41.3619   1
   1  -3  -1 672.292 29.7126   4
  -1   3  -1 682.596 28.1784   7
  -3  -1  -1 697.014 29.7856   8
   3   1  -1 757.350 45.0213   1
   3   1  -1 722.213 38.4324   1
  -3   1   1 694.802 32.1231   4
  -3  -1  -1 701.431 34.4752   2
  -3   1   1 720.577 38.3726   3
  -1   3  -1 704.472 29.8052   6
  -3   1   1 709.991 31.7992   5
  -3   1   1 743.189 32.8588   6
   3   1  -1 701.482 30.3685   5
   1  -3  -1 744.191 34.9836   3
   3  -1   1 692.856 31.6639   8
   1  -3  -1 714.165 29.7444   5
  -3  -1  -1 775.885 34.2190   3
  -1   3  -1 685.245 32.4668   3
  -1   3  -1 700.841 28.4606   5
  -1   3  -1 682.048 37.7190   1
   3  -1   1 701.586 32.2063   4
   3   1  -1 733.415 29.0352   7
   3  -1   1 699.767 41.7333   1
   3  -1   1 674.636 30.3020   7
   1  -3  -1 682.680 27.6318   7
   1  -3  -1 730.853 31.6688   2
   3   1  -1 712.998 29.3540   8
   3  -1   1 703.875 33.5212   6
   3   1  -1 707.582 33.5810   2
  -3   1   1 724.334 31.0036   8
   3  -1   1 669.022 31.7863   5
  -1   3  -1 697.432 32.4400   2
   3  -1   1 689.917 34.7448   9
   3  -1   1 655.747 45.4819   1
  -3  -1  -1 701.173 29.3941   7
  -3   1   1 751.484 31.1345   7
  -3   2  -1 28.5675 6.22675   4
  -2   3   1 28.9113 6.52073   6
  -3   2  -1 13.0324 6.64373   2
   3  -2  -1 19.2432 4.60219   7
   3  -2  -1 22.3157 6.39255   9
   3  -2  -1 32.2269 8.50469   2
   2  -3   1 30.5182 6.47017   4
  -3  -2   1 39.7816 5.74271   4
   3  -2  -1 28.9929 6.97017   5
   3   2   1 35.3442 6.35402   6
   3  -2  -1 25.1557 7.33770   6
   3   2   1 41.8601 7.39982   2
  -2   3   1 30.2826 7.60666   2
  -3   2  -1 19.0712 5.00527   7
   2  -3   1 25.6781 5.65473   8
  -2   3   1 21.9577 4.25836   8
   2  -3   1 24.4190 4.71673   7
  -2   3   1 34.2079 6.44049   4
   3  -2  -1 22.8508 6.44405   4
  -2   3   1 29.2528 8.27794   3
  -3   2  -1 35.0401 6.71638   8
  -3   2  -1 20.1067 7.65673   3
  -2   3   1 25.1598 5.42716   5
  -3  -2   1 42.1033 5.19577   8
   3  -2  -1 30.0644 5.54796  10
   3   2   1 37.7185 4.91351   7
  -3   2  -1 28.1514 4.93534  10
  -2   3   1 37.3662 11.0490   9
   3  -2  -1 22.6062 5.78190   8
  -2   3   1 27.2341 4.95189   7
   3  -2  -1 27.7284 9.46474   3
   2  -3   1 35.1468 9.97147   3
  -3   2  -1 14.9971 4.86931   5
   3   2   1 37.3355 8.31878   1
   2  -3   1 29.1070 7.45200   2
  -3   2  -1 33.1988 13.4269   1
  -3   2  -1 39.9066 14.6659   9
   3   2   1 33.6475 6.69340   9
   2  -3   1 31.8087 6.57589   5
  -3   2  -1 27.5876 7.03383   6
   3   2   1 40.8603 7.35685   3
  -2   3   1 27.6777 10.8546   1
  -2   3  -1 18.0047 9.99220   1
  -3   2   1 30.9366 7.32675   6
   3  -2   1 28.0057 7.11298   5
  -3   2   1 49.4631 13.4439   9
   3  -2   1 24.9455 6.25054   8
   2  -3  -1 28.3951 4.95017   7
  -3  -2  -1 42.3654 5.51312   4
  -2   3  -1 32.0823 8.13420   3
  -3   2   1 17.9155 5.26247   4
   2  -3  -1 39.9872 8.02899   2
   3   2  -1 33.2700 6.43214   9
  -3   2   1 33.7872 6.11951   7
   2  -3  -1 26.6991 5.81775   8
   2  -3  -1 29.7294 6.33674   5
  -3   2   1 22.7404 7.85068   2
  -3   2   1 38.9058 5.63193  10
   3  -2   1 27.2277 7.88876   2
   3   2  -1 30.1799 5.98313   6
  -3   2   1 32.4738 10.0967   3
  -3  -2  -1 36.5476 5.85929   3
   3  -2   1 36.6413 6.13529  10
  -3   2   1 24.1428 5.91136   5
  -2   3  -1 23.5447 7.16567   2
  -2   3  -1 27.5046 6.14529   6
   2  -3  -1 26.0293 6.11253   4
   3   2  -1 28.5914 5.57585   2
  -3  -2  -1 45.4488 7.79299   2
  -2   3  -1 22.2701 4.72450   7
   3  -2   1 20.7760 5.03742   7
  -2   3  -1 28.7641 11.5983   9
   3  -2   1 32.2111 10.2856   3
   3  -2   1 36.1933 8.17274   6
  -3   2   1 35.7302 13.3768   1
   3  -2   1 28.5683 10.3057   9
  -3   2   1 31.2967 5.77320   8
  -3  -2  -1 39.5898 5.51721   8
   3  -2   1 33.8556 7.44376   4
  -2   3  -1 30.6806 5.35387   8
   2  -3  -1 27.7964 8.99690   3
   3   2  -1 42.9544 7.51950   3
  -2   3  -1 28.5008 5.46547   5
   3  -3   1 439.953 25.2609   8
   3  -3   1 586.136 33.4770   6
  -3   3   1 541.715 40.7036   1
  -3   3  -1 453.913 24.7597   5
   3  -3   1 466.518 23.9277   7
  -3   3   1 480.156 24.1922   7
   3  -3   1 412.596 25.7672   4
  -3   3  -1 495.503 25.0340   7
  -3   3   1 455.322 26.7308   6
  -3   3  -1 474.096 31.7636   2
  -3   3   1 462.286 30.2600   2
   3  -3  -1 497.789 26.8852   5
  -3   3  -1 456.148 31.1861   3
  -3   3  -1 474.277 26.6265   6
  -3   3   1 464.288 23.7071   8
  -3   3   1 533.210 35.2747   9
   3  -3  -1 504.553 33.9678   3
  -3   3   1 441.809 25.2476   5
   3  -3   1 497.352 33.0813   3
   3  -3   1 491.347 30.7360   2
   3  -3  -1 485.381 26.8482   4
   3  -3  -1 466.084 25.2314   8
   3  -3   1 485.214 23.3485  10
  -3   3  -1 455.792 24.1557   8
  -3   3  -1 517.034 36.8645   9
   3  -3  -1 456.268 29.4910   2
   3  -3   1 480.476 26.1947   5
   3  -3  -1 477.061 23.6754   7
  -3   3  -1 480.680 24.8615   4
   3  -3  -1 478.518 27.8124   6
  -3   3   1 458.130 32.0440   3
  -3   3   1 436.783 24.9235   4
   3   3   1 504.916 21.4337   6
  -3   3   1 462.946 22.7355  10
  -3   3  -1 440.452 38.8839   1
  -3   3  -1 456.913 22.2855  10
   3  -3  -1 505.097 23.8613  10
   4   0   1 1054.90 48.7665   6
   0   4   1 1091.04 41.8460   6
   0  -4  -1 1060.75 41.2877   4
   4   0  -1 1055.91 44.3360   7
   4   0  -1 1092.94 44.2420  10
   4   0  -1 1212.86 47.5792   4
  -4   0  -1 1076.37 45.6677   6
  -4   0  -1 1066.67 45.1543   5
   4   0   1 1109.25 53.0270   2
   4   0  -1 1034.72 45.2764   8
  -4   0  -1 1067.85 53.2931   2
   4   0  -1 1102.91 59.3819   1
   4   0  -1 1085.42 47.2604   5
   4   0  -1 1114.17 56.1716   3
   4   0  -1 1075.84 49.5650   6
  -4   0   1 1107.70 45.0111   7
  -4   0  -1 1076.93 45.8620   8
  -4   0   1 1103.94 43.1486  10
  -4   0   1 1170.78 53.5248   2
   4   0   1 1049.29 44.5869   7
   4   0   1 1032.45 53.8072   3
  -4   0  -1 1038.98 45.8364   4
   4   0   1 1077.00 46.5958   4
   4   0   1 1025.97 46.2190   5
   4   0   1 1081.86 59.4456   1
   4   0   1 1062.64 46.0443   8
  -4   0   1 1103.06 53.9352   3
  -4   0   1 1071.24 45.2442   8
   4   0   1 1054.18 50.7544   9
  -4   0   1 1045.79 45.6822   5
   4   0  -1 1100.13 50.4672   9
  -4   0  -1 1079.79 45.2893   7
   4   0   1 1019.00 43.4383  10
  -4   0   1 1061.91 46.6175   4
  -4   0  -1 1044.87 42.4755  10
  -4   0  -1 1133.19 53.2395   3
   4   0  -1 1046.41 51.5465   2
  -4   0   1 1078.81 46.4735   6
   1  -4   1 49.8072 6.87701   8
   4   1   1 76.3023 11.4099   6
  -1   4   1 54.9367 10.5623   9
  -4   1  -1 66.9288 13.2788   2
  -4   1  -1 71.9985 10.3036   5
  -4  -1   1 92.6189 13.4522   2
   1  -4   1 63.7456 8.39087   4
   4  -1  -1 78.0610 15.8294   3
   4  -1  -1 66.7885 15.5296   1
   4  -1  -1 68.5695 9.61216   7
   4  -1  -1 73.0430 13.6519   2
  -1   4   1 73.9880 9.45630   6
  -4   1  -1 75.8836 14.6774   3
   4  -1  -1 62.8498 11.0739   9
  -4  -1   1 80.6999 8.80015   4
   4   1   1 89.9646 9.68922   7
   4  -1  -1 62.5480 10.3896   4
   4   1   1 102.711 14.7539   2
  -4  -1   1 96.0670 14.1304   3
   4   1   1 87.7435 10.7545   5
   4  -1  -1 83.8621 13.9654   6
   4   1   1 78.1794 10.7777   9
  -4   1  -1 64.3714 6.61657  10
  -4  -1   1 78.3405 8.67702   7
   4  -1  -1 67.5984 9.99446   8
  -4  -1   1 87.7377 8.69032   8
   4   1   1 100.523 26.8206   1
   4   1   1 87.7002 14.8441   3
  -4  -1   1 79.5160 8.22576   5
  -4   1  -1 64.6519 9.50631   7
  -4   1  -1 60.6404 9.50150   8
   4  -1  -1 66.1356 7.49082  10
   4   1   1 74.8394 9.95522  10
  -4   1  -1 64.2867 9.75542   4
  -4   1  -1 72.1817 11.1935   6
   4  -1  -1 60.5599 10.4186   5
   4  -1   1 71.8270 10.8045   8
  -4   1   1 77.9107 15.3659   3
   4  -1   1 69.4289 9.67981   7
   4  -1   1 73.2609 25.3410   1
  -4  -1  -1 73.8088 9.51630   4
  -1   4  -1 67.0772 7.42258   6
  -4  -1  -1 83.6192 9.47099   7
   4   1  -1 86.8923 7.74230   7
   1  -4  -1 66.5987 8.69292   4
  -4   1   1 58.1440 9.70107   5
  -4  -1  -1 76.2144 7.64982  10
   4   1  -1 71.9279 10.0942   9
  -4   1   1 70.2227 10.7024   4
  -4   1   1 60.1203 6.34097  10
   4   1  -1 97.0138 13.7783   2
   4  -1   1 78.3489 14.2976   2
   4   1  -1 76.9083 12.0053   6
   4  -1   1 71.2879 12.5410   9
   4   1  -1 79.0644 10.0848   5
  -4   1   1 52.4816 11.7908   2
   4  -1   1 85.4591 16.4230   3
  -4  -1  -1 82.1302 7.74948   5
  -4   1   1 55.4101 8.59457   7
  -4   1   1 58.0970 10.1966   6
   4   1  -1 95.5791 15.7809   3
   1  -4  -1 84.2778 8.52477   8
  -4   1   1 68.7032 9.73817   8
  -4  -1  -1 81.2117 10.0154   8
   4  -1   1 73.0433 9.49916  10
   4  -1   1 64.3341 11.6789   6
  -1   4  -1 51.8938 12.8233   9
  -4  -1  -1 99.5797 14.6405   2
   4  -1   1 63.1281 10.5163   4
  -4  -1  -1 88.1593 13.1446   3
   4  -1   1 64.7116 10.4950   5
   4  -2  -1 238.851 18.7854   4
  -4   2  -1 229.115 16.7757   5
  -4   2  -1 218.509 21.7533   3
   2  -4   1 242.235 16.7375   4
  -4   2  -1 245.106 17.4162   4
   4   2   1 209.637 17.1798   9
  -4   2  -1 226.214 26.6217   9
   4  -2  -1 285.797 27.2255   3
  -2   4   1 246.293 17.0977   6
  -2   4   1 242.800 18.1397   2
   2  -4   1 267.678 16.6378   7
  -2   4   1 236.088 15.2753   5
  -4   2  -1 241.402 14.5997  10
   4  -2  -1 259.799 19.2839   5
  -2   4   1 244.646 13.9429   7
   2  -4   1 231.777 15.7097   8
   4   2   1 229.666 16.4383   6
  -4   2  -1 223.653 16.7442   7
   4  -2  -1 246.751 20.8322   6
  -4  -2   1 210.611 14.1472   4
  -4   2  -1 216.106 16.6847   8
   4  -2  -1 251.543 15.9554  10
  -4  -2   1 212.736 13.8287   8
   4  -2  -1 248.313 21.7797   2
  -2   4   1 247.638 20.4457   3
  -4   2  -1 226.037 22.2417   2
   4  -2  -1 206.576 15.1844   7
   4  -2  -1 253.372 17.6905   8
  -2   4   1 261.971 23.5535   9
  -4   2  -1 228.317 18.2176   6
  -4   2   1 250.539 22.5200   2
  -4   2   1 229.275 18.6338   6
  -2   4  -1 230.675 14.4256   5
   2  -4  -1 224.477 22.0162   3
   4  -2   1 218.958 17.6525   5
  -2   4  -1 248.886 21.6074   3
  -2   4  -1 237.547 14.2468   7
  -4  -2  -1 216.220 13.7270   4
   4  -2   1 231.780 18.5608   4
   4   2  -1 210.124 16.8082   6
  -4   2   1 209.983 16.7893   5
   4   2  -1 229.485 17.1909   9
   4  -2   1 218.190 17.1369   8
  -4  -2  -1 227.055 14.6658   8
  -4   2   1 246.077 14.9588  10
   2  -4  -1 252.265 16.8465   4
  -2   4  -1 228.181 16.3261   6
  -4   2   1 263.940 25.6612   9
   2  -4  -1 246.872 15.5812   8
   4  -2   1 229.306 16.0801   7
   2  -4  -1 216.641 13.2228   7
  -4   2   1 235.153 22.6437   3
   2  -4  -1 213.240 17.3329   2
  -4   2   1 236.589 17.6122   4
   4  -2   1 241.858 20.4840   6
   2  -4  -1 255.890 16.3288   5
  -4   2   1 251.943 16.9199   7
  -2   4  -1 268.210 20.6759   2
  -4   2   1 250.480 16.9323   8
  -2   4  -1 252.479 24.6549   9
   4  -2   1 277.891 23.2371   2
   4  -2   1 237.589 15.5231  10
   4  -2   1 242.300 25.3243   3
  -4   3  -1 99.4097 9.41903  10
   4   3   1 114.149 11.0225   6
  -3   4   1 114.975 11.6250   5
   3  -4   1 102.278 14.4080   4
   3  -4   1 97.5100 13.2428   8
   3  -4   1 102.590 18.6490   3
   4  -3  -1 84.3603 17.2607   2
  -3   4   1 107.437 11.7878   7
  -4   3  -1 115.203 14.4965   5
   3  -4   1 123.639 15.5069   5
  -3   4   1 110.358 16.2628   2
   4  -3  -1 114.921 13.2373   7
  -4   3  -1 142.049 22.0587   2
   4  -3  -1 99.1427 13.8585   8
  -3   4   1 110.803 15.7620   6
  -4   3  -1 110.460 14.1326   8
   3  -4   1 106.379 9.39778  10
  -4   3  -1 161.976 28.9641   9
   4  -3  -1 102.645 10.4891  10
  -4   3  -1 131.113 16.8183   6
   4  -3  -1 130.572 16.5908   5
  -3   4   1 99.1385 8.61725  10
  -4   3  -1 103.440 13.2716   7
   4  -3  -1 121.800 17.4962   6
   4   3   1 104.366 12.2458   9
   3  -4   1 108.771 17.3664   2
   3  -4   1 100.909 11.7372   7
   4  -3  -1 107.646 15.4240   4
  -3   4   1 108.431 17.8204   3
   4  -3  -1 131.606 23.1168   3
  -3   4   1 158.260 24.9928   9
  -4   3  -1 101.945 18.0322   3
  -4   3   1 103.410 14.0984   4
  -4   3   1 119.910 20.6831   3
  -4   3   1 102.880 9.60220  10
   4  -3   1 99.0030 19.2498   3
  -3   4  -1 96.4534 11.9266   7
   4  -3   1 108.578 16.5771   6
  -4   3   1 100.281 13.6118   5
   3  -4  -1 129.993 14.9516   8
  -3   4  -1 97.8059 12.5716   5
  -4   3   1 88.7167 16.8283   2
   4  -3   1 120.676 19.5045   2
  -4   3   1 119.353 17.2476   6
   3  -4  -1 113.549 9.63547  10
  -3   4  -1 110.512 17.7095   2
   3  -4  -1 108.618 19.1073   3
   3  -4  -1 94.9140 10.9534   7
  -3   4  -1 158.033 27.0571   9
   4  -3   1 138.030 17.7100   5
   3  -4  -1 112.503 14.7513   5
  -3   4  -1 102.464 17.4641   3
   3  -4  -1 87.5248 13.7653   4
  -4   3   1 100.991 12.4347   8
  -4   3   1 181.644 27.6373   9
   4  -3   1 105.054 10.7174  10
   3  -4  -1 116.692 16.8777   2
  -4   3   1 97.5735 12.5280   7
  -3   4  -1 95.9674 8.35397  10
  -3   4  -1 112.123 15.2689   6
   4   3  -1 100.997 11.5603   9
   4  -3   1 107.680 14.4004   8
   4  -3   1 107.410 13.2732   7
   4  -3   1 102.128 15.1513   4
   4  -4  -1 389.267 26.6464   5
  -4   4  -1 400.015 24.7719   5
  -4   4  -1 377.059 26.6144   6
   4  -4   1 366.317 23.2867   7
   4  -4  -1 393.439 27.3895   4
  -4   4   1 374.382 24.9310   5
  -4   4  -1 361.894 20.9475  10
  -4   4  -1 396.339 38.5948   9
   4  -4   1 341.746 26.3057   4
   4  -4  -1 359.488 25.4268   8
  -4   4   1 412.389 37.0648   9
  -4   4   1 372.512 21.7054  10
   4  -4   1 337.178 25.5381   5
   4  -4  -1 388.888 23.0517   7
   4  -4  -1 409.114 23.2900  10
   4  -4   1 419.882 23.1174  10
  -4   4   1 373.401 27.2876   6
  -4   4   1 397.832 23.9236   7
  -4   4  -1 383.548 24.3731   7
  -5   0   1 33.9940 7.56923   7
   5   0  -1 18.1969 8.02561   2
   5   0  -1 21.0943 6.93082   8
   5   0  -1 23.7600 8.24403   5
  -5   0   1 35.3169 11.5162   3
  -5   0   1 26.1628 7.56768   5
  -5   0   1 28.7946 7.95946   4
   5   0  -1 6.72867 6.49273   6
  -5   0  -1 23.6248 7.02167   5
   5   0   1 35.3911 7.07505  10
   5   0   1 23.0510 7.28190   8
  -5   0   1 30.5381 10.3002   2
   5   0  -1 35.0221 10.5675   9
  -5   0   1 23.1460 6.85263   8
   5   0  -1 16.7345 5.27014  10
   5   0   1 33.7821 10.8678   3
   5   0   1 30.5721 7.49683   7
  -5   0  -1 20.4527 6.86204   4
   5   0   1 22.7659 8.37549   6
  -5   0  -1 24.6721 6.93149   7
   5   0   1 31.2208 10.5571   9
  -5   0  -1 9.56577 7.42147   2
   5   0  -1 37.5047 11.5982   3
   5   0   1 20.6474 7.64680   5
  -5   0  -1 26.6053 5.07605  10
   5   0  -1 31.6089 7.28035   7
  -5   0  -1 23.1850 7.50311   8
  -5   0   1 30.3877 5.96014  10
   5   0   1 17.9110 7.80280   2
  -5   0  -1 19.4706 8.13374   3
  -5   1  -1 99.3928 14.3764   4
  -5   1  -1 104.615 14.0139   5
   5  -1  -1 69.7695 14.6917   6
   5   1   1 96.8596 13.3830   5
  -5  -1   1 112.073 12.8083   5
  -5  -1   1 112.258 14.2325   4
  -5   1  -1 104.283 15.3132   6
  -5   1  -1 91.2985 13.4167   8
  -5   1  -1 96.3850 13.5832   7
  -1   5   1 105.450 16.8214   9
   5   1   1 105.129 17.0246   2
   5  -1  -1 95.2321 20.1958   3
  -5  -1   1 97.4833 11.2857   7
   5  -1  -1 112.315 16.1041   5
  -5   1  -1 106.327 19.2970   3
   5  -1  -1 120.440 14.3021   7
  -5  -1   1 98.8699 12.2632   8
   5   1   1 116.725 16.3733   6
   5  -1  -1 105.490 10.9372  10
  -5   1  -1 92.3266 8.94199  10
   5   1   1 99.9411 14.5730   9
   5  -1  -1 111.311 14.1543   8
   5   1   1 120.322 18.7474   3
   5  -1  -1 97.2798 14.7037   9
   5   1   1 110.572 10.7916   7
   5  -1  -1 87.2754 14.1083   4
   5   1   1 119.730 9.42621  10
  -1   5   1 101.770 10.0273   6
  -5  -1  -1 98.8788 10.7834   4
  -5  -1  -1 120.199 14.0256   8
  -5  -1  -1 90.8098 17.8493   3
  -5   1   1 85.0431 9.03540  10
   5   1  -1 99.1787 11.3583   7
  -1   5  -1 57.0294 13.3192   9
   5  -1   1 85.7000 15.9209   6
   5   1  -1 121.803 25.9866   3
   5  -1   1 108.287 16.3063   5
   5  -1   1 107.727 18.7128   9
   5   1  -1 115.890 9.36664  10
   5  -1   1 113.245 20.9436   3
   5  -1   1 106.157 13.3769  10
   5   1  -1 99.1021 13.9788   9
  -5  -1  -1 101.487 7.76386  10
  -5   1   1 101.671 14.3506   5
  -5   1   1 91.6078 14.2625   4
  -5   1   1 85.2156 12.4369   8
   5  -1   1 99.6243 14.9642   4
  -5   1   1 108.280 15.3266   6
   5  -1   1 97.6637 13.0763   7
   5   1  -1 110.158 15.9797   6
   1  -5  -1 79.6967 10.2158   4
  -5  -1  -1 93.7489 16.6851   2
   5  -1   1 100.463 14.2412   8
  -5   1   1 70.1105 15.1579   3
  -5  -1  -1 113.265 10.7050   5
  -5  -1  -1 98.0017 12.1379   7
   5   1  -1 109.590 14.3282   5
  -5   1   1 105.805 13.2348   7
   5   1  -1 95.4873 19.4115   2
   5  -2  -1 68.7690 15.0324   6
   5  -2  -1 77.3496 12.0172  10
   5   2   1 65.3101 11.6132   6
  -5   2  -1 69.4641 12.6395   7
  -2   5   1 46.8772 13.3050   9
  -5   2  -1 58.6435 11.3541   4
  -5   2  -1 70.2637 12.1661   5
  -5  -2   1 61.6193 9.18769   8
   2  -5   1 63.6321 10.4203   8
   2  -5   1 59.3397 10.5401   4
  -5   2  -1 70.4990 12.3216   8
   5  -2  -1 83.0218 14.9575   4
   5  -2  -1 59.0890 12.0457   5
  -5  -2   1 76.9471 10.9729   4
  -2   5   1 81.0817 12.7667   6
  -5   2  -1 67.5214 10.0616  10
   5   2   1 65.0158 14.0054   9
   5  -2  -1 76.9713 13.0883   8
  -5   2  -1 73.8726 13.7109   6
   5  -2  -1 82.9316 12.7050   7
   2  -5  -1 72.3456 10.1232   8
   5  -2   1 67.5926 11.7933  10
  -5   2   1 57.4420 10.7523   8
  -5   2   1 75.0873 11.7559   7
   5  -2   1 69.7448 11.7396   7
  -5   2   1 62.1165 9.68888  10
  -5   2   1 58.2713 11.5776   5
  -5   2   1 67.5867 12.5959   4
  -2   5  -1 70.4495 18.0404   9
  -2   5  -1 58.6849 10.4938   6
   5  -2   1 70.6619 14.1378   4
  -5   2   1 89.8332 15.4488   6
   2  -5  -1 60.9459 10.8334   4
   5   2  -1 55.7850 11.7033   6
   5  -2   1 48.2865 13.2999   6
  -5  -2  -1 57.9948 9.68727   8
   5  -2   1 54.6383 11.0994   8
   5   2  -1 55.4834 12.3866   9
   5  -2   1 64.1297 13.3512   5
  -5  -2  -1 62.1091 9.22437   4
  -3   5   1 51.5702 20.1783   9
   5  -3  -1 120.631 18.8719   4
  -5   3  -1 109.376 15.4127   4
   3  -5   1 111.488 17.4510   4
  -5   3  -1 142.580 18.1602   5
   3  -5   1 71.3502 12.1918   8
  -3   5   1 110.833 16.9169   6
  -5   3  -1 86.3928 14.9903   8
   5  -3  -1 115.797 15.2866  10
  -5   3  -1 135.374 19.3061   6
   5  -3  -1 93.5289 16.1487   5
   5   3   1 107.201 17.6642   9
   5  -3  -1 78.1481 15.6469   8
  -5   3  -1 93.1099 10.6773  10
  -5   3  -1 132.459 18.6914   7
   5  -3  -1 118.700 15.9068   7
   5  -3  -1 95.0182 17.9486   6
  -5   3   1 109.244 16.3750   4
   3  -5  -1 100.561 15.8997   4
  -5   3   1 94.7741 16.6371   6
   5  -3   1 135.072 21.1685   6
  -3   5  -1 114.154 16.8488   6
  -5   3   1 119.419 12.0356  10
   5  -3   1 110.873 19.1693   8
  -5   3   1 91.3340 15.3543   7
  -5   3   1 98.6717 15.4316   5
  -3   5  -1 105.866 28.0596   9
   5   3  -1 87.3101 15.4071   9
   5  -3   1 103.625 16.7971   5
   5  -3   1 114.641 15.4997  10
   3  -5  -1 120.158 15.3571   8
   5  -3   1 113.167 15.9779   7
  -5   3   1 94.7140 14.4102   8
   5  -3   1 94.3572 16.6879   4
   4  -5   1 4.01131 7.52930   4
   5  -4  -1 12.1266 6.84877   5
   5   4   1 12.1076 11.5289   9
   5  -4  -1 9.09032 7.86745   4
  -5   4  -1 15.2585 12.8011   7
  -4   5   1 18.1490 5.67429  10
   5  -4  -1 8.00981 6.64247  10
   5  -4  -1 11.0969 10.1250   7
   4  -5   1 -2.5344 15.3552   8
   5  -4  -1 -2.0334 15.3317   8
  -4   5   1 18.0016 8.40843   6
  -5   4  -1 1.26134 4.28091  10
  -5   4  -1 14.3374 6.42656   5
  -5   4  -1 15.9915 10.0217   6
  -4   5   1 28.9783 33.1518   9
   5  -4   1 28.4172 9.80456   5
  -5   4   1 7.14928 5.03111  10
   4  -5  -1 2.31342 14.0739   8
  -5   4   1 3.96259 10.9600   7
   4  -5  -1 9.37062 7.07796   4
  -5   4   1 8.87081 5.54189   5
  -4   5  -1 3.45536 30.0248   9
   5  -4   1 10.2627 8.24154   4
  -5   4   1 14.3406 9.64009   6
   5  -4   1 4.17569 11.5026   7
  -4   5  -1 6.18675 7.11032   6
   5  -4   1 1.98812 17.0808   8
   5  -4   1 7.71367 5.63642  10
  -5   5   1 13.6362 9.63074   6
  -5   5  -1 19.7592 9.43210  10
  -5   5  -1 35.4932 10.8467   6
  -5   5   1 23.9431 10.5092  10
   5  -5   1 31.8883 11.7712   4
  -5   5   1 21.6556 6.52279   5
   5  -5  -1 29.5246 11.4162   4
  -6   0  -1 126.618 19.0723   8
   6   0   1 154.752 22.1369   6
  -6   0   1 131.545 15.1974   7
  -6   0  -1 118.114 10.7635  10
   6   0   1 136.576 18.7598   5
   6   0   1 117.513 12.6518  10
   6   0  -1 140.889 13.9662  10
   6   0  -1 114.283 19.8443   9
  -6   0   1 119.636 10.8649  10
  -6   0   1 130.850 17.6506   4
  -6   0  -1 143.600 18.5626   4
  -6   0  -1 127.379 16.3816   7
   6   0  -1 154.492 17.7756   7
   6   0   1 132.546 20.8038   9
   6   0  -1 117.868 18.9353   6
  -6   0   1 155.980 18.1363   5
  -6   0   1 132.296 18.1990   8
  -6   0  -1 126.489 16.0280   5
   6   0  -1 155.156 20.2915   5
   6   0   1 141.146 18.3994   7
  -1   6   1 4.49932 18.4516   9
   6   1   1 9.01086 8.00806   6
  -6   1  -1 17.4593 5.78143  10
   6  -1  -1 19.9341 8.92886   5
  -6   1  -1 13.0909 7.01297   4
   6  -1  -1 21.6497 11.1456   6
  -6   1  -1 4.31874 11.7605   8
  -6   1  -1 22.6594 12.6188   7
   6   1   1 4.25907 13.4440   9
  -6  -1   1 4.00579 5.57794   4
  -6  -1   1 12.7211 8.12812   8
   6  -1  -1 10.1486 6.84081  10
   6  -1  -1 17.6114 11.1451   7
   6  -1  -1 9.11889 9.19116   8
  -6   1  -1 13.0656 6.91886   5
  -6   1   1 4.47073 9.28451   7
  -6   1   1 7.80475 10.8699   8
  -6   1   1 9.78929 6.76274   4
   6  -1   1 26.6911 9.13335   5
   6   1  -1 4.99502 6.61293   6
   6   1  -1 -0.6068 12.2945   9
  -6  -1  -1 12.8086 5.84191   4
  -6   1   1 8.83999 4.26245  10
  -6  -1  -1 8.82602 8.25862   8
   6  -1   1 24.8627 11.5259   8
  -6   1   1 11.2743 6.51050   5
   6  -1   1 13.5203 6.95515  10
   6  -1   1 11.1812 11.7273   7
   6  -1   1 17.9688 10.3368   6
  -6   2  -1 8.95581 5.22906   4
  -6   2  -1 3.50031 13.7876   8
  -6   2  -1 12.7631 7.33252   5
  -2   6   1 -16.838 23.9164   9
   6  -2  -1 0.22451 12.1296   7
   6   2   1 3.33127 16.3908   9
   6  -2  -1 9.79616 6.59472  10
  -6   2  -1 15.8491 7.51978   6
   6   2   1 7.92054 5.44734   6
  -6  -2   1 4.95349 4.85077   4
  -6   2  -1 9.97251 14.6803   7
  -6   2  -1 7.32472 5.02289  10
   6  -2  -1 5.01083 12.8017   8
   6  -2  -1 11.0714 7.09095   5
   6  -2  -1 14.6734 7.59229   4
   6  -2  -1 14.5505 10.1007   6
   6  -2   1 12.8348 10.7847   6
   6  -2   1 10.7997 13.2844   7
  -6  -2  -1 9.35462 4.65495   4
   6  -2   1 4.91489 6.66075   5
  -2   6  -1 -7.8291 24.8502   9
   6   2  -1 17.2037 7.35001   6
   6  -2   1 15.6062 15.2346   8
   6   2  -1 3.82141 14.3891   9
  -6   2   1 4.58249 7.15571   5
  -6   2   1 12.1131 13.3561   8
  -6   2   1 6.13302 5.43020  10
  -6   2   1 17.2759 14.0892   7
  -6  -2  -1 8.74991 10.1103   8
  -6   2   1 20.7259 8.61053   6
   6  -2   1 2.97058 6.29444  10
   6  -2   1 25.1024 9.00407   4
  -6   2   1 3.55118 4.86038   4
   6  -3  -1 11.4942 7.66376   4
   6  -3  -1 -1.2187 4.87980  10
   6  -3  -1 10.8622 8.86414   5
   6   3   1 11.7095 17.5013   9
   6  -3  -1 7.79551 8.70675   6
  -3   6   1 14.1554 6.68991   6
  -6   3  -1 -1.7561 5.29405   5
  -6   3  -1 -1.7176 19.8288   7
   3  -6   1 15.1573 6.96057   4
  -6   3  -1 -1.3734 3.54122   4
  -6   3  -1 -2.2813 15.5843   8
  -6   3  -1 12.8625 8.13755   6
  -6   3  -1 0.14696 4.97766  10
   6  -3  -1 1.61150 16.2422   8
   6  -3   1 13.0049 9.26695   4
   6  -3   1 3.82299 5.93039  10
  -6   3   1 10.8899 6.00779   5
  -6   3   1 3.14031 7.57462   6
   6  -3   1 7.56312 9.76453   6
   6  -3   1 4.91835 17.7268   8
   6  -3   1 17.0445 8.73766   5
  -6   3   1 0.17466 21.0903   7
  -3   6  -1 9.78786 6.10421   6
   6  -3   1 -9.7528 21.1886   7
  -6   3   1 -3.9433 4.53175  10
   3  -6  -1 -1.1038 6.13182   4
  -6   3   1 0.26796 13.1252   8
  -6   3   1 6.51596 4.18275   4
   6   3  -1 9.00664 15.0785   9
  -4   6   1 75.9565 17.7225   6
   4  -6   1 56.0517 13.8701   4
   6  -4  -1 48.0260 15.5333   5
   6  -4  -1 63.1299 17.7132  10
  -6   4  -1 76.1769 17.2311   5
  -6   4  -1 66.0172 14.9205  10
   6  -4  -1 58.1332 18.4023   4
  -6   4  -1 59.9706 20.0720   6
  -6   4   1 79.4750 18.7918   5
   6  -4   1 50.1445 14.0953   5
  -6   4   1 74.4079 16.8321  10
  -6   4   1 87.0923 21.5997   6
   6  -4   1 76.8330 20.1602   4
   4  -6  -1 39.7716 13.0131   4
   6  -4   1 77.5546 18.0461  10
  -4   6  -1 80.7049 15.8635   6
   7   0   1 83.5678 14.1367   5
   7   0  -1 111.736 17.5582   5
   7   0  -1 78.5789 15.5090  10
   7   0   1 67.3846 15.3987  10
  -7   0  -1 88.3525 14.8593   4
   7   0  -1 84.9825 17.8481   6
   7   0   1 94.1600 17.5742   6
  -7   0   1 100.371 16.0487   4
  -7   1  -1 114.746 23.5551   5
  -7   1  -1 96.2430 16.0154   4
  -7   1  -1 107.440 15.7665  10
   7  -1  -1 146.949 21.6838   5
   7  -1  -1 125.860 21.3906   6
   7  -1  -1 136.219 22.2379  10
  -7  -1   1 124.951 13.2622   4
   7   1   1 136.725 20.2315   6
  -7   1   1 117.990 18.0500   4
   7  -1   1 98.0069 20.2642   6
  -7   1   1 96.5563 15.2907  10
  -7  -1  -1 123.228 12.8784   4
   7  -1   1 112.505 17.9384   5
   7   1  -1 125.522 19.9738   6
   7  -1   1 97.0429 20.1814  10
   7  -2  -1 10.1447 17.7287  10
  -7  -2   1 13.7064 4.82204   4
  -7   2  -1 -4.3120 11.1218  10
   7   2   1 16.1012 7.39622   6
  -7   2   1 3.14306 11.8723  10
  -7  -2  -1 17.2020 5.26489   4
   7  -2   1 13.0394 18.1062  10
   7   2  -1 17.5401 9.11965   6
   0   0   2 385.667 16.9267   2
   0   0  -2 372.616 27.3282   1
   0   0   2 460.580 15.7325   7
   0   0  -2 447.492 16.3816   2
   0   0   2 473.372 15.8959   8
   0   0   2 456.632 16.5235   2
   0   0  -2 442.385 16.6494   3
   0   0  -2 438.058 17.6338   2
   0   0  -2 432.046 17.8419   3
   0   0   2 421.930 17.6617   3
   0   0   2 438.739 16.6314   3
   0   0   2 408.599 17.8271   1
   0   0   2 542.656 30.2107   1
   1   0  -2 679.346 27.9085   9
   0  -1  -2 700.819 29.6434   1
  -1   0   2 736.013 26.5634   7
   0   1  -2 762.271 27.4207   1
  -1   0  -2 764.593 37.0502   1
  -1   0  -2 717.682 30.2064   1
   0   1   2 706.370 28.8008   1
   0  -1  -2 715.119 27.6370   3
   1   0  -2 728.125 28.6757   2
   0  -1  -2 729.574 25.9926   8
   1   0  -2 736.235 26.8592   8
   0   1  -2 634.182 27.3526   3
   0   1  -2 702.772 26.3824   3
   0  -1   2 698.380 27.0981   3
   0   1  -2 732.001 26.2585   7
   0  -1   2 727.674 28.1620   1
   1   0   2 712.498 27.2098   8
   1   0  -2 720.351 29.7200   3
  -1   0  -2 732.773 27.2198   7
  -1   0  -2 724.426 27.0541   8
  -1   0  -2 694.498 29.4526   2
   0   1   2 725.133 27.4990   9
   1   0  -2 706.345 32.4459   1
   1   0  -2 718.499 31.7614   1
   1   0  -2 698.687 28.8923   2
  -1   0   2 702.151 29.5181   3
   0  -1   2 714.666 25.7860   7
  -1   0   2 712.863 26.6417   8
   1   0   2 689.082 28.7898   2
   0  -1   2 721.840 26.9200   2
   0  -1   2 776.732 26.0217   8
   1   0   2 711.748 28.4219   9
   0   1  -2 754.767 34.2681   1
   0   1  -2 722.253 26.2196   2
   1   0  -2 726.100 26.5422   7
  -1   0   2 682.925 28.8010   2
   0   1   2 760.743 26.6349   2
   0   1   2 718.368 27.5002   2
  -1   0   2 720.547 31.8554   1
   0   1   2 737.979 28.1174   3
   0  -1  -2 754.512 26.0116   7
   1   0   2 755.724 29.9342   3
   0  -1  -2 699.427 27.0536   2
   0  -1   2 786.784 27.5971   3
  -1   0  -2 727.836 28.9393   3
  -1   0   2 729.495 31.7630   1
   0   1  -2 738.750 27.6196   2
   1   0   2 699.507 26.6602   7
   0   1   2 767.769 27.0817   3
   0  -1   2 724.729 36.6093   1
  -1   0  -2 690.849 33.2955   9
   0   1   2 768.981 31.1102   1
   0  -1  -2 703.042 27.5268   3
   1   0   2 709.160 30.9060   1
   0   1   2 753.734 25.5594   7
  -1   0   2 700.661 28.4612   2
   1  -1   2 19.2330 4.22602   2
   1   1  -2 15.6290 2.43274   9
  -1  -1   2 13.7610 2.80979   3
  -1   1   2 11.7401 5.07512   9
   1   1   2 6.90614 10.2372   1
   1  -1  -2 14.3144 4.47490   1
   1  -1  -2 14.3752 3.32423   2
  -1   1   2 16.8083 5.16571   1
  -1  -1  -2 14.2645 3.09986   2
  -1  -1  -2 10.4629 1.78912   2
  -1  -1  -2 11.6589 2.18801   3
  -1  -1   2 14.0898 2.35859   3
  -1   1  -2 17.0837 3.03390   7
   1   1   2 7.01408 2.63875   3
  -1   1  -2 10.9433 3.84202   2
  -1  -1  -2 10.4740 1.85968   8
   1  -1   2 12.6026 2.57957   7
  -1   1   2 15.9777 3.16626   6
  -1  -1   2 12.2901 1.96347   2
   1  -1  -2 21.5898 6.76815   1
   1  -1   2 14.4997 4.49036   3
   1  -1  -2 18.1760 3.33370   4
  -1   1   2 8.49704 2.16976   8
   1   1  -2 15.6769 3.16045   3
   1  -1  -2 15.9248 3.14002   9
   1   1   2 10.1796 2.35344   6
   1  -1   2 15.7964 4.92513   1
  -1   1  -2 18.0934 2.76939   5
  -1   1  -2 13.5738 3.06368   6
   1   1   2 12.9945 1.88224   7
  -1  -1  -2 9.53384 7.75489   1
  -1  -1  -2 10.4659 2.41310   1
  -1   1   2 10.1233 2.95427   2
   1  -1  -2 15.4634 3.18198   5
   1   1   2 14.3894 3.33588   1
   1   1   2 5.96189 2.12864   2
   1   1   2 13.7464 2.56914   2
  -1  -1   2 15.1270 1.50170   7
  -1   1  -2 16.5644 3.02802   8
  -1   1  -2 19.9740 4.29958   3
   1  -1   2 12.9128 3.20736   4
   1  -1   2 16.3536 3.28388   5
   1  -1  -2 13.4944 4.39477   3
  -1   1   2 16.5111 5.44778   1
  -1   1   2 12.7355 2.33100   7
   1   1  -2 14.3399 2.28909   2
  -1  -1  -2 13.9108 1.80468   4
   1   1   2 14.2712 2.54967   9
   1  -1  -2 13.7994 2.89432   8
   1   1  -2 11.9056 2.44152   2
  -1  -1   2 10.8108 2.32591   2
   1  -1  -2 17.1186 2.61221   7
  -1  -1   2 10.4899 2.97809   1
  -1  -1  -2 12.2454 2.09599   7
   1  -1   2 15.7688 3.19346   8
  -1   1  -2 13.6412 8.54451   9
  -1  -1   2 11.7785 1.51493   8
  -1   1  -2 19.6627 4.84210   1
   1  -1   2 9.94539 6.27000   1
  -1   1   2 21.8921 5.05454   3
  -1   1   2 13.4638 2.95193   5
  -1   1  -2 7.73149 6.42493   1
   1   1  -2 15.2566 4.26922   1
  -2   0  -2 5.91531 2.24559   5
  -2   0   2 6.17643 2.73081   4
  -2   0   2 3.26236 4.88633   1
  -2   0   2 6.95219 2.32800   8
  -2   0   2 3.37392 2.23959   5
   0   2  -2 4.90307 1.62768   6
  -2   0   2 4.03592 2.83821   2
   2   0  -2 4.15150 2.44545   5
   2   0  -2 8.11368 3.36529   2
   2   0   2 6.50736 2.94009   4
   2   0   2 5.50803 2.58862   8
   2   0  -2 5.19134 3.24737   6
   0   2   2 6.24355 2.57071   3
   0   2   2 5.32950 1.21048   7
   0   2   2 7.73681 3.35493   9
   2   0   2 5.59792 2.71359   5
   2   0  -2 5.34536 1.87947   7
  -2   0   2 9.41625 4.46429   1
  -2   0   2 8.91024 2.83816   6
  -2   0   2 6.02320 2.14942   7
   2   0   2 3.22181 8.51773   1
  -2   0   2 5.09071 3.86542   9
   0  -2  -2 6.63410 1.41921   7
  -2   0  -2 3.64486 3.04822   3
  -2   0  -2 7.06192 2.47573   4
   2   0   2 12.1357 5.09070   3
  -2   0  -2 7.55052 2.85099   6
  -2   0  -2 8.63124 2.71395   7
   0  -2   2 7.06966 2.17809   2
  -2   0  -2 4.51696 3.39176   2
   0   2  -2 2.43647 1.95452   3
  -2   0   2 2.64752 2.96501   3
   0  -2   2 3.91143 1.85855   4
   2   0  -2 6.97777 2.73954   4
   2   0   2 6.07626 3.26245   9
   2   0  -2 9.03699 6.53822   1
   0   2   2 6.15839 3.25744   1
   0  -2  -2 5.53540 2.03549   2
   0  -2  -2 8.29180 3.09650   3
   0  -2  -2 9.74504 2.08281   4
   2   0  -2 0.28977 3.10883   3
  -2   0  -2 3.25668 2.04743   8
   0   2   2 5.89895 3.12468   1
   2   0  -2 4.50689 2.78661   9
  -2   0  -2 5.36013 3.42384   1
  -2   0  -2 5.72369 7.06495   1
   0  -2  -2 6.84965 1.60841   8
   2   0   2 5.15882 3.06386   2
   0   2  -2 6.98678 2.46889   2
   2   0   2 5.58170 3.40519   6
   2   0  -2 5.24723 3.34873   1
   2   0  -2 7.06157 2.52819   8
   0   2   2 6.61146 1.85335   2
   0  -2   2 8.88987 2.64533   2
   0  -2   2 7.38338 2.56038   3
   0   2  -2 5.76323 1.68200   3
   2   0   2 8.74332 4.39265   1
   0  -2   2 5.72657 2.05977   3
   0   2  -2 8.98310 6.13665   9
   0  -2   2 4.35132 1.54440   7
   0  -2   2 7.51601 2.06132   8
   2   0   2 6.82596 2.23702   7
   0   2  -2 6.69090 1.68025   7
   0  -2  -2 5.63415 3.44104   1
   0   2  -2 7.66048 1.57936   2
  -2   0  -2 2.16728 6.89375   9
   2   1   2 3544.71 132.440   2
  -1   2   2 3660.89 128.312   8
   2   1   2 3665.45 136.794   1
  -2   1  -2 3715.90 130.828   7
   1  -2   2 3709.02 129.009   7
   2  -1  -2 3668.85 137.895   3
  -1   2   2 3682.83 133.636   9
   1  -2   2 3733.87 130.006   4
   2   1   2 3606.37 132.790   3
  -1   2   2 3883.05 132.622   2
   2  -1  -2 3694.87 144.831   1
  -2   1  -2 3659.39 138.595   1
  -2   1  -2 3735.10 136.817   2
  -2   1  -2 3583.90 135.441   3
  -2   1  -2 3691.81 130.568   4
  -1   2   2 3805.77 128.679   7
  -2   1  -2 3790.64 147.021   1
  -2   1  -2 3653.90 131.083   6
   1  -2   2 3806.28 133.657   3
   1  -2   2 3693.05 137.546   1
  -1   2   2 3785.95 139.097   1
  -1  -2  -2 3716.84 127.817   3
  -2  -1   2 3598.99 128.318   8
   2  -1  -2 3745.18 135.195   2
  -2  -1   2 3472.25 130.712   2
   2  -1  -2 3776.60 133.035   9
   2  -1  -2 3750.54 129.883   7
   2   1   2 3762.84 129.328   5
  -1  -2  -2 3805.86 126.823   8
  -2  -1   2 3589.16 129.528   4
   2   1   2 3688.29 129.513   8
  -1  -2  -2 3495.42 127.269   2
  -2  -1   2 3547.18 128.867   5
   2  -1  -2 3745.60 131.725   4
   2  -1  -2 3678.16 131.557   5
   2  -1  -2 3748.38 130.772   8
  -1   2   2 3829.70 135.461   3
   1  -2   2 3799.31 129.979   8
  -1   2   2 3649.54 130.389   6
  -2   1  -2 3690.55 130.980   8
  -2   1  -2 3537.19 137.373   9
  -2  -1   2 3729.22 135.995   1
  -1   2   2 3722.77 130.100   5
   2   1   2 3572.36 128.656   7
   2  -1  -2 3781.83 141.410   1
  -2   1  -2 3640.46 130.287   5
  -2  -1   2 3537.77 127.881   7
  -1  -2  -2 3753.82 128.863   2
   2  -1  -2 3713.52 132.954   6
   2   1   2 3713.87 131.634   9
   2   1   2 3598.85 129.927   6
  -2  -1   2 3555.56 132.774   3
   1  -2   2 3637.38 129.408   5
   1  -2   2 3804.84 133.497   2
  -1   2   2 3834.49 138.858   1
  -1  -2  -2 3881.72 127.178   7
  -2   1   2 3650.54 137.228   3
  -1   2  -2 3699.61 129.841   6
   2  -1   2 3679.60 136.512   3
   2  -1   2 3694.38 131.960   6
  -2  -1  -2 3508.82 128.996   8
  -2  -1  -2 3846.77 142.059   1
   2  -1   2 3883.49 131.773   4
  -2  -1  -2 3608.42 128.139   5
   2   1  -2 3646.68 131.037   9
   1  -2  -2 3065.63 147.264   1
  -2  -1  -2 3531.18 128.614   4
   1  -2  -2 3824.51 132.510   2
  -2   1   2 3726.53 135.327   9
   1   2   2 3724.39 126.593   7
   2   1  -2 3533.15 135.431   1
  -1   2  -2 3745.01 132.861   3
   2   1  -2 3337.08 128.989   5
   1  -2  -2 3856.20 129.490   8
  -1   2  -2 3778.81 129.538   7
   1   2   2 3573.41 128.124   2
   2  -1   2 3640.40 135.702   2
   1   2   2 3626.77 128.017   2
  -2   1   2 3820.75 135.280   2
   2  -1   2 3709.61 131.326   8
  -2   1   2 3772.41 143.076   1
   2   1  -2 3673.28 131.313   2
  -1   2  -2 3787.31 141.933   1
  -2  -1  -2 3480.90 128.908   7
   2   1  -2 3637.97 130.416   6
   2  -1   2 3749.85 131.173   5
  -2   1   2 3585.97 131.675   6
   1  -2  -2 3685.96 130.237   4
  -2   1   2 3745.80 130.107   8
  -2  -1  -2 3488.17 132.826   2
  -2   1   2 3776.70 129.957   7
  -1   2  -2 3774.91 135.459   1
   1  -2  -2 3769.18 128.582   7
   1  -2  -2 3734.68 130.282   5
   2  -1   2 3623.24 133.794   9
  -2   1   2 3651.29 131.791   4
   2  -1   2 3501.93 145.604   1
   2   1  -2 3581.23 127.971   7
   1   2   2 3782.95 128.590   3
  -1   2  -2 3795.42 135.655   9
  -1   2  -2 3910.38 134.523   2
   2   1  -2 3473.59 133.300   3
  -2  -1  -2 3661.95 131.488   3
   1   2   2 3655.41 127.545   9
  -1   2  -2 3686.08 129.314   8
  -2   1   2 3782.15 131.306   5
   1  -2  -2 3956.14 138.387   1
   2  -1   2 3769.01 141.713   1
  -1  -2   2 3243.02 125.725   8
   2   1  -2 3577.75 128.032   8
   1  -2  -2 3668.97 135.201   3
   2  -1   2 3739.99 130.339   7
  -1   2  -2 3728.40 128.876   5
  -2   1   2 3624.29 141.305   1
  -2   2  -2 112.853 8.67745   8
  -2   2  -2 108.948 8.48783   7
   2  -2   2 100.988 9.88846   9
   2  -2  -2 113.773 13.5231   1
  -2  -2   2 108.287 6.56832   4
   2   2   2 120.310 8.60305   2
  -2   2   2 109.231 13.6036   1
   2   2   2 114.712 6.46564   7
   2  -2  -2 120.917 10.4390   6
   2  -2   2 113.101 13.4187   1
   2  -2  -2 110.712 8.88639   8
  -2  -2  -2 110.620 5.35288   5
   2   2   2 102.482 8.19950   3
   2  -2   2 119.466 9.56976   6
   2   2  -2 99.2572 7.26007   6
   2  -2  -2 116.244 9.30469   5
  -2   2  -2 134.356 17.7568   1
  -2   2  -2 166.849 21.7522   9
  -2   2   2 114.831 15.0165   1
   2  -2  -2 111.239 7.87580   7
  -2   2  -2 114.611 14.4071   2
  -2   2  -2 132.290 12.1189   3
  -2   2   2 100.714 9.15265   6
   2  -2   2 112.534 9.25074   4
  -2  -2  -2 115.616 9.09911   2
  -2  -2  -2 116.249 6.67477   3
  -2  -2  -2 109.727 6.84681   8
   2   2  -2 99.7896 7.24225   2
  -2  -2   2 117.495 7.68316   3
   2  -2  -2 122.301 16.1894   3
  -2   2   2 109.699 7.94771   7
   2   2   2 102.782 6.81024   5
   2   2   2 104.593 6.76716   6
   2  -2  -2 110.780 10.8124   2
  -2   2  -2 94.9017 11.6690   1
  -2   2   2 117.377 8.07529   8
  -2   2   2 117.984 14.0685   9
  -2   2  -2 112.810 8.17311   4
  -2   2   2 121.625 9.36331   4
   2   2  -2 109.782 5.24188   7
  -2   2   2 115.690 14.5035   3
  -2  -2  -2 118.540 6.92478   7
  -2   2  -2 106.383 8.96829   6
   2  -2  -2 104.383 9.22841   9
   2   2   2 107.562 7.67581   9
   2   2  -2 99.9277 7.64837   3
  -2   2   2 105.996 12.5351   2
  -2   2  -2 106.175 8.11398   5
   2   2  -2 118.578 6.58654   2
  -2   2   2 107.773 8.82039   5
  -2  -2  -2 102.457 5.76620   4
   2  -2   2 107.213 9.19338   8
  -2  -2   2 111.997 6.23493   2
   2  -2   2 121.326 13.8328   2
  -2  -2   2 112.834 5.75796   8
   2  -2   2 120.018 14.9280   3
   2  -2  -2 119.923 9.57241   4
   2  -2   2 123.040 9.25919   5
   2  -2   2 109.289 8.20193   7
   3   0   2 6.77544 9.81462   1
   0  -3   2 28.4319 3.86073   4
  -3   0  -2 29.5290 5.46129   4
  -3   0   2 33.2482 8.29351   3
  -3   0   2 31.8053 6.06386   6
  -3   0  -2 43.4433 9.01149   3
   0  -3   2 36.0233 4.55264   2
   0   3   2 43.0568 7.08247   9
   0  -3  -2 35.4605 4.54537   4
   3   0   2 30.3315 7.38153   2
   3   0   2 35.5469 5.56764   7
  -3   0   2 44.5238 6.52742   5
   3   0  -2 35.3865 6.40141   5
  -3   0   2 34.3924 7.84046   2
   3   0   2 34.4952 6.21980   8
   3   0  -2 36.3920 7.49377   9
   0   3  -2 31.4864 4.60032   2
   0  -3   2 27.0557 3.72032   8
   3   0  -2 21.8096 9.85322   1
  -3   0  -2 38.3326 6.35054   6
   0   3   2 24.0608 4.88300   3
   3   0   2 48.8532 7.26602   5
   3   0   2 39.3173 7.65353   6
  -3   0   2 25.6678 5.46944   4
   0   3  -2 31.9851 3.05115   3
   3   0   2 33.7384 7.73498   9
   3   0  -2 29.9860 4.76192   7
   0  -3  -2 36.5269 3.81927   5
   0   3   2 39.1606 4.64377   5
   0  -3  -2 32.9746 3.56752   8
   3   0  -2 35.5550 5.91560   8
  -3   0  -2 32.4085 5.66229   7
   3   0  -2 35.5153 9.48297   3
   0  -3  -2 32.0984 3.06392   7
   3   0   2 44.7299 11.8135   1
  -3   0  -2 36.5955 5.64507   5
  -3   0  -2 37.3834 12.1652   1
   0   3  -2 31.7856 3.76814   6
  -3   0  -2 32.9489 5.65616   8
  -3   0  -2 20.1096 10.1493   9
   0  -3   2 32.8295 4.45007   3
   3   0   2 38.5926 6.93858   4
   3   0  -2 37.3819 9.88352   1
   3   0  -2 36.6439 7.73589   2
   3   0  -2 38.2615 6.52678   4
   0   3   2 36.8260 4.80076   6
  -3   0  -2 42.8508 9.21455   2
  -3   0   2 27.6835 4.94988   7
   0  -3  -2 39.5058 6.42910   3
   0   3   2 29.4735 2.54294   7
  -3   0   2 35.4706 5.70683   8
  -3   0   2 34.7909 11.1397   1
   0   3   2 33.9928 3.91825   2
   3   0  -2 38.2644 7.97191   6
   3   0   2 40.9168 9.80991   3
   3   1   2 11.1793 5.15220   3
   1  -3   2 5.05916 2.41433   7
  -3   1  -2 3.56421 9.72159   9
   3   1   2 5.83809 3.16760   8
  -3  -1   2 6.12608 4.10185   3
  -3  -1   2 0.54364 2.26361   7
   3   1   2 1.87786 3.09791   2
  -3  -1   2 1.95933 2.66878   4
   1  -3   2 1.48090 2.60518   4
   1  -3   2 8.07136 3.97736   2
   3   1   2 3.30996 3.28524   1
  -3   1  -2 2.35939 2.87899   7
   3  -1  -2 4.79528 3.54398   4
  -3   1  -2 7.66784 3.33216   4
  -1  -3  -2 3.46657 1.66360   8
   3   1   2 3.75554 3.60773   9
  -3   1  -2 -0.3015 3.67660   3
   3  -1  -2 4.39187 3.61620   5
  -3   1  -2 2.07804 2.63765   5
  -1   3   2 7.94641 2.13575   8
   3  -1  -2 4.24051 4.12455   6
   3  -1  -2 3.31654 2.43560   7
   3  -1  -2 13.3236 6.56084   3
  -1   3   2 3.95713 2.73033   6
  -1   3   2 7.49462 5.76624   9
   1  -3   2 4.85771 3.81927   3
   3  -1  -2 5.97494 3.31373   8
   1  -3   2 10.9515 3.54730   5
  -3  -1   2 2.96541 2.48833   8
   1  -3   2 5.47388 2.94839   8
   3   1   2 5.95669 2.81626   7
  -1  -3  -2 6.81410 1.73078   4
  -3   1  -2 5.11297 9.26128   1
   3   1   2 8.57921 3.62352   4
   3   1   2 3.88241 2.86762   5
   3  -1  -2 5.72494 3.65403   9
  -1   3   2 7.44526 2.33500   7
  -3   1  -2 5.93963 3.41518   8
   3  -1  -2 3.36998 3.68204   2
   3  -1  -2 3.79282 5.66885   1
  -3  -1   2 4.13818 2.63485   5
  -3   1  -2 4.19585 3.79286   1
  -3   1  -2 6.89633 5.36320   2
  -1   3   2 6.20926 2.61444   5
  -3  -1   2 3.59234 3.91189   2
  -1   3   2 7.06727 5.41342   1
  -1   3   2 9.18750 4.69207   3
  -1   3   2 8.05321 3.50629   2
   3  -1  -2 4.75374 4.53355   1
   3   1   2 5.27090 3.96085   6
  -3   1  -2 6.08853 3.47048   6
   1  -3  -2 1.99075 3.95834   3
  -3   1   2 3.08991 6.87712   1
  -3  -1  -2 0.79203 1.86161   4
   3  -1   2 4.61932 3.15638   8
   3   1  -2 0.44686 2.62750   5
  -1   3  -2 5.67928 2.18243   5
  -1   3  -2 4.19213 2.77008   6
  -3  -1  -2 7.43465 4.51995   2
   1  -3  -2 10.0130 3.22395   8
   3   1  -2 -0.1518 2.93257   1
  -3   1   2 3.05205 2.63929   8
   3   1  -2 3.08872 2.33424   8
  -3   1   2 7.61547 3.27251   7
   3   1  -2 8.80322 5.43512   3
  -3   1   2 6.91284 3.96308   6
  -3  -1  -2 4.79790 3.35083   3
   3   1  -2 3.09363 2.07772   7
  -3  -1  -2 2.74383 2.53798   8
  -1   3  -2 12.2892 3.96413   3
   3  -1   2 6.15573 4.32517   6
   1   3   2 5.80454 2.17141   2
  -3  -1  -2 4.14749 2.84437   7
   3  -1   2 3.98238 3.99311   2
   3   1  -2 4.27312 3.64750   2
  -1   3  -2 7.16540 4.11139   1
   3  -1   2 0.86212 2.93445   4
  -3   1   2 5.02514 6.47909   9
  -1   3  -2 8.11365 7.76867   9
   3  -1   2 4.89775 3.77679   5
   1  -3  -2 7.22930 3.16955   4
   1  -3  -2 4.32402 2.68866   5
   1  -3  -2 7.75494 2.32147   7
  -1   3  -2 6.43204 5.78691   1
   3   1  -2 6.56895 4.55863   6
   3  -1   2 6.55719 4.48838   9
   1  -3  -2 8.10793 3.52017   2
   3   1  -2 5.41537 3.48206   9
  -3   1   2 6.56657 3.77210   5
  -3   1   2 -1.3395 3.40549   2
   3  -1   2 12.7388 9.29343   1
   1   3   2 7.51602 1.80501   6
  -3  -1  -2 0.56445 2.07472   6
  -1   3  -2 4.70499 2.39348   7
  -3  -1  -2 2.45319 2.09427   5
   3  -1   2 3.07016 4.46172   3
  -3   1   2 4.28661 5.56859   3
   3  -1   2 6.94737 5.43469   1
  -1   3  -2 2.38832 3.59879   2
  -3   1   2 3.52710 3.27907   4
   3  -1   2 3.96292 2.73203   7
  -2   3   2 935.542 40.9918   6
   3   2   2 977.032 36.9214   5
   3  -2  -2 900.564 42.9557   6
  -2  -3  -2 985.859 33.2222   4
  -3  -2   2 980.748 36.0141   8
  -3   2  -2 914.710 37.3968  10
   2  -3   2 930.307 45.1814   3
   3  -2  -2 924.601 41.6683   4
   2  -3   2 911.883 39.5197   8
   3  -2  -2 927.037 49.5850   3
  -3   2  -2 920.548 41.1061   6
   2  -3   2 909.601 39.0830   5
  -2   3   2 933.730 45.9728   9
  -3   2  -2 936.046 46.9578   3
  -3   2  -2 942.337 51.1035   9
  -2   3   2 924.794 39.7981   4
   3   2   2 910.482 40.2573   3
   3  -2  -2 931.446 41.7432   5
  -3   2  -2 904.288 40.1309   8
  -2   3   2 920.980 37.5068   7
  -2   3   2 955.792 51.4073   1
  -2   3   2 925.847 42.9603   2
  -3   2  -2 933.698 39.9148   5
   2  -3   2 931.799 40.0095   4
   3  -2  -2 896.229 38.5211   7
   3  -2  -2 1004.97 46.3885   2
   3  -2  -2 906.061 42.2752   9
  -3   2  -2 930.861 58.1014   1
   3   2   2 958.496 41.4496   2
   3   2   2 967.294 40.8893   9
   3  -2  -2 937.653 40.1307   8
  -2   3   2 920.254 37.1374   8
   3   2   2 961.511 36.6099   7
   3   2   2 966.278 45.8113   1
   2  -3   2 932.572 38.0578   7
  -3  -2   2 934.622 37.3309   4
  -3   2  -2 943.363 48.0427   2
  -3   2  -2 921.305 40.0694   7
   3  -2  -2 915.347 38.6881  10
  -2   3   2 911.201 46.5110   3
  -3   2  -2 926.694 39.9207   4
   2  -3   2 904.882 44.0404   2
  -2   3   2 924.003 39.7057   5
   3   2   2 960.411 38.0766   6
   3  -2   2 937.813 41.0068   5
   3  -2   2 925.259 41.9195   6
  -3   2   2 915.098 38.8833   7
   2  -3  -2 948.060 40.5606   4
  -2   3  -2 926.881 44.1437   3
  -3   2   2 955.439 46.0094   2
   3  -2   2 911.008 41.2206   4
  -2   3  -2 924.897 38.6150   7
  -2   3  -2 927.150 39.9486   6
  -3   2   2 874.836 40.4401   5
  -2   3  -2 914.769 54.1233   1
   3  -2   2 902.717 39.2671   7
   2  -3  -2 886.454 42.4846   2
   2  -3  -2 946.109 47.4092   3
  -2   3  -2 908.833 38.1595   5
   2   3   2 935.090 33.6406   6
  -3  -2  -2 970.394 42.0518   2
  -2   3  -2 913.327 45.1748   2
  -3   2   2 889.313 37.8794  10
  -2   3  -2 900.626 38.2054   8
   3  -2   2 854.658 40.3642   8
   2  -3  -2 961.479 40.4156   5
  -3   2   2 915.437 48.5132   3
  -2   3  -2 930.938 49.5340   9
  -3   2   2 884.616 41.6235   6
   3   2  -2 940.376 42.9396   2
   2  -3  -2 919.541 38.6943   8
  -3  -2  -2 936.678 36.0915   4
   3  -2   2 922.607 38.2712  10
   3   2  -2 999.122 40.1315   9
  -3   2   2 938.879 54.8560   1
   3   2  -2 955.573 39.1525   6
  -3  -2  -2 951.453 37.4501   8
   2  -3  -2 959.962 37.5423   7
  -3   2   2 915.536 47.2570   9
   3  -2   2 910.785 46.5512   2
  -3   2   2 924.185 41.3655   4
   3  -2   2 969.608 48.5525   3
   3   2  -2 905.543 44.0873   3
  -3   2   2 920.467 38.9934   8
  -3  -2  -2 936.504 38.0932   3
  -3  -2  -2 960.311 37.4731   7
  -3   3  -2 -0.7071 2.06608   4
  -3   3  -2 -1.3780 4.03425   2
   3  -3   2 1.37582 3.16113   7
  -3   3   2 -0.5337 1.61397  10
  -3   3  -2 5.13721 11.4586   9
  -3   3   2 0.67882 2.95621   4
  -3   3   2 4.44665 5.57707   3
   3  -3  -2 -0.4673 3.15683   4
  -3   3   2 -0.1107 3.70652   2
  -3   3   2 -3.2287 2.91766   5
   3  -3   2 1.88241 4.05417   5
  -3   3  -2 1.69844 3.31536   5
   3  -3  -2 3.89848 5.36705   3
  -3   3  -2 0.88789 2.90450   8
   3   3   2 0.77255 2.30648   6
   3   3   2 -1.1310 3.09377   9
  -3  -3  -2 0.41551 1.22129   4
   3  -3  -2 2.74776 3.77943   5
  -3   3   2 5.62517 8.76421   9
  -3   3  -2 -3.9096 6.62273   1
  -3   3  -2 -5.3293 3.08999   6
   3  -3  -2 -2.8418 2.56225   8
   3  -3   2 -2.7579 2.34623  10
  -3   3   2 0.33861 2.49806   8
   3  -3  -2 -0.7976 4.00936   6
   3  -3   2 0.02165 4.04082   4
  -3   3  -2 -0.1671 1.52580  10
   3  -3  -2 1.08531 2.47127  10
  -3   3  -2 1.35429 4.06225   3
  -3   3   2 -0.6899 3.78456   6
  -3   3   2 3.85008 3.21334   7
  -3   3  -2 0.89281 3.16017   7
  -3   3   2 8.46281 7.87294   1
   3  -3   2 4.07058 5.54845   3
   3  -3   2 -0.6168 3.52485   2
   3  -3  -2 0.12531 2.78962   7
   3  -3  -2 3.88202 3.98327   2
   3  -3   2 -1.4820 3.23378   8
   4   0   2 11.8471 6.68986   3
   4   0   2 3.80109 4.61107   4
   4   0  -2 6.60501 5.00302   9
   4   0  -2 7.33272 4.23693   8
   4   0  -2 10.5661 5.08075   4
   4   0   2 6.12768 3.69494   7
  -4   0   2 7.43509 4.35495   7
  -4   0   2 12.8958 6.99861   3
  -4   0  -2 7.17769 3.85841   4
   0  -4  -2 6.86928 2.75263   8
   0   4   2 7.50724 3.11422   6
   4   0  -2 3.74953 5.33913   1
  -4   0  -2 8.07540 5.83795   2
  -4   0  -2 4.54208 5.46154   3
   4   0   2 6.28359 3.19448  10
  -4   0  -2 7.48844 4.14880   5
   4   0   2 6.12765 5.54942   2
  -4   0   2 -0.5737 4.98823   2
  -4   0   2 2.47943 4.35570   6
   4   0  -2 -5.1955 4.65966   6
   4   0  -2 4.72143 5.09889   5
  -4   0  -2 0.82341 3.37930   7
   4   0   2 14.9605 6.52546   6
   4   0   2 7.78854 5.29072   9
   4   0  -2 4.39933 3.19648   7
   0  -4  -2 6.97782 2.95703   4
   4   0  -2 2.18091 4.42894   2
  -4   0   2 -0.5736 3.49644   8
   4   0   2 4.18292 5.00071   1
   4   0  -2 -0.7885 5.10292   3
  -4   0  -2 6.83712 2.32270  10
   4   0   2 13.5463 5.42221   5
  -4   0  -2 5.11971 4.27674   6
   4   0   2 5.69997 4.31047   8
  -4   0   2 0.15128 3.27529   4
  -4   0   2 3.98194 4.11340   5
  -4   0   2 3.58972 1.82896  10
  -4   0  -2 2.52827 3.92844   8
   4   0  -2 2.13919 3.10415  10
   4  -1  -2 109.181 12.7556   8
  -4   1  -2 107.268 12.8142   8
   4   1   2 87.8462 9.99062   7
  -4   1  -2 118.391 17.7418   3
   4  -1  -2 108.293 12.6878   9
  -4  -1   2 66.8386 11.2937   2
   4  -1  -2 99.4359 14.5573   6
   4  -1  -2 104.626 11.5873   7
  -4  -1   2 96.0560 9.23568   5
  -1   4   2 118.176 10.0056   6
  -4  -1   2 89.3914 14.3129   3
  -4  -1   2 78.9006 10.6816   4
  -4   1  -2 100.628 8.16556  10
   4  -1  -2 107.134 9.27228  10
  -4   1  -2 105.369 12.3021   7
   4   1   2 93.7672 14.7912   2
   4  -1  -2 121.274 14.8157   5
  -4   1  -2 122.677 19.0202   2
  -4   1  -2 120.999 14.1749   6
  -4   1  -2 95.9044 10.2066   4
   4  -1  -2 107.788 11.7211   4
   4   1   2 70.9354 6.99293  10
   4   1   2 78.9314 10.4137   5
  -4   1  -2 102.182 10.3326   5
  -1   4   2 98.2465 14.4632   9
   4   1   2 76.9705 13.5116   3
   4  -1  -2 132.900 22.2879   3
   4   1   2 90.2046 12.7695   6
   1  -4   2 102.750 9.11126   4
   4  -1  -2 107.217 19.2920   1
   4  -1  -2 108.750 16.2251   2
   4   1   2 81.6191 11.3708   9
  -4  -1   2 84.9568 9.18784   7
  -4  -1   2 83.9962 8.72637   8
  -4  -1  -2 84.7001 6.17923  10
   4  -1   2 118.075 14.1379   9
   4  -1   2 94.0656 11.0264   7
  -4  -1  -2 100.931 15.1785   2
  -4   1   2 97.4328 10.8920   4
   4  -1   2 86.3379 8.68933  10
   1  -4  -2 98.6977 9.15116   4
  -4  -1  -2 92.6776 13.5265   3
  -4   1   2 119.748 19.2041   3
  -1   4  -2 108.887 8.70431   6
  -4   1   2 119.744 16.8114   2
  -1   4  -2 94.3761 15.7994   9
  -4   1   2 112.597 14.0415   6
   4  -1   2 135.689 14.8238   8
  -4  -1  -2 83.3499 8.64053   4
   4  -1   2 108.609 14.5887   6
   4   1  -2 86.3154 11.2177   5
   4  -1   2 110.807 13.6666   5
   4   1  -2 84.3854 12.3452   6
  -4   1   2 116.775 10.4088   8
  -4  -1  -2 73.6391 7.70415   5
  -4  -1  -2 88.4143 10.3840   7
   4  -1   2 117.423 18.9906   3
   4   1  -2 82.2756 10.6729   9
   4  -1   2 102.910 11.5380   4
  -4   1   2 102.510 10.0288   7
   4   1  -2 91.0894 13.2160   2
   4   1  -2 76.3395 14.5530   3
   4   1  -2 95.4573 8.28689   7
  -4   1   2 105.159 8.50302  10
   4  -1   2 96.6748 15.6881   2
  -4  -1  -2 87.1590 10.7723   8
   1  -4  -2 104.336 8.18786   8
  -4   1   2 89.2310 11.5723   5
  -2   4   2 2.40941 2.93557   5
  -4   2  -2 0.53898 3.72995   3
   4  -2  -2 5.91085 5.23949   4
   4  -2  -2 7.58742 4.20426   7
  -2   4   2 1.29792 3.59714   2
  -4   2  -2 5.84441 5.52793   2
  -2   4   2 1.14145 4.33589   3
  -4  -2   2 1.70342 3.18481   4
   2  -4   2 6.78050 4.49164   8
   4  -2  -2 3.17314 5.91000   6
  -4   2  -2 -1.2517 4.11052   6
  -4   2  -2 8.44152 4.81907   4
   4  -2  -2 2.73207 4.48886   2
   2  -4   2 5.38195 4.71025   4
  -2   4   2 6.06843 7.54038   9
   4  -2  -2 3.95297 4.49324   8
  -4   2  -2 5.85021 11.8460   9
  -4  -2   2 1.06252 3.01254   8
  -4   2  -2 3.71321 4.62786   8
   4  -2  -2 2.35138 6.71512   3
  -4   2  -2 5.56887 4.10079   7
  -4   2  -2 3.11099 3.92531   5
  -2   4   2 6.70814 3.22767   7
   4   2   2 6.23705 4.98710   9
  -2   4   2 3.20428 4.40713   6
  -4   2  -2 3.16589 2.58219  10
   4   2   2 5.96889 4.67785   6
   4  -2  -2 6.50116 4.06624  10
   4  -2  -2 5.86532 5.34912   5
   4  -2   2 6.45158 5.18533   8
   4  -2   2 9.07746 6.24457   2
  -4   2   2 9.90608 6.17555   3
   4  -2   2 1.08728 5.76630   6
  -2   4  -2 4.35295 3.33742   7
  -4  -2  -2 1.26285 2.78122   4
   4  -2   2 5.79520 5.52697   5
  -4   2   2 0.85946 4.73163   2
  -2   4  -2 4.39306 3.57038   5
  -4   2   2 2.40513 7.94931   9
   4  -2   2 2.36572 4.20218   7
   2  -4  -2 0.67992 3.44201   8
   4  -2   2 -0.6444 7.40991   3
  -4   2   2 9.95754 6.29821   6
   2  -4  -2 4.60409 2.65986   7
  -4   2   2 1.55766 3.71232   8
   2  -4  -2 12.7691 6.86459   3
   4  -2   2 4.75926 5.39427   4
   2  -4  -2 -0.3555 2.64627   2
   2  -4  -2 3.48014 3.94698   4
   2  -4  -2 5.38380 4.03702   5
   4  -2   2 1.12819 3.36588  10
  -4   2   2 6.36805 4.19109   5
  -4   2   2 4.91769 4.16584   7
   4   2  -2 2.52429 4.99820   6
  -2   4  -2 3.72929 9.67041   9
  -4  -2  -2 1.79528 3.79358   8
  -2   4  -2 3.43474 4.19099   6
  -4   2   2 2.45468 2.32586  10
   4   2  -2 5.11213 4.41912   9
  -4   2   2 2.96719 3.90613   4
   4   3   2 18.7287 7.20397   9
   3  -4   2 7.71520 4.16670  10
   3  -4   2 1.48720 4.99125   4
   3  -4   2 13.1936 8.54540   3
   4  -3  -2 11.1599 6.40061   5
   4  -3  -2 10.1381 8.00537   3
   4  -3  -2 0.20298 3.31511   7
   4  -3  -2 2.82648 5.38579   6
  -4   3  -2 12.3856 5.90190   3
  -3   4   2 4.01856 5.28920   3
  -4   3  -2 6.06573 5.61920   6
  -4   3  -2 0.75884 7.29232   2
  -3   4   2 8.80867 4.48718   7
  -3   4   2 8.91980 4.32351   5
  -4   3  -2 5.29911 4.90053   7
   3  -4   2 12.6945 6.07074   5
  -4   3  -2 5.75313 3.04914  10
   4  -3  -2 3.68893 3.67613  10
   4  -3  -2 9.12116 5.41243   8
   3  -4   2 2.58749 3.82975   7
  -4   3  -2 10.3626 4.68239   4
   4  -3  -2 7.41708 5.68900   4
  -4   3  -2 5.72621 4.63253   5
  -3   4   2 1.31496 4.46029   2
   3  -4   2 -0.5675 4.47285   2
  -3   4   2 9.16570 5.58280   6
  -3   4   2 -2.1786 9.93358   9
  -3   4   2 9.10499 3.29664  10
  -4   3  -2 2.97100 4.88955   8
   3  -4   2 1.31410 5.12869   8
  -4   3  -2 9.13765 13.8348   9
   4   3   2 9.45747 3.86948   6
  -4   3   2 -1.2083 5.55733   3
  -4   3   2 6.25281 4.61962   7
  -3   4  -2 9.03086 4.05817   3
   4  -3   2 9.52302 6.41049   8
   4  -3   2 17.0369 8.68156   3
   3  -4  -2 16.7062 8.06527   3
   3  -4  -2 6.91384 4.08045   7
  -4   3   2 8.01630 10.7098   9
  -4   3   2 3.15598 4.22220   8
  -4   3   2 -1.4356 4.89339   6
   4  -3   2 9.27533 5.07738   7
  -3   4  -2 -3.1012 3.03266   5
   3  -4  -2 11.4954 4.21311  10
   4  -3   2 3.99721 5.75127   5
  -3   4  -2 17.3200 16.7619   9
   3  -4  -2 7.90969 5.24320   5
   3  -4  -2 5.05262 5.31772   8
   3  -4  -2 0.96208 4.40204   2
   3  -4  -2 1.43062 5.21866   4
  -4  -3  -2 12.4834 3.36987   4
  -3   4  -2 3.87955 6.04451   2
   4   3  -2 10.3486 5.35436   9
  -4   3   2 2.30138 3.28812  10
  -4   3   2 8.06781 4.46874   4
  -4   3   2 1.87257 4.63979   5
  -3   4  -2 0.79490 4.39579   6
   4  -3   2 9.68864 7.62456   6
   4  -3   2 -0.4108 8.26289   2
  -3   4  -2 2.45161 1.91120  10
   4  -3   2 -4.6452 3.30114  10
  -3   4  -2 12.7282 5.48379   7
   4  -3   2 2.16297 5.48490   4
   4  -4   2 3.75730 7.74214   8
   4  -4  -2 7.85792 5.25607   7
  -4   4  -2 6.92124 6.07381   6
  -4   4   2 1.96956 5.83257   5
  -4   4   2 2.35357 4.89795   7
  -4   4  -2 4.32665 4.50113   5
   4  -4  -2 -1.6470 7.10913   8
   4  -4   2 8.37247 7.55120   5
   4  -4  -2 -2.7015 5.38387   5
  -4   4  -2 11.3355 6.61342   7
   4  -4   2 1.05826 6.59281   4
   4  -4  -2 7.82578 6.73158   4
   4  -4  -2 3.78083 4.68908  10
  -4   4   2 -3.5177 2.20831  10
  -4   4   2 65.2227 19.2884   9
  -4   4  -2 9.75451 15.6628   9
  -4   4  -2 3.69312 3.32625  10
   4  -4   2 5.66192 5.63011   7
  -4   4   2 10.8741 7.06262   6
   4  -4   2 -1.5898 3.15774  10
   5   0   2 88.7118 15.3305   6
   5   0   2 76.4124 10.2896  10
   5   0  -2 55.8321 12.6634   2
   5   0   2 95.6676 17.7295   9
  -5   0   2 78.9902 14.9009   2
  -5   0  -2 97.8799 12.4011   5
  -5   0  -2 70.0443 11.3139   4
   5   0   2 87.2748 12.9808   8
   5   0  -2 94.0999 14.2253   5
  -5   0   2 85.0053 8.08432  10
  -5   0  -2 68.8050 15.4578   2
   5   0   2 99.0471 12.8096   7
  -5   0   2 82.5114 10.8728   7
  -5   0   2 98.0847 17.7616   3
   5   0  -2 76.2136 14.7754   6
   5   0   2 84.5677 17.0373   3
  -5   0  -2 74.6591 14.9023   3
   5   0  -2 79.4155 8.96244  10
   5   0  -2 102.791 19.5510   3
   5   0   2 77.2727 12.4342   5
   5   0   2 83.8932 16.2597   2
   5   0  -2 87.5717 11.6056   7
  -5   0  -2 78.4622 7.40516  10
  -5   0  -2 78.7413 11.7779   7
  -5   0   2 95.6651 13.7294   4
  -5   0  -2 101.737 13.4344   8
  -5   0   2 91.1464 12.7487   5
  -5   0   2 83.2030 11.4792   8
   5   0  -2 83.7656 14.4860   9
   5   1   2 1.40668 3.69317   7
   5  -1  -2 -3.7048 6.33383   3
   5  -1  -2 12.5261 6.57217   4
  -1   5   2 17.5902 10.1109   9
   5   1   2 16.6276 5.36646   5
  -1   5   2 13.7931 4.66708   6
  -5   1  -2 1.45125 2.88599  10
   5  -1  -2 6.73886 6.40195   9
   5  -1  -2 3.49462 7.66375   6
  -5   1  -2 5.32653 4.12810   4
  -5  -1   2 8.47706 4.65407   5
   5   1   2 10.4034 7.66664   2
   5   1   2 4.63699 5.96466   9
   5   1   2 16.6316 8.08380   3
   5  -1  -2 7.15514 4.50681   7
   5  -1  -2 1.47184 2.87897  10
   5   1   2 1.84180 4.96522   6
  -5   1  -2 -2.1665 4.53489   7
  -5  -1   2 3.67255 4.85716   8
  -5  -1   2 -0.8690 3.81720   4
   5  -1  -2 6.86656 5.39051   8
   5  -1  -2 4.72085 5.39083   5
   5   1   2 4.78180 3.16251  10
  -5   1  -2 9.45395 5.75419   5
  -5   1  -2 4.78194 5.57340   8
  -5   1  -2 8.84424 6.25932   3
  -5  -1   2 8.32301 4.81218   7
  -5   1  -2 10.0973 6.33829   6
  -5  -1  -2 3.13038 3.31440   5
   5  -1   2 5.40539 4.44566   7
  -5   1   2 1.77318 4.60841   6
   5  -1   2 5.91164 6.94527   9
  -5  -1  -2 -2.0651 3.20466   4
  -5  -1  -2 -1.9681 5.69177   2
  -1   5  -2 4.00694 10.8167   9
  -5  -1  -2 7.51502 5.23486   3
   5   1  -2 7.57533 3.38162  10
   5   1  -2 6.02767 3.58857   7
  -5   1   2 5.67353 3.05764  10
   5  -1   2 4.18332 6.16898   5
  -5   1   2 7.21453 5.07539   4
   5  -1   2 0.56771 7.24279   6
  -5  -1  -2 0.94709 3.95060   7
  -5  -1  -2 11.1392 2.80393  10
  -5   1   2 -0.3816 4.95547   5
   5   1  -2 3.14444 5.21398   9
  -5   1   2 5.96149 4.80983   7
  -5   1   2 4.40643 4.62169   8
  -5   1   2 3.48173 5.27916   3
   1  -5  -2 5.49321 3.76909   4
  -5  -1  -2 10.8302 5.94286   8
   5   1  -2 3.31268 6.15052   6
   5  -1   2 5.04755 4.51022  10
   5   1  -2 2.13717 5.19635   5
   5  -1   2 25.5711 10.4261   3
   5  -1   2 -0.8473 4.19666   4
   5  -1   2 6.50898 6.26088   8
   5   2   2 469.531 31.6404   9
  -5   2  -2 484.743 28.3940   5
  -5  -2   2 463.025 24.2116   8
   5  -2  -2 436.939 26.6816  10
  -2   5   2 489.096 27.9485   6
  -5  -2   2 474.213 25.8586   4
  -5   2  -2 488.874 30.4009   6
  -5   2  -2 489.602 29.6079   7
   5   2   2 455.537 26.8375   6
   5  -2  -2 454.360 33.1419   6
  -5   2  -2 505.155 25.4643  10
   5  -2  -2 496.102 31.2182   5
   5  -2  -2 473.660 28.3541   8
   2  -5   2 504.632 27.4523   4
  -5   2  -2 510.648 28.9519   4
   5  -2  -2 483.434 30.7126   4
  -5   2  -2 490.852 29.7474   8
  -2   5   2 489.317 34.2776   9
   5  -2  -2 488.773 27.1942   7
   5  -2   2 491.068 31.2134   4
   5   2  -2 471.940 29.0367   6
  -5   2   2 505.289 27.9389   7
   2  -5  -2 486.493 27.3296   4
   5  -2   2 452.870 26.5257  10
  -5  -2  -2 490.121 26.6124   8
  -5   2   2 467.134 25.8877  10
   5  -2   2 479.001 32.3612   6
  -5   2   2 518.550 30.5863   4
   5  -2   2 525.685 31.0388   5
  -2   5  -2 509.680 39.0762   9
   5  -2   2 483.622 28.0922   7
  -2   5  -2 480.027 26.0135   6
  -5  -2  -2 444.088 23.9053   4
  -5   2   2 471.828 29.3952   5
   2  -5  -2 488.137 24.6014   8
  -5   2   2 528.619 28.5739   8
   5   2  -2 492.694 30.2995   9
   5  -2   2 506.915 30.7190   8
  -5   2   2 487.444 31.3063   6
   5  -3  -2 -0.7974 6.15299   5
   5  -3  -2 0.71940 9.16494   8
   3  -5   2 -1.3645 5.77760   4
  -5   3  -2 3.42221 4.09872   4
   5  -3  -2 1.20170 4.41731  10
  -5   3  -2 -5.3919 6.41399   8
  -5   3  -2 -5.6874 2.59134  10
   5  -3  -2 6.52194 5.82589   4
  -5   3  -2 -8.2484 8.86640   7
  -3   5   2 -6.3540 4.88527   6
   5   3   2 -1.1830 9.26101   9
  -5   3  -2 -1.8957 4.49102   5
   5  -3  -2 10.6433 7.37342   6
  -5   3  -2 7.98517 7.82579   6
   5   3   2 10.4578 5.73847   6
  -3   5   2 11.6193 18.6179   9
   5  -3  -2 0.36053 7.39941   7
   3  -5   2 13.4280 7.62434   8
   5  -3   2 6.41244 7.72833   6
   5  -3   2 -1.2456 4.61189  10
  -5   3   2 2.82225 6.66162   8
   3  -5  -2 0.25272 4.82494   4
   3  -5  -2 -3.0375 4.95756   8
  -5   3   2 -3.0977 3.68873  10
   5  -3   2 -7.9015 10.8800   8
  -5   3   2 1.93482 8.20995   7
   5  -3   2 7.06663 6.16218   4
   5  -3   2 -2.0846 6.36598   5
   5  -3   2 4.18732 8.62169   7
  -5   3   2 -8.1030 3.58854   5
  -3   5  -2 5.21496 5.59588   6
   5   3  -2 1.24491 7.30201   9
  -3   5  -2 -4.0222 20.4786   9
  -5   3   2 2.97273 4.86992   4
  -5   3   2 0.22377 6.53510   6
  -5   4  -2 32.8975 15.1127   7
   4  -5   2 31.6717 11.6512   4
   5  -4  -2 22.6067 9.75728   4
   5  -4  -2 25.2258 8.83806   5
   5  -4  -2 56.5535 18.1244   8
  -4   5   2 31.2397 10.6761   6
   4  -5   2 17.0884 16.8955   8
   5   4   2 12.2546 12.0418   9
  -5   4  -2 33.1041 11.2992   6
   5  -4  -2 19.2207 11.5298   7
  -5   4  -2 24.7602 30.4400   9
  -5   4  -2 28.0556 7.38388  10
  -4   5   2 36.0516 32.5631   9
  -4   5   2 27.0187 6.90266  10
   5  -4  -2 26.0320 8.22517  10
  -5   4  -2 33.3023 9.45340   5
   4  -5  -2 32.3448 11.4077   4
  -5   4   2 32.5073 11.7955   6
  -4   5  -2 5.96531 33.4434   9
   5  -4   2 13.8442 6.76851  10
  -4   5  -2 34.0650 9.82698   6
   4  -5  -2 29.9361 12.7201  10
   5  -4   2 17.4459 18.6438   8
  -5   4   2 22.0342 12.3943   7
  -5   4   2 24.2068 8.20628   5
   5  -4   2 40.0137 15.0248   7
   5  -4   2 30.5435 10.3779   4
   5  -4   2 55.2847 12.9606   5
  -5   4   2 22.9928 7.25645  10
   4  -5  -2 24.1186 14.1715   8
  -5   5  -2 3.53384 8.07181  10
  -5   5  -2 11.3432 8.74247   6
  -5   5   2 10.2466 10.7587   6
  -5   5   2 1.12972 9.49184  10
  -5   5   2 14.5051 6.79580   5
   5  -5  -2 15.5557 10.5534   4
   5  -5   2 5.60578 8.75604   4
  -6   0   2 2.44345 9.64646   8
   6   0  -2 -1.0599 7.51097   6
  -6   0   2 2.27892 6.10583   7
   6   0  -2 3.97337 7.11484   7
  -6   0  -2 2.46668 5.26842   5
  -6   0  -2 1.72884 4.50542   4
  -6   0  -2 7.66878 6.34605   7
  -6   0  -2 12.8617 11.8362   8
   6   0  -2 -1.4713 3.88188  10
   6   0  -2 24.0332 9.20976   5
  -6   0  -2 5.04981 3.32271  10
  -6   0   2 -4.7931 4.32738   5
   6   0   2 4.86702 6.44429   5
   6   0  -2 0.59830 7.67497   9
   6   0   2 2.06841 8.70002   7
   6   0   2 1.01239 4.41840  10
   6   0   2 7.86307 7.90007   6
  -6   0   2 -2.7155 2.91080  10
  -6   0   2 -0.4119 4.64110   4
   6   0   2 -1.8340 8.49403   9
   6  -1  -2 211.946 22.8352   8
  -6   1  -2 199.009 14.7760  10
   6   1   2 195.785 29.6095   9
   6   1   2 167.614 18.3418   6
  -6  -1   2 180.802 17.0752   4
  -6   1  -2 213.473 18.4042   5
   6  -1  -2 224.709 22.8572   7
   6  -1  -2 170.624 17.1239  10
  -6   1  -2 230.439 25.1997   7
  -6  -1   2 207.417 18.3290   8
  -6   1  -2 239.647 26.5003   8
   6  -1  -2 201.438 25.8751   6
  -1   6   2 158.101 24.6988   9
   6  -1  -2 210.041 20.5764   5
  -6   1  -2 207.908 18.2024   4
  -6   1   2 201.825 21.1908   7
  -6  -1  -2 200.636 22.1631   8
   6  -1   2 244.233 24.9846   7
  -6   1   2 199.423 15.5006  10
   6  -1   2 204.396 18.3140  10
   6  -1   2 194.607 24.1485   8
   6  -1   2 209.983 23.0121   6
   6   1  -2 168.568 26.2517   9
   6  -1   2 236.236 20.9625   5
  -6   1   2 224.532 19.9151   5
   6   1  -2 195.616 20.8925   6
  -6   1   2 195.348 22.1536   8
  -6   1   2 203.021 19.1505   4
  -6  -1  -2 182.027 16.0597   4
  -6   2  -2 15.1227 7.82945   5
   6  -2  -2 1.57144 11.4633   8
  -6   2  -2 10.5216 5.10009  10
   6  -2  -2 6.14884 11.7915   7
   6  -2  -2 9.32495 6.99556  10
   6  -2  -2 12.0112 7.19614   5
  -6   2  -2 9.69348 15.6905   7
  -2   6   2 7.58508 23.5896   9
  -6  -2   2 11.0901 5.88799   4
  -6   2  -2 9.44081 5.11402   4
  -6   2  -2 8.38385 6.72201   6
   6   2   2 9.17560 5.49967   6
   6  -2  -2 2.56707 9.03426   6
   6  -2  -2 8.59416 6.40426   4
   6   2   2 0.93885 17.0161   9
  -6   2  -2 1.33371 14.0505   8
  -2   6   2 6.00062 7.83434   6
   6   2  -2 3.45818 13.2280   9
   6  -2   2 15.7175 15.0291   7
   6  -2   2 6.07997 7.31814   5
  -6   2   2 -17.978 11.0945   7
  -6   2   2 13.8458 12.8504   8
  -6  -2  -2 7.27932 4.44349   4
  -2   6  -2 -4.4635 26.0795   9
  -6   2   2 18.7646 7.72884   4
   6  -2   2 13.5805 7.97202  10
   6  -2   2 2.47199 8.78351   6
   6  -2   2 2.99903 14.9887   8
  -6   2   2 3.28339 4.73366  10
  -6   2   2 -2.1170 6.09770   5
  -6   2   2 13.9507 8.68944   6
  -6  -2  -2 15.4361 10.2209   8
   6   2  -2 17.4545 7.19071   6
   6  -2   2 11.1343 7.24111   4
   6  -3  -2 38.4761 24.6507   8
  -6   3  -2 87.1418 16.7324   6
  -3   6   2 87.3778 15.0068   6
   6  -3  -2 60.7797 15.0993   6
  -6   3  -2 83.6877 14.0061   5
   6  -3  -2 87.8624 17.7185   5
   6  -3  -2 83.6675 14.5727  10
  -6   3  -2 76.8149 13.0552   4
   6  -3  -2 75.4879 16.5318   4
  -6   3  -2 57.9339 19.7649   8
  -6   3  -2 69.7808 12.1350  10
   3  -6   2 77.0263 14.4976   4
   3  -6  -2 95.0528 15.7107   4
  -6   3   2 95.5291 19.3934   8
  -6   3   2 89.2210 17.1096   6
  -3   6  -2 124.744 12.8870   6
  -6   3   2 91.3756 15.9680   5
   6  -3   2 63.5074 14.7687   4
   6  -3   2 50.8925 12.5856   5
  -6   3   2 114.182 17.6092   4
  -6   3   2 78.9523 13.4802  10
   6  -3   2 90.1380 15.2693  10
   6   3  -2 92.6309 26.8252   9
   6  -4  -2 1.02906 14.4220   5
   4  -6   2 8.62819 10.2254   4
   6  -4  -2 13.8346 15.0131  10
  -6   4  -2 7.30151 11.2724   5
  -4   6   2 0.59523 13.8508   6
  -6   4  -2 -7.2067 10.7877  10
  -4   6  -2 16.4042 10.4309   6
   6  -4   2 6.49009 13.9346  10
   4  -6  -2 21.6214 16.3907   4
  -6   4   2 -6.6345 12.3935  10
   6  -4   2 14.0286 14.8056   5
   7   0   2 10.6326 12.1666  10
   7   0   2 34.0534 9.01202   5
   7   0  -2 25.0857 11.7092  10
   7   0   2 37.8401 11.7016   6
  -7   0  -2 18.1444 7.19055   4
   7   0  -2 33.7714 10.7763   5
  -7   0   2 13.2337 6.68015   4
   7   0  -2 35.0381 11.5621   6
   7  -1  -2 26.3678 10.9029   6
  -7   1  -2 4.00613 5.77284   4
   7  -1  -2 16.5318 8.53535   5
   7  -1  -2 15.6420 14.2642  10
  -7   1  -2 21.3312 7.62150   5
  -7   1  -2 -10.275 7.82908  10
  -7  -1   2 10.1621 5.69874   4
   7   1   2 16.3167 7.73770   6
  -7  -1  -2 8.16148 4.33973   4
   7  -1   2 0.62907 7.32299   5
   7  -1   2 3.59399 8.17124   6
  -7   1   2 8.21607 7.85775   4
   7   1  -2 15.6642 8.90164   6
   7  -1   2 10.0192 14.8962  10
  -7   1   2 3.58865 8.58898  10
   0   0   3 3456.78 116.244   2
   0   0  -3 2705.61 130.237   1
   0   0  -3 3150.22 113.607   8
   0   0   3 3713.96 113.375   8
   0   0   3 3331.31 115.895   3
   0   0   3 3511.96 113.093   7
   0   0  -3 3045.41 113.916   2
   0   0  -3 3200.62 114.395   3
   0   0   3 3382.89 114.176   2
   0   0  -3 3048.50 116.661   1
   0   0   3 3150.26 116.220   1
   0   0  -3 3443.72 116.023   2
   0  -1   3 1175.65 41.9788   7
   0   1  -3 1168.20 42.6804   2
   0  -1  -3 1023.33 43.8808   5
   1   0   3 1150.53 44.7500   9
   0   1   3 1161.64 46.1512   1
   0   1   3 1321.27 42.0990   8
   1   0  -3 1177.78 43.4307   5
   1   0   3 1354.95 64.3913   1
   0   1  -3 1181.81 42.4732   8
   0   1  -3 1179.13 55.8141   1
   0   1   3 1168.30 43.8741   9
  -1   0  -3 1142.25 46.1259   2
   0  -1  -3 1216.49 42.4240   8
   1   0   3 1173.22 45.3754   2
   0   1  -3 1192.59 42.6025   6
   0   1   3 1239.04 44.0925   5
   0   1   3 1223.66 41.8101   7
  -1   0  -3 1165.25 44.8449   3
   1   0  -3 1204.75 42.9339   8
   0  -1   3 1296.34 42.4729   8
  -1   0  -3 1271.39 58.1129   1
  -1   0  -3 1184.78 43.5818   7
  -1   0  -3 1178.36 43.3128   8
  -1   0  -3 1139.54 48.3101   9
   0  -1   3 1199.36 43.5114   2
   0  -1   3 1348.62 45.2860   3
   0  -1  -3 1140.30 47.1622   1
   1   0   3 1261.39 46.3001   4
   0  -1  -3 1175.42 42.3854   4
   1   0   3 1203.34 43.5242   6
   0   1  -3 1319.23 42.9112   7
   1   0   3 1179.93 43.5806   8
  -1   0  -3 1155.34 42.6551   4
  -1   0  -3 1189.41 42.7388   5
  -1   0  -3 1147.11 43.7317   6
  -1   0   3 1188.95 46.3886   3
   1   0   3 1200.68 47.9448   1
   1   0  -3 1216.22 44.2476   6
   1   0  -3 1143.58 49.2993   1
  -1   0   3 1167.85 49.2067   1
   1   0  -3 1201.75 45.1346   2
   0   1   3 1227.94 43.1341   2
  -1   0   3 1191.36 44.5828   2
   1   0  -3 1131.62 46.0365   3
   1   0  -3 1115.06 49.7674   1
   0  -1   3 1003.19 56.9948   1
   1   0  -3 1095.21 44.5751   9
  -1   0   3 1191.41 43.5552   5
  -1   0   3 1175.59 42.4658   7
  -1   0   3 1206.44 42.6811   8
  -1   0   3 1234.18 45.2995   9
   0  -1  -3 1195.88 44.4815   3
   0  -1  -3 1210.64 44.3645   2
   0  -1  -3 1247.87 42.7781   7
  -1   0  -3 1170.37 46.5342   1
   0   1  -3 1227.95 44.7479   2
   0   1  -3 1339.77 48.4775   9
   0  -1   3 1230.71 44.3191   2
   0   1   3 1103.48 49.2748   1
   0   1  -3 1203.41 44.6944   1
   1   0   3 1259.16 46.8230   3
   0   1   3 1236.73 42.5045   6
   1   0  -3 1203.44 42.7661   7
  -1   0   3 1248.04 49.0572   1
   1   0   3 1123.30 42.8970   7
   0  -1   3 1045.39 44.1015   4
   0   1  -3 1178.00 43.0047   3
   0  -1   3 1173.63 45.0720   1
   1   0   3 1251.38 43.9287   5
   1  -1  -3 90.1729 5.71285   8
   1   1  -3 73.5520 6.05199   3
   1  -1   3 82.3608 16.1345   1
   1   1  -3 69.1948 5.35761   9
   1  -1  -3 83.9906 6.86474   6
  -1   1  -3 101.373 8.71973   2
   1   1   3 68.1161 5.56223   5
   1  -1   3 96.2038 9.07456   3
  -1   1   3 94.8908 8.48726   3
   1  -1  -3 99.0645 5.41588   7
   1   1   3 71.2387 5.70781   2
   1   1   3 68.5962 5.09412   8
   1  -1  -3 90.4204 9.95269   1
   1  -1  -3 101.276 7.43698   2
   1   1   3 65.2866 6.52977   1
  -1   1   3 89.3262 9.91162   1
   1  -1  -3 101.447 6.41666   5
   1  -1   3 97.3002 9.40048   1
   1  -1  -3 90.3182 6.79663   9
  -1   1   3 103.306 7.45198   2
   1  -1   3 87.0929 7.53885   2
  -1   1  -3 97.1327 7.59416   3
   1   1  -3 71.2733 4.94109   6
  -1   1  -3 91.5797 8.30930   1
  -1  -1   3 83.0581 5.47016   4
   1   1   3 68.1436 7.06194   3
   1  -1   3 92.6003 5.64965   7
   1  -1   3 90.9970 6.66214   6
  -1  -1  -3 87.0863 17.3743   1
   1  -1   3 88.1124 6.23751   8
   1  -1   3 95.0123 7.51253   9
   1   1   3 68.4970 4.43103   7
  -1  -1   3 73.9630 3.87271   7
  -1  -1   3 78.8508 4.10700   8
  -1   1  -3 117.939 17.5189   1
  -1  -1  -3 63.1828 7.06518   2
  -1  -1   3 71.7479 4.75426   2
  -1  -1   3 72.6369 5.58547   2
   1   1   3 70.5242 5.00240   6
  -1   1   3 98.7166 5.36937   8
  -1  -1  -3 67.8970 5.98675   1
  -1   1  -3 86.4059 5.92664   8
  -1   1  -3 112.117 14.0401   9
  -1  -1  -3 65.4894 4.15455   4
  -1  -1  -3 65.9267 4.14138   5
  -1  -1  -3 69.0957 5.19558   7
  -1  -1  -3 71.3048 4.73752   8
  -1  -1   3 75.6273 6.78357   1
  -1  -1   3 69.7326 7.15845   1
  -1   1   3 90.8823 6.59121   4
  -1   1   3 99.7540 6.27162   5
  -1   1   3 86.6491 6.12436   6
  -1   1  -3 94.8124 5.48322   5
  -1   1  -3 89.6769 6.15807   6
  -1   1  -3 101.794 5.77181   4
  -1   1  -3 92.8864 6.23535   7
   1   1   3 79.8102 21.0188   1
   1   1   3 67.4199 5.35951   9
   1  -1   3 92.6090 6.59376   5
   1  -1   3 106.745 7.65787   4
  -1  -1   3 84.5894 6.26588   3
  -1  -1  -3 76.1634 5.44249   3
   1   1  -3 72.5637 4.37827   7
   1   1  -3 80.8559 8.07726   1
   1   1  -3 69.0989 5.49831   2
  -1   1   3 89.0995 8.28427   9
  -1   1   3 96.1905 5.34885   7
   1  -1  -3 100.104 8.77081   3
   1  -1  -3 96.7667 6.28534   4
   1  -1  -3 100.445 10.8607   1
   1   1  -3 77.1543 5.43969   2
   0  -2  -3 -0.0139 1.09804   7
   0   2   3 -1.7095 1.73487   1
   2   0  -3 0.92928 2.15607   2
   2   0  -3 0.80253 2.21614   6
   2   0   3 -0.2476 2.23433   5
  -2   0   3 -0.8488 1.44898   5
  -2   0   3 -1.2678 1.19098   7
  -2   0  -3 -2.6342 5.46522   1
   0   2   3 2.66376 2.39555   3
   0  -2   3 0.28949 1.84583   1
   0  -2  -3 1.07692 1.40523   5
  -2   0  -3 -1.1871 1.99323   3
   2   0  -3 0.89321 1.72263   4
   0   2   3 1.54575 1.16493   8
  -2   0  -3 -1.0201 1.38627   7
   0   2  -3 1.54696 2.13293   2
   0   2   3 -0.1902 1.21963   2
   0  -2   3 0.98191 1.78586   2
  -2   0   3 -0.1480 1.32669   8
  -2   0   3 -1.1391 2.83127   9
   0  -2  -3 4.53641 8.77345   1
   0  -2  -3 1.62282 1.81989   2
   2   0   3 1.14559 2.59336   4
   0  -2  -3 -1.0709 1.03546   4
   0  -2   3 -1.8993 2.10407   3
   0   2   3 -0.7474 0.80383   7
  -2   0  -3 0.60277 1.43584   4
   2   0   3 -0.9994 1.85660   9
   2   0   3 -3.3175 2.34995   3
   2   0  -3 0.53903 1.77836   8
   0   2   3 -0.4340 1.16139   6
   0   2  -3 -0.1219 1.05485   3
   0   2  -3 2.05775 1.41556   6
  -2   0  -3 -2.8902 1.46693   6
  -2   0  -3 -1.5134 7.62483   9
   2   0   3 0.76568 1.46067   7
   0   2  -3 1.70334 1.37132   2
   2   0  -3 -3.0137 3.13200   1
  -2   0   3 -0.2831 2.07405   2
  -2   0   3 -0.0444 1.69367   4
  -2   0  -3 -2.8132 2.28612   2
  -2   0   3 0.68715 2.76871   3
   0   2   3 -0.6029 2.60688   9
   2   0   3 2.17875 2.43964   2
  -2   0  -3 0.69964 1.76396   8
   0   2  -3 -4.7429 6.51796   9
   0  -2  -3 0.97592 2.33573   3
  -2   0  -3 0.55450 2.10665   1
   2   0   3 -0.5691 2.36045   6
  -2   0   3 -0.8641 1.38117   6
   0   2   3 0.54009 2.59737   1
   2   0  -3 -0.3562 1.76756   1
   0  -2  -3 1.17661 1.23735   8
   2   0  -3 0.92247 1.98754   9
   2   0   3 1.02612 4.93054   1
   2   0   3 0.59646 2.07493   1
   2   0  -3 -0.0058 1.07978   7
   2   0  -3 -0.2020 1.73825   5
   0  -2   3 -1.1686 1.81222   4
   0  -2   3 1.54255 1.22750   7
   0  -2   3 -0.2222 1.31103   8
  -2   0   3 -2.5576 2.69660   1
  -2   0   3 -0.0225 2.20238   1
   2   0   3 -0.4861 1.80540   8
   2   0  -3 -4.4917 2.26695   3
   0   2  -3 -0.9744 1.32117   7
  -2   0  -3 -1.1450 1.45389   5
   2   1   3 2669.96 103.408   1
   1  -2   3 2734.04 95.5643   7
  -2   1  -3 2636.37 104.409   1
   1  -2   3 2749.42 95.9022   5
  -2  -1   3 2728.29 102.213   1
   1  -2   3 2705.63 96.3595   8
  -2  -1   3 2606.67 99.7289   3
   1  -2   3 2807.10 100.033   3
   2   1   3 2596.27 99.1625   2
   2  -1  -3 2754.76 101.282   2
   2  -1  -3 2721.55 104.658   3
   1   2  -3 2617.76 94.6501   3
   2   1   3 2627.50 99.5047   3
   1  -2   3 2760.38 96.9133   4
  -1  -2  -3 2850.42 94.2252   7
  -2   1  -3 2639.55 97.2097   7
  -2   1  -3 2734.21 97.5856   8
   1  -2   3 2637.90 104.040   1
  -1   2   3 2717.73 94.5095   8
  -1   2   3 2744.06 100.009   9
   2   1   3 2580.02 97.8815   9
  -2   1  -3 2764.18 114.734   1
  -1   2   3 2651.19 97.2204   4
  -2   1  -3 2728.15 105.379   9
  -1  -2  -3 2578.92 93.0359   5
  -1   2   3 2686.24 96.6236   5
  -2  -1   3 2669.09 95.5938   5
  -1   2   3 2703.78 104.785   1
   2   1   3 2714.49 95.8536   5
   2   1   3 2651.38 96.0548   6
   2   1   3 2570.98 95.0744   7
  -1   2   3 2640.64 96.8622   6
   1   2  -3 2491.29 94.2824   2
  -2  -1   3 2647.02 96.8891   2
   2  -1  -3 2703.48 99.1344   9
  -1   2   3 2715.93 106.330   1
   2  -1  -3 2690.84 111.497   1
   1   2  -3 2584.65 92.8735   7
   2  -1  -3 2721.32 98.1557   4
  -1  -2  -3 2701.38 93.6029   8
   1  -2   3 2730.85 100.102   2
  -2   1  -3 2552.99 96.1456   5
  -2   1  -3 2716.91 103.469   2
  -2   1  -3 2694.54 101.617   3
   2   1   3 2658.21 100.775   4
  -2  -1   3 2686.61 94.0574   7
   2   1   3 2677.20 96.0736   8
  -2   1  -3 2678.43 97.2762   6
  -1  -2  -3 2802.73 96.6503   2
  -1  -2  -3 2645.81 94.8490   3
  -1  -2  -3 2677.77 92.9257   4
  -2  -1   3 2618.29 96.1966   4
   2  -1  -3 2605.49 97.8625   5
   2  -1  -3 2626.62 99.2914   6
  -1   2   3 2783.61 98.4626   2
  -1   2   3 2676.67 101.855   3
   2  -1  -3 2735.72 96.8378   8
  -2  -1   3 2674.65 94.4928   8
  -2   1  -3 2727.12 96.4930   4
   2  -1  -3 2778.64 108.288   1
  -1   2   3 2714.74 94.7050   7
   1   2  -3 2726.47 93.3432   6
   2  -1  -3 2676.81 96.0046   7
   1   2  -3 2650.34 94.3187   2
   2  -1   3 2703.52 97.7845   8
   1   2   3 2924.80 93.4288   6
   2  -1   3 2764.31 108.190   1
  -2  -1  -3 2623.61 99.9098   2
   2  -1   3 2693.86 96.7134   7
   1   2   3 2598.28 94.5808   9
  -1  -2   3 2573.25 92.3155   7
  -1  -2   3 2695.55 92.5076   8
   1  -2  -3 2642.42 96.6701   4
  -2  -1  -3 2545.57 94.6361   4
   2   1  -3 2522.89 102.606   1
   2  -1   3 2617.17 97.3109   5
   2  -1   3 2597.50 101.995   2
  -1   2  -3 2760.46 98.8703   3
   1   2   3 2578.54 94.9038   2
   1   2   3 2720.83 96.1101   3
   2   1  -3 2652.39 97.3227   9
  -2  -1  -3 2715.07 94.4130   5
  -2  -1  -3 2622.90 95.4908   8
   2  -1   3 2834.15 98.6002   4
   2  -1   3 2822.82 103.219   3
  -1   2  -3 2674.37 96.0118   6
  -1   2  -3 2724.43 101.133   2
   2  -1   3 2721.68 98.0409   6
  -1  -2   3 2909.17 94.2645   4
   1   2   3 2842.53 94.2051   8
   1  -2  -3 2674.38 98.4922   2
  -2   1   3 2620.18 103.697   3
  -2  -1  -3 2542.57 95.5692   7
   1   2   3 2714.22 97.2805   1
  -2   1   3 2755.06 96.2588   8
   1   2   3 2662.17 93.7955   5
  -1   2  -3 2691.17 94.9285   5
   1  -2  -3 2710.35 97.9059   6
   2   1  -3 2639.39 100.496   3
   2   1  -3 2684.29 96.0036   5
   1  -2  -3 2730.44 96.8429   5
   2   1  -3 2670.14 97.3719   2
  -2   1   3 2650.68 101.097   9
   2  -1   3 2636.24 100.452   9
  -1   2  -3 2793.89 96.2239   8
   1   2   3 2700.94 93.1886   7
   1  -2  -3 2664.62 94.7296   7
  -2   1   3 2608.02 98.0581   6
  -2   1   3 2696.30 96.0226   7
  -1  -2   3 2686.56 93.4177   2
  -1  -2   3 2566.58 94.1202   2
  -1  -2   3 2484.31 93.4342   3
  -2   1   3 2566.06 97.4388   5
   2   1  -3 2774.71 106.418   1
   2   1  -3 2704.00 94.2328   8
  -2   1   3 2652.05 108.131   1
  -2  -1  -3 2664.28 97.4133   3
   1  -2  -3 2800.14 102.346   3
  -1   2  -3 2824.14 96.3278   7
  -1   2  -3 2621.29 109.050   1
  -1   2  -3 2781.95 103.097   9
  -1  -2   3 2558.31 94.5280   3
  -2   1   3 2736.06 108.610   1
  -2   1   3 2716.55 100.905   2
   1  -2  -3 2787.93 95.7283   8
   2   1  -3 2622.38 94.1425   7
  -2  -1  -3 2753.81 109.808   1
   2   1  -3 2696.23 96.9978   6
  -2   1   3 2654.21 98.4395   4
   1  -2  -3 2998.00 106.787   1
  -1   2  -3 2768.41 101.412   1
  -2   2  -3 819.350 38.1447   3
   2  -2  -3 810.837 41.2453   3
   2  -2  -3 793.515 36.0349   6
  -2   2  -3 766.974 33.6632   7
  -2   2  -3 802.993 48.9777   1
   2   2   3 782.296 30.5397   7
  -2   2   3 783.942 38.6917   9
   2   2   3 815.891 30.7082   6
  -2   2  -3 810.095 43.1149   9
   2  -2   3 779.564 38.5565   2
  -2   2   3 780.216 44.1582   1
   2   2  -3 805.826 31.7662   6
  -2  -2  -3 789.041 30.8999   8
   2  -2   3 853.648 34.6465   6
  -2   2   3 788.164 32.3543   7
  -2  -2  -3 777.749 29.5627   4
  -2  -2  -3 814.157 29.2720   5
  -2  -2  -3 814.607 31.2036   7
   2   2  -3 797.313 29.0773   7
   2   2   3 763.197 33.8003   3
  -2   2   3 800.913 32.3341   8
  -2   2   3 821.464 37.4261   2
   2   2   3 806.682 31.3298   5
   2  -2   3 771.966 34.1995   8
  -2  -2  -3 828.831 34.9083   2
   2  -2  -3 799.489 37.2508   2
  -2   2   3 778.139 40.3055   3
  -2   2   3 778.436 34.7790   4
   2   2   3 834.204 34.2349   2
   2  -2   3 790.007 38.9578   3
   2  -2  -3 763.479 34.4757   4
  -2   2  -3 788.851 33.8122   8
   2  -2   3 790.909 34.5272   4
   2   2   3 970.276 61.5121   1
  -2   2  -3 802.524 32.5765   4
  -2   2   3 749.335 34.6953   6
   2  -2  -3 835.902 35.3294   9
  -2   2  -3 783.727 32.7039   5
   2   2  -3 772.762 33.5744   3
  -2  -2   3 817.910 29.9816   2
   2   2   3 814.092 32.8307   9
  -2  -2   3 775.421 32.9914   3
  -2  -2  -3 856.289 44.6959   1
  -2  -2   3 785.570 31.0176   4
   2   2   3 826.594 37.3801   1
   2  -2  -3 779.652 32.2212   7
   2  -2  -3 816.530 33.4293   8
   2   2  -3 854.155 32.1375   9
  -2   2  -3 809.458 39.9673   2
  -2  -2  -3 816.892 31.1830   3
  -2  -2   3 807.563 29.1957   8
  -2   2   3 762.815 34.0954   5
   2  -2   3 794.015 33.8692   5
  -2   2  -3 781.383 33.8616   6
   2  -2   3 784.873 33.1063   7
   2  -2   3 786.018 43.5490   1
   2  -2  -3 824.203 43.6389   1
  -2   2   3 822.824 44.6568   1
   2  -2  -3 779.126 34.5609   5
  -2   2  -3 827.638 41.0675   1
   0   3   3 610.048 25.7926   6
  -3   0  -3 600.401 33.8166   2
   0   3   3 602.088 22.9878   7
  -3   0   3 635.333 34.4999   3
  -3   0  -3 610.108 26.9665   5
   3   0   3 635.506 28.9449   8
   0   3   3 625.305 27.8359   9
  -3   0   3 592.909 28.6185   6
   0  -3  -3 634.120 26.2862   2
   3   0  -3 636.139 27.3949   8
  -3   0  -3 616.291 32.1259   3
   0  -3   3 607.181 24.8031   8
  -3   0   3 601.889 26.5564   7
   0  -3   3 635.265 25.7032   4
   3   0  -3 646.477 26.8508   7
   3   0   3 626.672 29.5034   6
   3   0   3 602.542 27.4360   7
  -3   0  -3 568.217 49.0117   1
   0  -3  -3 649.228 25.7323   5
   0   3   3 615.912 32.2748   1
   3   0  -3 601.583 34.9780   3
  -3   0   3 562.139 28.5498   4
   3   0  -3 639.919 30.9229   6
   3   0  -3 597.936 37.0401   1
  -3   0   3 597.752 31.2599   2
   3   0   3 602.170 31.6475   9
   0   3  -3 600.885 26.7712   2
   0   3  -3 621.476 24.2078   6
   0  -3   3 617.830 25.8514   3
   3   0   3 628.214 29.5010   4
   0   3   3 626.636 25.5226   5
   0  -3   3 618.948 26.5645   2
  -3   0  -3 602.650 27.6018   6
   0   3   3 577.792 24.6000   2
   0  -3  -3 621.084 25.6902   4
   3   0   3 607.470 37.8634   1
   0  -3  -3 586.650 23.9284   7
   0  -3  -3 610.587 23.9937   8
   0   3  -3 691.400 32.8805   9
   0   3   3 599.968 28.7575   1
  -3   0  -3 619.724 28.3936   8
   3   0   3 615.172 28.4483   5
   0  -3  -3 637.721 29.6305   3
  -3   0   3 621.047 27.0206   8
   3   0  -3 598.597 28.7645   5
  -3   0   3 613.240 28.2851   5
  -3   0  -3 614.846 28.0646   7
   3   0   3 616.240 33.1674   2
  -3   0  -3 627.631 27.5481   4
   3   0  -3 608.892 30.4486   9
   3   0   3 593.233 33.2782   3
   3   0  -3 609.170 31.6462   2
   3   0  -3 613.936 28.7162   4
  -3  -1   3 19.8513 5.47369   2
  -1   3   3 18.2409 6.93825   9
   3  -1  -3 15.5964 4.44005   8
   3   1   3 24.9332 6.54684   2
   3   1   3 21.6764 6.68298   3
   3  -1  -3 6.65772 3.87569   4
   3  -1  -3 11.3398 4.56364   9
  -1   3   3 13.1355 4.09699   2
   3  -1  -3 15.1414 5.17453   5
  -3   1  -3 15.7837 4.92395   6
  -1   3   3 23.8521 8.09737   1
  -3   1  -3 15.3276 4.69439   7
  -3  -1   3 20.9321 4.01986   8
   1  -3   3 9.26712 4.42777   2
   1  -3   3 10.8892 4.77795   3
  -1  -3  -3 21.2815 3.02280   4
  -3   1  -3 20.3201 12.3236   1
  -3   1  -3 21.9992 7.66242   1
  -3   1  -3 16.1855 6.32842   3
   3  -1  -3 13.6398 6.82765   3
   3   1   3 20.9125 5.05021   5
   3   1   3 24.9796 6.19175   6
   3   1   3 22.2201 7.94464   1
  -1   3   3 8.55712 4.85596   3
   3  -1  -3 14.2922 5.73341   6
  -3   1  -3 8.55089 11.1224   9
   1  -3   3 14.2095 3.98492   8
   3   1   3 21.3110 4.39004   7
   3   1   3 22.2264 5.12870   8
   3  -1  -3 7.71101 3.13752   7
   3  -1  -3 11.8753 6.28701   1
   3  -1  -3 13.4327 5.28455   2
  -1  -3  -3 13.9295 2.73768   8
  -3   1  -3 13.4899 4.10387   5
   3   1   3 17.9824 5.76180   9
   3   1   3 24.3448 6.02733   4
   1  -3   3 10.1944 3.68548   4
  -3  -1   3 19.8315 5.00871   4
  -3  -1   3 20.4987 6.71471   3
  -3   1  -3 20.7510 7.54405   2
  -1   3   3 14.5612 2.77390   8
   1   3  -3 19.4888 2.14493   6
  -1   3   3 9.43609 2.56403   7
  -3   1  -3 15.3923 4.47076   4
  -1  -3  -3 21.8946 6.06508   2
  -3  -1   3 20.0070 3.79097   7
  -3  -1   3 20.4963 4.42275   5
  -1   3   3 17.5378 4.37662   6
   1  -3   3 17.6049 3.74379   7
  -1   3   3 7.42625 3.07323   5
  -3   1  -3 18.2528 4.86038   8
   1  -3   3 15.4643 4.00309   5
  -1   3  -3 13.2165 4.36770   3
   3  -1   3 16.3998 5.33847   4
  -3  -1  -3 22.9621 4.33602   6
   3   1  -3 13.8141 6.34254   3
   3  -1   3 11.3120 6.21544   3
   1  -3  -3 12.5364 5.62739   3
   3  -1   3 14.7260 5.29488   5
  -3   1   3 14.0518 3.88471   8
  -3   1   3 14.4125 5.09412   6
  -1   3  -3 9.37522 7.00555   1
  -1   3  -3 14.8605 5.36871   2
   3   1  -3 17.3550 5.12689   9
   1   3   3 26.1958 3.61734   2
  -3   1   3 5.36408 3.36909   5
   3  -1   3 13.1610 4.18251   7
  -1   3  -3 17.3263 3.32691   5
   3  -1   3 19.1536 5.41093   8
   3  -1   3 9.73311 6.31470   1
   3   1  -3 25.2275 5.18191   5
  -3   1   3 8.89986 3.43742   7
   3  -1   3 10.3685 10.2348   1
  -3  -1  -3 25.2775 4.24606   5
   1  -3  -3 16.2884 3.69524   8
   3   1  -3 25.3164 6.60868   6
   3  -1   3 15.7699 5.59697   9
  -3  -1  -3 30.1002 6.51876   3
  -3  -1  -3 20.5041 4.31854   4
   1  -3  -3 13.4723 4.01742   4
   3   1  -3 19.4595 7.30268   1
   1  -3  -3 13.2646 2.75738   7
  -3   1   3 14.5365 6.00459   2
   1   3   3 28.6818 5.32867   9
  -3   1   3 6.27773 6.93143   1
  -1   3  -3 14.5166 10.0733   9
   1  -3  -3 11.1986 4.12536   2
   3   1  -3 21.8908 3.82486   7
   3   1  -3 23.3237 4.24166   8
   1  -3  -3 16.5722 4.07625   5
   3  -1   3 2.44283 4.47997   2
  -3  -1  -3 16.9990 4.30580   7
  -3   1   3 18.2213 7.13839   3
  -3   1   3 9.31705 3.92033   4
  -3  -1  -3 22.0145 6.58798   2
  -1   3  -3 9.76652 3.37417   6
  -3  -1  -3 20.7236 4.80845   8
  -1   3  -3 15.5060 3.78799   7
  -3   1   3 15.1525 7.70296   9
   1   3   3 17.5341 4.01857   3
   3  -1   3 12.0421 5.21183   6
   3   1  -3 19.8549 5.22473   2
  -2  -3  -3 988.312 34.9306   4
  -3   2  -3 927.029 53.2250   9
   2  -3   3 964.050 40.5240   5
   3  -2  -3 960.643 39.9389   7
   3  -2  -3 971.430 46.7478   2
  -2   3   3 980.200 41.7341   4
  -3   2  -3 991.037 42.5216   6
   2  -3   3 981.924 46.4255   2
   3  -2  -3 1019.08 52.3952   3
  -3  -2   3 984.865 36.8768   8
   2  -3   3 933.188 41.1422   8
  -3   2  -3 965.790 42.0800   8
  -2   3   3 943.385 43.9222   2
  -3   2  -3 994.915 38.6098  10
   3   2   3 972.543 38.6056   5
   3  -2  -3 958.428 41.1279   8
   3  -2  -3 979.000 45.1652   6
   2  -3   3 947.286 39.6010   7
   3   2   3 940.002 42.2202   3
  -3   2  -3 943.851 41.7139   7
   2  -3   3 971.226 41.6143   4
   3   2   3 993.855 43.5949   2
  -3   2  -3 989.419 47.8866   3
  -3   2  -3 944.529 40.6067   4
  -2   3   3 942.907 41.3018   5
  -2   3   3 999.136 52.8934   1
   2  -3   3 996.019 46.5590   3
  -3   2  -3 1026.36 50.6377   2
  -2  -3  -3 948.939 36.4059   8
   3  -2  -3 922.539 42.8345   4
  -3   2  -3 966.150 40.8168   5
   3  -2  -3 971.234 43.2505   5
  -2   3   3 969.996 42.7230   6
   3   2   3 910.819 38.5523   6
   3  -2  -3 1022.00 40.7005  10
   3   2   3 967.496 42.3877   9
  -3  -2   3 955.069 39.0284   4
   3   2   3 976.536 38.3293   7
  -2   3   3 989.601 49.0967   3
   3  -2  -3 941.504 43.7158   9
  -3   2  -3 952.817 60.3620   1
  -2   3   3 972.317 47.2876   9
  -2   3   3 988.038 38.3721   8
  -2   3   3 978.150 38.7693   7
  -2   3  -3 970.627 56.8846   1
   2  -3  -3 978.562 44.2309   2
  -3   2   3 938.161 39.9938   7
   2   3   3 950.942 35.3448   6
   2  -3  -3 982.572 41.9343   5
   3  -2   3 1006.51 39.8473  10
  -3   2   3 947.322 50.3401   3
  -2   3  -3 979.002 40.2468   8
   3  -2   3 923.981 42.5438   6
  -3   2   3 933.908 55.0758   1
  -3   2   3 996.365 47.0076   2
   3  -2   3 951.114 40.9750   7
   3  -2   3 985.569 42.9019   8
   2  -3  -3 959.106 38.5328   7
  -3   2   3 1017.26 40.4717   8
  -3   2   3 935.780 47.8964   9
  -3  -2  -3 956.301 37.0952   4
  -3   2   3 955.486 43.5907   6
  -3  -2  -3 972.739 44.0185   2
   2  -3  -3 968.785 49.3014   3
   2  -3  -3 939.385 41.8713   4
  -2   3  -3 946.426 40.8538   6
   2   3   3 960.386 38.1954   9
  -3  -2  -3 994.993 39.1752   8
   3  -2   3 1007.40 49.0803   2
  -3   2   3 926.033 39.4185  10
  -2   3  -3 963.400 39.2775   5
  -3  -2  -3 985.024 39.4085   3
  -2   3  -3 999.429 40.6014   7
  -2   3  -3 1017.73 48.0541   2
  -3  -2  -3 968.885 36.2644   5
  -2   3  -3 1050.24 52.7141   9
  -3   2   3 913.148 42.1388   5
  -3   2   3 973.860 43.2710   4
   2  -3  -3 958.926 39.9025   8
   3  -2   3 984.915 43.1484   4
   3  -2   3 950.842 48.9068   3
   3   2  -3 964.348 40.6635   6
  -3  -2  -3 995.121 38.8434   7
  -2   3  -3 932.270 44.6849   3
   3  -2   3 987.129 42.3887   5
   3   2  -3 1018.55 41.1875   9
  -3   3   3 82.1415 11.7594   4
  -3   3  -3 97.4653 12.0536   8
   3  -3   3 89.6203 12.2231   5
  -3   3   3 69.2404 9.06000   7
   3  -3   3 65.3351 13.0385   2
   3  -3  -3 63.4212 12.2010   6
  -3   3   3 80.6077 8.25657   8
  -3   3   3 69.8941 10.7274   5
   3  -3  -3 72.9279 9.05589   7
   3  -3   3 69.5807 11.2934   8
  -3  -3  -3 52.4162 4.72374   4
   3  -3   3 79.9124 7.90037  10
  -3   3   3 88.0441 12.8925   6
  -3   3  -3 87.1729 9.25059   5
  -3   3  -3 88.7819 22.8800   9
  -3   3   3 46.8577 15.4819   1
   3  -3   3 71.4379 10.1139   7
  -3   3   3 71.3799 15.0828   9
  -3   3   3 83.0393 16.3524   3
   3  -3   3 90.9713 16.6285   3
   3  -3  -3 74.9339 11.7637   5
   3  -3  -3 87.6514 13.3166   4
   3  -3  -3 99.2455 15.4086   2
  -3   3  -3 79.7690 14.4366   3
   3  -3  -3 70.9486 16.9640   3
  -3   3   3 76.9608 13.3372   2
  -3   3  -3 75.9030 11.5787   6
  -3   3   3 69.0248 7.25860  10
   3   3   3 45.4801 5.99436   6
   3   3   3 53.4332 9.26763   9
  -3   3  -3 85.1516 16.3025   2
  -3   3  -3 78.7219 6.88546  10
   3  -3  -3 82.4499 8.19296  10
   3  -3  -3 91.9374 11.2688   8
  -3   3  -3 77.3306 11.0495   7
   3  -3   3 73.1172 11.5815   4
   0  -4  -3 394.279 16.6474   8
  -4   0   3 404.804 26.0772   2
  -4   0  -3 415.245 18.7053  10
   0   4   3 385.880 19.1758   6
  -4   0   3 410.101 22.5391   5
   4   0  -3 383.240 25.5564   2
   4   0  -3 405.054 30.2090   3
   4   0  -3 422.467 32.3382   1
  -4   0  -3 398.938 22.5218   8
   4   0   3 406.313 32.5128   1
  -4   0   3 413.113 19.7707  10
   4   0  -3 399.086 20.3227   7
   0   4   3 402.296 21.6892   9
   4   0  -3 414.795 25.2224   9
   4   0   3 382.739 27.2847   2
   4   0   3 415.018 26.7918   9
   4   0   3 400.758 20.1781  10
   4   0   3 423.073 23.9272   4
   0   4  -3 384.929 27.2458   9
  -4   0  -3 384.879 21.1036   4
   4   0   3 405.585 23.1150   8
   4   0   3 369.957 23.4365   6
  -4   0  -3 378.660 21.3295   6
  -4   0  -3 376.451 21.7565   7
  -4   0   3 409.773 28.7787   3
  -4   0  -3 390.914 28.2302   2
  -4   0   3 383.508 22.5145   6
  -4   0   3 394.604 20.4905   7
  -4   0   3 385.728 20.6890   8
   4   0  -3 406.225 20.6473  10
   4   0   3 414.040 28.2713   3
   4   0  -3 407.596 25.3589   6
   4   0   3 359.684 22.0740   5
   4   0  -3 381.232 22.4109   4
  -4   0  -3 404.957 26.5010   3
   0  -4  -3 371.601 18.7533   4
  -4   0  -3 404.000 20.9110   5
   4   0  -3 385.451 23.1429   5
   4   0  -3 373.329 20.6354   8
   4   0   3 386.415 21.2959   7
  -4   0   3 369.271 22.5472   4
   4   1   3 337.522 21.2830   6
  -4   1  -3 371.784 20.5545   5
  -4   1  -3 379.667 21.0580   4
   4  -1  -3 370.463 24.9113   6
   4   1   3 316.562 24.1408   2
   4  -1  -3 335.103 24.7265   2
  -4  -1   3 365.564 18.3007   7
  -4  -1   3 338.697 18.5206   8
  -4   1  -3 390.443 28.9968   2
   4   1   3 348.766 19.4335   7
   1  -4   3 368.727 19.2494   4
   1  -4   3 335.620 18.4080   8
   4  -1  -3 344.177 28.8879   3
  -4  -1   3 355.103 22.7054   2
  -4  -1   3 345.198 19.6460   5
   4  -1  -3 372.091 19.8149   7
   4  -1  -3 336.185 22.4115   5
  -4  -1   3 352.942 17.1979  10
  -4  -1   3 361.751 25.0108   3
  -4   1  -3 386.402 26.9552   3
  -4   1  -3 347.841 21.3163   6
  -4   1  -3 363.975 21.4844   7
  -4   1  -3 378.786 22.1758   8
  -4  -1   3 325.904 20.2199   4
   4   1   3 365.794 20.3654   5
   4  -1  -3 376.294 24.3174   9
   4  -1  -3 385.017 20.2843  10
   4   1   3 355.965 24.9195   3
   4   1   3 354.948 18.2335  10
  -1   4   3 377.467 20.5061   6
   4  -1  -3 380.420 23.0146   4
   4  -1  -3 383.131 21.0916   8
  -1   4   3 370.281 23.5582   9
   4   1   3 332.242 23.6415   9
  -4   1  -3 377.804 18.2763  10
  -4  -1  -3 358.182 18.3711   5
   4   1  -3 329.444 22.4158   2
   4  -1   3 362.785 22.8413   4
  -4  -1  -3 365.187 16.3379  10
   4   1  -3 346.834 22.8563   6
  -4   1   3 381.023 23.1094   6
  -4   1   3 347.275 21.7230   5
   4  -1   3 351.716 26.7120   2
  -4   1   3 354.460 19.7997   7
  -4   1   3 336.438 21.9603   4
   4   1  -3 355.820 26.3153   3
  -4   1   3 385.151 26.3707   2
  -4   1   3 350.375 28.0947   3
  -4   1   3 361.936 20.1010   8
  -4  -1  -3 367.046 20.1106   7
  -4  -1  -3 348.458 18.9356   4
  -1   4  -3 366.384 18.1743   6
   4   1  -3 339.075 22.3345   9
  -4  -1  -3 356.319 25.4994   2
   1  -4  -3 357.503 17.3298   8
  -4  -1  -3 367.227 20.7576   8
   4  -1   3 371.211 20.9085   7
  -4  -1  -3 374.208 23.2509   3
   4   1  -3 337.155 20.5265   5
   4   1  -3 351.312 18.1209  10
   1  -4  -3 343.125 19.4960   4
   4  -1   3 374.525 22.3504   5
   4  -1   3 336.233 26.7372   3
   4  -1   3 397.927 23.0346   8
  -4   1   3 370.308 19.2066  10
   4  -1   3 386.988 19.7717  10
  -1   4  -3 372.314 28.9249   9
   4  -1   3 379.723 23.6101   6
   4  -1   3 357.136 25.4482   9
   4   1  -3 375.826 18.4077   7
   4  -2  -3 5.69227 6.50816   6
  -4   2  -3 -7.2402 10.1356   9
  -4   2  -3 1.30895 5.41999   2
   4  -2  -3 -1.2447 3.51359   5
  -4   2  -3 6.34889 3.84844   4
  -2   4   3 -0.7100 1.27559  10
  -4   2  -3 2.75682 4.29894   3
  -4  -2   3 1.41465 2.85293   4
  -2   4   3 7.97098 3.83279   5
  -2   4   3 -0.4760 4.04921   6
  -4   2  -3 2.17516 4.15210   7
   4   2   3 0.94126 4.07582   9
  -2   4   3 2.42290 4.12324   2
   4  -2  -3 5.53922 3.55431  10
   2  -4   3 -2.3546 3.70293   4
   4  -2  -3 -6.3451 5.30071   3
   4  -2  -3 1.57263 4.48540   4
   4  -2  -3 -3.8140 3.45660   2
  -4   2  -3 6.35793 4.82938   8
   4  -2  -3 2.12726 3.32795   7
  -4  -2   3 0.12620 2.63310   8
   4  -2  -3 -3.4213 2.82561   8
  -4   2  -3 -1.1772 3.11543   5
  -4   2  -3 -2.4985 3.74063   6
   4   2   3 -2.0381 3.40499   6
  -4   2  -3 1.39607 2.32040  10
  -2   4   3 -0.8448 2.21810   7
  -2   4   3 -3.2349 3.58027   3
  -2   4   3 2.27084 8.40586   9
   2  -4   3 -5.4451 3.27202   8
  -4   2   3 4.57131 3.90892   7
   4  -2   3 -1.2593 3.06682   7
   4  -2   3 -2.6216 2.63208  10
   2  -4  -3 -0.7917 2.70366   2
  -4   2   3 -1.5120 2.05663  10
   4  -2   3 4.09591 7.48922   3
   4  -2   3 -6.1091 4.02678   6
   2  -4  -3 0.47156 2.09574   7
   2  -4  -3 2.17888 3.63499   5
   2  -4  -3 1.31094 4.58407   4
  -4   2   3 -2.7320 2.74491   2
   2  -4  -3 4.28526 3.85010   8
   4  -2   3 7.28171 5.76371   4
  -4   2   3 1.17326 3.58869   5
  -2   4  -3 3.13135 3.90600   6
   2  -4  -3 1.99611 5.40590   3
  -4   2   3 1.47206 4.30044   6
  -2   4  -3 4.28011 10.7376   9
   4  -2   3 -3.6584 3.95608   5
  -4  -2  -3 3.43641 3.64601   8
  -4   2   3 2.98784 4.00321   4
   4   2  -3 0.70329 3.46675   9
  -4   2   3 -2.2432 2.30417   8
   4  -2   3 2.00891 4.53566   2
   4  -2   3 2.88237 4.07154   8
   4   2  -3 8.59556 6.03956   6
  -4   2   3 -0.3262 5.26483   3
  -4  -2  -3 -2.0863 2.01146   4
  -4   2   3 -0.0638 7.87467   9
   3  -4   3 165.794 21.7798   2
   4  -3  -3 168.132 18.2123   6
  -4   3  -3 176.776 15.9035   8
   3  -4   3 167.978 13.7781   7
  -4   3  -3 161.646 11.9330  10
  -3   4   3 147.533 18.2025   2
   3  -4   3 169.139 12.2157  10
  -3   4   3 177.474 24.1439   9
   4   3   3 183.025 11.8465   6
  -3   4   3 204.644 15.8690   5
  -4   3  -3 189.905 16.3693   7
  -3   4   3 169.239 16.5073   6
  -4   3  -3 182.692 14.5081   4
  -4   3  -3 174.421 14.7863   5
  -4   3  -3 211.006 34.8687   9
  -3   4   3 157.936 11.9021  10
   3  -4   3 195.173 15.6658   5
   4  -3  -3 188.926 17.9871   5
  -3   4   3 135.659 20.9691   3
   4   3   3 179.040 16.4901   9
   4  -3  -3 145.109 14.3699   8
   4  -3  -3 195.390 14.5969  10
   4  -3  -3 154.670 16.2316   4
  -4   3  -3 191.330 17.2075   6
   3  -4   3 143.343 21.5688   3
   3  -4   3 171.853 16.7218   4
   4  -3  -3 195.539 28.6327   3
   4  -3  -3 188.296 14.3063   7
   3  -4   3 177.060 16.4695   8
  -3   4   3 177.451 13.0743   7
  -4   3  -3 166.737 22.5845   3
  -3   4  -3 183.505 11.1608  10
  -4   3   3 189.648 25.5267   9
  -4   3   3 157.923 13.5999   8
   3  -4  -3 165.898 15.3510   5
  -4   3   3 180.684 13.4803  10
   4  -3   3 175.924 13.7247  10
   4  -3   3 184.497 25.9165   3
   4  -3   3 94.5407 27.3282   6
  -3   4  -3 182.123 13.4681   5
   4  -3   3 180.887 15.3617   7
  -3   4  -3 159.582 15.2291   6
  -3   4  -3 172.327 23.6642   2
   4   3  -3 182.471 14.3352   9
  -4   3   3 180.333 17.5805   6
  -3   4  -3 192.302 15.0984   7
  -3   4  -3 214.485 32.6113   9
   4  -3   3 173.446 17.3534   4
  -3   4  -3 165.359 16.7786   3
  -4   3   3 174.716 25.8788   3
   3  -4  -3 182.721 17.2014   2
   3  -4  -3 201.300 27.3231   3
  -4  -3  -3 175.075 9.83510   4
   3  -4  -3 172.225 14.6346   8
  -4   3   3 158.003 15.5102   5
   4  -3   3 204.799 17.8160   8
  -4   3   3 179.960 14.4759   7
   4  -3   3 151.573 16.2023   5
  -4   3   3 193.720 16.4674   4
   3  -4  -3 169.772 12.7615  10
   3  -4  -3 183.011 12.8826   7
   3  -4  -3 174.614 16.1459   4
   4  -4  -3 194.901 15.5606  10
   4  -4  -3 176.704 14.6746   7
  -4   4   3 175.367 17.0582   5
  -4   4  -3 204.720 15.9382   5
   4  -4  -3 171.649 18.2522   5
   4  -4   3 207.675 18.2722   5
   4  -4   3 203.903 14.9115  10
   4  -4   3 169.471 19.2709   4
  -4   4  -3 196.334 34.4692   9
   4  -4   3 165.667 21.2330   8
  -4   4  -3 203.260 13.3675  10
   4  -4  -3 181.580 18.8116   4
   4  -4  -3 198.977 21.0876   8
  -4   4  -3 177.506 18.1331   6
  -4   4   3 192.023 16.2136   7
   4  -4   3 190.734 16.7529   7
  -4   4   3 170.415 26.5482   9
  -4   4   3 184.064 14.6885  10
   4   4   3 212.918 18.3612   9
  -4   4   3 185.472 19.9552   6
  -4   4  -3 162.027 19.1208   7
   5   0  -3 221.960 15.8319  10
   5   0   3 289.911 24.6745   3
  -5   0  -3 271.195 21.9718   3
  -5   0   3 225.560 16.5802   8
  -5   0   3 234.887 16.4101   7
  -5   0  -3 251.154 17.3520   4
   5   0  -3 242.967 21.0921   9
   5   0   3 239.536 23.0148   9
  -5   0  -3 239.291 13.9374  10
  -5   0  -3 219.670 36.5916   2
   5   0   3 241.134 17.4896   7
   5   0   3 242.017 20.1572   6
   5   0  -3 228.118 30.5105   3
   0   5   3 246.074 18.9864   9
  -5   0  -3 237.347 18.1843   7
  -5   0   3 247.946 23.6959   3
   5   0   3 202.139 17.5110   5
   5   0  -3 239.853 16.1959   7
  -5   0   3 220.420 18.2592   4
   5   0  -3 231.559 19.0989   5
   5   0  -3 251.105 21.7299   6
   5   0  -3 239.493 21.2527   2
  -5   0  -3 244.748 16.6650   5
   5   0   3 232.740 15.7521  10
  -5   0   3 224.080 20.9178   2
  -5   0   3 247.528 18.3328   5
  -5   0   3 260.006 15.4144  10
   5   0   3 190.359 33.4433   2
  -5   0  -3 245.064 18.7940   8
   5   0   3 228.944 19.1140   8
   5   1   3 5.21333 4.88563   5
  -5   1  -3 3.00655 5.30651   8
   5  -1  -3 2.61163 4.95254   4
  -5   1  -3 14.3839 6.00251   5
  -5  -1   3 5.08579 4.41578   8
  -5  -1   3 -3.2456 3.25760   7
   5  -1  -3 14.3178 8.44723   6
   5  -1  -3 11.7427 7.52462   9
   5  -1  -3 8.54484 4.51300  10
  -5   1  -3 23.0250 7.48195   6
  -5   1  -3 3.00717 5.47195   7
   5  -1  -3 -1.4657 4.36775   8
  -5   1  -3 9.39914 3.84315  10
   5   1   3 8.35641 4.84455   7
   5   1   3 6.64378 6.52907   2
   5   1   3 7.60151 4.13520  10
  -5   1  -3 5.68006 4.88129   4
  -5  -1   3 4.99077 4.27544   5
   5  -1  -3 6.20573 6.36562   5
  -1   5   3 8.03572 10.0116   9
  -1   5   3 10.0697 4.84306   6
   5   1   3 6.29394 5.85704   6
   5   1   3 4.37380 4.43897   3
   5  -1  -3 9.25513 5.02775   7
  -5  -1   3 6.44863 5.10878   4
   5   1   3 7.18120 7.30848   9
  -5  -1  -3 5.91315 6.40192   2
  -5  -1  -3 7.36663 4.24916   4
  -5   1   3 20.0668 7.31649   6
   5  -1   3 13.6399 7.10777   8
  -5  -1  -3 8.33170 4.45640   3
  -5  -1  -3 1.97576 4.38691   7
   5  -1   3 5.79423 4.60715   7
   5  -1   3 12.4172 7.88332   6
  -5   1   3 7.97105 5.77507   5
  -5  -1  -3 7.82564 2.43448  10
   1  -5  -3 11.4033 4.66832   4
   5  -1   3 5.65998 7.45846   9
  -5   1   3 4.94310 3.85795  10
   5   1  -3 3.65589 5.14451   9
  -5   1   3 -1.7175 3.84564   7
  -5   1   3 7.47511 5.08047   8
   5   1  -3 2.53619 3.90246  10
   5   1  -3 1.66995 3.27816   7
  -1   5  -3 5.39076 11.6056   9
  -5   1   3 4.76464 5.08604   4
  -5  -1  -3 5.64328 4.04997   5
   5   1  -3 0.77593 6.34273   6
   5  -1   3 13.2514 7.03625   4
   5  -1   3 7.40401 4.70304  10
   5  -1   3 9.62547 6.51241   5
  -5  -1  -3 2.59820 5.78417   8
   5   1  -3 3.38321 4.54156   5
   5  -2  -3 429.353 24.6963   7
  -5  -2   3 406.373 21.6191   8
  -5  -2   3 419.691 23.9345   4
  -5   2  -3 404.090 25.5565   5
  -5   2  -3 443.130 26.0826   4
  -5   2  -3 400.507 27.2902   7
   5  -2  -3 420.310 28.6740   5
   5  -2  -3 430.912 31.9697   6
  -2   5   3 432.734 26.1754   6
  -5   2  -3 458.308 28.6797   8
   5   2   3 428.346 30.2211   9
   5  -2  -3 399.311 25.4575   8
  -2   5   3 409.700 31.9208   9
   2  -5   3 414.588 25.2983   4
   5  -2  -3 391.818 27.5929   4
   5  -2  -3 395.763 24.7043  10
  -5   2  -3 416.900 22.6206  10
   5   2   3 373.949 23.5894   6
  -5   2  -3 425.669 27.9469   6
  -5   2   3 403.152 24.7664   8
  -2   5  -3 423.147 40.0926   9
   5  -2   3 408.337 26.0839   7
   5   2  -3 396.406 26.8164   9
  -5   2   3 414.110 28.8539   6
  -5   2   3 429.835 27.5550   5
   5   2  -3 383.872 26.3674   6
  -5   2   3 460.897 25.6886   7
   5  -2   3 407.472 28.1506   8
  -2   5  -3 405.113 23.0788   6
  -5  -2  -3 415.207 21.5899   4
   2  -5  -3 416.398 25.3328   4
   2  -5  -3 394.767 21.6845   8
   5  -2   3 422.992 28.4418   5
  -5  -2  -3 455.326 25.2537   8
  -5   2   3 417.837 27.8225   4
  -5   2   3 426.475 24.0402  10
   5  -2   3 419.101 28.8906   4
   5  -2   3 444.476 25.2040  10
   5  -2   3 444.303 30.2042   6
   5   3   3 4.00334 3.48603   6
   5  -3  -3 -2.0629 6.98367   7
  -5   3  -3 2.18641 6.26128   6
  -5   3  -3 7.67532 4.49310   4
   3  -5   3 -4.8900 5.25284   4
  -5   3  -3 2.46139 8.07587   8
   5  -3  -3 1.85527 9.40832   8
   5  -3  -3 -4.9958 7.17055   6
   5   3   3 -2.5631 10.3186   9
  -5   3  -3 0.56034 4.76489   5
   5  -3  -3 8.52681 5.82342  10
  -3   5   3 -7.6519 18.6205   9
   5  -3  -3 11.2305 7.32299   4
  -3   5   3 2.10303 6.89045   6
   5  -3  -3 9.40822 7.21257   5
  -5   3  -3 1.88802 10.1829   7
   3  -5   3 5.39491 7.18371   8
  -5   3  -3 5.34141 4.27531  10
   5  -3   3 7.80751 7.04881   4
   5   3  -3 4.77208 8.03523   9
  -5   3   3 3.34670 7.11147   8
   5  -3   3 15.6039 13.3201   8
   5  -3   3 8.68229 11.5354   6
  -5   3   3 -1.3321 3.58258   4
  -5  -3  -3 5.80188 3.67001   4
   5  -3   3 3.15766 5.11032  10
  -3   5  -3 -10.541 28.3244   9
  -5   3   3 -1.3208 4.01365  10
   3  -5  -3 2.13496 5.74055   4
   5  -3   3 2.13116 8.96073   7
  -5   3   3 0.56100 7.17773   6
  -5   3   3 -1.2204 4.93629   5
   5  -3   3 11.6694 7.69156   5
  -3   5  -3 -1.8654 4.45331   6
   3  -5  -3 3.79686 5.46572   8
  -5   3   3 -0.5492 8.30940   7
  -5   4  -3 112.812 11.5542  10
  -5   4  -3 139.314 22.8103   7
   5  -4  -3 90.7374 19.5080   8
  -4   5   3 66.5727 29.0546   9
   5  -4  -3 116.559 19.2595   4
  -5   4  -3 77.3576 33.7618   9
   5  -4  -3 121.305 17.1093   7
   5   4   3 131.201 21.2492   9
  -5   4  -3 140.959 16.8525   5
   5  -4  -3 109.711 15.7826  10
   4  -5   3 128.564 21.1106   4
   5  -4  -3 118.546 18.8200   5
  -4   5   3 125.962 11.9641  10
  -4   5   3 179.493 23.3588   6
  -5   4  -3 114.958 18.4239   6
  -4   5  -3 164.476 17.2136   6
   5  -4   3 112.779 14.9264  10
   4  -5  -3 135.681 20.1358   4
   4  -5  -3 120.870 12.8115  10
  -5   4   3 105.712 17.0446   7
   4  -5  -3 142.652 21.4370   8
   5  -4   3 129.776 20.3669   4
   5  -4   3 114.789 16.9586   5
  -4   5  -3 152.070 46.5002   9
   5  -4   3 127.118 20.1101   7
   5  -4   3 87.9574 23.6213   8
  -5   4   3 130.032 13.9676  10
  -5   4   3 179.872 24.6074   6
  -5   4   3 131.535 18.9377   5
  -5   5   3 12.9322 7.82528   5
  -5   5  -3 10.5051 9.80025   6
   5  -5  -3 -3.4890 9.15339  10
   5  -5   3 8.48853 13.3383   4
  -5   5  -3 16.4759 9.11373  10
  -5   5   3 -6.3339 10.0250  10
  -5   5   3 25.3484 13.3807   6
   5  -5  -3 12.2305 12.0252   4
  -6   0  -3 14.4560 6.97492   4
  -6   0  -3 23.8804 6.34421  10
  -6   0   3 2.33877 9.96195   8
  -6   0  -3 21.5896 7.37912   5
   6   0  -3 10.1632 7.16153   5
   6   0   3 17.6853 12.3178   9
  -6   0   3 11.6723 7.10078   4
  -6   0  -3 10.7288 12.8558   8
   6   0   3 18.1072 8.19152   5
  -6   0  -3 23.4350 9.61535   7
  -6   0   3 21.3752 8.29469   5
   6   0  -3 6.62320 8.37941   6
   6   0  -3 11.1352 6.14761  10
   6   0   3 20.5309 7.91618  10
   6   0  -3 12.3480 10.9039   9
   6   0   3 19.1667 10.1032   6
  -6   0   3 19.0361 5.91152  10
   6   0  -3 12.9613 8.65865   7
   6   0   3 4.82057 10.3532   7
   6   1   3 225.234 20.5387   6
   6  -1  -3 228.064 19.6552  10
  -6  -1   3 241.165 20.1671   4
   6  -1  -3 269.536 27.5143   6
   6  -1  -3 251.082 22.9597   5
  -6   1  -3 305.140 29.9185   7
  -6   1  -3 278.028 17.4109  10
   6   1   3 285.518 19.6885  10
  -6   1  -3 266.402 28.6996   8
  -6   1  -3 260.260 20.1403   4
  -6   1  -3 241.054 19.6520   5
  -6  -1   3 248.139 20.1179   8
  -1   6   3 231.109 33.9250   9
   6  -1  -3 226.759 22.6668   7
   6   1   3 253.462 33.2544   9
   6   1  -3 249.896 23.6632   6
   6  -1   3 261.604 20.6004  10
   6  -1   3 252.536 26.3390   7
  -6   1   3 254.970 24.2063   8
  -6   1   3 246.820 21.7227   4
  -6   1   3 268.580 18.3071  10
  -6  -1  -3 272.694 18.8294   4
  -6   1   3 271.223 22.0559   5
   6  -1   3 277.833 29.1084   8
   6   1  -3 247.665 29.6910   9
   6  -1   3 251.905 24.5420   6
  -6   1   3 262.795 23.7381   7
   6  -1   3 265.062 22.6299   5
  -6  -1  -3 294.883 27.7858   8
  -6   2  -3 26.9129 16.7979   8
  -6   2  -3 74.7169 13.2510   5
   6   2   3 53.3801 22.5081   9
  -2   6   3 47.1562 10.6947   6
   6   2   3 45.6807 10.5292   6
  -6   2  -3 65.7161 12.9309   6
   6  -2  -3 46.2399 12.3915   4
   6  -2  -3 42.8966 14.6920   6
   6  -2  -3 47.4373 14.1856   7
  -6   2  -3 29.6546 17.8272   7
  -6  -2   3 61.5081 11.2103   4
  -2   6   3 72.1144 26.0491   9
  -6   2  -3 46.4825 10.6581   4
  -6   2  -3 51.9990 9.37674  10
   6  -2  -3 56.5824 14.1395   5
   6  -2  -3 52.9586 15.8229   8
   6  -2  -3 45.7183 12.0653  10
  -6   2   3 52.1628 13.2617   5
   6   2  -3 38.4686 16.3236   9
   6   2  -3 36.1486 10.1931   6
   6  -2   3 47.9926 12.1660  10
   6  -2   3 48.1896 12.4371   4
  -6   2   3 63.0266 15.8659   7
  -6   2   3 37.5425 13.9864   8
  -2   6  -3 15.8201 28.2802   9
   6  -2   3 67.2730 16.1744   6
   2  -6  -3 75.4722 20.0457   4
  -6   2   3 55.8637 12.7707   4
   6  -2   3 62.6624 20.4766   8
   6  -2   3 29.1860 11.2104   5
  -6   2   3 51.3416 12.7903   6
  -6  -2  -3 75.0916 13.6521   8
  -6   2   3 42.8167 9.45398  10
  -6  -2  -3 58.3143 9.56471   4
   6  -2   3 43.7979 16.4418   7
  -6   3  -3 141.096 19.5768   6
  -6   3  -3 157.417 16.8745  10
   6  -3  -3 142.616 19.7875  10
  -6   3  -3 137.488 26.2471   8
  -6   3  -3 178.215 16.8427   5
   6  -3  -3 167.841 24.5840   5
   3  -6   3 178.211 18.9847   4
   6  -3  -3 141.969 27.4450   6
   6  -3  -3 201.799 26.9011   4
  -3   6   3 170.723 18.1925   6
   3  -6  -3 147.722 20.4446   4
   6  -3   3 143.935 21.5582   4
  -6   3   3 177.416 24.6864   6
  -6   3   3 175.838 18.3159   4
  -6   3   3 173.410 18.9448  10
   6  -3   3 163.749 20.2673  10
  -3   6  -3 215.705 16.2030   6
  -6   3   3 173.801 23.5616   5
   6  -3   3 131.789 20.5478   5
  -6   3   3 122.542 23.0757   8
   7   0   3 73.8604 13.3032   5
  -7   0  -3 30.5771 8.58423   4
   7   0   3 72.5603 16.8215  10
  -7   0   3 44.1733 11.6286   4
   7   0  -3 68.1850 15.0781  10
   7   0  -3 30.3169 13.3019   6
   7   0   3 69.1298 14.6174   6
  -7   1  -3 20.7834 10.3772  10
   7  -1  -3 17.2732 15.2402  10
  -7   1  -3 35.2370 9.79187   4
  -7  -1   3 38.2266 10.4162   4
   7  -1  -3 21.2886 13.1417   6
   7  -1  -3 41.0606 15.0055   5
  -7   1  -3 36.1001 8.51297   5
   7   1   3 50.5122 11.4221   6
   7  -1   3 40.6267 17.9659  10
   7   1  -3 49.6345 14.3853   6
   7  -1   3 15.6186 10.7518   6
  -7   1   3 18.2683 10.6729   4
  -7   1   3 13.6986 10.2371  10
   7  -1   3 81.1728 17.1285   5
  -7  -1  -3 44.8859 9.31282   4
   0   0   4 9907.44 313.953   3
   0   0  -4 9999.99 314.295   2
   0   0   4 9249.87 313.657   4
   0   0  -4 8285.72 335.818   1
   0   0  -4 7876.82 317.273   9
   1   0   4 2939.66 102.661   8
   0   1  -4 3179.78 108.976   9
   1   0  -4 2967.72 103.482   6
   0  -1  -4 2927.68 101.641   8
   0  -1   4 2784.89 102.206   5
   0  -1   4 2958.61 101.530   8
  -1   0  -4 2809.90 102.368   8
   1   0   4 3029.33 106.531   3
   0  -1   4 2907.83 102.957   2
  -1   0   4 3016.24 103.926   4
  -1   0  -4 3055.19 102.729   6
  -1   0   4 2816.12 102.355   5
  -1   0   4 2855.90 101.162   7
  -1   0  -4 2806.99 102.766   7
   0  -1   4 2832.53 104.983   1
  -1   0   4 2956.66 101.473   8
   0  -1  -4 2936.19 104.182   3
   0  -1  -4 2934.88 101.611   5
   0   1   4 3049.66 103.979   4
   0  -1  -4 2927.15 104.566   2
   1   0   4 2889.85 105.772   4
   1   0  -4 2812.58 102.670   4
   1   0   4 2950.48 130.457   1
   0   1  -4 2912.03 105.478   1
   1   0   4 2953.01 104.930   2
   0  -1   4 2904.21 101.035   7
   0   1  -4 2834.69 100.827   5
   0   1   4 2961.28 101.676   6
   0  -1   4 2546.16 122.592   1
   1   0   4 2880.65 101.899   7
   0  -1  -4 2925.00 101.582   4
   0   1  -4 2888.13 101.641   8
  -1   0  -4 2932.20 103.901   3
   0   1   4 2852.73 106.224   1
   1   0   4 2874.68 107.773   1
   0  -1  -4 2917.54 102.728   6
   0  -1  -4 2894.23 102.280   7
   0   1  -4 3041.98 102.078   6
  -1   0  -4 2852.82 108.595   9
  -1   0   4 2996.02 108.695   1
  -1   0   4 2846.60 110.589   1
   0  -1   4 2969.53 104.862   3
  -1   0  -4 2864.09 101.490   5
   1   0  -4 2983.18 101.869   8
   1   0  -4 2883.84 102.465   5
   0   1   4 2911.87 102.078   5
   0   1   4 3023.90 100.853   7
   0   1   4 3162.46 101.279   8
  -1   0  -4 2916.09 101.470   4
   0   1   4 2793.70 103.075   9
   1   0  -4 2941.64 110.328   1
   0   1  -4 3140.68 102.316   7
  -1   0   4 2907.77 103.466   2
  -1   0   4 2857.12 106.030   3
   1   0  -4 2773.81 105.541   3
   1   0  -4 3004.83 104.875   2
   0   1  -4 2826.39 102.497   3
  -1   0   4 2827.41 103.432   9
   0   1  -4 2935.08 122.233   1
   1   0  -4 2842.15 101.743   7
   1   0   4 3107.06 102.413   6
  -1   0  -4 2755.83 105.711   1
   0  -1  -4 2840.35 107.934   1
  -1   0  -4 2851.90 106.054   2
   0   1   4 2825.94 104.805   3
   1   0   4 2930.67 103.217   5
   0   1  -4 2875.24 104.592   2
   1   0   4 2794.75 104.064   9
  -1   0  -4 3219.44 123.921   1
   0   1   4 3096.99 102.554   2
  -1   1   4 543.376 23.8876   4
  -1  -1  -4 546.889 25.7277   6
   1  -1   4 568.872 26.2458   3
  -1   1   4 526.971 23.7614   2
  -1  -1   4 566.520 24.0996   3
  -1  -1   4 601.512 22.9099   4
  -1   1   4 519.951 22.6819   5
   1  -1  -4 519.829 22.6304   5
  -1   1  -4 554.718 24.2061   3
  -1  -1   4 561.191 20.3355   8
  -1  -1  -4 560.774 22.6391   3
  -1   1   4 537.430 29.7686   1
   1  -1  -4 558.586 24.0516   6
   1   1  -4 586.010 23.2342   2
   1  -1  -4 526.060 26.1184   3
   1   1   4 603.754 21.3715   6
   1  -1  -4 507.278 22.5957   4
  -1   1  -4 517.155 29.5997   9
  -1   1   4 549.349 28.9070   1
  -1  -1   4 515.232 26.9467   1
  -1   1  -4 511.175 22.3440   6
  -1  -1   4 584.977 25.1111   1
  -1  -1  -4 543.916 21.4647   8
  -1  -1  -4 562.287 20.6714   5
   1   1   4 589.887 22.0027   8
  -1  -1  -4 579.800 22.2002   7
  -1   1   4 544.350 21.3265   8
   1  -1   4 540.333 42.3067   1
   1  -1   4 518.990 27.5890   1
   1  -1   4 497.845 24.7624   2
  -1   1  -4 520.590 35.6837   1
   1  -1   4 538.643 22.1505   6
   1   1  -4 556.936 20.8108   8
  -1  -1   4 591.416 20.1737   7
  -1   1  -4 507.162 25.8249   2
   1   1  -4 567.591 21.2973   5
  -1   1   4 526.345 26.3447   3
  -1  -1  -4 591.361 25.1999   2
   1   1   4 545.249 22.5562   9
   1   1   4 569.028 25.6247   1
   1   1  -4 585.737 21.9930   6
   1   1  -4 618.501 21.5222   7
   1  -1  -4 519.656 24.2992   2
   1   1   4 588.329 23.4170   2
   1   1   4 544.229 25.1292   3
   1  -1   4 519.133 21.8233   7
  -1   1   4 535.493 22.9977   6
  -1   1   4 510.887 21.1355   7
  -1  -1   4 574.049 21.3807   5
  -1  -1  -4 559.440 20.5873   4
   1  -1  -4 530.527 21.5727   7
   1  -1   4 556.928 24.8665   4
   1   1  -4 522.761 22.4774   9
   1   1   4 510.331 44.5617   1
   1  -1  -4 551.847 21.9966   8
  -1   1  -4 515.325 22.5543   7
   1   1   4 567.512 21.0288   7
  -1   1  -4 522.583 21.1144   4
  -1   1   4 513.862 24.3868   9
   1  -1  -4 500.979 29.2893   1
   1  -1  -4 516.521 30.6104   1
  -1  -1  -4 542.452 25.0438   1
  -1   1  -4 524.179 22.3949   8
   1  -1   4 513.871 22.5298   5
   1  -1   4 516.420 22.4769   8
   1  -1   4 522.991 24.5394   9
   1   1   4 575.915 22.7287   5
   1   1  -4 573.484 26.9819   1
  -1   1  -4 563.077 26.2005   1
   1  -1  -4 616.184 24.0622   9
  -1   1  -4 499.130 21.2604   5
   1   1  -4 578.551 23.8254   3
  -1  -1  -4 623.208 42.7743   1
  -1  -1   4 584.127 21.6723   2
   0  -2   4 423.549 20.6449   4
   2   0   4 462.496 20.8681   6
   0  -2  -4 477.465 19.1022   5
   2   0  -4 448.002 20.7566   5
   2   0   4 480.998 27.5988   1
   2   0  -4 456.514 21.9832   6
   0  -2  -4 444.095 18.5701   7
   0   2  -4 528.626 27.3572   9
   2   0  -4 455.076 22.0324   9
   0  -2   4 446.211 20.4967   2
   0   2  -4 461.654 21.5710   2
   2   0   4 487.977 25.1629   3
   2   0  -4 459.944 21.0323   4
   2   0   4 448.059 19.8440   7
  -2   0  -4 423.639 24.2580   2
  -2   0  -4 436.543 20.4445   7
   2   0  -4 452.139 22.5513   2
   0  -2  -4 464.075 22.0894   3
   2   0   4 452.579 23.0619   9
   2   0  -4 431.511 29.0649   1
  -2   0   4 446.234 20.8636   6
  -2   0   4 442.062 18.9084   7
   0   2  -4 453.378 18.3688   6
   0   2  -4 468.577 20.9465   1
   2   0   4 466.526 24.0284   2
   0   2  -4 458.601 18.7968   3
   0   2  -4 443.823 17.1264   5
   2   0  -4 448.594 19.4450   8
   0  -2   4 462.129 18.7981   5
   0   2  -4 484.031 18.6620   8
   0  -2   4 447.429 18.4526   8
   0   2  -4 477.668 18.8856   7
   0   2   4 449.290 17.3119   7
  -2   0  -4 461.900 24.9441   1
  -2   0   4 444.124 21.2655   4
   0   2   4 446.847 25.9982   1
   2   0  -4 460.301 25.2128   3
  -2   0  -4 443.986 19.2150   5
  -2   0  -4 475.721 20.4402   6
   2   0   4 455.932 20.7705   5
   0   2   4 450.562 18.7686   6
   0   2   4 471.906 23.2309   1
   2   0  -4 490.535 28.7355   1
   0   2   4 459.571 19.0101   5
  -2   0  -4 444.916 33.2506   1
   0  -2  -4 456.314 18.1953   8
   2   0  -4 463.783 19.1762   7
  -2   0   4 450.155 27.7930   1
  -2   0   4 471.288 22.3896   2
   0  -2   4 466.354 21.2334   3
   0   2   4 452.344 19.0853   2
  -2   0  -4 419.806 27.7840   9
  -2   0   4 446.436 27.1040   1
   0   2   4 443.919 17.6363   8
   0   2   4 447.956 20.6089   9
   2   0   4 451.733 20.8382   8
  -2   0   4 458.363 19.2609   8
  -2   0   4 446.413 24.7483   3
   0  -2   4 437.622 17.9578   7
   0   2  -4 444.515 29.3579   1
   0  -2  -4 459.659 18.8846   4
   0  -2   4 467.876 22.8679   1
  -2   0   4 412.647 20.1528   5
  -2   0  -4 441.321 22.5856   3
  -2   0  -4 462.566 20.4847   8
   0   2   4 474.828 22.5982   3
   2   0   4 512.023 23.5526   4
  -2   0   4 457.546 21.9101   9
  -2   0  -4 455.881 19.3876   4
   0  -2  -4 467.554 20.9291   2
  -2  -1   4 614.020 25.1422   5
  -2   1  -4 603.486 29.5548   3
   1  -2   4 654.392 27.3609   4
  -2   1  -4 598.844 31.4992   2
  -1   2   4 611.032 26.8879   4
  -1   2   4 628.740 23.9776   7
   2  -1  -4 602.874 27.1717   5
   2  -1  -4 594.303 28.3290   6
   2  -1  -4 622.923 25.1697   7
   1   2  -4 588.463 24.9254   2
   1   2  -4 629.700 25.0456   3
   2  -1  -4 576.063 25.5664   8
  -2   1  -4 617.340 25.2854   4
  -1   2   4 620.452 23.8346   8
   1  -2   4 571.744 25.5142   8
  -1  -2  -4 588.628 22.7122   4
  -2  -1   4 632.754 26.1123   4
   1  -2   4 649.631 29.2657   3
   2  -1  -4 621.754 28.3987   9
  -1   2   4 599.293 34.1697   1
   2   1   4 610.109 24.6733   7
   2  -1  -4 599.418 37.2631   1
   1   2  -4 636.366 23.5229   6
  -2   1  -4 578.095 26.4795   8
  -2   1  -4 590.673 26.5601   7
   2  -1  -4 571.067 26.8656   4
  -2   1  -4 632.571 41.8316   1
  -2  -1   4 611.146 23.2715   7
  -1   2   4 630.104 27.1738   2
   2  -1  -4 595.381 32.2524   3
  -1   2   4 630.596 31.1247   3
  -1  -2  -4 482.847 41.0270   1
  -1  -2  -4 648.282 27.3143   2
  -1  -2  -4 619.183 25.0885   3
  -2   1  -4 591.167 35.4823   9
  -1  -2  -4 639.048 24.4747   7
  -1   2   4 588.810 26.0989   6
   1   2  -4 614.399 23.2019   7
  -2   1  -4 597.170 31.7738   1
   2   1   4 591.183 28.3243   2
   2   1   4 610.307 31.7914   1
   1  -2   4 600.513 25.2882   5
  -2   1  -4 579.909 25.1359   5
  -2  -1   4 618.047 23.7264   8
   2   1   4 777.200 58.0999   1
   2  -1  -4 619.777 29.4370   2
  -2   1  -4 597.456 26.3700   6
   2   1   4 594.634 25.6166   5
   2   1   4 603.429 25.3111   6
  -1   2   4 630.056 26.1533   5
   1  -2   4 580.576 32.0647   1
  -1   2   4 590.042 32.5300   1
   1  -2   4 609.545 24.4775   6
   1  -2   4 607.118 24.9434   7
  -1  -2  -4 604.159 23.5843   8
  -2  -1   4 615.626 25.8816   2
   1  -2   4 600.128 28.8797   2
   2   1   4 621.036 25.7712   8
  -1   2   4 601.535 28.5795   9
   2   1   4 588.729 27.2831   9
  -1  -2  -4 602.087 22.8797   5
   2   1   4 624.012 29.3428   3
  -2  -1   4 638.383 31.0187   1
  -2  -1   4 626.369 29.2379   3
   2  -1  -4 618.875 35.8504   1
   2   1  -4 627.546 26.7772   2
  -1   2  -4 617.767 34.8798   9
  -1   2  -4 630.980 29.5364   1
   1   2   4 597.992 23.7544   5
   1   2   4 620.941 25.1411   2
   2  -1   4 647.070 28.5558   4
  -2  -1  -4 607.868 24.7668   6
  -1  -2   4 590.078 25.0041   3
  -1  -2   4 603.516 22.1517   7
  -2   1   4 606.542 26.9273   5
  -2   1   4 567.318 29.0476   9
   1   2   4 628.430 23.2555   6
  -1   2  -4 578.730 23.8956   5
   2  -1   4 548.394 44.4833   1
   2   1  -4 623.840 26.8904   9
   1  -2  -4 625.306 27.7630   2
   1  -2  -4 616.535 26.1612   5
   1  -2  -4 624.651 27.4724   6
   1  -2  -4 630.147 24.3434   7
   1  -2  -4 644.637 25.0254   8
   2  -1   4 635.514 35.4188   1
   2  -1   4 598.157 30.5745   2
   2  -1   4 639.720 31.5556   3
  -1   2  -4 599.838 37.7699   1
   1  -2  -4 591.409 25.9844   4
  -1   2  -4 605.625 27.0937   3
   2  -1   4 599.969 26.5787   5
  -1   2  -4 611.461 25.6161   8
  -2   1   4 591.194 25.0057   8
   1   2   4 609.431 27.3699   1
  -1   2  -4 615.938 23.4904   4
   2   1  -4 608.251 29.5386   3
  -1   2  -4 636.116 30.3677   2
   2   1  -4 611.117 23.5596   8
   1  -2  -4 570.043 30.1820   3
  -1  -2   4 616.577 22.4597   8
  -2  -1  -4 605.578 26.3866   3
  -2  -1  -4 595.895 25.0719   8
  -2  -1  -4 598.439 25.3467   7
  -1   2  -4 588.390 25.2381   6
  -2   1   4 609.346 27.3814   6
   1   2   4 607.140 26.3321   3
   1  -2  -4 567.643 26.4264   9
  -1  -2   4 653.971 24.7538   4
  -2  -1  -4 619.320 29.5744   2
  -2  -1  -4 612.351 24.0082   4
   2  -1   4 619.634 27.0388   8
   2  -1   4 590.450 29.3255   9
   2   1  -4 663.219 34.8311   1
   1  -2  -4 580.266 34.2340   1
  -2   1   4 586.863 27.5391   4
   2   1  -4 621.186 23.7469   7
  -2  -1  -4 610.441 23.6872   5
   2   1  -4 549.566 32.4617   1
  -2   1   4 579.267 28.7818   2
   2  -1   4 612.789 26.0280   7
   2   1  -4 575.223 25.2126   5
   2  -1   4 614.468 26.9599   6
  -1  -2   4 615.015 23.6207   2
   1   2   4 643.210 23.9264   8
  -2   1   4 622.525 35.5500   1
   1   2   4 633.627 23.0515   7
  -1   2  -4 631.004 25.8750   7
  -2   1   4 573.207 34.9649   1
   2   1  -4 593.368 26.2775   6
  -2   1   4 620.151 25.1642   7
   1   2   4 589.319 24.6909   9
  -2   1   4 607.309 32.1033   3
   2   2   4 133.186 33.2348   1
   2  -2   4 105.341 14.5404   3
  -2   2   4 112.348 15.8586   3
   2  -2  -4 92.7679 10.2974   6
   2  -2   4 117.347 10.5714   4
   2  -2  -4 101.963 12.0444   2
   2   2  -4 99.8480 9.15126   3
  -2   2   4 114.722 10.9417   2
  -2   2   4 105.006 9.21813   5
   2  -2  -4 105.283 10.1094   9
  -2   2   4 100.376 7.65848   7
   2  -2  -4 105.222 9.46813   4
  -2   2   4 97.0520 12.2529   9
   2  -2  -4 107.842 9.62139   5
   2   2   4 107.278 10.1020   3
  -2   2  -4 99.7309 7.49974   4
  -2  -2  -4 110.598 6.03503   5
  -2   2  -4 105.279 14.8205   2
  -2   2  -4 102.190 10.6728   3
   2   2  -4 123.218 8.64540   9
  -2  -2  -4 102.359 7.37637   8
   2  -2  -4 97.6402 8.28997   8
   2   2   4 107.044 6.90793   7
   2   2   4 105.444 8.45396   9
   2   2   4 116.860 9.53358   2
  -2  -2  -4 101.965 7.63991   3
   2   2  -4 106.440 7.81549   6
   2   2   4 108.621 10.9315   1
  -2   2   4 97.9377 9.43261   6
   2  -2   4 108.145 9.46916   5
   2   2   4 121.839 7.51470   6
  -2   2   4 98.8034 7.49415   8
  -2  -2  -4 103.575 7.63003   7
   2  -2   4 95.2020 9.22756   8
  -2   2  -4 91.1527 8.60570   8
   2   2  -4 106.476 6.16498   7
   2  -2   4 101.333 8.37407   7
  -2   2   4 108.658 9.59944   4
  -2   2  -4 158.957 23.8145   9
  -2  -2   4 113.526 7.43686   4
  -2   2  -4 94.5378 8.86290   6
  -2  -2   4 114.158 6.62252   2
   2  -2  -4 95.9477 7.41711   7
   2   2   4 110.732 8.21255   5
  -2  -2  -4 109.570 10.3199   2
  -2  -2   4 116.933 5.73436   8
  -2   2  -4 102.806 9.03919   7
  -2  -2  -4 104.935 6.05478   4
   2  -2   4 103.368 9.44233   6
   2   2  -4 122.821 8.95206   5
  -2   2   4 99.6999 14.2723   1
  -2  -2   4 109.909 8.97808   3
   2   2  -4 108.632 7.46111   2
   2  -2  -4 113.921 16.5531   3
  -2   2  -4 97.6697 7.74568   5
   2  -2   4 111.332 14.3742   2
  -2  -2   4 110.456 6.77398   7
   3   0   4 1244.39 56.7557   2
  -3   0   4 1306.08 54.5136   2
   3   0  -4 1251.90 49.5280   8
   3   0   4 1305.04 57.3200   3
  -3   0  -4 1286.81 49.7331   4
   3   0  -4 1268.65 51.7444   4
   0   3   4 1246.53 53.1731   3
   0  -3   4 1287.85 50.1339   3
   0   3   4 1288.60 48.5022   5
   3   0  -4 1319.16 49.2094   7
  -3   0  -4 1286.95 58.1129   2
  -3   0  -4 1274.00 54.9978   3
   0   3  -4 1429.19 56.3828   9
   3   0   4 1311.97 63.4698   1
   3   0   4 1263.03 51.0763   5
  -3   0   4 1248.09 49.2389   8
   0  -3  -4 1307.19 50.0450   2
   3   0  -4 1287.75 53.6509   9
   0   3   4 1244.88 47.5563   2
  -3   0   4 1240.99 48.7927   7
  -3   0  -4 1305.53 50.5077   6
  -3   0   4 1231.98 52.0567   4
  -3   0  -4 1293.36 51.3474   8
   3   0  -4 1208.54 53.3397   6
   0   3   4 1293.64 48.9844   6
   3   0  -4 1307.25 63.1462   1
   0  -3  -4 1286.33 48.5599   5
   0  -3  -4 1280.35 48.5381   4
   3   0  -4 1384.49 55.4875   2
   3   0  -4 1308.36 59.8493   3
  -3   0   4 1242.27 51.0727   5
   3   0   4 1251.03 55.1643   9
   0   3  -4 1300.98 46.9516   3
   0   3  -4 1243.96 46.7335   6
  -3   0  -4 1271.21 50.9588   7
  -3   0  -4 1258.85 49.2599   5
   3   0   4 1251.31 51.6142   8
   3   0   4 1382.59 53.9447   4
   0  -3  -4 1270.92 46.6542   8
  -3   0   4 1234.45 51.6663   6
   0  -3   4 1160.43 48.9004   4
   0  -3   4 1268.48 47.5743   8
   0   3  -4 1322.11 51.1111   2
   0   3   4 1261.68 45.5322   7
   3   0   4 1233.94 51.6336   6
   0  -3  -4 1233.06 47.0863   7
  -3   0   4 1328.92 58.8876   3
   0  -3   4 1314.67 51.0065   2
   0   3   4 1264.00 50.3115   9
   0   3   4 1314.98 52.8745   1
   3   0   4 1248.54 50.2380   7
   0  -3  -4 1301.84 53.3527   3
   3   0  -4 1246.72 51.8000   5
  -1   3   4 281.279 15.6567   5
   1   3  -4 289.995 12.1339   6
  -1   3   4 262.190 19.5714   3
  -1   3   4 264.002 15.7574   2
   3  -1  -4 246.093 16.9613   4
   3  -1  -4 312.875 16.4821   8
   3   1   4 306.639 16.3901   5
   1  -3   4 282.072 16.2812   4
  -1   3   4 271.460 12.9708   7
   3   1   4 286.525 16.5631   6
   1  -3   4 294.950 14.6518   7
   3   1   4 289.344 18.7706   9
   1  -3   4 261.243 14.3755   5
  -3   1  -4 259.994 16.6420   7
  -1   3   4 271.357 12.6964   8
  -1   3   4 282.012 18.7327   9
  -3  -1   4 298.618 14.3627   8
   3   1   4 303.425 15.5384   7
   3  -1  -4 269.266 24.2907   1
   3   1   4 306.286 18.9723   4
  -1  -3  -4 300.834 15.9407   3
  -1   3   4 299.753 21.9747   1
   3  -1  -4 278.541 18.3601   9
   3  -1  -4 257.592 15.1739  10
  -3   1  -4 291.894 28.0515   9
  -3   1  -4 285.955 13.8753  10
  -3   1  -4 290.978 20.6281   3
  -3   1  -4 270.723 15.5938   4
  -3   1  -4 279.620 15.6636   5
   3  -1  -4 271.724 19.0769   6
  -1  -3  -4 297.589 12.9319   4
   3   1   4 286.003 19.8207   3
  -3   1  -4 261.453 16.7478   8
   1  -3   4 262.625 15.2504   8
   1  -3   4 283.935 17.9081   3
  -3  -1   4 295.290 16.5919   4
   3  -1  -4 264.534 14.9556   7
   3   1   4 291.368 16.5403   8
  -3  -1   4 289.681 15.5514   5
   3  -1  -4 281.672 17.7189   5
  -3   1  -4 298.849 17.1833   6
  -3  -1   4 284.406 16.9781   2
  -3  -1   4 295.009 20.2270   3
   3   1   4 306.449 20.3062   2
  -3   1  -4 266.014 29.8139   1
   3  -1  -4 280.205 19.6161   2
   3  -1  -4 283.175 23.2320   3
   3   1   4 308.744 24.0324   1
  -1  -3  -4 303.414 16.1178   2
  -1   3   4 280.273 16.1634   6
   1  -3   4 293.247 18.6240   2
  -3   1  -4 312.138 23.2649   2
  -3  -1   4 274.538 13.6562   7
  -1  -3  -4 307.210 13.1104   8
  -3   1   4 277.174 19.5993   2
   3  -1   4 269.793 16.1156   7
   3   1  -4 304.628 17.7901   2
   1   3   4 290.929 14.4291   9
   1   3   4 302.808 12.9799   6
  -3  -1  -4 287.904 15.9050   7
  -3   1   4 282.360 20.7174   9
   3  -1   4 294.316 15.5360  10
   3  -1   4 275.194 19.8329   9
   3   1  -4 284.726 17.8586   6
  -3  -1  -4 289.639 14.8318   6
  -3   1   4 276.572 17.8304   6
   3  -1   4 267.213 17.8842   6
  -1   3  -4 298.959 15.2862   7
   1  -3  -4 271.689 14.1004   8
  -1  -3   4 302.766 13.3065   4
   3  -1   4 281.800 17.4147   5
  -3   1   4 269.298 15.2438   8
  -1   3  -4 289.849 19.3986   2
   1   3   4 292.643 14.0088   2
   1  -3  -4 286.506 16.7682   2
  -3  -1  -4 288.038 20.4389   2
   3  -1   4 280.796 22.1175   3
   3  -1   4 280.106 18.3191   4
   3   1  -4 318.338 18.1325   9
  -1   3  -4 284.323 16.0149   3
  -1   3  -4 268.990 13.0229   5
   3   1  -4 283.073 13.9054   8
   1  -3  -4 280.391 15.8654   5
   1  -3  -4 288.152 13.5590   7
   3   1  -4 304.941 14.0430   7
   3   1  -4 283.162 16.0912   5
   1  -3  -4 277.981 15.9353   4
  -3   1   4 292.190 15.0537  10
   3   1  -4 304.489 21.3979   3
  -3  -1  -4 283.885 16.0057   8
   1   3   4 273.892 13.9253   7
  -3  -1  -4 299.117 14.6863   4
  -3   1   4 290.497 17.2956   5
  -1   3  -4 260.415 14.4838   6
  -3   1   4 302.232 23.0901   3
  -3  -1  -4 289.885 14.1328   5
  -3   1   4 270.883 15.2067   7
   1   3   4 292.117 16.0114   3
   3  -1   4 264.673 17.1860   8
  -1   3  -4 291.886 24.3128   9
   3  -1   4 285.870 25.3735   1
  -3  -1  -4 290.906 17.5506   3
   3  -1   4 248.706 20.4627   2
   3   1  -4 292.794 22.7997   1
  -3   1   4 276.701 17.7369   4
  -1   3  -4 286.559 25.3618   1
   1  -3  -4 260.957 19.8818   3
   3  -2  -4 485.244 32.5770   3
  -3   2  -4 412.158 22.8942   6
  -2   3   4 434.294 20.3604  10
  -3   2  -4 411.505 29.1596   2
  -3   2  -4 449.526 23.6160   8
  -3   2  -4 425.344 23.2111   7
   3   2   4 410.867 20.6807   5
   3   2   4 427.830 28.4467   1
   3   2   4 384.447 23.5145   3
   2  -3   4 455.442 22.0510   5
   3  -2  -4 417.311 25.7319   6
   3   2   4 416.549 20.2690   6
  -2   3   4 420.947 19.7255   7
  -3   2  -4 428.016 36.5196   9
  -2   3   4 435.051 27.3577   9
   3   2   4 409.657 23.5967   9
  -3  -2   4 398.801 20.4456   4
   3  -2  -4 420.462 26.2703   2
   3  -2  -4 412.773 21.9107   8
  -2   3   4 421.418 19.4089   8
  -2   3   4 429.334 31.2408   1
  -2   3   4 417.802 24.1385   2
   3  -2  -4 423.474 20.9631   7
   3  -2  -4 441.653 24.2705   5
   2  -3   4 449.244 26.8877   3
   2  -3   4 432.145 23.3288   4
   2  -3   4 437.482 22.8820   8
  -2   3   4 439.159 29.3409   3
  -2   3   4 412.724 22.6884   4
  -2   3   4 440.805 22.9386   5
  -2   3   4 437.834 23.8931   6
   2  -3   4 429.716 26.6733   2
  -2  -3  -4 407.173 18.4161   8
   3  -2  -4 455.858 21.9310  10
  -3   2  -4 385.882 37.0607   1
   3   2   4 398.425 24.1351   2
   2  -3   4 441.343 21.4322   7
   3  -2  -4 417.557 24.0180   4
  -2  -3  -4 409.756 16.8856   4
  -3   2  -4 426.256 21.6322   5
   3   2   4 399.180 19.6955   7
  -3   2  -4 442.478 19.6298  10
  -3  -2   4 417.775 17.9873   8
  -3   2  -4 435.624 21.5166   4
  -3   2  -4 455.420 27.7982   3
  -2   3  -4 423.866 35.6496   1
   2  -3  -4 439.868 21.2266   8
  -3   2   4 423.374 20.8671  10
   2  -3  -4 417.190 19.7358   7
   3   2  -4 423.273 21.8747   9
  -3   2   4 387.101 23.9258   6
   2  -3  -4 450.952 24.8342   2
  -3  -2  -4 446.765 25.6829   2
   2  -3  -4 455.217 20.9413  10
   3  -2   4 429.502 23.8878   8
  -3   2   4 427.168 33.6156   1
  -3   2   4 458.597 26.9487   2
  -2   3  -4 406.915 19.9750   5
   3  -2   4 414.204 28.1977   2
  -3   2   4 399.616 23.7998   4
   3  -2   4 431.657 24.5575   4
   3  -2   4 460.162 23.8120   5
  -3   2   4 426.467 21.1836   7
  -3   2   4 442.775 30.6253   3
  -2   3  -4 440.341 22.1344   6
   2  -3  -4 427.451 23.2540   4
   2  -3  -4 434.374 23.1989   5
   3  -2   4 476.465 23.0350   7
  -3   2   4 412.780 28.0104   9
   2   3   4 401.905 20.1473   9
  -2   3  -4 444.704 34.1528   9
   2  -3  -4 411.765 28.9442   3
  -2   3  -4 441.914 22.6118   8
  -3   2   4 412.442 23.4154   5
   3  -2   4 437.124 23.9660   6
   2   3   4 420.583 17.5277   6
  -3  -2  -4 412.398 18.4301   4
  -3  -2  -4 415.174 20.3795   7
   3   2  -4 410.851 22.1963   6
  -2   3  -4 429.191 22.0284   7
   3  -2   4 467.782 21.4026  10
  -2   3  -4 454.114 28.7727   2
  -3  -2  -4 418.578 17.8026   5
   3  -2   4 428.546 29.0124   3
  -3  -2  -4 410.060 20.5701   8
  -2   3  -4 421.246 24.7060   3
  -3   2   4 441.108 21.2691   8
  -3  -2  -4 415.000 20.4574   3
   3   3   4 210.512 16.2976   9
  -3   3  -4 251.619 15.7091   5
  -3   3   4 283.589 18.7276   4
   3  -3   4 250.777 18.1951   8
   3  -3  -4 237.736 17.9880   4
   3   3  -4 246.525 15.1308   9
  -3   3  -4 254.286 20.4107   3
   3  -3  -4 249.984 24.7487   3
   3  -3  -4 252.119 18.3152   5
   3  -3  -4 255.854 19.9384   6
  -3   3  -4 259.446 23.5462   2
   3   3   4 193.199 11.8803   6
  -3   3  -4 260.120 17.2720   8
  -3   3   4 234.253 19.2550   2
  -3   3   4 225.600 14.3617   8
   3  -3  -4 270.261 20.3514   2
  -3  -3  -4 215.553 10.9731   4
   3  -3   4 248.772 14.8070  10
   3  -3  -4 231.051 15.2064  10
   3  -3  -4 257.540 15.0479   7
   3  -3  -4 249.000 16.2348   8
  -3   3  -4 244.357 13.2881  10
   3  -3   4 261.130 22.7863   3
  -3   3  -4 261.770 17.6421   6
  -3   3   4 257.478 24.2811   9
  -3   3   4 254.897 18.8289   6
  -3   3   4 272.831 15.6240   7
   3  -3   4 242.490 21.5564   2
   3  -3   4 276.688 18.2066   5
  -3   3  -4 269.100 33.3732   9
   3  -3   4 256.398 18.8560   4
   3  -3   4 260.788 16.7231   7
  -3   3   4 254.743 23.5794   3
  -3  -3  -4 187.857 13.1556   8
  -3   3   4 239.977 14.8100  10
  -3   3  -4 271.270 17.7072   7
  -3   3   4 251.612 17.8526   5
   4   0   4 838.830 38.6904   8
  -4   0   4 840.203 41.5096   2
  -4   0  -4 819.904 32.9827  10
   4   0   4 807.087 50.9029   1
   4   0  -4 855.567 35.2714   7
  -4   0   4 817.463 34.9522   7
   0   4  -4 848.445 32.2236   6
   4   0   4 801.025 43.7044   3
  -4   0   4 804.276 37.5906   5
   4   0   4 816.679 38.7257   6
   0   4   4 806.779 34.5421   6
   0   4   4 823.480 36.0063   9
   4   0  -4 806.933 46.8692   3
   4   0  -4 770.794 38.2636   5
   4   0  -4 791.298 40.6399   6
  -4   0  -4 843.053 42.1278   3
   4   0   4 822.639 35.3228  10
  -4   0  -4 765.648 44.4617   2
  -4   0  -4 791.415 35.2052   5
   4   0  -4 813.068 49.7065   1
   4   0  -4 782.007 41.1554   2
  -4   0  -4 821.113 36.4730   6
   0  -4  -4 834.148 34.3962   4
   0  -4  -4 832.416 31.4461   8
   4   0   4 865.764 40.1080   4
  -4   0   4 793.506 35.2281   8
  -4   0  -4 796.350 35.7046   4
   4   0  -4 827.931 35.7223   8
  -4   0   4 853.277 39.2020   4
  -4   0   4 799.903 34.4826  10
   4   0  -4 797.851 35.4949  10
  -4   0   4 778.200 44.8977   3
  -4   0  -4 810.921 37.3293   7
   4   0   4 821.632 36.7597   7
   4   0   4 823.434 42.8545   9
  -4   0  -4 753.051 37.1833   8
   4   0  -4 762.416 37.6226   4
   4   0   4 791.185 44.0639   2
   4   0  -4 834.838 40.6672   9
   4   0   4 807.415 37.3985   5
  -1  -4  -4 544.922 23.0727   4
  -4  -1   4 544.256 26.7508   5
  -4   1  -4 562.602 28.6805   7
   4  -1  -4 539.830 31.8276   6
  -4  -1   4 552.072 24.0883  10
   4   1   4 559.840 27.1354   5
  -4  -1   4 551.312 29.4501   2
   4  -1  -4 515.901 26.7592   8
   4   1   4 534.347 32.9556   2
   4  -1  -4 515.177 29.4932   5
   4  -1  -4 551.275 32.5686   2
   4  -1  -4 501.755 26.2581  10
   4   1   4 573.961 25.6238  10
  -1   4   4 535.102 29.6968   9
  -4   1  -4 536.642 35.8398   2
  -1   4   4 546.954 27.2853   6
  -4  -1   4 565.321 25.2323   8
  -4   1  -4 526.608 26.7766   4
  -4  -1   4 522.714 27.6866   4
  -4   1  -4 524.947 28.6143   8
  -4  -1   4 554.149 33.2393   3
   4  -1  -4 543.169 29.6073   4
  -4   1  -4 492.926 32.4011   3
  -4   1  -4 549.063 24.2947  10
   4  -1  -4 503.085 25.6106   7
  -4   1  -4 562.555 27.0543   5
   4   1   4 541.086 27.9727   6
  -4  -1   4 530.601 24.2041   7
  -4   1  -4 547.068 28.1811   6
   1  -4   4 525.412 26.2299   4
   4   1   4 533.457 31.7151   9
   4   1   4 547.123 26.5834   7
   4  -1  -4 540.246 37.4110   3
   4   1   4 520.800 31.8182   3
   4  -1  -4 511.939 30.3764   9
   4  -1   4 584.274 30.8765   4
   4   1  -4 527.049 34.4222   3
   4  -1   4 505.143 33.7822   3
  -4  -1  -4 564.200 29.7262   3
   4   1  -4 551.376 29.9028   9
   4  -1   4 500.829 33.9991   2
   4  -1   4 491.974 26.9548   7
   4   1  -4 543.320 30.3937   6
  -4  -1  -4 546.721 33.7242   2
   1   4   4 571.470 24.6485   9
  -4  -1  -4 556.030 22.5986  10
   1   4   4 567.060 23.5917   6
  -4   1   4 505.842 25.8291   7
  -4   1   4 499.308 25.9719   8
  -4  -1  -4 533.119 26.8706   7
  -4   1   4 487.494 28.1616   5
   4  -1   4 542.876 29.4775   8
  -4  -1  -4 542.740 27.4588   8
   4  -1   4 517.287 29.4398   6
  -4   1   4 516.387 29.3232   4
  -4   1   4 557.594 30.0867   6
   4  -1   4 535.342 26.1285  10
  -1   4  -4 531.552 36.2168   9
   4   1  -4 536.005 24.2636   7
  -4   1   4 529.502 25.6426  10
  -4   1   4 573.652 33.0361   2
  -4  -1  -4 540.824 25.2296   4
   4  -1   4 525.248 32.7908   9
   4  -1   4 535.562 28.7290   5
  -4   1   4 542.507 36.6795   3
   1  -4  -4 537.525 23.5833   8
   4   1  -4 524.257 29.3848   2
  -4  -1  -4 584.382 24.9399   5
   1  -4  -4 519.577 26.4119   4
  -1   4  -4 500.070 24.0202   6
   4   1  -4 557.270 28.0936   5
   4   1  -4 527.994 24.8235  10
   4  -2  -4 65.3130 17.3181   3
  -4   2  -4 92.6773 11.5652   4
  -4   2  -4 70.6254 11.7885   7
  -2   4   4 69.2821 13.8191   3
   4  -2  -4 82.6349 15.3041   6
   4  -2  -4 74.0602 10.3761  10
  -4   2  -4 83.7599 12.9856   8
   2  -4   4 86.2165 12.1935   4
  -2   4   4 75.4725 11.4834   2
  -4   2  -4 77.7865 14.8354   3
   2  -4   4 66.9380 10.1367   8
  -2   4   4 73.9271 6.96869  10
  -4   2  -4 77.0773 15.8889   2
   4  -2  -4 71.4986 10.6353   8
  -4   2  -4 89.7894 13.2729   6
  -2   4   4 95.8730 16.4861   9
  -2   4   4 68.5932 10.2282   5
  -2   4   4 69.5565 7.76318   7
  -4  -2   4 68.4829 7.01667   8
   4   2   4 72.1583 10.3350   6
  -4  -2   4 90.1998 11.1051   4
   4  -2  -4 83.4176 15.0960   2
   4   2   4 80.8375 11.6247   9
  -4   2  -4 78.4687 23.2375   9
  -2   4   4 86.7690 12.9061   6
   4  -2  -4 83.9529 13.1670   4
  -4   2  -4 82.3390 10.8570   5
   4  -2  -4 73.6330 10.0731   7
   4  -2  -4 81.9692 13.2283   5
  -4   2  -4 81.4456 7.50773  10
  -4   2   4 80.6083 10.2399   7
   4  -2   4 81.7340 17.2290   2
   2  -4  -4 92.8432 10.5738   8
   4  -2   4 75.0973 12.1104   5
  -4   2   4 86.4146 13.5020   4
   4  -2   4 84.6663 9.28533  10
  -2   4  -4 91.7671 20.4424   9
   4   2  -4 85.0448 12.9039   6
  -4   2   4 84.9453 13.7877   6
  -4  -2  -4 77.4593 7.33331   4
   2  -4  -4 83.9787 16.1018   3
  -4   2   4 45.7928 9.17614   5
   4   2  -4 80.6090 10.2701   9
   4  -2   4 99.4072 15.1540   6
  -2   4  -4 87.8377 11.0126   6
  -4   2   4 70.3741 9.91868   8
   2  -4  -4 76.1263 7.38358   7
   2  -4  -4 77.6040 12.1028   4
  -4   2   4 71.1789 13.0687   2
   4  -2   4 88.4377 14.5152   4
   4  -2   4 89.9346 18.4957   3
  -4  -2  -4 78.8204 10.5236   8
   2  -4  -4 88.3266 12.3236   2
   2  -4  -4 84.9701 7.58132  10
   4  -2   4 86.2004 11.6257   7
   4  -2   4 84.9901 13.3896   8
  -4   2   4 58.1460 14.1743   3
  -4   2   4 121.673 22.3139   9
  -4   2   4 81.5099 8.29188  10
   2  -4  -4 83.6185 11.4667   5
   4  -3  -4 423.311 23.1336   7
   4  -3  -4 401.051 27.0691   4
   4  -3  -4 433.619 27.9217   5
   3  -4   4 430.309 21.8238  10
  -3   4   4 402.689 22.0535  10
  -4   3  -4 414.528 23.9261   5
  -3   4   4 428.394 33.1424   9
   4   3   4 374.816 19.7439   6
  -3   4   4 434.396 32.8877   3
   4  -3  -4 403.670 24.3743   8
  -4   3  -4 423.931 25.9822   8
  -3   4   4 372.454 26.4202   2
  -3   4   4 397.650 26.8163   6
  -3   4   4 415.262 25.3946   5
  -4   3  -4 399.270 39.8196   9
   4   3   4 411.247 26.7849   9
   3  -4   4 424.235 24.7136   5
  -4   3  -4 455.733 26.5850   7
  -4   3  -4 284.166 29.1773   3
  -3   4   4 423.816 21.7260   7
   4  -3  -4 420.365 29.2959   6
  -4   3  -4 409.578 26.2235   6
   4  -3  -4 408.946 23.9189  10
   3  -4   4 425.483 26.9367   4
   3  -4   4 439.698 26.3461   8
   3  -4   4 419.077 23.4413   7
  -4   3  -4 409.854 21.0145  10
   3  -4  -4 422.447 22.7761  10
   3  -4  -4 360.283 27.2877   2
  -4   3   4 424.159 23.2602  10
   4  -3   4 375.460 26.2321   8
  -3   4  -4 420.081 28.0803   3
   4   3  -4 409.090 23.3858   9
   3   4   4 433.918 24.1955   9
  -3   4  -4 443.362 22.6316   5
  -3   4  -4 425.321 42.3661   9
   3  -4  -4 398.638 23.3033   8
  -3   4  -4 438.186 25.4238   6
   4  -3   4 312.268 33.3616   3
   3  -4  -4 411.076 26.3020   4
   4  -3   4 407.457 26.0888   5
  -4   3   4 438.580 23.6613   7
  -4   3   4 449.173 23.4851   8
  -4   3   4 421.836 26.7404   4
   4  -3   4 419.977 25.0052   7
   4  -3   4 418.240 23.2519  10
   3  -4  -4 405.245 33.4760   3
  -4  -3  -4 412.253 18.3523   4
  -3   4  -4 421.676 19.7693  10
  -3   4  -4 363.629 30.1680   2
   3  -4  -4 425.505 26.3669   5
   4  -3   4 418.434 27.8492   4
  -3   4  -4 431.284 24.5605   7
   3  -4  -4 407.090 21.5032   7
  -4   3   4 442.518 27.1217   5
  -4   3   4 428.075 28.4814   6
  -4   3   4 411.852 33.7722   9
   4  -4   4 269.221 24.8799   4
  -4   4   4 264.207 29.7688   9
  -4   4   4 273.539 18.4533  10
   4  -4  -4 271.836 19.0821  10
   4  -4   4 330.963 28.4025   8
   4  -4   4 307.057 21.2071   7
  -4   4   4 233.359 18.7353   7
   4  -4   4 284.611 21.2854   5
   4  -4  -4 275.263 18.3363   7
  -4   4   4 283.077 24.4522   6
   4  -4  -4 283.809 23.3019   5
   4  -4   4 294.720 18.6833  10
   4  -4  -4 257.231 22.8142   4
  -4   4  -4 283.481 19.0277   5
  -4   4  -4 259.404 22.2962   7
  -4   4  -4 269.896 16.1543  10
  -4   4   4 280.290 21.6233   5
  -4   4  -4 271.156 21.8661   6
   4   4   4 293.718 23.6804   9
  -4   4  -4 262.951 39.0927   9
   4  -4  -4 284.252 23.1584   8
  -5   0  -4 288.454 23.5615   3
  -5   0  -4 313.150 19.4370   4
   0   5   4 326.043 20.8837   9
   5   0   4 279.708 20.5615   5
  -5   0   4 297.294 21.7499   4
   5   0  -4 304.106 23.8487   9
   5   0   4 288.320 20.1345   7
   5   0   4 279.400 25.5429   3
   5   0  -4 289.093 18.2350   7
  -5   0  -4 303.754 21.7233   8
   5   0   4 300.702 22.1073   8
  -5   0  -4 324.177 19.2824   5
   5   0  -4 296.042 18.6617  10
  -5   0  -4 306.150 21.2031   7
  -5   0   4 291.245 18.4778   7
   5   0  -4 334.231 23.0544   5
   5   0  -4 301.838 28.5226   3
   5   0   4 315.872 26.6227   9
  -5   0   4 300.265 19.1659   8
   5   0   4 293.372 22.4473   6
   5   0   4 297.757 18.9447  10
  -5   0   4 295.143 26.6415   3
  -5   0  -4 322.382 16.5464  10
  -5   0   4 282.909 20.5253   5
  -5   0   4 294.153 17.5582  10
   5   0  -4 286.737 24.2308   6
  -5   1  -4 1.56700 5.91604   7
   5  -1  -4 7.72351 4.57533  10
   5  -1  -4 11.3665 6.40926   4
   5  -1  -4 1.43265 6.89603   6
   5  -1  -4 8.36507 5.75571   8
   5   1   4 11.6059 7.50740   2
  -5  -1   4 14.2099 5.51508   8
  -5   1  -4 8.58961 5.32825   5
   5  -1  -4 13.8282 7.63536   5
   5   1   4 17.6708 5.26637  10
   5  -1  -4 7.40451 7.12153   9
  -1   5   4 1.68213 3.91163   6
   5   1   4 18.0899 9.23675   9
   5  -1  -4 1.85520 3.86177   7
   5   1   4 11.7086 5.70931   7
  -5   1  -4 13.1900 5.50226   4
  -5   1  -4 9.02532 3.52501  10
  -5   1  -4 11.3341 6.11679   6
  -1   5   4 7.28996 9.01903   9
   5   1   4 7.53247 5.41333   5
  -5   1  -4 0.68044 5.42471   8
  -5  -1   4 13.4440 5.89584   4
   5   1   4 12.3448 6.51683   6
   5   1   4 19.7507 7.30485   3
  -5  -1  -4 8.96223 5.71331   7
   5   1  -4 24.2804 8.73964   9
  -5  -1  -4 14.7293 8.49723   2
   5  -1   4 9.36727 7.53953   6
  -5  -1  -4 14.1950 4.96168   5
  -5  -1  -4 17.9398 4.08100  10
  -5   1   4 8.55082 5.41492   7
   5  -1   4 -2.8784 3.81068  10
  -5   1   4 10.8581 6.75696   5
   1  -5  -4 1.17598 3.91224   8
  -5   1   4 6.78711 5.88075   6
   5   1  -4 21.9819 9.49053   6
  -5  -1  -4 15.8421 5.61452   4
  -5  -1  -4 14.4345 7.01225   8
   5   1  -4 20.6972 7.66210   5
  -5  -1  -4 29.6755 7.62004   3
   5  -1   4 6.78800 5.56324   7
  -1   5  -4 8.89619 13.3781   9
   5  -1   4 11.8596 8.67599   9
   1  -5  -4 5.90940 4.30537   4
   5  -1   4 15.4462 8.60099   4
  -5   1   4 3.95057 2.85682  10
  -5   1   4 3.33880 4.35322   8
  -5   1   4 -0.1548 3.65237   4
   5  -1   4 17.0034 7.38138   5
   5   1  -4 13.5026 4.60457   7
   5  -1   4 -0.6448 5.51021   8
   5  -2  -4 104.752 11.9088  10
   5  -2  -4 111.101 13.8750   7
   5  -2  -4 89.1821 16.1758   5
   5  -2  -4 111.623 14.8421   8
  -5   2  -4 100.824 9.84565  10
  -5  -2   4 115.557 11.8071   4
  -2   5   4 125.099 21.5957   9
   2  -5   4 94.4590 14.5393   4
  -5   2  -4 125.188 17.3472   7
   2  -5   4 83.4037 12.8509   8
  -5   2  -4 138.855 18.4458   8
  -2   5   4 135.775 17.2016   6
  -5   2  -4 112.814 14.8896   5
  -5   2  -4 127.189 15.8220   4
  -5  -2   4 107.264 10.0543   8
   5  -2  -4 85.1329 18.1085   6
   5  -2  -4 87.1760 16.3171   4
   5   2   4 95.5308 13.3530   6
  -5   2  -4 121.912 17.4485   6
   5   2   4 131.094 21.3736   9
  -5   2   4 141.207 19.1986   4
   5  -2   4 127.593 16.6326   7
   2  -5  -4 100.280 14.3695   4
  -2   5  -4 108.961 11.1547   6
  -5   2   4 108.283 11.3365  10
  -2   5  -4 71.2357 23.3933   9
   5  -2   4 115.790 14.6619  10
   2  -5  -4 95.1200 10.9224   8
  -5   2   4 113.842 14.4426   8
  -5   2   4 131.918 17.7296   5
  -5   2   4 123.970 14.4701   7
  -5  -2  -4 95.7099 9.47802   4
  -5  -2  -4 109.160 14.1871   8
   5   2  -4 94.5303 14.2941   9
   5  -2   4 114.352 18.0801   8
   5  -2   4 145.426 20.6098   6
   5   2  -4 96.4830 15.1199   6
   5  -2   4 92.0378 15.2604   5
  -5   2   4 114.866 17.6592   6
   5  -2   4 98.5371 16.7540   4
  -5   3  -4 21.5832 6.08599  10
   5  -3  -4 29.1152 11.1470   6
   5  -3  -4 14.9001 6.29253  10
   5  -3  -4 33.4214 10.9618   7
   5   3   4 19.8278 14.4283   9
   5  -3  -4 15.6201 8.22616   5
  -3   5   4 28.4124 21.8888   9
   3  -5   4 7.49055 7.64611   8
   5  -3  -4 21.5685 9.47891   4
   5   3   4 16.8869 4.96291   6
  -5   3  -4 29.7333 10.5273   6
  -5   3  -4 26.5511 12.7144   8
  -5   3  -4 20.0877 6.94424   5
  -5   3  -4 18.8498 13.3021   7
  -3   5   4 27.3768 9.22928   6
   3  -5   4 26.7752 10.6362   4
   5  -3  -4 12.5553 10.5884   8
  -5   3   4 16.2262 6.82648   4
  -5   3   4 23.2613 9.22261   8
   5  -3   4 29.9244 12.8326   7
   3  -5  -4 15.2870 7.39330   4
  -5   3   4 10.7455 9.54259   7
  -5   3   4 23.7051 10.6633   6
   5  -3   4 12.4156 15.1025   8
  -3   5  -4 34.8735 9.23956   6
   5   3  -4 17.8409 9.96344   9
  -5   3   4 9.71759 6.70021   5
   5  -3   4 20.6231 9.10800   5
  -5   3   4 18.2808 6.75149  10
   3  -5  -4 23.6928 8.63408   8
   5  -3   4 22.6524 10.4883   4
   5  -3   4 18.0069 7.54940  10
  -5  -3  -4 19.9911 4.28236   4
  -3   5  -4 23.2571 44.4869   9
   4  -5   4 88.5365 22.5193   8
   5   4   4 174.803 25.5190   9
   5  -4  -4 105.927 19.2831   8
   5  -4  -4 151.493 21.7128   5
   5  -4  -4 132.392 21.1364   4
  -4   5   4 187.239 24.6245   6
  -5   4  -4 160.415 15.0257   5
  -5   4  -4 175.121 25.0646   7
  -5   4  -4 149.681 13.1135  10
  -5   4  -4 165.510 21.6984   6
   5  -4  -4 137.102 18.2484   7
  -5   4  -4 107.870 41.9406   9
  -4   5   4 113.845 31.7704   9
   4  -5   4 180.139 24.9353   4
   5  -4  -4 144.154 15.0689  10
  -4   5   4 148.057 13.2500  10
   5  -4   4 147.755 14.8147  10
   5  -4   4 111.909 25.8072   8
  -4   5  -4 184.603 17.7128   6
  -5   4   4 133.574 14.8154  10
   4  -5  -4 164.220 23.3093   4
   4  -5  -4 144.578 13.5966  10
   4  -5  -4 125.337 19.4415   8
   5  -4   4 151.771 19.5250   5
   5  -4   4 170.838 22.6115   7
  -5   4   4 181.335 17.8832   5
  -5   4   4 131.511 18.0106   7
   5  -4   4 173.930 24.1081   4
  -4   5  -4 174.921 55.3061   9
  -5   4   4 165.662 23.8038   6
  -5   5   4 -2.5913 11.4774  10
  -5   5  -4 13.6091 8.87175  10
   5  -5  -4 2.81730 11.2022  10
  -5   5   4 -10.021 6.78732   5
  -6   0  -4 43.4401 9.09147   5
  -6   0   4 43.6737 10.5397   5
  -6   0   4 33.8372 7.02451  10
  -6   0  -4 37.6013 8.47774   4
   6   0   4 44.2798 16.7299   9
   0   6   4 31.4927 12.6568   9
   6   0  -4 27.5995 9.43874   7
  -6   0   4 41.2742 10.8111   4
  -6   0  -4 37.0213 15.7472   8
   6   0  -4 26.0318 10.3451   6
   6   0  -4 34.3328 10.9044   5
   6   0  -4 51.7722 16.5650   9
  -6   0  -4 30.4432 10.5273   7
   6   0   4 30.9405 13.7700   7
   6   0   4 65.5448 11.6485  10
  -6   0   4 51.1859 12.7984   8
   6   0   4 30.1758 10.8414   6
   6   0  -4 28.2179 8.08055  10
   6   0   4 55.4490 11.2291   5
  -6   0  -4 38.2087 6.69068  10
  -6  -1   4 118.101 14.6743   8
  -6   1  -4 119.094 15.8583   5
  -6   1  -4 111.637 10.9068  10
  -6   1  -4 134.013 22.7701   7
   6  -1  -4 84.0292 19.0316   6
   6  -1  -4 138.196 20.6705   5
   6  -1  -4 107.909 16.5883   7
  -6  -1   4 144.098 18.6877   4
   6  -1  -4 94.5797 14.5958  10
  -1   6   4 107.675 23.3517   9
  -6   1  -4 116.266 15.1115   4
   6   1   4 120.676 13.0495  10
   6   1   4 133.432 27.7955   9
   6   1   4 136.501 18.0529   6
  -6   1  -4 124.934 22.1784   8
   6  -1   4 127.087 17.8149   5
  -6  -1  -4 114.355 19.8401   8
  -6   1   4 91.0179 16.0338   8
  -6   1   4 116.716 18.2177   4
  -6  -1  -4 118.324 14.6817   4
   6  -1   4 95.0353 14.8729  10
   6  -1   4 118.723 21.0353   7
  -6   1   4 109.550 11.7524  10
   6   1  -4 112.502 22.3018   9
   6  -1   4 118.286 21.8617   8
  -6   1   4 135.264 18.2826   5
   6   1  -4 91.2640 17.0242   6
   6  -1   4 121.831 19.4795   6
  -6   1   4 112.319 16.6344   7
  -6   2  -4 24.8981 6.68543  10
   6  -2  -4 30.8266 9.97322   5
  -6   2  -4 25.6992 17.7737   8
   6  -2  -4 14.0692 12.6352   8
   6  -2  -4 17.3267 8.09770   4
   6  -2  -4 35.5875 13.7226   6
  -6  -2   4 42.0669 9.27878   4
  -6   2  -4 36.8372 10.4765   5
  -6   2  -4 33.3001 19.9015   7
  -6   2  -4 33.8893 9.69262   6
   6  -2  -4 24.8226 12.4241   7
   6   2   4 39.8088 9.06966   6
  -2   6   4 16.6376 22.5160   9
  -6   2  -4 39.0779 9.69748   4
  -2   6   4 43.2833 11.0210   6
   6   2   4 29.5546 21.3525   9
   6  -2  -4 23.2049 9.09425  10
   6  -2   4 12.7250 17.9027   8
   6  -2   4 32.2121 16.6602   7
   6  -2   4 25.5050 9.23394   5
  -6   2   4 23.9144 9.20183   4
  -2   6  -4 18.7535 32.1961   9
   2  -6  -4 33.1407 9.33874   4
  -6   2   4 37.7975 11.5229   5
   6  -2   4 34.5059 10.8436   4
  -6   2   4 26.7259 13.8289   7
   6  -2   4 20.9693 9.19405  10
  -6   2   4 28.1848 7.49263  10
   6   2  -4 20.2787 15.0736   9
   6   2  -4 26.6752 9.06042   6
   6  -2   4 31.0224 11.9018   6
  -6   2   4 19.8237 12.6742   8
  -6   2   4 20.8532 9.31951   6
  -6  -2  -4 44.0241 7.57053   4
  -6  -2  -4 40.9842 13.1675   8
   6  -3  -4 125.583 20.5593   5
  -6   3  -4 130.029 17.4068   5
   3  -6   4 125.903 19.2863   4
  -3   6   4 134.651 19.4963   6
   6  -3  -4 78.4664 15.5626   4
  -6   3  -4 108.542 15.5537  10
  -6   3  -4 128.851 19.0482   6
   6  -3  -4 112.760 19.0846  10
  -6   3   4 157.830 23.1942   6
   6  -3   4 94.7262 17.9414  10
   3  -6  -4 131.452 19.2381   4
  -6   3   4 114.997 17.2478  10
   6  -3   4 85.1565 17.7303   4
  -6   3   4 124.923 20.0420   4
  -3   6  -4 136.097 12.8910   6
  -6   3   4 109.726 17.9286   5
   6  -3   4 103.726 17.2474   5
   7   0  -4 184.304 28.1491   6
   7   0  -4 218.064 24.7141  10
   7   0   4 209.850 20.3372   5
  -7   0  -4 184.628 18.3712   4
   7   0   4 182.228 24.1296  10
  -7   0   4 203.156 22.8043   4
  -7   0  -4 200.140 16.3567  10
   7   0   4 191.100 26.1995   6
  -7   1  -4 36.2342 15.1245   5
  -7  -1   4 42.6292 15.3716   4
   7  -1  -4 45.9281 15.5392   5
  -7   1  -4 50.0064 11.9691  10
   7  -1  -4 10.6408 16.3236  10
   7   1   4 51.8058 17.0782   6
  -7   1   4 25.3081 12.6412   5
   7  -1   4 27.4008 14.1371   5
  -7   1   4 31.1644 13.2471  10
   7  -1   4 40.6986 19.1136  10
   7   1  -4 18.0646 15.1861   6
   0   0   5 565.938 23.2686   9
   0   0  -5 574.534 21.6142   4
   0   0  -5 554.958 22.1320   8
   0   0  -5 478.300 32.2864   9
   0   0   5 631.918 21.9884   8
   0   0   5 569.025 25.3130   3
   0   0   5 590.312 23.2110   2
   0   0   5 601.508 21.3467   7
   0   0  -5 543.124 23.2739   7
   0   0  -5 539.398 46.7376   1
   0   0  -5 537.368 25.6209   2
   0   0   5 538.624 24.9889   4
   0   0   5 578.743 22.7330   5
   0   0  -5 597.288 22.9103   6
   0   0   5 559.366 21.7707   6
   0   0  -5 583.448 23.6974   3
   0   0   5 577.946 25.8813   1
   0   0  -5 541.508 21.3893   5
   0   0  -5 571.856 27.2610   1
   1   0   5 2873.20 95.7112   6
   1   0   5 2572.13 129.052   1
   1   0   5 2721.37 102.371   1
  -1   0  -5 2590.98 96.6085   7
  -1   0  -5 2930.61 122.482   1
   0  -1   5 2718.45 97.0517   2
  -1   0  -5 2677.81 100.326   1
   0  -1   5 2675.08 94.7007   6
   0   1  -5 2604.19 120.325   1
   0   1   5 2667.04 100.971   1
  -1   0  -5 2777.78 97.5916   3
  -1   0  -5 2680.00 94.7938   4
   0  -1   5 2679.45 94.6457   7
  -1   0  -5 2715.10 100.634   2
   0  -1  -5 2601.22 102.794   1
   0  -1  -5 2752.65 95.5163   8
   0   1   5 2753.28 94.4910   7
  -1   0  -5 2804.60 96.6011   6
  -1   0   5 2710.70 96.2578   5
  -1   0   5 2636.36 96.1982   6
   0   1  -5 2786.48 94.5076   4
   1   0  -5 2919.70 98.5246   9
   0   1  -5 2567.40 95.9136   7
  -1   0  -5 2654.38 96.1888   8
  -1   0   5 2705.65 94.5442   7
   1   0   5 2761.68 95.6064   7
   1   0   5 2798.75 96.5096   8
   0   1  -5 2807.29 96.6878   3
   0  -1   5 2666.73 95.2398   8
   0  -1  -5 2619.43 99.2277   2
   1   0   5 2654.02 98.1274   9
   1   0  -5 2808.10 98.6876   2
   1   0  -5 2776.73 100.075   3
   1   0  -5 2769.46 96.6048   4
   0  -1  -5 2797.35 96.7954   6
   0  -1  -5 2528.12 96.2245   7
   0   1  -5 2779.48 100.536   1
  -1   0   5 2732.44 97.9859   4
   0  -1  -5 2662.41 95.2890   4
   1   0   5 2733.59 98.9264   2
   1   0   5 2764.63 101.181   3
   0   1  -5 2693.83 95.9883   6
   0   1  -5 2706.71 94.4199   5
   0  -1   5 2745.03 99.2028   3
   0  -1  -5 2665.55 98.3047   3
   0  -1   5 2624.10 99.4257   1
   0   1  -5 2552.51 98.9192   2
   0   1   5 2944.48 98.5564   4
  -1   0   5 2829.90 100.831   3
   0   1  -5 2972.37 104.627   9
  -1   0   5 2608.76 105.611   1
   0   1   5 2785.68 96.5544   2
   0   1   5 2660.71 99.3230   3
   1   0  -5 2848.63 95.5537   8
   0   1   5 2635.07 95.8502   5
   0  -1   5 2881.55 125.497   1
  -1   0   5 2754.56 102.476   1
   0   1   5 3024.95 95.0441   8
   0   1   5 2645.14 97.0035   9
   1   0  -5 2646.21 104.701   1
   1   0  -5 2774.98 95.7285   7
  -1   0   5 2718.29 94.7842   8
  -1   0   5 2621.25 97.0862   9
   0  -1  -5 2597.12 95.1966   5
  -1   0   5 2761.95 96.9634   2
   0   1   5 2561.25 95.2475   6
   0   1  -5 2732.59 95.4817   8
   1   0   5 2431.29 99.8415   4
   1   0   5 2740.32 97.3455   5
  -1   0  -5 2696.24 94.9060   5
   1   0  -5 2713.67 97.3009   6
   1   0  -5 2723.70 96.1970   5
   0  -1   5 2680.51 96.1357   5
  -1   0  -5 2697.09 103.714   9
   0  -1  -5 2674.08 128.864   1
  -1   1  -5 264.976 11.6293   5
  -1   1  -5 273.204 15.8225   1
  -1   1   5 257.131 18.1678   1
  -1  -1  -5 243.450 12.6355   7
  -1   1   5 253.480 19.2943   1
  -1   1   5 265.072 13.8775   2
  -1   1   5 275.461 16.8339   3
  -1   1  -5 260.126 13.1692   7
   1   1   5 241.370 13.0736   9
  -1   1  -5 267.948 13.1240   6
   1  -1   5 255.555 15.1995   2
   1  -1   5 213.875 37.0981   1
   1   1   5 270.076 11.5218   7
   1   1   5 273.923 12.6067   8
  -1  -1  -5 248.088 10.9749   4
   1  -1   5 268.716 12.3270   7
   1  -1   5 265.657 13.1289   8
   1  -1   5 235.287 14.5088   9
   1  -1   5 254.165 17.4425   1
   1   1   5 250.181 15.5013   3
  -1   1  -5 256.734 13.8179   3
  -1  -1  -5 230.720 31.8319   1
   1   1  -5 238.423 13.8936   3
   1   1  -5 256.114 11.6706   5
   1   1  -5 269.166 12.5274   6
  -1  -1   5 265.697 13.4722   4
  -1  -1  -5 245.435 15.6619   1
  -1   1  -5 247.064 21.6912   9
  -1  -1  -5 258.384 11.1333   5
  -1  -1   5 257.528 12.2233   2
  -1  -1   5 289.763 15.1098   3
   1  -1  -5 297.107 15.1592   9
   1  -1   5 275.568 13.8303   5
  -1  -1   5 257.091 10.6359   7
  -1   1  -5 256.690 16.3407   2
   1  -1  -5 251.082 14.0512   6
   1  -1   5 279.779 16.9487   3
   1   1  -5 251.963 14.1994   2
   1   1   5 264.432 15.8477   1
   1   1   5 260.892 13.7393   2
  -1  -1   5 234.644 10.6666   8
  -1   1  -5 259.389 12.8409   8
  -1   1   5 249.828 14.0856   4
  -1   1   5 253.003 11.4021   8
  -1   1  -5 251.206 11.2518   4
   1   1   5 251.866 11.6811   6
  -1  -1  -5 256.954 15.4662   2
   1  -1  -5 242.083 12.8641   4
   1  -1  -5 263.745 13.0599   5
   1  -1   5 287.769 16.6937   4
   1  -1  -5 272.866 12.1475   7
   1  -1  -5 261.131 12.1385   8
  -1   1   5 246.719 14.3208   9
   1  -1  -5 236.466 18.9317   1
   1  -1  -5 271.100 15.0538   2
   1  -1  -5 242.871 15.9630   3
  -1   1   5 271.120 11.4460   7
   1   1   5 253.438 13.0791   5
   1   1   5 251.946 34.1125   1
   1   1   5 231.826 14.7721   4
   1   1  -5 219.331 13.9062   9
  -1  -1  -5 265.456 13.3605   3
  -1  -1  -5 252.235 20.3645   9
   1   1  -5 252.738 12.1810   7
  -1  -1   5 267.108 11.9326   5
  -1  -1  -5 276.223 12.5958   6
   1   1  -5 276.136 31.7698   1
  -1  -1  -5 247.379 11.9650   8
   1  -1   5 281.716 12.5656   6
  -1  -1   5 240.467 15.0720   1
  -1   1  -5 247.064 26.2883   1
   1   1  -5 256.676 17.2924   1
   2   0   5 250.244 14.2487   5
   0  -2   5 276.496 14.3904   2
   2   0   5 261.182 16.8382   2
  -2   0  -5 234.945 22.2999   9
   0  -2  -5 254.545 12.7729   7
  -2   0  -5 244.379 17.4863   2
   0   2  -5 247.408 25.1256   1
   0  -2  -5 251.453 12.4495   5
   0  -2  -5 270.941 13.7892   6
  -2   0  -5 257.777 15.4714   3
   2   0   5 274.620 14.5146   8
   0  -2   5 273.116 15.3491   3
  -2   0  -5 279.844 28.1287   1
  -2   0  -5 266.306 17.3626   1
  -2   0  -5 254.529 13.7238   8
   2   0  -5 264.570 15.2989   6
   0   2   5 260.821 11.0822   7
   0   2   5 265.655 11.5524   8
   0   2   5 256.297 14.1798   9
   2   0  -5 259.176 21.9182   1
  -2   0   5 261.904 12.1513   7
   2   0   5 265.432 16.3966   9
  -2   0   5 242.840 14.5351   9
   0  -2   5 255.040 12.5502   5
  -2   0  -5 240.434 13.7963   7
   2   0  -5 238.122 15.1071   2
   0  -2  -5 270.439 15.4710   2
   2   0   5 267.845 14.2095   6
   0   2   5 260.728 16.0332   3
   0  -2   5 255.376 12.1477   8
   2   0   5 239.203 12.9411   7
  -2   0   5 268.012 15.0996   2
  -2   0   5 232.411 17.2490   3
  -2   0  -5 254.481 12.4863   5
   2   0   5 283.547 40.5580   1
   2   0  -5 269.552 12.5872   7
   0   2   5 264.025 12.7138   5
  -2   0  -5 258.681 13.6451   6
  -2   0   5 260.200 14.3007   6
   0  -2  -5 284.708 35.2647   1
   0   2  -5 258.955 15.3937   1
   0   2  -5 279.973 15.5666   2
   0   2  -5 263.059 12.8476   3
   0   2  -5 249.906 10.8525   5
   0   2  -5 251.089 12.2348   6
   0  -2   5 211.491 14.6293   4
   0  -2  -5 257.277 12.4876   4
   0   2  -5 275.024 24.3314   9
   2   0  -5 258.287 14.2900   4
   2   0  -5 267.534 18.1311   3
   0  -2   5 249.980 11.5384   7
   0   2   5 251.401 12.3595   6
  -2   0   5 251.127 14.6699   4
   0   2   5 258.469 12.9255   2
   2   0   5 268.534 19.8441   1
  -2   0   5 266.430 12.4454   8
  -2   0   5 259.445 19.8804   1
   0  -2   5 256.188 16.0982   1
   0   2   5 258.299 16.6294   1
   0  -2  -5 266.889 12.1161   8
   2   0  -5 262.918 14.1946   5
   0   2  -5 267.636 12.6070   7
   0   2  -5 270.851 12.3131   8
   2   0  -5 253.168 12.5965   8
   2   0  -5 256.341 15.5591   9
  -2   0  -5 262.811 12.5086   4
   0   2   5 251.838 19.4098   1
   2   0   5 282.439 18.5510   3
   0  -2  -5 267.684 15.6404   3
  -2   0   5 252.398 13.7851   5
   2   0  -5 244.380 21.1036   1
   2   0   5 288.140 17.7935   4
  -2   1  -5 30.5530 5.42224   7
  -2   1  -5 31.3264 5.73537   8
   2  -1  -5 41.0136 12.5248   1
  -2   1  -5 36.2848 5.03024   4
  -2   1  -5 33.3629 6.00039   6
   2   1   5 39.6604 6.16246   9
  -1   2   5 31.2574 8.67514   1
  -1   2   5 30.3357 5.26282   5
   2  -1  -5 22.3367 7.32247   3
  -2   1  -5 31.5553 4.64607   5
  -2   1  -5 33.9533 13.8576   9
  -1  -2  -5 36.6791 4.44462   8
  -2  -1   5 42.9424 6.18900   4
  -2   1  -5 35.6735 13.3384   1
   1  -2   5 27.4100 4.40956   7
   2   1   5 26.9650 6.07858   2
  -1  -2  -5 13.3369 18.7162   1
   1   2  -5 40.1112 4.11267   6
  -1   2   5 29.7771 5.45541   2
   2   1   5 58.3087 11.0967   1
   1  -2   5 20.3292 7.47439   1
   1  -2   5 20.4344 5.72627   2
   1  -2   5 25.2778 6.93121   3
   1  -2   5 39.5869 7.13831   4
   1  -2   5 38.5545 5.82993   5
   2   1   5 28.8935 7.02504   3
  -1   2   5 34.4782 7.94620   3
   1   2  -5 42.9448 4.61429   7
   2  -1  -5 23.8472 5.71357   2
   2   1   5 42.9179 6.46544   5
  -1   2   5 24.1742 4.71701   6
  -2   1  -5 22.6547 6.78261   2
  -2   1  -5 22.5892 6.34522   1
   2  -1  -5 30.0457 4.58757   8
   1   2  -5 47.9952 8.72363   1
   1   2  -5 34.9280 5.54990   2
   1   2  -5 46.7093 6.25183   3
   1   2  -5 36.4288 3.31263   5
  -2  -1   5 51.6039 6.18731   2
   2  -1  -5 24.4594 8.22595   1
  -1  -2  -5 36.3507 5.43273   3
  -2  -1   5 42.6318 5.38151   5
  -1  -2  -5 35.4599 3.44935   5
  -1   2   5 34.3484 8.86503   1
  -2  -1   5 39.2505 4.18750   8
   2   1   5 41.7796 25.5430   1
   1  -2   5 27.5239 4.17719   6
  -1   2   5 27.5764 3.61044   7
   2   1   5 33.8730 5.34621   6
   2   1   5 38.8012 4.88547   7
   2   1   5 43.8690 6.22492   8
   2  -1  -5 28.8998 5.87583   9
   1   2  -5 37.0450 15.1497   1
   2  -1  -5 31.9917 6.07090   4
  -2  -1   5 39.3466 7.49574   3
  -2  -1   5 37.6503 3.50132   7
  -1  -2  -5 34.0421 4.47861   6
  -2  -1   5 44.3878 12.8123   1
   1  -2   5 31.4983 5.31058   8
  -1  -2  -5 36.1208 3.48029   4
   2  -1  -5 31.5631 5.79185   5
  -1   2   5 31.5581 5.71156   4
  -1  -2  -5 39.8860 5.21286   7
   2  -1  -5 27.0988 4.19767   7
  -1  -2  -5 28.3853 6.06340   2
  -2   1  -5 28.7320 6.26064   3
  -1   2   5 26.8987 3.62144   8
  -1   2   5 34.0324 6.99475   9
  -2  -1   5 41.2188 5.43930   6
   2   1   5 23.8850 6.99310   4
   2  -1  -5 28.7049 6.37665   6
  -1   2  -5 32.5631 11.4797   1
  -2  -1  -5 42.7290 8.39316   2
  -2  -1  -5 38.1257 3.90337   5
   1   2   5 45.1370 5.23464   8
  -1  -2   5 43.5247 5.76896   4
   1   2   5 44.0305 7.47680   1
   1  -2  -5 24.2785 4.78188   4
  -1   2  -5 37.4093 7.30006   1
   2   1  -5 39.7671 5.59143   4
  -2   1   5 25.9990 5.42923   4
  -1   2  -5 33.4619 7.42376   2
   2   1  -5 35.6670 5.11613   5
  -2   1   5 24.2381 3.93208   7
  -2   1   5 25.6019 4.01919   8
  -2   1   5 32.4817 7.03031   9
   1   2   5 41.5729 4.84753   5
   1  -2  -5 27.7411 5.71512   2
   1  -2  -5 40.0170 8.32726   3
   1  -2  -5 28.5757 4.49196   8
   1  -2  -5 32.9600 5.46911   5
   1   2   5 29.7816 4.85493   2
  -2   1   5 38.4787 9.03771   3
  -1   2  -5 33.3239 5.89440   3
  -2  -1  -5 32.4649 5.17556   7
   2  -1   5 26.9956 8.22261   1
   1   2   5 39.2383 5.39232   4
   2   1  -5 37.6773 6.10330   2
  -1   2  -5 31.5678 4.05559   5
   1  -2  -5 31.4251 6.02356   6
   2   1  -5 40.3718 10.8376   1
   1   2   5 31.4218 3.50680   7
  -1   2  -5 37.8229 14.3981   9
   2  -1   5 14.6542 14.4621   1
  -1  -2   5 34.9046 4.51429   2
   2  -1   5 37.8559 8.00001   2
  -1   2  -5 24.6033 4.68430   6
   2  -1   5 27.9939 6.66422   4
   2   1  -5 38.7325 6.20388   6
  -2   1   5 39.3008 11.2746   1
  -2   1   5 33.0745 6.28068   2
  -2  -1  -5 42.1466 6.16513   3
   1  -2  -5 29.1169 4.09443   7
  -1   2  -5 25.9011 4.78637   7
   1   2   5 41.0328 4.01967   6
  -1  -2   5 37.3576 4.71739   1
  -2  -1  -5 39.9578 5.42064   8
   2  -1   5 28.7998 4.89978   7
   2  -1   5 25.5819 5.28566   8
   2  -1   5 43.1124 8.57722   9
  -2   1   5 30.7633 9.29900   1
  -1  -2   5 43.8076 5.95275   3
  -2  -1  -5 45.9015 4.24822   4
   2   1  -5 41.2119 3.93842   7
   1   2   5 35.5179 6.33385   3
   2   1  -5 45.4128 8.19688   3
  -2   1   5 36.8334 6.18794   5
   2  -1   5 30.2048 5.82538   5
  -1   2  -5 20.4504 4.37711   8
  -1   2  -5 30.2269 3.21555   4
  -1  -2   5 33.0320 3.13476   7
  -1  -2   5 33.4964 3.57482   8
   2  -1   5 31.9384 6.25813   6
   2   1  -5 37.7631 3.75154   8
   2   1  -5 37.4050 5.86951   9
  -2   1   5 35.8347 5.90664   6
   2  -1   5 42.7019 9.61606   3
  -2  -1  -5 26.4659 11.4743   1
   1   2   5 30.5465 4.72164   9
  -1  -2   5 35.8755 3.28817   5
  -2  -1  -5 30.5170 4.62823   6
   2   2  -5 40.0867 6.20855   2
  -2  -2   5 44.3645 7.45480   3
   2   2   5 40.1989 5.36789   6
   2  -2   5 49.1472 9.85055   2
  -2  -2   5 41.9279 3.80502   8
   2   2  -5 70.1322 21.8336   1
   2  -2  -5 41.4236 7.30422   5
  -2   2   5 44.9704 7.70698   4
   2  -2   5 50.9595 7.57054   6
   2   2  -5 46.8938 5.53018   5
   2   2  -5 44.7233 6.38728   6
   2   2  -5 36.3273 4.64122   7
  -2   2  -5 46.3793 5.02658   4
   2   2   5 37.8442 7.74439   3
  -2  -2   5 46.2148 4.56043   7
  -2  -2   5 51.3177 6.30537   4
   2   2   5 45.5884 9.18637   1
   2  -2   5 52.5349 7.97809   8
   2  -2   5 52.8320 7.17104   7
   2  -2   5 52.8163 9.39230   4
   2  -2  -5 56.8740 9.41576   2
  -2   2  -5 52.7571 6.35434   5
  -2   2  -5 46.2800 15.5951   1
   2  -2  -5 47.4066 6.11543   7
  -2   2   5 50.6552 10.6654   3
   2  -2  -5 58.0320 9.71778   6
   2  -2   5 38.1157 9.58619   3
  -2   2   5 42.4834 7.31301   6
  -2  -2  -5 47.5142 5.95324   8
  -2   2   5 43.8654 11.4673   1
  -2  -2  -5 40.1515 5.57599   7
   2  -2  -5 50.8778 6.47107   8
   2   2   5 39.9413 6.22203   5
   2   2   5 44.2904 6.21131   9
   2   2   5 44.8932 5.27818   7
  -2   2  -5 46.2123 7.20337   6
  -2  -2  -5 41.3024 4.13118   4
   2  -2   5 58.9950 8.29142   5
   2  -2  -5 48.3612 7.85088   4
  -2   2   5 47.0637 8.10166   2
  -2   2  -5 45.6680 10.3044   2
   2   2   5 52.6051 7.97426   2
  -2   2   5 49.1739 9.84891   9
  -2   2  -5 63.0849 8.56381   8
  -2  -2   5 47.1960 5.05321   2
  -2   2   5 48.3935 7.58303   5
  -2  -2  -5 43.1867 6.20958   3
  -2   2  -5 73.7093 19.4489   9
   2   2  -5 42.2993 7.46385   3
  -2  -2  -5 45.8677 4.37881   5
  -2  -2  -5 43.0543 8.18922   2
  -2   2  -5 50.9192 8.96067   3
  -2   2   5 51.2546 6.02922   8
   2   2  -5 46.9678 6.17472   9
   2  -2  -5 55.9552 11.4041   3
  -2   2   5 48.6120 5.80144   7
  -2   2  -5 45.6286 6.97078   7
   0   3   5 1116.87 44.4858   2
   3   0   5 1200.11 60.4275   1
   3   0   5 1188.96 48.5372   8
  -3   0   5 1176.97 55.3666   3
   0  -3  -5 1208.36 50.6923   3
   3   0   5 1180.72 53.9290   2
   3   0   5 1146.60 47.6453   5
   3   0  -5 1136.11 48.3486   5
   3   0   5 1222.94 46.5645  10
   3   0  -5 1175.04 60.1481   1
   0  -3  -5 1095.80 44.2613   7
   0   3  -5 1121.74 43.4637   6
   0   3  -5 1262.34 54.3895   9
  -3   0  -5 1157.72 47.8132   8
  -3   0  -5 1167.32 43.6321  10
   3   0  -5 1138.32 48.1902   4
   0   3   5 1223.79 50.6596   1
  -3   0  -5 1119.59 54.2856   2
  -3   0   5 1172.47 50.0476   2
  -3   0   5 1160.99 48.5039   6
  -3   0   5 1144.28 44.7922   7
   0  -3   5 1155.66 44.2797   8
  -3   0  -5 1176.11 50.8318   3
   3   0   5 1123.71 51.6962   9
  -3   0  -5 1145.20 46.6666   6
   3   0   5 1155.72 46.8619   7
  -3   0  -5 1137.89 45.4731   4
   3   0  -5 1153.68 49.9565   9
   3   0   5 1266.12 51.7795   4
  -3   0   5 1150.12 47.8409   5
   3   0   5 1155.33 47.7244   6
   0   3   5 1144.88 42.2256   7
  -3   0  -5 1192.28 45.5528   5
   3   0  -5 1100.89 49.7941   6
   3   0  -5 1189.75 50.9821   2
   0  -3  -5 1181.32 43.5252   8
  -3   0   5 1172.92 49.1050   4
   0  -3  -5 1174.09 45.3778   5
   0  -3  -5 1187.43 45.3700   4
   3   0  -5 1171.56 56.2205   3
   0   3  -5 1229.15 48.8097   2
  -3   0   5 1173.48 45.3605   8
   3   0  -5 1136.03 45.0658   7
   3   0   5 1175.98 53.8316   3
   0   3   5 1199.15 50.9260   3
   0  -3  -5 1140.33 47.5759   2
   0   3   5 1181.96 47.0778   9
   0   3   5 1184.14 45.3645   5
   0   3  -5 1107.20 43.7527   3
   3   0  -5 1164.44 45.6770   8
  -3   0  -5 1151.94 47.5989   7
  -3   1  -5 146.323 11.9345   8
  -3   1  -5 131.389 18.8445   2
   3   1   5 142.711 13.3616   9
   3   1   5 116.127 14.9209   4
   3   1   5 147.494 11.6140   6
   3  -1  -5 143.835 10.5793   8
   3   1   5 147.701 14.6406   3
   3  -1  -5 146.290 18.2417   1
  -1  -3  -5 146.733 8.88212   8
   1  -3   5 156.772 13.4744   2
  -3  -1   5 161.357 10.9160   5
   3   1   5 157.957 17.1423   1
   1  -3   5 151.481 12.4786   4
  -1   3   5 149.356 11.3705   6
  -3   1  -5 152.499 14.3476   3
  -3   1  -5 205.810 31.4748   9
  -3   1  -5 162.754 9.00227  10
   3  -1  -5 153.204 13.5255   9
  -3   1  -5 159.773 10.6266   4
   1  -3   5 162.097 13.6671   3
  -3   1  -5 169.196 12.3748   6
  -3  -1   5 129.541 10.8504   4
   1   3  -5 133.746 7.89712   6
   1   3  -5 195.977 22.0689   9
  -1   3   5 152.798 15.6500   1
  -1   3   5 135.096 8.00159   8
   3   1   5 133.937 11.4182   8
   3   1   5 141.526 10.3118   7
   3  -1  -5 145.271 13.8920   6
   3  -1  -5 144.587 13.6063   2
   3  -1  -5 132.681 9.59962   7
  -1   3   5 133.642 13.9025   3
  -1   3   5 155.043 10.9730   5
  -1  -3  -5 153.379 11.4775   3
  -3   1  -5 134.266 25.6102   1
  -1   3   5 135.800 8.10065   7
  -1   3   5 142.396 10.8045   2
  -3  -1   5 144.797 8.65638   7
   3  -1  -5 144.939 12.2797   4
   3  -1  -5 142.465 12.4649   5
   1  -3   5 132.145 9.62258   7
  -3   1  -5 159.392 12.2715   7
   1  -3   5 144.400 10.5616   5
   1  -3   5 152.547 10.9791   8
  -3  -1   5 147.671 9.14807   8
  -1  -3  -5 151.824 10.0098   7
   3   1   5 145.988 11.6332   5
  -3  -1   5 147.568 14.3304   3
  -3   1  -5 156.025 10.7277   5
  -1  -3  -5 139.846 8.40915   4
   3  -1  -5 149.052 10.4537  10
   3   1   5 151.415 17.2613   2
  -1   3   5 143.979 13.2980   9
  -3  -1   5 151.535 11.5142   2
   3  -1  -5 156.552 21.4232   3
   3   1  -5 133.625 12.0694   6
   1   3   5 133.074 9.84366   9
   1   3   5 140.863 8.50064   5
   1  -3  -5 128.333 16.5005   3
   1   3   5 143.069 7.69127   7
   3  -1   5 162.586 16.9043   3
   1   3   5 151.555 11.6703   3
  -1   3  -5 151.013 8.26176   5
  -3  -1  -5 129.805 10.7514   7
  -3   1   5 137.692 19.1569   3
  -3  -1  -5 155.069 9.60539   4
   1  -3  -5 158.873 9.17718   7
  -3  -1  -5 149.169 11.2392   8
   3  -1   5 155.563 12.7257   6
   3   1  -5 152.916 9.05011   7
  -3   1   5 136.792 9.89935   8
  -3   1   5 151.052 15.4356   9
  -1   3  -5 138.649 9.74692   6
  -3   1   5 152.171 13.7877   2
   3  -1   5 175.700 13.1409   8
   3   1  -5 140.032 10.9439   5
   1  -3  -5 154.436 9.65485   8
   1   3   5 143.595 9.55646   2
  -1   3  -5 142.533 10.2441   7
  -1   3  -5 181.188 24.3185   9
  -1  -3   5 135.354 9.08066   4
  -1  -3   5 140.978 7.99354   8
  -3   1   5 130.219 12.3033   6
  -3   1   5 131.321 9.90084   7
  -3   1   5 133.626 12.0504   4
   3   1  -5 119.371 15.6921   1
  -3  -1  -5 150.506 9.20405   5
  -3  -1  -5 161.480 10.7947   6
   3   1  -5 142.834 12.1703   9
  -3   1   5 128.726 9.34876  10
   3  -1   5 142.450 13.6853   4
   3   1  -5 152.192 15.2663   3
   3   1  -5 145.764 11.8352   2
  -3   1   5 138.230 11.6793   5
   3  -1   5 164.704 16.0384   2
   1  -3  -5 138.884 11.6633   2
   3  -1   5 130.139 13.8830   9
   3  -1   5 156.115 10.6787  10
   3  -1   5 141.503 11.9990   5
   1   3   5 148.920 11.4853   1
  -3  -1  -5 148.261 17.5573   2
  -1   3  -5 163.785 14.6077   2
  -3  -1  -5 158.939 12.1118   3
   1  -3  -5 141.874 10.9689   4
   3  -1   5 143.530 11.1393   7
   1  -3  -5 142.895 10.9466   5
  -1   3  -5 144.842 10.3828   3
   1   3   5 146.345 8.44645   6
   2  -3   5 85.1518 9.87740   7
  -3   2  -5 75.3350 7.61089   4
   2  -3   5 74.2215 10.3356   8
   2  -3   5 75.1588 12.8462   2
   3   2   5 75.9542 8.07552   6
  -2   3   5 88.5236 15.3201   3
  -2   3   5 70.2703 6.91291   7
  -2   3   5 76.6853 6.80697   8
   3   2   5 72.9462 11.7581   2
   3  -2  -5 91.2486 12.7919   4
  -2   3   5 97.8372 13.9974   9
  -2   3   5 78.4913 6.85053  10
   2  -3   5 84.4533 7.13235  10
   3  -2  -5 84.3769 7.75250   7
  -3   2  -5 78.5508 15.1219   2
  -3  -2   5 70.6722 7.61319   4
  -2  -3  -5 69.3548 5.24619   4
   2  -3   5 71.4384 10.9054   4
   2  -3   5 84.6285 10.3071   5
   3  -2  -5 85.2884 13.7316   6
  -3   2  -5 79.3723 10.9037   8
  -2   3   5 76.2976 10.7973   6
  -3   2  -5 71.6308 6.17450  10
   2  -3   5 99.9500 15.1348   3
  -3   2  -5 75.6134 10.8289   6
   3  -2  -5 86.0474 12.7212   2
   3  -2  -5 93.6544 18.4064   3
  -2  -3  -5 65.4532 6.56940   8
   3  -2  -5 84.4979 11.9398   5
  -2   3   5 77.1224 16.7240   1
  -2   3   5 70.1291 10.3883   2
  -3  -2   5 58.9432 5.44108   8
  -3   2  -5 69.0302 10.0003   7
  -3   2  -5 126.763 26.8594   9
  -3   2  -5 61.2809 18.1923   1
  -3   2  -5 106.127 15.5040   3
   3   2   5 60.8545 11.1543   3
  -2   3   5 62.1968 9.37288   5
   3   2   5 57.9571 8.71054   5
   3  -2  -5 82.8597 10.1281   8
   3   2   5 67.4780 9.56406   9
  -3   2  -5 82.1732 8.21895   5
  -2   3   5 85.9118 11.2132   4
   2   3  -5 62.4670 6.32060   6
   3  -2  -5 72.4501 7.64017  10
   3   2   5 70.8758 8.08148   7
  -3   2   5 75.2393 7.60672   8
   2  -3  -5 79.7898 10.7480   4
   3  -2   5 77.4563 10.9116   5
  -3   2   5 101.122 17.7496   3
  -2   3  -5 73.9820 13.5959   2
  -3  -2  -5 58.4387 7.97102   3
   3  -2   5 67.5967 11.7288   4
  -2   3  -5 69.1980 18.0979   1
   3  -2   5 50.8633 11.9241   2
   3  -2   5 92.9622 16.1432   3
  -3   2   5 112.147 15.6094   9
   2  -3  -5 88.1708 11.2233   5
   2  -3  -5 79.3736 8.04090   8
   3   2  -5 81.1002 10.6797   6
   2  -3  -5 90.6474 16.0967   3
   3   2  -5 63.0360 8.59984   9
  -3  -2  -5 60.9002 8.02038   8
  -3  -2  -5 68.1665 6.03735   4
  -3   2   5 71.1672 7.05378  10
  -2   3  -5 69.1627 5.18853  10
  -3   2   5 73.5463 11.0844   6
   3  -2   5 56.8996 8.51537   7
   3  -2   5 71.3507 7.95680  10
  -3   2   5 74.4482 10.7733   4
  -2   3  -5 81.2783 11.4354   3
  -3  -2  -5 70.0656 5.86186   5
  -3   2   5 70.5506 11.9039   2
  -3  -2  -5 66.0844 8.48288   7
   2   3   5 62.1462 5.77569   6
   2   3   5 65.2089 7.75809   9
  -3  -2  -5 83.6970 12.4856   2
   2  -3  -5 90.4853 11.9938   2
  -2   3  -5 91.8435 10.7897   7
  -2   3  -5 69.2047 9.15708   6
   2  -3  -5 67.3559 6.66632  10
   3  -2   5 75.5182 10.9920   8
   3  -2   5 101.080 13.0377   6
  -2   3  -5 113.576 22.4920   9
  -2   3  -5 67.0572 6.63367   5
  -3   2   5 84.2147 11.5636   5
   2  -3  -5 75.2321 7.07788   7
  -3   2   5 75.5974 8.55963   7
   3  -3   5 81.2618 15.3088   3
  -3   3  -5 62.2643 10.1126   7
  -3   3  -5 77.5564 9.80951   5
  -3   3  -5 54.3237 5.50987  10
   3  -3   5 82.7431 13.2408   4
   3  -3   5 66.9630 11.0114   5
   3  -3   5 65.6217 7.44441  10
  -3   3  -5 82.5195 22.9575   9
   3  -3   5 51.6193 9.92683   8
  -3   3   5 69.5876 11.5823   4
  -3   3   5 57.9380 7.77678   8
   3  -3  -5 60.8920 11.3436   4
  -3  -3  -5 55.7066 5.36147   4
   3  -3  -5 43.8610 13.3411   3
  -3   3  -5 57.2665 10.3102   6
  -3   3   5 58.1637 10.9408   2
  -3  -3  -5 48.6348 7.13831   8
   3   3   5 49.2837 6.64947   6
   3  -3  -5 76.8964 11.9077   5
  -3   3  -5 70.0228 13.1212   3
   3  -3  -5 61.7567 12.6053   6
   3  -3  -5 63.0806 9.08059  10
  -3   3   5 48.2647 9.34817   5
  -3   3   5 69.1269 11.4432   6
   3  -3   5 48.1087 11.4225   2
   3   3  -5 55.3962 8.60586   9
  -3   3   5 62.8130 7.14755  10
  -3   3   5 72.7203 15.3174   3
   3  -3  -5 69.1537 9.51681   8
   3  -3  -5 69.2166 12.0533   2
   3  -3   5 73.7205 10.5088   7
   3  -3  -5 62.2169 8.51902   7
  -3   3   5 62.2667 14.3154   9
   3   3   5 60.6694 10.4557   9
  -3   3  -5 74.5849 15.5305   2
  -3   3   5 69.8143 8.58412   7
  -3   3  -5 67.8790 10.7795   8
  -4   0  -5 143.198 13.2103   7
   4   0   5 149.215 11.6186  10
   4   0  -5 177.303 11.6984   7
   4   0   5 163.600 14.6040   6
  -4   0   5 157.457 11.3952   7
  -4   0  -5 159.500 21.5551   2
   4   0   5 149.543 13.3362   5
  -4   0  -5 170.447 13.1153   6
  -4   0  -5 164.490 11.9037   4
  -4   0  -5 163.325 9.64325  10
  -4   0  -5 156.058 15.2033   3
   0   4   5 142.244 11.1563   6
   4   0  -5 155.289 14.1413   5
   4   0  -5 144.048 15.3600   6
  -4   0   5 156.022 14.0236   4
   4   0   5 152.225 14.5075   8
   4   0   5 149.760 20.1431   1
   0  -4   5 160.358 14.6125   4
  -4   0   5 154.386 13.2716   5
  -4   0  -5 158.096 11.6555   5
   4   0   5 168.253 16.4367   4
   4   0  -5 157.850 11.8110   8
  -4   0  -5 157.694 13.8360   8
   0  -4  -5 166.408 11.5607   4
   0  -4  -5 158.832 9.91500   8
   0   4  -5 140.229 9.23765   6
   4   0  -5 200.670 26.0982   3
   4   0  -5 150.185 11.4866  10
   0   4   5 158.525 13.1406   9
   4   0  -5 140.737 17.3440   2
   4   0  -5 154.658 14.9150   9
  -4   0   5 171.201 15.7229   2
  -4   0   5 174.104 23.1496   3
   4   0   5 151.104 12.6043   7
  -4   0   5 150.958 11.4752   8
  -4   0   5 160.482 10.8694  10
   4   0   5 156.547 20.8985   3
   0   4  -5 174.826 23.6497   9
   4   0   5 153.642 16.5444   9
   4   0   5 166.240 21.5393   2
   4  -1  -5 328.522 19.9724  10
   4  -1  -5 347.133 29.7009   3
  -4  -1   5 382.228 18.3516  10
   4  -1  -5 381.361 24.8163   9
  -4   1  -5 348.660 21.6442   6
  -1   4   5 405.702 28.9781   5
  -1   4   5 372.460 23.5667   9
   4   1   5 346.565 19.5415  10
   4   1   5 406.765 27.6584   2
  -4   1  -5 309.080 27.4578   2
   4   1   5 363.194 21.0462   5
   4  -1  -5 371.521 25.7304   6
   4   1   5 362.696 25.5250   3
   4  -1  -5 342.985 20.3640   8
  -4  -1   5 397.628 21.3281   5
  -4   1  -5 331.817 17.5276  10
   4   1   5 389.134 26.1651   9
  -4   1  -5 353.610 22.5784   8
  -1  -4  -5 392.120 18.0707   4
  -1   4   5 380.886 17.2584   7
  -4  -1   5 392.204 18.9819   8
   4  -1  -5 329.703 22.5918   4
  -4  -1   5 405.201 18.3151   7
   4  -1  -5 331.595 24.4403   2
   4  -1  -5 360.075 23.3607   5
  -4  -1   5 374.937 22.4248   2
  -4  -1   5 413.614 27.8265   3
  -1   4   5 366.167 21.3434   6
   1  -4   5 346.504 21.4221   4
   4  -1  -5 380.810 19.9744   7
  -4  -1   5 384.935 22.3483   4
   1  -4   5 336.459 19.5678   8
  -1  -4  -5 378.340 20.5991   8
  -4   1  -5 353.845 20.0731   5
  -4   1  -5 322.325 21.6973   7
   4   1   5 415.359 22.2742   6
  -4   1  -5 343.007 25.4458   3
  -4   1  -5 355.444 20.2392   4
   4   1   5 390.830 21.0229   7
  -4   1   5 364.111 25.2103   2
   4   1  -5 401.310 23.9720   9
   1  -4  -5 363.358 20.8932   4
  -4   1   5 356.599 23.3828   4
   1  -4  -5 363.843 17.8476   8
  -4   1   5 360.581 29.6173   3
  -4  -1  -5 397.568 21.7274   7
   4   1  -5 375.446 24.3331   6
   4  -1   5 333.099 21.0505   7
   4  -1   5 337.777 24.2541   4
  -4  -1  -5 390.466 19.2275   4
   4  -1   5 336.166 22.9193   8
   4   1  -5 405.837 23.8464   2
  -4   1   5 372.909 22.9971   5
  -4  -1  -5 349.825 26.7094   2
  -4  -1  -5 392.699 18.8255   5
  -4  -1  -5 394.512 22.9790   3
  -1   4  -5 339.515 18.1619   6
  -4   1   5 326.651 22.8497   6
  -4   1   5 333.474 19.4039   7
   4   1  -5 390.631 22.1953   5
   4   1  -5 393.377 18.6110   7
   4  -1   5 337.614 22.7757   6
   4   1  -5 380.366 28.1988   3
  -1   4  -5 339.619 31.7633   9
  -4  -1  -5 407.923 16.8750  10
   4  -1   5 344.321 27.3211   2
  -4   1   5 356.507 19.8919   8
   4  -1   5 334.596 26.6176   3
   4  -1   5 373.825 26.7672   9
   4  -1   5 332.260 19.7332  10
   4   1  -5 381.888 19.2655  10
  -4  -1  -5 390.880 21.9705   8
   1   4   5 389.842 19.2756   9
  -4   1   5 340.718 19.3380  10
   4  -1   5 318.766 21.3600   5
   4   2   5 54.9512 8.95646   6
  -4   2  -5 26.3258 6.52012   5
  -2   4   5 47.9062 6.99611  10
   4  -2  -5 28.6811 11.9780   3
  -4  -2   5 51.6938 8.65921   4
  -4  -2   5 46.2121 5.95518   8
   4  -2  -5 53.6155 7.94794   7
   4  -2  -5 38.0636 8.43850   8
  -2   4   5 45.3870 6.06835   7
   4  -2  -5 38.2893 11.3932   6
  -4   2  -5 55.7643 8.91254   4
  -4   2  -5 40.1956 6.56870  10
   2  -4   5 38.5939 8.39410   8
  -4   2  -5 43.6883 12.0360   2
   4  -2  -5 34.6719 10.3338   2
  -2   4   5 49.6300 12.1527   3
  -2   4   5 56.4809 13.1907   9
  -4   2  -5 35.7342 9.26740   8
   4  -2  -5 48.5822 8.59413  10
   4   2   5 48.0618 11.2849   9
  -2   4   5 37.3335 9.01557   6
  -2   4   5 41.9113 8.36543   2
  -4   2  -5 54.8893 10.5027   7
  -4   2  -5 37.1081 19.3309   9
   2  -4   5 48.0497 10.3602   4
   4  -2  -5 48.1101 10.5535   4
  -2   4   5 53.5205 9.10907   5
  -4   2  -5 27.5006 8.18264   3
   4  -2  -5 48.2971 10.6207   5
  -4   2  -5 45.1671 9.74929   6
   4  -2   5 58.1909 9.41881  10
   2   4   5 50.6586 6.54838   6
  -4  -2  -5 47.9224 8.80883   8
  -4   2   5 35.6942 6.97002  10
   2  -4  -5 60.6869 14.2155   3
  -2   4  -5 48.7023 8.39993   6
   4  -2   5 39.9835 9.51921   8
  -4   2   5 35.0901 8.87546   5
  -4   2   5 36.1729 7.06732   8
   2  -4  -5 51.8254 9.49968   5
   4  -2   5 50.2344 10.2306   5
  -4   2   5 32.9309 10.6957   3
   2  -4  -5 39.1338 8.68592   2
   4  -2   5 45.2018 10.1361   6
   4  -2   5 38.6537 8.56912   7
  -2   4  -5 54.8820 20.4038   9
   2   4   5 50.8815 7.95560   9
   4  -2   5 56.6202 13.1629   2
  -4   2   5 49.8654 8.34664   7
  -4   2   5 37.0136 8.91306   4
   4  -2   5 47.5813 13.6594   3
   4   2  -5 36.2053 8.56218   9
   2  -4  -5 57.9588 8.42603   8
  -4  -2  -5 41.9222 6.12218   4
   4  -2   5 39.0733 10.3537   4
   2  -4  -5 43.0085 8.99942   4
   2  -4  -5 36.8712 5.91475   7
  -4   2   5 38.7117 9.37079   6
   2  -4  -5 46.9118 7.03125  10
  -4   2   5 34.1472 10.0987   2
   4   2  -5 53.6783 10.7484   6
  -4   3  -5 304.851 20.0254   5
   3  -4   5 298.671 20.5650   5
   4   3   5 309.242 23.7367   9
   4  -3  -5 335.159 26.0832   6
  -3   4   5 322.505 18.9235  10
  -4   3  -5 320.273 41.7275   9
  -3   4   5 306.840 17.7162   7
   4   3   5 285.555 16.4101   6
   4  -3  -5 297.546 20.3778   8
  -3   4   5 310.240 21.8102   5
   4  -3  -5 278.674 22.9302   5
  -4   3  -5 340.208 23.1715   7
  -3   4   5 309.109 28.4506   3
  -4   3  -5 295.180 22.2976   8
   4  -3  -5 308.277 20.3093  10
   3  -4   5 361.707 21.2076   7
  -3   4   5 343.408 29.5743   9
   4  -3  -5 317.303 19.3686   7
   4  -3  -5 268.551 22.1730   4
  -4   3  -5 323.086 22.9493   6
   3  -4   5 338.317 18.7556  10
  -4   3  -5 305.440 17.2176  10
   3  -4   5 348.055 25.2358   4
  -3   4   5 329.594 24.2465   6
   4  -3   5 363.073 26.2573   4
  -4  -3  -5 304.274 14.9963   4
  -4   3   5 337.928 23.6686   4
  -3   4  -5 311.026 18.0634   5
  -4   3   5 305.786 22.7906   5
   3  -4  -5 288.270 28.9113   3
  -4   3   5 322.132 19.2393   8
   4  -3   5 344.047 22.3358   7
   3  -4  -5 315.398 18.3116   7
   4  -3   5 321.314 22.8566   5
   3  -4  -5 304.394 19.6283   8
  -4   3   5 313.514 24.6885   6
  -4   3   5 343.996 30.6548   9
   3   4   5 310.729 21.1672   9
  -3   4  -5 323.074 21.0732   7
  -4  -3  -5 297.784 20.0901   8
   3  -4  -5 329.347 19.5974  10
   3  -4  -5 330.288 23.0372   5
  -4   3   5 338.363 19.8585   7
   4   3  -5 327.842 20.7750   9
  -3   4  -5 315.257 21.3701   6
  -3   4  -5 352.305 44.3528   9
   4  -3   5 287.160 23.4964   8
   3  -4  -5 325.278 23.3627   4
  -3   4  -5 306.282 15.7667  10
   4  -3   5 347.463 20.5147  10
  -4   3   5 311.348 19.5866  10
  -4   4   5 56.0559 13.8164   6
  -4   4  -5 73.2823 13.5850   6
  -4   4   5 38.9291 9.38465   7
   4  -4   5 36.4128 7.37197  10
  -4   4  -5 34.5995 11.8805   7
  -4   4   5 42.4502 8.52376  10
   4  -4  -5 35.8030 8.78996  10
  -4   4   5 41.6402 10.0713   5
   4  -4   5 54.4783 11.3643   5
   4  -4  -5 41.3319 11.8131   4
   4  -4   5 43.8551 10.2562   7
  -4   4  -5 56.9662 8.27431  10
  -4   4  -5 54.6769 27.9672   9
   4  -4  -5 54.3117 13.2709   5
   4   4   5 60.7897 15.8384   9
  -4   4   5 39.4395 15.3101   9
   4  -4   5 51.0593 14.0095   4
   4  -4   5 42.7443 15.9344   8
  -4   4  -5 51.9306 9.54343   5
   4  -4  -5 47.0734 9.05699   7
   4  -4  -5 54.9124 13.1034   8
   0   5   5 160.506 15.2022   9
  -5   0  -5 165.335 18.3535   7
  -5   0  -5 148.559 12.6751   4
  -5   0   5 162.514 12.0277  10
  -5   0   5 141.203 12.5075   7
  -5   0   5 144.405 15.3422   4
   5   0  -5 147.644 12.3230   7
   5   0   5 155.745 17.4520   7
   5   0  -5 147.854 21.4571   6
   5   0   5 149.476 13.9693  10
   5   0   5 153.475 15.6446   5
  -5   0   5 153.801 15.1557   5
   5   0   5 159.541 18.6662   8
   5   0   5 147.825 19.4062   9
   5   0  -5 125.588 11.9068  10
  -5   0  -5 142.372 12.6513   5
   5   0  -5 110.137 22.7890   3
   5   0   5 159.182 16.5584   6
  -5   0   5 131.311 12.5361   8
   5   0  -5 156.442 17.3053   9
  -5   0  -5 149.955 10.4512  10
   0   5   5 153.365 12.2901   6
  -5   0  -5 165.141 16.3068   8
  -5   0   5 154.354 28.3184   3
   5   0  -5 170.193 20.1551   5
  -5   1  -5 29.9707 9.31734   7
  -1   5   5 21.1002 6.51736   6
   5  -1  -5 25.6554 8.88181   4
   5   1   5 25.6661 10.5236   9
   5  -1  -5 15.1790 8.54526   5
  -5   1  -5 21.4975 6.27015   4
   5   1   5 32.4242 8.72692   3
   5   1   5 25.3024 8.05788   6
  -5   1  -5 10.0729 6.47835   6
   5  -1  -5 24.6001 10.5600   6
   5   1   5 11.1731 6.57739   5
   5  -1  -5 21.8904 9.40227   9
   5   1   5 22.8526 6.68444  10
  -5   1  -5 14.0657 7.71420   8
  -5   1  -5 21.9094 5.50147  10
  -1   5   5 21.1169 10.4840   9
   5  -1  -5 17.9437 5.69024  10
  -5  -1   5 13.8745 6.52334   4
   5   1   5 20.0549 7.23852   7
   5  -1  -5 19.5932 6.84855   8
   5  -1  -5 17.9903 5.98637   7
  -5  -1   5 31.3892 6.94448   8
  -5   1  -5 19.7743 6.80661   5
  -5  -1  -5 19.7852 4.08523  10
   5  -1   5 15.9281 8.55355   8
  -5   1   5 13.1632 5.76213   7
  -5  -1  -5 29.1586 9.23895   8
   5  -1   5 16.7503 10.2584   9
   5  -1   5 16.3818 9.16432   6
   1  -5  -5 12.5485 5.62294   4
  -5   1   5 10.0712 6.77147   5
  -5   1   5 14.3446 4.81534  10
  -5  -1  -5 19.2788 5.94903   4
  -1   5  -5 21.8326 16.1910   9
   5  -1   5 11.9896 5.97704  10
   5  -1   5 21.8402 7.31553   7
   1   5   5 23.1861 7.22172   9
  -5  -1  -5 17.4055 5.44638   3
  -5  -1  -5 24.7475 5.99034   5
  -5  -1  -5 32.3020 8.60652   7
   1  -5  -5 16.5795 5.11051   8
   5  -1   5 23.8267 9.43180   4
  -5   1   5 16.0292 5.82145   8
  -5   1   5 24.5685 12.5665   6
   5   1  -5 21.6722 8.53901   9
   5  -1   5 24.2772 8.41767   5
   5   1  -5 11.9231 7.62223   5
  -5   1   5 24.1126 7.95022   4
   5   1  -5 15.7733 9.03994   6
  -5   2  -5 8.34317 6.99838   6
  -5  -2   5 5.54832 5.29458   4
  -5   2  -5 7.06881 4.54115   4
   5   2   5 2.56143 4.63510   6
   5  -2  -5 13.8044 10.2666   6
  -2   5   5 5.57130 5.75733   6
   5  -2  -5 5.21799 6.82996   8
  -2   5   5 4.61259 14.2462   9
  -5   2  -5 13.5762 9.93057   8
  -5   2  -5 -0.4670 3.51914  10
  -5  -2   5 0.38946 3.60575   8
  -5   2  -5 1.39868 4.41553   5
   5   2   5 3.68623 10.7710   9
   5  -2  -5 2.00436 4.95130   4
   2  -5   5 11.3769 7.50742   4
  -5   2  -5 9.11167 10.2592   7
   5  -2  -5 0.19648 5.47760   7
   5  -2  -5 0.89602 5.91672   5
   5  -2  -5 9.63722 5.37387  10
  -5   2   5 5.08366 5.41076   4
  -5   2   5 12.1694 8.32732   6
  -5   2   5 7.90315 4.59669  10
  -5   2   5 10.7165 6.91644   8
   2  -5  -5 3.47272 5.70490   4
  -5   2   5 3.15013 5.60355   5
  -5   2   5 2.81054 6.77356   7
   5  -2   5 1.57374 5.94486  10
  -2   5  -5 3.11044 26.6928   9
   5  -2   5 -5.9852 6.28728   5
   2  -5  -5 4.46901 4.77067   8
  -2   5  -5 2.64242 4.59551   6
   5   2  -5 -1.1122 7.02796   9
   5  -2   5 -4.9272 6.52536   6
   5   2  -5 10.0231 6.70380   6
  -5  -2  -5 3.70531 5.64928   8
   5  -2   5 3.99794 8.07307   4
   5  -2   5 7.38533 10.5737   8
   5  -2   5 -2.7837 8.16364   7
  -5  -2  -5 4.16934 3.48030   4
   5  -3  -5 8.51776 7.71098   5
   5  -3  -5 -5.9716 8.36408   7
   3  -5   5 -3.5586 8.29297   8
  -5   3  -5 8.51907 8.11922   6
  -5   3  -5 12.1688 5.44554  10
  -3   5   5 16.1811 22.3412   9
   3  -5   5 -6.5377 7.89126   4
   5  -3  -5 2.97141 4.68659  10
   5  -3  -5 8.67370 7.14827   4
  -5   3  -5 19.3615 7.55316   5
  -5   3  -5 8.59641 12.7349   8
   5  -3  -5 13.0954 9.08186   6
  -3   5   5 22.5905 10.2017   6
   5  -3  -5 13.0941 10.7876   8
  -5   3  -5 24.3437 14.6901   7
   5   3   5 15.5963 5.41275   6
   5   3   5 12.7773 15.5217   9
  -5   3   5 12.3429 5.74093  10
   5  -3   5 11.3680 7.41487  10
   3  -5  -5 10.0169 7.48235   8
  -5   3   5 14.6695 7.97851   5
   3  -5  -5 12.0189 8.27544   4
  -5  -3  -5 12.9053 3.51958   4
  -3   5  -5 21.3812 47.6231   9
   5   3  -5 7.87649 10.4537   9
  -5   3   5 9.71208 8.45426   6
   5  -3   5 23.3614 10.0083   4
  -5   3   5 10.4001 6.26836   4
   5  -3   5 19.2212 13.5244   7
   5  -3   5 22.2175 17.5579   8
   5  -3   5 16.2717 9.01959   5
  -5   3   5 5.20476 9.30931   7
  -3   5  -5 14.5910 6.02018   6
  -5   3   5 4.10670 7.89459   8
   4  -5   5 43.2955 21.3094   8
  -4   5   5 84.1322 17.2130   6
  -5   4  -5 42.0477 9.05484   5
  -5   4  -5 52.5041 13.1826   6
   5  -4  -5 54.6836 14.3662   7
   5  -4  -5 42.8876 12.2199   4
  -5   4  -5 60.5592 42.8086   9
   5  -4  -5 37.1388 12.3733   5
   5   4   5 68.3000 20.9895   9
  -4   5   5 34.9361 29.3273   9
  -5   4  -5 66.9588 10.1775  10
  -4   5   5 55.3150 10.4220  10
   4  -5   5 36.5696 12.8188   4
   5  -4  -5 40.1613 9.53672  10
  -4   5   5 66.8463 15.5826   5
  -5   4   5 27.3830 11.6752   7
   5  -4   5 56.6223 15.6860   4
   4  -5  -5 45.5563 17.1188   8
  -4   5  -5 66.1836 12.2067   6
  -5   4   5 62.2310 16.1480   6
   5  -4   5 69.2492 18.7680   7
   5  -4   5 48.7204 10.4759   5
   4  -5  -5 52.8505 9.92785  10
  -4   5  -5 67.4878 72.4462   9
  -5   4   5 68.2390 12.0737  10
   5  -4   5 51.9699 9.61665  10
  -5   4   5 34.5259 10.5842   5
   4  -5  -5 58.3855 14.5003   4
  -6   0  -5 8.47247 3.80749  10
   6   0  -5 12.9769 8.65216   7
   6   0  -5 16.6390 7.72384   5
   6   0   5 6.71230 7.74374  10
   6   0   5 1.71806 10.9809   9
   6   0  -5 3.71627 5.30012  10
  -6   0   5 14.5665 10.9305   8
  -6   0  -5 3.97737 10.2051   7
  -6   0   5 14.1585 7.53041   4
  -6   0   5 11.0280 6.96298   5
  -6   0   5 15.5923 5.08197  10
  -6   0  -5 5.70910 4.70048   4
   6   0   5 19.7484 8.84932   6
  -6   0  -5 15.2806 6.10924   5
   6   0   5 9.87882 13.1142   7
   6   0  -5 8.81629 9.87448   6
  -6   0  -5 9.66188 15.1377   8
   6   0   5 11.3589 7.64052   5
   0   6   5 -4.0261 10.9897   9
   6   0  -5 2.59708 11.7454   9
  -6   1  -5 -3.5621 2.83941  10
  -1   6   5 -15.450 16.3393   9
  -6   1  -5 0.64881 4.83868   5
   6  -1  -5 -8.4568 4.13674  10
  -6   1  -5 -0.9187 14.7982   8
  -6  -1   5 11.6522 6.09577   4
   6   1   5 4.12853 18.7436   9
   6  -1  -5 10.4379 7.91942   5
   6  -1  -5 -2.0823 9.25870   6
   6   1   5 7.19984 7.39555   5
   6   1   5 4.91776 5.58292   6
   6  -1  -5 1.21577 9.06929   7
   6   1   5 5.47988 6.42608  10
  -6   1  -5 4.38948 15.9406   7
  -6  -1   5 -7.8086 8.04803   8
  -6   1  -5 5.40479 4.63326   4
  -6   1   5 8.98071 10.6069   7
  -6  -1  -5 6.66018 2.67170  10
   6  -1   5 0.89827 6.06918  10
   6   1  -5 -2.7677 6.96298   6
   6   1  -5 6.40104 14.3680   9
   6  -1   5 -7.1054 13.9506   7
  -6   1   5 -2.8635 6.63653   5
  -6   1   5 -3.2580 4.00138   4
   6  -1   5 9.17763 7.97895   6
   6  -1   5 14.9267 16.3482   8
  -1   6  -5 -13.149 31.5003   9
   6  -1   5 19.5042 8.30170   5
  -6   1   5 5.31733 3.70270  10
  -6  -1  -5 7.12390 4.71571   4
  -6  -1  -5 -7.6192 13.5096   8
  -6   1   5 -1.5303 10.4509   8
  -6  -2   5 1.52553 4.57334   4
  -2   6   5 4.57501 5.40680   6
  -6   2  -5 6.49793 7.35154   6
  -6   2  -5 -9.2165 3.07062  10
   6  -2  -5 2.95088 9.24946   6
  -6   2  -5 5.43523 6.67926   5
   6   2   5 10.4359 6.35330   6
   6  -2  -5 0.39865 5.13424   4
  -6   2  -5 4.59211 3.73627   4
   6  -2  -5 14.7228 7.73733   5
  -2   6   5 -17.327 20.3808   9
   6  -2  -5 30.0035 11.3507   7
   6  -2  -5 5.81439 11.6776   8
   6  -2  -5 -1.1323 6.51651  10
  -6   2  -5 11.0915 19.5808   7
  -6   2  -5 6.75013 17.4933   8
   6   2   5 3.16283 22.5522   9
   6  -2   5 5.70736 18.1556   8
  -2   6  -5 1.36487 40.0805   9
   6  -2   5 -2.6469 6.35303   6
   6  -2   5 0.76905 7.18823  10
   6  -2   5 2.89780 6.11245   5
  -6  -2  -5 1.94329 3.71703   4
   6  -2   5 18.0498 9.37458   4
  -6   2   5 1.77913 12.6874   7
   6  -2   5 8.23335 16.0154   7
  -6   2   5 -11.865 10.7465   8
   2  -6  -5 8.17175 6.53155   4
  -6   2   5 1.42133 4.88273   4
   6   2  -5 2.20753 6.79424   6
  -6   2   5 6.98303 8.25578   5
  -6  -2  -5 -13.682 14.1851   8
   6   2  -5 0.45379 14.6018   9
  -6   2   5 0.23701 3.55173  10
  -6   3  -5 7.58904 8.57009  10
   6  -3  -5 12.5460 9.00105   5
  -6   3  -5 24.5916 7.99281   6
  -3   6   5 6.52234 7.76780   6
   3  -6   5 28.2429 9.67525   4
   6  -3  -5 -5.7649 4.97053   4
  -6   3  -5 30.9410 7.64734   5
   6  -3  -5 16.9202 13.8283  10
   3  -6  -5 18.0609 7.40780   4
  -6   3   5 7.55044 11.1457  10
   6  -3   5 49.8614 11.1087   5
  -6   3   5 9.58412 7.21771   5
  -3   6  -5 19.4041 5.95455   6
  -6   3   5 0.68357 5.16454   4
   6  -3   5 19.9305 14.1069  10
  -6   3   5 3.90232 7.25958   6
   6  -3   5 5.50077 8.80732   4
  -7   0  -5 125.209 14.3096  10
  -7   0   5 158.783 19.3241  10
   7   0   5 139.102 23.4308  10
   7   0  -5 131.538 21.3748  10
   0   0   6 0.66039 1.54169   6
   0   0  -6 1.26711 1.54287   4
   0   0  -6 -1.1153 2.28880   1
   0   0  -6 1.45200 2.15310   6
   0   0   6 5.07348 3.97660   3
   0   0  -6 1.46984 1.44546   5
   0   0  -6 1.51538 3.42002   2
   0   0   6 2.47680 2.20141   5
   0   0   6 1.01846 2.59244   1
   0   0   6 0.99146 1.93843   8
   0   0  -6 8.60095 13.5512   1
   0   0   6 2.29215 2.41644   9
   0   0  -6 -5.0399 10.3500   9
   0   0   6 1.80939 1.59852   7
   0   0   6 4.95097 3.50793   4
   0   0   6 4.76584 13.6903   1
   0   0  -6 2.75036 2.70134   7
   0   0   6 -0.6996 1.98695   2
   0   0  -6 1.80144 1.90417   8
   0   0  -6 1.97248 2.23082   3
   1   0   6 61.6049 8.03953   1
   0   1   6 50.3581 7.65857   3
   0   1   6 65.8807 5.30679   8
  -1   0  -6 53.3909 4.51980   5
   0   1  -6 66.8169 5.88278   6
   0   1   6 57.5400 6.36956   9
  -1   0   6 69.1137 12.7031   1
  -1   0   6 68.3972 6.06409   2
   1   0  -6 59.7223 5.25210   5
   1   0  -6 57.6611 5.99078   6
   0  -1  -6 39.0705 13.7314   9
   1   0   6 66.6991 7.40154   5
   0  -1  -6 41.1039 20.5061   1
   0  -1  -6 59.9354 8.80736   1
  -1   0  -6 64.3725 6.54349   6
  -1   0  -6 55.0754 6.49150   7
  -1   0  -6 51.4644 5.32546   8
  -1   0  -6 73.9346 15.3326   9
   0   1  -6 58.5667 4.30979   4
   1   0   6 56.9774 7.49165   2
   0  -1   6 61.7796 5.79061   5
  -1   0   6 60.8509 4.37788   7
  -1   0   6 66.7258 4.76821   8
   0  -1   6 79.3304 8.30735   4
   0  -1  -6 69.4609 8.38902   3
   0   1   6 63.7979 4.62669   7
   0   1   6 58.7280 5.22660   5
   0  -1   6 73.7059 9.26976   3
   0  -1  -6 56.0889 4.76832   4
  -1   0   6 58.3033 8.44125   1
  -1   0  -6 55.3304 8.34298   2
   0  -1   6 70.7081 5.71689   8
   0  -1  -6 61.5162 4.87621   5
   1   0   6 59.4545 5.06549   7
   0   1  -6 45.0145 18.6603   1
   0   1  -6 59.9082 7.96499   1
   0   1  -6 74.2574 9.78559   2
   0   1  -6 63.4673 6.04897   3
   0   1  -6 65.8454 6.14086   7
  -1   0   6 55.9679 5.30123   6
  -1   0  -6 64.0348 4.51698   4
   1   0   6 57.7076 9.45549   3
   1   0   6 55.8637 24.2425   1
   1   0  -6 110.979 29.9816   1
  -1   0  -6 62.8937 6.58654   3
   0   1   6 69.1976 8.49172   4
   1   0   6 58.6555 6.78460   9
   1   0  -6 57.7374 8.08595   2
   0  -1  -6 55.2163 8.35192   2
   0  -1   6 77.0157 6.50577   2
   0  -1   6 55.0006 6.28676   9
   0   1  -6 63.6473 4.34725   5
   1   0  -6 60.6785 5.54044   7
   1   0  -6 62.3904 5.20451   8
  -1   0   6 60.9423 9.06452   3
  -1   0   6 63.0633 6.61612   4
  -1   0   6 52.3381 5.14166   5
   0   1  -6 52.1404 4.94383   8
   1   0  -6 32.0749 8.35612   1
   1   0   6 52.1646 8.58153   4
   0   1   6 61.5936 6.04985   2
   0   1  -6 64.7607 17.1137   9
   0   1   6 60.5021 4.96862   6
   1   0  -6 67.2963 8.79577   3
   1   0  -6 54.8780 5.29179   4
   0  -1   6 67.1961 4.72730   7
  -1   0  -6 85.0036 24.3474   1
  -1   0   6 62.3524 6.45992   9
   0  -1   6 58.6388 4.59615   6
   1   0   6 65.6934 5.55744   6
   0  -1  -6 67.1473 5.93049   6
   1   0   6 59.1014 5.96685   8
  -1   0  -6 59.1255 7.39995   1
   0  -1   6 60.6300 7.07293   1
   0   1   6 57.8766 7.61422   1
   1   1   6 503.249 26.0169   3
  -1   1   6 536.701 27.6365   3
   1   1   6 541.373 22.4406   8
   1   1  -6 525.209 21.9344   4
   1   1   6 678.347 54.9722   1
   1   1  -6 493.016 25.0200   2
  -1  -1   6 507.975 20.1739   7
  -1   1   6 504.453 22.6845   6
   1   1  -6 441.571 46.6100   1
  -1   1   6 542.478 21.0230   8
  -1   1  -6 552.038 23.0901   6
  -1   1  -6 550.207 26.6733   1
  -1   1   6 531.516 22.8519   5
   1  -1  -6 529.643 27.1782   3
   1  -1  -6 549.717 23.3421   4
   1   1   6 482.010 20.9298   7
   1  -1   6 600.691 24.4357   5
  -1  -1   6 536.994 23.9613   4
  -1   1  -6 533.988 27.3400   2
   1  -1   6 541.886 25.4966   9
  -1   1  -6 510.109 23.0177   7
  -1   1  -6 525.097 22.7255   8
   1   1  -6 504.015 22.3755   6
   1  -1   6 576.452 22.3007   7
  -1  -1  -6 481.280 30.5533   9
  -1  -1   6 524.252 26.2678   1
  -1  -1   6 490.671 22.0898   2
  -1  -1   6 539.869 25.5987   3
   1   1   6 471.353 23.5212   2
  -1  -1   6 485.878 20.4890   8
   1   1  -6 505.922 28.7811   1
  -1  -1  -6 535.454 23.4865   3
  -1  -1  -6 543.963 22.5089   6
  -1   1   6 548.639 32.5436   1
  -1   1   6 560.886 23.7503   2
  -1  -1  -6 487.669 20.5029   4
  -1  -1  -6 511.763 20.6692   5
   1   1  -6 542.501 24.9893   3
   1   1   6 460.000 25.0671   4
   1  -1  -6 542.758 23.0648   5
  -1  -1   6 525.765 21.6780   6
   1  -1  -6 568.555 22.2806   7
   1  -1  -6 537.895 21.8792   8
  -1   1  -6 567.922 34.6727   9
   1  -1   6 529.276 28.9318   1
   1  -1   6 577.147 26.3253   2
   1  -1   6 573.531 28.1894   3
   1  -1   6 510.717 27.1675   4
   1   1  -6 535.086 21.6720   5
   1  -1   6 597.822 21.9284   6
  -1   1   6 522.770 24.4668   9
  -1   1   6 559.275 20.9187   7
  -1   1  -6 548.457 23.9315   3
  -1   1  -6 530.942 20.7421   4
  -1  -1  -6 493.824 22.6617   7
   1  -1  -6 517.316 31.3381   1
  -1  -1  -6 497.876 21.8435   8
  -1  -1  -6 523.288 26.5213   2
  -1   1  -6 578.496 43.1388   1
   1   1   6 507.248 22.8488   5
   1  -1  -6 522.200 24.2269   6
  -1  -1  -6 387.476 43.6205   1
  -1   1   6 568.722 29.8980   1
   1   1   6 510.468 23.4669   9
   1   1   6 506.832 26.6741   1
   1   1  -6 519.350 21.2384   8
  -1  -1   6 521.253 21.7945   5
   1   1   6 496.311 21.2041   6
  -1   1  -6 554.100 21.1378   5
   1  -1   6 557.333 23.1676   8
   0   2   6 320.548 13.7190   7
   0   2   6 320.207 16.9036   4
   2   0   6 311.251 16.8432   8
   2   0  -6 336.131 15.1439   7
  -2   0  -6 320.013 21.1819   2
   0   2   6 303.290 15.7524   2
   0  -2  -6 319.005 16.0555   7
   2   0  -6 321.391 18.0920   6
   0   2   6 327.011 15.2464   6
   0  -2   6 323.513 18.2249   3
   0   2  -6 331.372 31.7801   1
   2   0   6 302.754 16.1285   6
   2   0  -6 309.606 16.8491   4
   2   0   6 298.702 15.5991   7
  -2   0   6 293.881 20.5552   3
  -2   0   6 319.516 17.7863   4
   2   0   6 339.291 20.2783   2
   2   0   6 322.835 21.2620   3
   2   0   6 313.179 19.1007   9
   0   2  -6 328.001 19.2453   1
   0  -2  -6 324.761 14.9384   8
   2   0  -6 343.525 18.6737   9
  -2   0   6 329.730 23.7223   1
   0  -2  -6 322.520 15.2670   4
   0   2  -6 296.389 18.1363   2
   0   2   6 326.086 20.2119   1
   0   2   6 316.961 16.9620   9
   0   2   6 314.909 19.2376   3
   2   0   6 304.371 21.3412   4
   2   0  -6 321.559 15.0098   8
   0  -2   6 326.697 17.1782   2
   0   2  -6 323.336 14.8597   8
   0  -2   6 314.048 14.1488   7
   0   2   6 332.554 15.6112   5
   2   0  -6 312.975 16.6833   5
   0   2  -6 365.612 29.6312   9
  -2   0  -6 327.238 17.0369   7
  -2   0  -6 330.217 16.6466   8
  -2   0  -6 306.243 14.7037   5
   0   2   6 341.791 14.3827   8
   0  -2   6 316.577 15.1907   5
   2   0   6 293.613 51.2626   1
   2   0   6 336.489 23.5716   1
  -2   0   6 325.626 17.4110   2
  -2   0   6 315.419 14.2218   7
  -2   0   6 310.923 17.5639   9
  -2   0   6 318.797 14.6199   8
  -2   0  -6 334.068 18.1440   3
  -2   0  -6 318.795 14.7023   4
  -2   0   6 322.179 17.0258   6
   0  -2   6 311.703 14.8710   8
   0  -2  -6 306.617 15.0954   5
   0  -2  -6 322.227 16.5637   6
   0   2  -6 328.997 15.6442   3
   0   2  -6 310.112 13.2630   5
   0   2  -6 320.917 15.2992   6
   0   2  -6 324.651 15.4552   7
   2   0  -6 325.011 18.6381   2
   0  -2  -6 346.076 19.2456   3
  -2   0  -6 291.309 31.6897   1
  -2   0  -6 317.329 16.5297   6
  -2   0  -6 286.685 26.4054   9
   2   0   6 325.028 17.7793   5
  -2   0   6 301.079 16.3457   5
   2   0  -6 310.749 20.8619   3
   0  -2  -6 322.622 19.1508   2
  -2  -1   6 655.636 29.1434   4
   1   2  -6 633.009 26.4910   6
   1  -2   6 672.747 32.5967   3
  -2  -1   6 635.531 27.5327   5
   2  -1  -6 658.497 29.5640   5
   2  -1  -6 621.666 30.8214   6
  -2   1  -6 614.251 46.0554   1
   2  -1  -6 668.679 27.5441   8
   2   1   6 660.125 27.2218   6
   2   1   6 647.395 30.4790   9
   1  -2   6 709.653 28.8397   5
  -2   1  -6 680.501 35.2259   2
   1   2  -6 583.674 48.7136   1
  -1   2   6 698.258 34.7328   3
  -2  -1   6 631.474 32.2805   3
   2  -1  -6 628.598 40.3856   1
  -2  -1   6 648.337 25.3741   8
   2  -1  -6 664.949 31.7492   2
   1  -2   6 699.773 26.2003   6
  -2   1  -6 669.203 31.1394   3
   1   2  -6 659.218 28.7794   3
  -2   1  -6 645.201 28.8808   8
   1  -2   6 667.776 32.1348   4
   1  -2   6 677.661 32.0740   2
  -2   1  -6 661.624 29.2717   7
   2  -1  -6 654.361 29.7177   4
  -2   1  -6 622.634 40.1065   9
   2   1   6 658.924 31.6857   2
   2  -1  -6 681.802 27.2776   7
  -2   1  -6 643.811 26.7454   5
  -1  -2  -6 620.811 25.3340   4
  -1   2   6 650.374 29.9788   4
   2   1   6 641.186 29.1653   5
   2   1   6 656.537 27.0807   7
   2   1   6 656.066 28.3677   8
  -1   2   6 681.705 29.3120   6
   1   2  -6 658.338 29.4978   2
  -1  -2  -6 662.380 27.6641   6
  -2  -1   6 635.814 24.8741   7
   1  -2   6 671.685 28.2812   8
  -2  -1   6 650.036 27.6019   2
  -1   2   6 665.012 25.6703   8
  -1   2   6 686.499 30.8814   9
  -1   2   6 664.759 35.7170   1
  -1  -2  -6 653.107 28.7285   3
  -1  -2  -6 642.656 26.4267   8
  -1   2   6 669.732 28.9151   2
   2   1   6 618.138 33.1450   3
  -2   1  -6 668.031 28.7977   6
  -1   2   6 683.755 25.6658   7
  -1  -2  -6 630.888 27.4736   7
   1   2  -6 635.465 25.5369   5
   2   1   6 642.947 35.3496   1
   1  -2   6 662.445 27.1365   7
  -1  -2  -6 622.182 25.3930   5
  -1  -2  -6 616.885 30.9131   2
   2  -1  -6 661.935 41.8482   1
  -1   2   6 661.056 28.6891   5
  -2   1  -6 685.147 26.7590   4
   2  -1  -6 658.831 35.2855   3
   1   2  -6 616.556 26.2548   7
   1   2  -6 656.629 39.6968   1
  -1   2  -6 691.717 28.0008   6
   1  -2  -6 639.597 28.5720   4
   1   2   6 623.235 26.5177   8
  -1   2  -6 701.193 28.6636   7
  -2   1   6 672.084 26.5758   7
   1   2   6 639.690 30.1814   3
  -1  -2   6 630.071 28.0851   4
   1   2   6 601.446 27.6258   9
  -1  -2   6 650.000 26.9803   2
  -1  -2   6 631.502 29.0352   3
   2  -1   6 682.245 29.5316   5
   1   2   6 637.205 25.7634   6
   2   1  -6 626.749 27.7306   5
  -2   1   6 669.214 38.1640   1
   2   1  -6 635.443 28.9709   6
   1  -2  -6 673.274 26.8535   7
   1  -2  -6 686.646 26.9414   8
  -1  -2   6 626.967 25.6499   5
   1  -2  -6 657.210 30.2833   6
  -1   2  -6 683.292 25.2473   4
   1   2   6 643.551 28.4058   2
  -2  -1  -6 639.829 27.7444   6
  -2   1   6 676.836 30.9145   4
  -2  -1  -6 625.129 27.6301   8
   2  -1   6 656.577 29.3568   8
   1   2   6 648.680 31.5399   1
  -1  -2   6 615.159 25.1813   8
  -2   1   6 611.985 38.8216   1
  -2   1   6 700.690 31.0066   2
  -2   1   6 653.040 35.3237   3
  -2  -1  -6 639.774 25.6917   5
   2  -1   6 644.379 28.0624   7
  -1   2  -6 663.496 25.6872   5
   1   2   6 659.074 26.7354   5
  -2   1   6 677.432 26.7917   8
  -2   1   6 653.111 31.0784   9
  -1   2  -6 682.733 28.1845   8
  -1   2  -6 695.712 41.6085   9
  -2  -1  -6 654.375 28.8761   3
   2  -1   6 651.697 37.6877   1
   2   1  -6 697.463 29.7636   9
  -1   2  -6 651.722 33.2988   2
  -2  -1  -6 603.575 32.3489   2
   2  -1   6 689.483 28.5047   6
  -1   2  -6 627.328 43.8377   1
  -2   1   6 645.286 29.2956   5
   1  -2  -6 672.314 34.0878   3
   2  -1   6 719.329 33.8096   4
  -2  -1  -6 647.677 25.7359   4
   2   1  -6 636.545 26.2257   7
   2   1  -6 627.107 32.2951   3
   2  -1   6 687.808 34.8537   3
   2   1  -6 659.222 28.0768   4
  -2   1   6 643.600 29.7878   6
   2  -1   6 655.647 32.3870   9
  -1   2  -6 650.914 28.7470   3
   2   1  -6 643.982 29.3982   2
   2  -1   6 707.227 34.2214   2
   1   2   6 617.480 25.3382   7
   2   1  -6 623.708 25.6897   8
   1   2   6 600.213 28.3923   4
  -2  -1  -6 617.129 27.9858   7
  -1  -2   6 627.448 24.5994   7
   1  -2  -6 665.582 28.7355   5
   2   2  -6 830.129 34.9962   6
   2  -2   6 875.577 35.1322   6
  -2   2   6 862.682 38.6025   4
  -2   2  -6 871.209 36.8641   7
  -2   2   6 843.733 33.5602   8
  -2   2  -6 821.749 32.1033  10
   2   2  -6 832.936 38.2252   3
   2  -2   6 853.644 37.0692   8
   2  -2   6 917.932 35.6522  10
   2   2  -6 779.739 62.3619   1
  -2   2   6 854.316 40.0421   9
  -2   2  -6 843.101 35.8956   6
  -2  -2  -6 833.052 31.9321   4
  -2   2  -6 837.794 33.2197   4
  -2  -2  -6 861.883 34.6939   7
  -2  -2  -6 830.424 34.0627   8
  -2  -2   6 831.527 33.1376   2
  -2   2  -6 838.706 43.3000   2
  -2  -2   6 854.646 35.1045   4
  -2  -2   6 789.975 32.0045   7
   2   2   6 849.640 42.1169   1
  -2   2   6 856.641 47.0996   1
  -2  -2  -6 814.680 34.7318   3
  -2   2   6 834.590 37.7344   6
   2  -2  -6 816.385 34.0178   7
   2  -2  -6 838.991 44.4612   3
   2  -2   6 863.561 36.4060   5
   2  -2  -6 824.283 37.2294   5
   2   2   6 844.570 38.7280   3
   2   2  -6 802.761 35.9225   9
  -2   2   6 847.484 37.2376   5
   2  -2   6 866.156 41.9811   3
   2   2   6 823.199 33.2559   7
  -2   2  -6 832.774 36.5107   8
   2  -2  -6 854.821 34.8364   8
   2  -2  -6 906.142 40.0047   2
  -2   2   6 853.739 33.5766   7
   2   2  -6 830.849 33.8499   5
   2  -2  -6 877.747 39.5642   6
  -2   2  -6 868.406 49.7307   9
   2   2   6 854.181 33.2727   6
  -2   2  -6 872.960 38.6766   3
   2  -2  -6 799.000 37.0496   4
  -2   2  -6 825.353 33.7486   5
  -2  -2  -6 861.199 39.5152   2
   2  -2  -6 875.553 35.1605  10
   2  -2   6 883.915 40.0892   4
  -2  -2  -6 840.496 31.8680   5
  -2   2   6 847.392 38.2860   2
   2  -2   6 841.046 35.6068   7
   2   2  -6 749.164 35.5557   2
  -2  -2   6 802.085 31.2149   8
  -2   2   6 875.308 44.8381   3
   2   2   6 806.679 36.3849   9
   2   2   6 807.152 37.6157   2
   2   2   6 866.401 34.8606   5
  -2   2  -6 731.344 52.2280   1
  -2  -2   6 843.383 37.9655   3
   2  -2   6 839.527 41.8899   2
   3   0   6 -1.3431 3.85458   3
   3   0   6 2.06491 4.59949   1
  -3   0   6 1.07296 1.54091  10
   3   0   6 -3.7697 3.42838  10
   3   0   6 -0.1727 4.36070   5
  -3   0  -6 -4.6427 2.61778   7
   0  -3  -6 -4.2634 3.67034   2
   0   3  -6 -10.395 12.8049   9
  -3   0   6 -0.6792 4.05087   3
   3   0  -6 -3.1264 3.10760   6
   0  -3   6 3.47813 4.64821   4
   3   0  -6 -4.1141 2.42287   2
   3   0   6 0.40071 5.68255   4
   3   0   6 0.84183 3.65387   2
   3   0  -6 -0.7366 3.12703   5
   0   3   6 -1.9608 2.91413   2
   3   0  -6 -2.4274 1.85493   7
   3   0  -6 -3.7894 3.71604   3
   3   0   6 -1.4234 3.92025   9
   3   0  -6 0.04263 4.74944   1
   3   0   6 0.32393 4.36061   6
   3   0   6 2.47509 2.93544   7
  -3   0   6 0.64964 3.15204   4
  -3   0  -6 4.12326 5.48967   2
  -3   0  -6 -2.7532 3.22855   3
  -3   0   6 1.31691 3.27399   5
   0   3   6 -3.3895 3.44699   1
   0  -3   6 -2.0393 2.89387   8
   0  -3  -6 0.20199 2.60859   4
  -3   0   6 -2.2933 2.83959   6
   0  -3  -6 2.64145 3.74754   7
   0  -3  -6 -2.4827 2.71918   8
   0   3   6 -3.3770 1.97369   5
   0  -3  -6 5.03101 5.31234   3
   0   3   6 -0.8797 2.09352   7
   0   3   6 0.39100 3.79780   9
  -3   0   6 -2.1715 2.17026   8
  -3   0  -6 -2.2807 3.16674   6
   3   0  -6 0.93952 2.34813  10
  -3   0  -6 -2.2535 2.50249   5
   0   3  -6 -2.8648 2.21055   3
  -3   0  -6 -4.9402 2.60015   8
  -3   0  -6 -1.1253 1.76409  10
  -3   0   6 -2.3326 3.37886   2
  -3   0  -6 -0.7177 2.42762   4
   3   0   6 -0.2929 3.56302   8
   0   3  -6 -2.9297 2.61003   6
   3   0  -6 -2.1161 2.89433   4
   3   0  -6 -0.6427 2.34902   8
   3   0  -6 -1.6294 3.62400   9
   0   3  -6 -0.6491 3.49099   2
  -3   0   6 0.93075 2.66228   7
   0   3   6 -6.3759 2.71174   3
   0   3   6 -2.3244 2.25871   6
   0  -3  -6 -1.0109 2.42352   5
   3   1   6 141.621 12.3641   8
  -3   1  -6 195.972 29.3801   9
  -3   1  -6 167.268 10.9901   5
   3  -1  -6 168.007 20.6618   1
  -1   3   6 152.672 11.3760   2
   1   3  -6 138.045 8.90234   6
  -1  -3  -6 153.228 9.33497   4
  -3   1  -6 175.551 14.7982   3
   1  -3   6 169.722 14.7546   4
   3  -1  -6 137.535 12.6275   4
  -1   3   6 148.608 13.8886   9
   1  -3   6 159.775 14.8248   3
   3   1   6 139.283 10.8126   7
  -1   3   6 166.371 16.8114   1
  -1  -3  -6 151.683 12.4476   3
  -3   1  -6 159.753 9.14665  10
   3   1   6 147.035 12.9079   5
  -3  -1   6 155.857 8.97280   7
   3   1   6 118.477 16.4799   4
   3   1   6 141.331 16.7761   1
   3  -1  -6 156.985 14.4256   9
   3  -1  -6 154.312 14.0959   2
   3  -1  -6 149.314 10.4474   7
  -3  -1   6 143.856 11.9300   4
  -1   3   6 151.439 11.4458   5
   1  -3   6 164.682 14.3507   2
   3  -1  -6 171.708 13.6365   5
  -1   3   6 159.037 15.8935   3
  -3  -1   6 147.667 11.1434   5
   3  -1  -6 162.277 14.9509   6
   1  -3   6 160.002 11.7751   8
  -3   1  -6 155.855 12.8259   7
   3  -1  -6 159.595 11.1112  10
  -3  -1   6 144.952 11.4535   2
   3  -1  -6 176.592 22.9274   3
  -1  -3  -6 155.411 9.97112   8
   3   1   6 150.475 17.6648   2
  -3   1  -6 161.059 12.5960   6
  -3   1  -6 159.201 10.6673   4
  -1  -3  -6 153.014 10.8404   7
  -3  -1   6 139.679 9.18487   8
  -3  -1   6 139.974 14.5886   3
  -3   1  -6 184.409 21.9708   2
  -3   1  -6 172.884 13.3396   8
   1  -3   6 163.112 10.8199   7
   3   1   6 151.876 14.5261   9
   1  -3   6 149.632 11.5348   5
   3   1   6 135.466 11.8770   6
  -1   3   6 148.794 9.72979  10
  -1   3   6 168.552 12.2574   6
  -1   3   6 154.189 8.74419   7
   3   1   6 146.535 12.1970  10
  -1  -3  -6 152.419 9.37074   5
   3  -1  -6 160.493 11.1808   8
  -1   3   6 152.997 8.88065   8
   1   3  -6 173.936 26.5413   9
   3   1   6 138.096 17.2624   3
  -1   3  -6 174.053 11.7332   7
  -3   1   6 155.249 10.4827   8
   3  -1   6 145.523 18.3151   2
   1  -3  -6 173.219 10.2228  10
  -3  -1  -6 150.536 8.14869  10
  -1  -3   6 149.174 10.4041   4
  -3   1   6 165.965 10.7003   7
   1  -3  -6 155.310 9.97107   7
   1  -3  -6 172.802 16.4375   3
   3  -1   6 139.473 12.9593   8
   1   3   6 147.594 9.43887   5
   1   3   6 140.982 9.06100   6
  -3  -1  -6 151.751 12.1061   7
  -3  -1  -6 149.182 9.59949   5
  -3  -1  -6 142.685 11.9108   3
  -1   3  -6 222.775 29.5063   9
  -3   1   6 173.007 10.8868  10
  -1   3  -6 165.655 11.0965   3
   3  -1   6 165.515 17.1878   3
  -1   3  -6 153.100 10.6631   6
   1   3   6 180.861 17.7478   1
   1   3   6 140.394 10.3552   2
   1   3   6 149.893 12.5678   3
   3  -1   6 151.730 15.1925   9
   3   1  -6 143.767 12.3862   2
   3  -1   6 168.981 12.4200   7
   3   1  -6 146.170 15.3947   3
   3  -1   6 167.119 16.0366   4
  -3  -1  -6 156.997 11.7416   6
  -1   3  -6 154.844 8.54906   5
  -3   1   6 153.739 13.2524   4
  -3   1   6 170.713 13.3485   5
  -1  -3   6 156.757 9.05786   8
   1  -3  -6 155.174 11.9781   4
  -3   1   6 147.441 13.1545   6
  -3  -1  -6 139.655 11.5903   8
   1   3   6 153.605 8.56568   7
   3   1  -6 140.073 11.3827   5
  -3  -1  -6 175.186 20.0550   2
   1  -3  -6 176.190 12.2797   5
  -1   3  -6 160.510 15.2943   2
  -3   1   6 159.991 13.9815   2
   3  -1   6 179.925 13.5589   6
   3   1  -6 145.612 9.44345   7
   1  -3  -6 168.352 10.3168   8
  -3   1   6 169.030 17.6190   3
   1   3   6 140.414 10.7358   9
   3  -1   6 169.863 13.3565   5
   3   1  -6 130.344 12.5134   6
  -3  -1  -6 149.073 9.73832   4
   3  -1   6 175.400 12.2518  10
  -1   3  -6 102.185 19.3467   1
   3   1  -6 142.437 13.1465   9
  -2  -3  -6 250.626 12.1484   4
  -2   3   6 259.493 22.8936   3
  -2   3   6 247.900 17.2982   2
   3  -2  -6 270.479 25.0257   3
  -2   3   6 261.212 13.6121   8
   3   2   6 237.053 19.7434   3
  -3   2  -6 231.160 12.7288  10
  -3   2  -6 230.751 14.1602   4
   3  -2  -6 249.392 14.7949   7
   2  -3   6 273.947 16.2481   7
  -3   2  -6 235.145 17.2877   8
   3   2   6 276.677 17.0406   5
   3  -2  -6 250.811 20.0330   6
   3   2   6 238.420 18.6110   2
  -2  -3  -6 266.958 14.2429   8
  -3   2  -6 251.572 18.9551   3
  -2   3   6 247.539 14.5114  10
  -3  -2   6 242.601 15.4619   4
   2  -3   6 269.463 19.5643   4
  -2   3   6 260.060 17.8399   4
   3  -2  -6 267.441 15.9518   8
   3  -2  -6 270.107 15.9702  10
  -3   2  -6 238.549 17.1147   7
  -2   3   6 254.042 13.6213   7
   2  -3   6 255.110 16.3676   5
  -3   2  -6 264.515 17.2388   6
   3   2   6 266.989 14.9537   7
   2  -3   6 227.209 19.6762   2
  -3   2  -6 231.411 21.9367   2
  -2   3   6 253.987 27.6512   1
   2  -3   6 292.946 15.4619  10
   3   2   6 280.394 19.2324   9
  -3  -2   6 257.566 12.2203   8
  -3   2  -6 267.911 33.9295   9
   2  -3   6 254.920 17.1945   8
   3   2   6 232.200 14.4041   6
   3  -2  -6 229.476 17.5636   4
   3  -2  -6 245.720 18.1533   5
  -2   3   6 269.282 21.1487   9
   3  -2  -6 250.184 19.3734   2
  -3   2  -6 235.405 14.7327   5
  -2   3   6 251.819 17.7752   6
   2  -3   6 263.621 20.5618   3
   3   2   6 225.148 15.1073  10
   2   3  -6 247.195 13.9913   6
  -2   3   6 230.683 16.6290   5
  -3  -2  -6 265.516 15.6413   8
   3  -2   6 237.670 21.7506   3
   2  -3  -6 254.230 14.2490   7
   3  -2   6 255.990 22.0826   2
   3  -2   6 259.646 16.9970   6
  -3   2   6 247.847 23.0765   3
   3   2  -6 241.023 16.4272   9
   3  -2   6 260.997 15.7516  10
  -2   3  -6 251.352 16.6858   7
  -3  -2  -6 274.192 11.4766  10
  -3  -2  -6 271.684 12.8228   5
   2  -3  -6 259.469 15.0379  10
  -3  -2  -6 265.252 15.8274   7
  -3  -2  -6 260.492 15.5371   3
  -3  -2  -6 265.748 12.8961   4
   2  -3  -6 247.217 14.8663   8
  -3   2   6 232.640 14.3424   7
   3  -2   6 270.702 16.9624   7
  -3   2   6 248.927 18.3433   4
   3  -2   6 261.228 20.2075   4
   2  -3  -6 224.363 16.8335   4
   2  -3  -6 279.115 24.0843   3
  -2   3  -6 238.795 15.7433   6
   3  -2   6 278.143 17.9369   5
  -2   3  -6 234.221 21.3796   2
  -2   3  -6 250.017 17.1146   3
   2   3   6 270.474 12.9936   6
   2  -3  -6 247.070 18.1979   2
   2   3   6 232.169 15.5408   9
  -2  -3   6 250.356 13.5782   4
  -3   2   6 255.457 17.7470   5
  -3   2   6 268.785 19.1731   2
  -2   3  -6 251.382 12.0274  10
  -2   3  -6 243.170 13.5823   5
  -3   2   6 240.197 18.3466   6
  -3   2   6 248.748 14.9727  10
   3  -2   6 240.274 17.5809   8
  -3   2   6 247.711 21.3731   9
  -3  -2  -6 253.245 19.7655   2
   2  -3  -6 243.301 17.2895   5
  -2   3  -6 261.938 30.6559   9
  -3   2   6 248.436 14.6211   8
   3  -3  -6 33.1360 6.31737   7
  -3  -3  -6 47.3428 7.38049   8
   3  -3   6 34.3805 7.25692  10
   3  -3   6 44.6919 12.0209   3
  -3   3  -6 47.4002 12.5540   2
  -3   3   6 43.9219 9.59653   4
  -3   3  -6 55.5943 10.1672   3
  -3   3   6 38.3050 6.49203   7
   3  -3  -6 47.4746 8.10187   8
  -3  -3  -6 50.4854 5.46878   4
  -3   3  -6 47.8007 9.59800   6
   3  -3  -6 36.5521 9.09548   4
   3   3   6 44.2367 6.51143   6
  -3   3   6 56.0817 14.3864   9
   3  -3   6 39.9394 9.31960   8
  -3   3  -6 38.7331 8.42383   7
   3  -3  -6 45.3501 10.1309   5
  -3   3  -6 41.9416 4.71027  10
   3  -3   6 39.5975 8.70136   5
   3  -3   6 30.3757 9.61458   4
   3  -3   6 55.5134 9.58065   7
   3  -3  -6 32.2982 8.06772   2
   3  -3  -6 40.6373 7.83634  10
   3   3  -6 34.7878 10.7810   6
   3  -3  -6 58.4712 12.4082   6
  -3   3   6 25.4511 7.58152   5
  -3   3   6 40.6818 9.85299   6
  -3   3   6 34.7736 11.2829   3
   3  -3   6 34.8889 11.0415   2
   3   3  -6 26.6298 7.04168   9
   3  -3  -6 41.8860 13.4235   3
  -3   3  -6 37.7556 20.2519   9
   3   3   6 50.6640 10.0078   9
  -3   3  -6 53.2914 7.65627   5
  -3   3   6 51.0130 7.30555   8
  -3   3   6 21.4052 6.90668   2
  -3   3   6 52.0109 8.07784  10
  -3   3  -6 40.6545 9.03851   8
  -4   0  -6 10.0571 4.62511   3
  -4   0  -6 1.54479 3.17215   4
   4   0  -6 1.20839 4.09656   9
  -4   0   6 4.89749 4.66356   2
  -4   0  -6 -0.6715 3.91469   7
  -4   0  -6 -1.1577 3.90961   8
   4   0   6 4.38498 4.99317   5
   4   0   6 -0.3752 3.08583   7
   0  -4  -6 3.95963 3.69381   8
  -4   0   6 1.68536 3.08846   8
  -4   0  -6 7.54299 5.26032   6
   4   0  -6 -2.0682 5.63167   3
   4   0  -6 2.90570 3.87319   5
   4   0   6 0.70474 4.82150   9
   4   0  -6 1.09426 2.68801   7
   4   0   6 1.84716 6.94658   4
   4   0  -6 1.45556 2.96247   8
   0   4  -6 -5.4011 13.0516   9
   4   0   6 6.56010 5.51144   8
   4   0  -6 1.89232 3.89860   2
   4   0  -6 6.35573 5.01467   6
   4   0   6 10.1116 6.50282   2
   0  -4   6 14.3437 6.24836   4
   0   4   6 -0.4994 4.31653   9
  -4   0  -6 -0.3347 2.99448   5
  -4   0   6 0.31746 3.56381   4
  -4   0   6 3.18628 3.74571   5
   4   0  -6 3.36287 2.88257  10
  -4   0  -6 2.45192 5.54548   2
   4   0   6 5.20131 5.62702   6
   0  -4  -6 2.10803 3.25204   4
  -4   0  -6 5.59063 2.67379  10
   4   0   6 -1.7599 3.70874  10
   0   4   6 1.27083 3.02488   6
   0   4  -6 -5.7686 12.9965   9
   4   0   6 7.40485 5.59691   3
  -4   0   6 -4.4926 4.38246   3
  -4   0   6 8.10885 2.87823  10
   0   4  -6 0.77295 3.21935   6
  -4   0   6 4.86983 3.36238   7
   4   1   6 6.90275 4.88607  10
  -1   4   6 24.4828 8.42509   9
  -1  -4  -6 11.5159 4.06822   4
  -4  -1   6 10.5028 3.15922  10
   4  -1  -6 21.0640 10.8275   3
   4   1   6 17.1485 7.50246   9
  -4   1  -6 14.6248 5.22674   5
  -4   1  -6 30.6699 7.77131   6
  -4   1  -6 21.2264 5.60570   4
   4  -1  -6 7.13520 3.07439  10
  -4  -1   6 10.9667 3.80421   7
   4   1   6 15.1030 7.73101   2
   4   1   6 14.4169 6.16641   5
  -4  -1   6 15.8910 6.01054   3
  -4   1  -6 18.5199 6.81936   8
  -1  -4  -6 20.3477 4.51480   8
  -4   1  -6 20.7379 7.43308   7
   4   1   6 11.3092 5.95767   6
  -4   1  -6 13.7330 9.05532   2
  -4   1  -6 23.5592 8.52602   3
   1  -4   6 18.4728 7.60488   4
  -4   1  -6 17.3603 4.10539  10
   4  -1  -6 17.3833 5.83392   8
  -1   4   6 25.7826 6.53626   6
   4  -1  -6 17.3535 4.73339   7
   4   1   6 12.5886 5.04718   7
   4   1   6 28.9920 8.95867   3
  -1   4   6 17.1251 3.54892   7
   4  -1  -6 13.2381 6.80320   9
  -4  -1   6 12.2734 5.84870   4
  -4  -1   6 18.4953 5.96342   5
  -4  -1   6 12.4988 4.23099   8
   4  -1  -6 22.6501 7.51696   2
   4  -1  -6 20.4631 7.16636   5
   1  -4   6 14.9113 5.20576   8
   4  -1  -6 14.9779 6.20897   4
   1   4  -6 13.6895 15.3351   9
  -4  -1   6 7.46524 4.72952   2
   4  -1  -6 19.7352 9.12302   6
  -1   4   6 28.7635 6.51335   5
  -4  -1  -6 19.7326 3.58766  10
   4   1  -6 20.1205 6.39022   2
   1   4   6 15.3897 4.20752   6
   4   1  -6 16.2469 7.47024   3
  -4   1   6 20.7380 7.16187   4
  -4   1   6 15.5437 6.45374   5
  -4  -1  -6 12.1136 4.23015   5
  -4  -1  -6 22.4036 6.16580   7
  -4  -1  -6 14.5804 4.40072   4
   4   1  -6 14.6469 7.29328   6
   4   1  -6 11.3000 3.88555   7
   4  -1   6 15.9628 7.62459   9
  -4   1   6 13.5403 7.92367   3
   4  -1   6 22.2924 6.63336  10
   4   1  -6 13.6302 3.76376  10
   4   1  -6 16.9384 6.01270   5
   4  -1   6 28.6210 7.78577   5
   4  -1   6 15.6888 8.10715   2
   1  -4  -6 16.1184 5.99660   4
   4  -1   6 37.2636 10.3171   3
  -1   4  -6 14.1990 4.61002   6
  -4   1   6 23.3407 7.65798   6
   4  -1   6 19.9559 7.84199   6
   4  -1   6 19.2486 5.83912   7
   4  -1   6 15.2169 7.35713   8
  -4  -1  -6 9.27603 6.83046   2
  -4   1   6 13.0620 4.64406   8
  -4   1   6 20.4587 5.46385   7
   1  -4  -6 18.5734 4.58765   8
  -1   4  -6 19.3357 16.3612   9
  -4  -1  -6 16.8153 5.28178   3
   4   1  -6 13.7077 6.23736   9
   4  -1   6 30.8607 9.57944   4
  -4   1   6 8.59569 5.69917   2
  -4  -1  -6 10.8504 5.87705   8
   1   4   6 18.3538 5.87812   9
  -4   1   6 20.4876 4.71826  10
  -4   2  -6 114.839 8.97737  10
   4  -2  -6 119.298 11.3158  10
   2  -4   6 120.012 14.1068   8
  -2   4   6 84.7255 15.5105   3
   4  -2  -6 129.010 16.7678   4
   4   2   6 111.992 12.6503   7
   4  -2  -6 105.256 10.3693   7
   4   2   6 121.483 15.1841   9
  -2   4   6 132.508 17.2121   6
   4   2   6 123.586 15.5010   5
   4   2   6 106.499 10.9438   6
  -2  -4  -6 117.669 8.38719   4
  -2   4   6 85.5473 8.41993  10
   4  -2  -6 97.6002 16.9865   6
  -4   2  -6 129.404 16.5461   8
  -4   2  -6 118.958 11.1192   5
  -2   4   6 114.012 17.3474   9
  -4   2  -6 102.007 15.5447   3
  -4   2  -6 97.8771 13.9265   6
  -4   2  -6 111.880 10.3424   4
   4  -2  -6 87.7489 20.2381   3
  -4  -2   6 98.9083 8.19099   8
  -2   4   6 121.334 11.8475   5
  -2   4   6 102.286 12.7324   2
   2  -4   6 92.2620 14.7047   4
  -4   2  -6 100.509 14.6753   7
  -4   2  -6 98.3114 27.0725   9
   4  -2  -6 114.097 12.8953   8
  -2   4   6 100.903 8.43280   7
   4  -2  -6 112.632 16.0073   5
  -4  -2   6 119.757 11.4779   4
   2  -4  -6 115.136 10.5741   8
   2  -4  -6 86.6939 17.1929   3
   2   4   6 103.943 11.1255   9
   4   2  -6 103.815 14.7000   6
  -4   2   6 110.117 10.6503   8
  -4   2   6 106.516 10.2014  10
   2  -4  -6 97.2131 9.13741  10
   2  -4  -6 117.686 15.2338   4
  -4   2   6 105.622 20.5207   3
  -2   4  -6 113.862 11.1604   6
   2   4   6 97.7654 7.90136   6
  -4   2   6 100.273 15.1495   4
  -4   2   6 130.036 18.0024   6
  -4   2   6 96.9138 10.8859   7
   2  -4  -6 141.286 16.4387   2
   4  -2   6 102.392 11.5999  10
  -4  -2  -6 120.666 8.89225   4
  -2   4  -6 109.734 27.2987   9
  -4  -2  -6 112.259 13.0781   8
   4  -2   6 134.775 15.9502   7
   4  -2   6 130.648 17.0834   8
   4  -2   6 117.310 17.7508   4
   4  -2   6 113.508 15.0572   6
  -4   2   6 117.931 15.4605   5
   4  -2   6 78.3212 16.1529   3
   4  -2   6 114.419 14.5389   5
   4   2  -6 99.0731 12.6458   9
   2  -4  -6 122.511 12.5286   5
   2  -4  -6 98.4272 9.11850   7
   4   3   6 2.38082 6.40610   9
  -4   3  -6 2.59572 3.29117  10
  -3   4   6 -5.5299 4.53708   6
   3  -4   6 1.00315 4.60936   7
  -4   3  -6 -1.4781 17.7770   9
  -3   4   6 1.97333 3.38918   7
   3  -4   6 0.88748 6.93890   8
   3  -4   6 -0.1425 5.06063   5
   4   3   6 2.64221 4.21558   6
   4  -3  -6 -0.4799 3.26179   7
  -4   3  -6 -0.8969 4.78877   8
  -3   4   6 0.31072 10.6880   9
  -3   4   6 0.89738 2.55716  10
   4  -3  -6 1.69981 4.94887   8
  -4   3  -6 0.90113 3.60954   5
   4  -3  -6 0.14011 6.10910   6
  -4   3  -6 -3.8917 5.46828   7
   4  -3  -6 0.18741 3.04983  10
   3  -4   6 3.45705 4.07446  10
   3  -4   6 8.14584 8.16997   4
   4  -3  -6 -5.8498 3.84199   4
  -3   4   6 3.13459 3.72356   5
  -4   3  -6 -6.2525 4.72971   6
   4  -3  -6 -5.8275 4.99990   5
  -4   3   6 1.24539 11.4198   9
  -4  -3  -6 6.30287 3.16622   4
   4  -3   6 7.98890 7.90000   4
   3  -4  -6 3.29126 3.60418  10
  -4   3   6 -3.0648 3.15888   8
  -4   3   6 2.00203 4.56693   7
   3   4   6 2.50201 5.71803   9
  -4   3   6 5.19355 7.17357   6
   3  -4  -6 3.29518 4.79830   8
  -3   4  -6 -4.8137 20.3268   9
  -4   3   6 -3.3126 2.51833  10
  -3   4  -6 0.99046 5.09675   6
  -3   4  -6 3.70669 2.06083  10
   4  -3   6 3.23027 6.44157   5
   4  -3   6 -1.8856 5.42153   7
   3  -4  -6 0.72820 3.24790   7
   3  -4  -6 1.75939 4.97225   5
  -4   3   6 -0.9844 4.65609   5
  -4  -3  -6 1.46589 4.37724   8
   4  -3   6 -2.8059 6.54759   8
  -4   3   6 -0.1592 4.56769   4
  -3   4  -6 -0.4504 2.93999   5
   4  -3   6 -8.0463 4.27557  10
   4   3  -6 0.51274 4.97380   9
   3  -4  -6 -1.5811 5.06171   4
  -3   4  -6 3.61761 4.99783   7
   4  -4   6 -9.0523 8.48613   4
   4  -4  -6 -1.7354 5.44044   5
   4  -4  -6 2.81867 3.77575  10
  -4   4  -6 -0.9269 5.49317   6
   4  -4   6 4.78718 15.4152   8
  -4   4   6 0.38136 4.13655  10
   4   4   6 -0.8679 12.9920   9
   4   4  -6 -2.0697 8.18149   9
   4  -4   6 4.62152 6.56371   5
  -4   4   6 1.64435 7.32192   6
  -4   4   6 2.59460 7.06885   7
   4  -4   6 1.36690 4.96231  10
   4  -4  -6 3.61752 5.60635   7
   4  -4  -6 -1.5621 9.42727   8
   4  -4  -6 0.19440 5.12771   4
  -4   4   6 2.50639 4.60882   5
  -4   4  -6 10.5916 11.2221   7
  -4   4  -6 -2.8886 3.26816   5
  -4   4  -6 6.20726 3.34348  10
  -4   4   6 0.27759 13.1843   9
  -4   4  -6 2.61224 25.9452   9
   0   5   6 36.9595 7.91480   6
  -5   0   6 17.2539 4.92548  10
   5   0  -6 26.9550 6.60558   7
   5   0   6 27.8358 10.5189   6
   5   0  -6 20.4735 9.47337   9
  -5   0  -6 30.7568 7.07154   4
  -5   0   6 17.3606 7.41046   4
  -5   0  -6 26.8313 5.28420  10
   5   0  -6 28.5235 9.43149   5
  -5   0  -6 35.1922 7.60717   5
  -5   0   6 33.4293 9.34988   5
   5   0  -6 21.7593 9.36448   6
   5   0   6 27.4906 8.76822   5
   5   0   6 26.4135 9.59185   8
   5   0   6 28.1098 11.0123   9
   5   0  -6 23.1084 5.86699  10
   0   5   6 25.5183 9.11389   9
  -5   0  -6 40.0366 10.7753   8
  -5   0   6 30.0409 6.55243   7
  -5   0  -6 37.4763 9.83146   7
   0  -5  -6 32.5868 7.02562   4
   5   0   6 41.8178 9.77866   7
   5   0   6 26.8575 8.52824  10
  -5   0   6 38.7376 7.85814   8
   5   1   6 128.863 14.1580  10
   5   1   6 135.315 15.8755   7
   5  -1  -6 144.018 13.8308   8
  -1   5   6 141.936 18.9685   9
   5  -1  -6 153.224 20.2761   5
   5  -1  -6 110.167 12.3597  10
  -5  -1   6 128.072 14.4350   4
   5   1   6 149.993 15.1924   5
  -5   1  -6 188.267 21.0669   7
   5   1   6 121.489 13.6838   6
  -1   5   6 133.555 13.8855   6
  -5   1  -6 144.961 10.8860  10
   5  -1  -6 155.213 23.9681   6
  -5   1  -6 152.021 19.7846   8
  -5   1  -6 144.117 17.7139   6
   5  -1  -6 150.572 15.4865   7
   5  -1  -6 134.056 17.6040   9
  -5   1  -6 124.104 12.2770   4
   5   1   6 131.085 22.0236   9
  -5   1  -6 142.230 13.1419   5
  -5  -1   6 124.578 11.5256   8
  -5   1   6 126.560 12.0513  10
   5   1  -6 114.963 16.3822   9
   5  -1   6 163.570 20.9151   8
   5  -1   6 125.447 17.2045   7
   5  -1   6 136.921 18.0503   6
  -5   1   6 140.871 19.0508   4
  -5  -1  -6 105.390 10.4292   5
   1  -5  -6 139.821 13.7402   4
   5  -1   6 116.965 16.3438   5
  -5   1   6 146.214 13.0593   7
   1   5   6 118.042 13.1093   9
   5  -1   6 139.340 20.3985   4
  -5   1   6 148.896 18.9595   5
  -5  -1  -6 138.415 16.7216   7
   1  -5  -6 143.638 11.2125   8
  -5  -1  -6 144.001 17.8514   8
  -1   5  -6 209.529 35.1633   9
  -5  -1  -6 115.438 11.0755   4
   5  -1   6 169.913 15.3574  10
  -5   1   6 147.424 13.7271   8
  -5  -1  -6 129.866 8.90944  10
  -5  -2   6 202.632 16.7264   4
  -5   2  -6 218.896 16.0936   4
  -5   2  -6 192.677 16.1374   5
   2  -5   6 169.852 22.2017   4
  -5  -2   6 198.959 13.3111   8
  -5   2  -6 199.179 24.6776   7
  -5   2  -6 220.034 25.9295   8
  -5   2  -6 201.238 14.1533  10
   5   2   6 185.090 15.5444   6
  -5   2  -6 218.385 19.4212   6
   5  -2  -6 223.927 18.7629   7
  -2   5   6 197.366 29.7201   9
   5   2   6 214.476 28.4188   9
   5  -2  -6 196.687 19.3576   4
   5  -2  -6 200.450 20.4696   5
   5  -2  -6 183.116 18.4290   8
   5  -2  -6 195.782 17.2612  10
  -2   5   6 221.964 19.7748   6
   5  -2  -6 238.863 30.2753   6
  -5  -2  -6 220.007 13.8252   4
  -5   2   6 198.609 19.7157   4
   5  -2   6 210.351 26.0070   8
  -5  -2  -6 209.633 18.4345   8
  -2   5  -6 201.438 15.1047   6
   5  -2   6 239.303 18.8601  10
   5  -2   6 219.469 23.6780   7
   2   5   6 208.927 17.8541   9
  -5   2   6 230.525 19.0474   7
   5  -2   6 233.340 20.3441   6
   2  -5  -6 203.014 14.6608   8
  -5   2   6 198.040 17.8660   8
  -5   2   6 233.523 20.8792   5
  -5   2   6 198.517 16.3468  10
   5  -2   6 199.821 22.6304   4
   5  -2   6 227.139 20.3284   5
   2  -5  -6 213.232 18.6757   4
  -2   5  -6 245.479 45.3551   9
   5   2  -6 197.480 22.9942   9
  -5   2   6 207.128 21.1194   6
   5   2  -6 199.537 19.6236   6
   5  -3  -6 50.8020 11.1179  10
   5  -3  -6 53.2680 14.1016   8
  -3   5   6 82.1206 16.5972   6
   5   3   6 46.4307 7.83763   6
   5  -3  -6 46.7107 13.6683   6
  -5   3  -6 68.0425 9.71053  10
  -5   3  -6 71.1117 18.2389   8
   5  -3  -6 44.0140 12.6274   7
  -5   3  -6 79.9423 14.9535   6
  -5   3  -6 60.6938 19.0637   7
   5  -3  -6 78.2827 16.3605   5
   5   3   6 73.7938 22.4557   9
   5  -3  -6 45.3195 11.6344   4
  -3   5   6 75.6703 25.4880   9
  -5   3  -6 65.2484 10.7287   5
   3  -5   6 59.5364 15.4402   4
   3  -5   6 57.4556 13.4489   8
  -5   3   6 76.4240 16.3148   6
  -5   3   6 55.2925 10.5205  10
   3  -5  -6 72.4772 15.4016   4
  -5  -3  -6 66.8898 7.18028   4
   5  -3   6 55.8478 11.6423  10
   3  -5  -6 66.0777 12.6261   8
  -3   5  -6 57.2162 10.5579   6
  -3   5  -6 58.3469 54.3118   9
  -5   3   6 50.3719 11.4661   8
  -5   3   6 66.2268 13.8530   4
   5  -3   6 54.4487 12.1743   5
   5   3  -6 34.6108 13.5068   9
  -5   3   6 41.3356 11.6110   7
   5  -3   6 54.3795 14.2625   4
  -5   3   6 74.0951 14.5788   5
   5  -3   6 46.0066 19.7513   8
   5  -3   6 69.3079 18.2987   7
   3   5   6 76.7612 16.4105   9
  -5   4  -6 16.2064 8.63616   6
   5  -4  -6 6.12285 5.68559  10
  -5   4  -6 29.0752 7.65662  10
  -5   4  -6 -14.278 52.0155   9
  -5   4  -6 42.5981 8.51489   5
  -4   5   6 7.79979 5.96051  10
  -4   5   6 16.8645 9.16096   6
  -4   5   6 13.3425 6.64795   5
   5  -4  -6 42.3585 11.7802   5
   4  -5   6 33.4687 13.8116   4
   5  -4  -6 28.0120 10.7109   4
  -5   4   6 27.3238 10.3700  10
  -4   5  -6 16.6607 7.48650   6
   5  -4   6 17.5663 11.2142   4
   5  -4   6 27.1469 8.36048  10
   5  -4   6 4.97890 6.45549   5
   4  -5  -6 3.12735 6.15883   4
  -5   4   6 2.42353 8.12389   6
  -5   4   6 12.9209 7.12232   5
  -6   0   6 26.4819 6.88600  10
   6   0   6 26.8809 15.2658   7
  -6   0  -6 42.0222 16.8523   7
   0   6   6 34.8311 15.0563   9
   6   0  -6 23.1328 7.41732  10
   6   0  -6 23.4489 9.56447   7
  -6   0   6 52.5539 10.9223   5
   6   0   6 42.8716 11.7338   6
  -6   0  -6 36.0157 8.39694   4
   6   0  -6 31.6111 17.6367   9
  -6   0   6 35.0225 10.4460   4
   6   0   6 48.9827 20.0907   9
   6   0  -6 35.8522 10.0752   5
  -6   0  -6 36.2210 8.58050   5
   6   0   6 39.4652 10.6516   5
  -6   0  -6 38.2155 18.8603   8
  -6   0  -6 35.5725 6.26774  10
   6   0  -6 32.9932 11.7651   6
   6   0   6 35.7594 10.2718  10
  -6   0   6 24.4449 11.5222   8
   6  -1  -6 61.7591 17.7971   6
  -6   1  -6 94.4201 9.86863  10
  -6   1  -6 125.079 12.4460   4
  -6   1  -6 154.197 26.2068   7
   6   1   6 111.060 18.2907   5
  -1   6   6 124.263 22.6647   9
   6  -1  -6 102.200 15.5535   7
   6   1   6 107.536 27.6781   9
   6  -1  -6 106.275 15.7260  10
  -6   1  -6 107.266 14.3273   5
   6   1   6 73.3569 12.8573   6
   6  -1  -6 86.4922 16.5813   5
   6   1   6 90.7740 14.2134  10
  -6  -1   6 104.079 14.7089   8
  -6   1  -6 100.675 22.7742   8
  -6  -1   6 95.4439 15.3427   4
  -6  -1  -6 112.063 8.43321  10
   6   1  -6 85.7549 21.8072   9
  -6   1   6 83.2009 14.7394   7
  -6   1   6 101.478 17.1339   8
  -6   1   6 115.981 18.1772   5
  -1   6  -6 99.7103 39.9971   9
  -6   1   6 147.415 20.8470   4
  -6  -1  -6 80.8891 21.5241   8
   6  -1   6 112.544 16.4663  10
   6  -1   6 134.090 25.7323   8
   6   1  -6 82.0542 15.7404   6
   6  -1   6 93.9065 15.8335   5
   6  -1   6 103.886 22.1081   7
   6  -1   6 127.915 18.0236   6
  -6  -1  -6 105.026 11.1131   4
  -6   1   6 105.512 11.6976  10
   6  -2  -6 139.255 19.4060  10
   6   2   6 119.080 13.2546   6
   6  -2  -6 134.202 21.6251   5
  -2   6   6 143.506 19.9766   6
   6  -2  -6 110.711 21.3930   6
  -6   2  -6 135.958 18.9961   6
  -6   2  -6 141.396 32.5620   8
  -6   2  -6 153.787 13.4462  10
  -6   2  -6 138.033 16.9909   5
  -6  -2   6 150.548 18.6671   4
   6  -2  -6 149.668 20.4235   8
  -6   2  -6 157.182 13.9096   4
  -6   2   6 147.094 20.5475   5
  -6   2   6 133.470 14.7350  10
  -6  -2  -6 140.296 11.7508   4
  -6   2   6 124.352 19.2603   4
   6  -2   6 120.350 19.6291   4
   2  -6  -6 114.199 16.4821   4
   6  -2   6 101.018 17.1547   5
  -6  -2  -6 157.952 24.5931   8
   6  -2   6 116.672 18.2394  10
   6  -2   6 120.159 35.4074   8
   6  -2   6 140.070 19.3299   6
  -6   3  -6 71.6833 13.5135   5
   6  -3  -6 59.9915 16.9465   4
  -3   6   6 68.8045 18.3955   6
   3  -6   6 28.3006 18.9206   4
  -6   3  -6 52.4841 13.3590   6
   6  -3  -6 60.0800 18.2949  10
   6  -3  -6 40.2950 15.6054   5
  -6   3  -6 43.4485 12.5529  10
  -6   3   6 47.6747 15.5676   5
   6  -3   6 37.2710 12.7738   5
  -6   3   6 36.5370 12.5609   4
   6  -3   6 17.2800 17.2644  10
   3  -6  -6 48.4004 13.7398   4
   6  -3   6 43.0434 17.4016   4
  -6   3   6 26.9977 15.2301  10
   0   0   7 210.439 10.6685   8
   0   0  -7 194.392 14.5436   2
   0   0  -7 183.180 15.4147   1
   0   0   7 202.282 9.63980   7
   0   0  -7 200.623 10.0045   4
   0   0  -7 195.969 11.3280   6
   0   0  -7 195.449 10.5764   8
   0   0   7 190.533 11.6396   9
   0   0  -7 191.662 12.1737   7
   0   0   7 200.704 13.9740   3
   0   0   7 191.676 10.0219   6
   0   0   7 211.601 11.9496   2
   0   0  -7 194.747 24.7044   9
   0   0  -7 169.814 40.8107   1
   0   0  -7 199.945 12.2447   3
   0   0   7 200.615 14.0015   1
   0   0   7 205.141 13.7157   4
   0   0  -7 188.419 9.69207   5
   0   0   7 193.745 10.9487   5
   1   0  -7 387.879 21.9086   3
   0   1  -7 396.255 16.5588   5
  -1   0  -7 399.439 23.0897   2
  -1   0   7 373.705 18.1835   5
   0  -1   7 425.295 18.0734   8
   0   1   7 408.030 17.7267   6
   0  -1   7 398.543 22.2454   1
  -1   0   7 424.055 23.1544   3
   0  -1  -7 411.470 18.0991   8
   0   1  -7 410.250 19.3654   3
   0   1  -7 387.628 22.0804   2
   0  -1  -7 403.668 22.9251   2
  -1   0  -7 387.406 42.9323   1
   0   1  -7 409.149 23.8333   1
   0   1   7 436.399 17.6599   8
  -1   0  -7 407.879 23.8391   1
   0   1   7 414.159 22.8409   1
   0   1   7 404.359 19.1402   2
   0  -1   7 429.314 20.0364   2
   1   0  -7 407.971 18.3725   5
   1   0   7 398.478 17.6296   7
   1   0   7 397.570 18.7207   8
   0   1   7 404.721 20.7216   4
  -1   0  -7 394.040 16.7226   4
  -1   0  -7 397.331 17.0705   5
   1   0   7 410.540 17.7839   6
  -1   0  -7 400.039 19.1415   6
   1   0  -7 475.583 50.3181   1
  -1   0   7 400.166 18.4619   6
  -1   0   7 403.043 20.4753   4
   0   1   7 403.963 18.2423   5
   0  -1   7 383.113 18.0840   5
   0   1  -7 418.986 16.9079   4
   1   0   7 383.112 23.3930   3
   0   1  -7 388.365 18.7085   7
   1   0  -7 408.523 21.9718   2
   1   0  -7 400.022 19.5936   6
   0  -1   7 423.254 21.8318   3
  -1   0  -7 365.000 28.9268   9
   1   0  -7 374.030 18.4052   4
   0   1   7 413.539 16.6998   7
   0  -1  -7 404.700 17.5951   5
  -1   0   7 418.040 17.0102   8
   0   1   7 398.951 19.6982   9
   1   0   7 418.203 20.8723   9
   0   1  -7 368.658 44.8205   1
   0  -1  -7 407.433 17.7583   4
   0  -1  -7 352.424 30.6262   9
   0  -1   7 399.652 16.9310   6
   0  -1   7 403.204 16.8801   7
   0   1  -7 452.247 32.9675   9
  -1   0  -7 428.423 20.3734   3
  -1   0   7 377.208 19.2169   9
   0  -1  -7 316.409 46.6960   1
   0   1  -7 411.681 18.4951   6
   0  -1  -7 402.592 21.1246   3
  -1   0  -7 374.795 19.0036   7
  -1   0  -7 357.294 18.0562   8
   0   1   7 418.055 22.2734   3
  -1   0   7 420.234 19.0918   2
  -1   0   7 390.355 23.7099   1
   1   0  -7 406.054 17.8392   8
   0  -1  -7 396.683 19.0290   6
   0  -1  -7 387.679 19.7696   7
   1   0   7 381.995 20.6870   2
   1   0  -7 427.182 19.0725   7
   1   0   7 399.811 24.0131   1
   1   0   7 307.654 21.7646   4
   1   0   7 382.341 19.6343   5
   0  -1   7 368.555 21.4531   4
   0   1  -7 397.959 17.8241   8
  -1   0   7 414.074 16.5521   7
   1   0   7 338.043 44.2866   1
  -1   1  -7 1845.76 79.0770   9
   1  -1  -7 1874.32 65.9695   8
   1  -1   7 1822.24 70.3519   9
  -1  -1   7 1853.77 66.8050   2
  -1   1   7 1793.69 67.1892   6
  -1   1   7 1879.29 64.4826   7
   1   1  -7 1842.67 67.2680   7
  -1  -1   7 1752.95 70.7078   3
   1   1   7 1710.63 65.0156   6
  -1  -1  -7 1738.35 71.8774   2
  -1  -1  -7 1817.49 68.0223   3
   1  -1   7 1786.63 73.0420   3
   1  -1   7 1762.79 65.8264   7
   1   1  -7 1699.34 65.5160   5
  -1  -1  -7 1786.86 64.5510   5
  -1  -1  -7 1765.90 64.5078   4
   1   1  -7 1691.53 66.7011   6
  -1   1   7 1870.70 69.6394   4
   1  -1  -7 1716.69 78.7488   1
  -1   1   7 1752.49 73.0593   3
   1  -1  -7 1833.57 72.9922   3
  -1  -1   7 1692.17 65.7627   5
   1   1  -7 1766.99 70.7249   2
   1  -1   7 1862.99 71.1237   2
   1  -1   7 1785.79 75.2833   1
  -1  -1   7 1693.71 64.2867   8
  -1   1  -7 1866.11 68.3819   3
  -1   1   7 1881.49 67.8497   2
  -1  -1  -7 1770.72 66.1241   8
   1   1  -7 1738.39 65.1611   8
  -1  -1  -7 1731.14 67.0917   7
   1   1   7 1815.46 73.1382   1
   1   1  -7 1599.73 103.522   1
   1   1   7 1823.84 67.1049   5
   1   1   7 1757.43 66.3362   8
   1  -1   7 1868.83 65.5311   6
  -1   1   7 1918.01 64.9171   8
  -1   1   7 1808.84 68.8379   9
   1   1   7 1802.53 68.3102   9
   1  -1  -7 1788.31 67.1710   5
   1  -1   7 1912.83 67.4585   8
  -1   1  -7 1815.04 67.5805   7
  -1   1  -7 1768.08 66.8773   8
  -1  -1   7 1800.34 63.9843   7
   1   1   7 1829.42 65.1597   7
   1   1   7 1789.91 68.8740   2
   1  -1  -7 1819.49 67.5520   4
  -1   1  -7 1839.70 67.3228   6
   1  -1   7 1834.10 68.2760   5
   1   1  -7 1739.73 69.8144   3
   1   1  -7 1832.12 66.2501   4
  -1  -1  -7 1783.19 66.5982   6
  -1   1  -7 1847.18 94.7571   1
   1  -1   7 1611.06 71.9326   4
  -1   1  -7 1861.92 64.5522   4
  -1   1  -7 1823.64 64.7387   5
   1  -1  -7 1916.47 66.8160   7
  -1   1   7 1809.95 67.1843   5
   1  -1  -7 1787.85 68.8996   6
   1   1   7 1769.63 71.1991   3
  -1  -1   7 1802.00 65.8574   6
  -1   1   7 1858.11 75.6761   1
   1  -1  -7 1860.58 70.6196   2
  -1   1   7 1778.04 80.4201   1
  -1   1  -7 1823.26 73.0408   2
  -1  -1   7 1730.88 68.4328   4
   0   2   7 1289.24 49.9691   4
   0  -2  -7 1210.83 47.1210   5
  -2   0  -7 1244.10 55.4879   2
   0   2   7 1199.40 49.0331   9
  -2   0  -7 1220.30 49.9641   3
   0  -2   7 1223.39 50.5593   3
   2   0   7 1252.89 55.5899   3
  -2   0   7 1261.32 49.3183   2
  -2   0   7 1262.40 49.5126   6
   0   2   7 1246.59 53.3231   3
  -2   0   7 1217.77 45.3504   7
   2   0   7 1197.38 49.7738   5
   0   2   7 1155.45 46.8363   6
   0   2  -7 1204.29 47.0859   6
   2   0   7 1068.97 53.9387   4
  -2   0  -7 1049.14 58.5507   9
   0   2   7 1354.51 46.1631   8
   2   0  -7 1230.72 55.3063   3
   2   0  -7 1211.22 49.2914   4
  -2   0  -7 1205.38 49.0233   7
   2   0   7 1245.76 58.8578   1
  -2   0  -7 1204.94 45.9676   5
   0  -2   7 1240.63 45.8489   7
  -2   0   7 1300.81 49.2790   5
   0   2  -7 1359.42 73.8149   1
  -2   0  -7 1222.45 48.6162   8
   2   0  -7 1277.44 51.1506   9
   2   0   7 1244.10 49.2854   8
   0  -2   7 1242.35 49.9621   2
   0   2   7 1211.77 47.4559   5
   0   2   7 1193.23 47.8826   2
   0  -2   7 1212.65 46.7095   5
   0   2   7 1244.72 45.0821   7
   0   2  -7 1199.99 47.2955   7
   0   2  -7 1207.28 46.6515   8
   0   2  -7 1199.79 44.7221   5
   0  -2   7 1192.25 46.6587   8
  -2   0  -7 1245.61 46.0238   4
   0  -2  -7 1203.40 46.5034   8
  -2   0   7 1256.50 50.9110   4
   0  -2  -7 1236.74 49.0691   6
   2   0   7 1213.79 52.2802   9
   2   0  -7 1213.61 49.0181   5
   0   2  -7 1371.67 61.2295   9
   0   2   7 1309.46 54.2929   1
   2   0   7 1306.74 47.8325   6
   0  -2  -7 1211.09 47.1686   4
  -2   0   7 1196.48 45.7257   8
   0  -2  -7 1158.61 52.0509   2
   0  -2  -7 1226.63 52.2010   3
  -2   0   7 1213.26 55.2928   3
   2   0   7 1220.08 47.7261   7
   0   2  -7 1188.59 51.6611   2
   0   2  -7 1205.02 47.7010   3
   2   0  -7 1273.50 47.0488   7
   2   0   7 1245.73 53.7825   2
  -2   0  -7 1270.82 48.7392   6
   2   0  -7 1183.64 50.4456   6
   2   0  -7 1205.83 46.4928   8
  -1  -2  -7 338.581 18.8279   3
   2   1   7 351.653 16.9201   7
   1  -2   7 343.151 15.9649   6
  -1  -2  -7 344.142 15.5063   5
  -1  -2  -7 333.968 21.3472   2
  -1   2   7 341.416 16.6306  10
   2  -1  -7 337.018 20.9011   2
  -2  -1   7 348.962 17.4952   5
   1   2  -7 377.996 43.4957   1
   2  -1  -7 348.844 20.7083   6
  -2   1  -7 344.677 15.9443   4
  -1  -2  -7 347.568 16.6224   8
  -1   2   7 356.588 19.8565   4
   2  -1  -7 326.959 23.6168   3
  -1  -2  -7 358.432 18.1838   7
  -2  -1   7 342.949 17.2845   2
   2   1   7 302.917 22.5452   3
  -1   2   7 310.125 22.4714   3
   2  -1  -7 308.415 18.6083   4
  -1   2   7 358.966 18.6110   5
  -1  -2  -7 331.244 15.4087   4
   1   2  -7 344.427 16.7706   6
  -1  -2  -7 357.972 19.6591   6
   1   2  -7 267.407 37.1262   9
  -2   1  -7 350.299 18.6146   6
  -2   1  -7 353.592 19.0166   7
  -2   1  -7 321.287 18.2094   8
  -2   1  -7 323.039 32.8630   9
  -2   1  -7 335.788 14.7328  10
   1  -2   7 360.443 21.5303   2
   2  -1  -7 419.427 21.9739   9
   2   1   7 361.567 18.5129   8
   1   2  -7 323.531 19.5102   2
  -2  -1   7 339.905 15.0967   8
  -2  -1   7 340.780 21.8850   3
  -2  -1   7 332.720 14.5808   7
  -1   2   7 327.387 18.5100   6
  -1   2   7 336.184 19.8460   9
   1  -2   7 325.583 22.5039   3
   1  -2   7 308.614 22.0947   4
   1  -2   7 326.241 18.3841   5
  -2   1  -7 345.545 23.9485   2
  -2   1  -7 356.638 19.7908   3
   2   1   7 355.977 17.0123   6
   2  -1  -7 328.652 16.7951  10
  -1   2   7 319.134 17.9417   2
  -1   2   7 343.735 15.4460   8
   1  -2   7 328.582 16.7161   7
  -2   1  -7 317.957 34.3869   1
   2  -1  -7 352.704 16.8963   8
   1   2  -7 345.794 16.7471   7
   2   1   7 355.925 24.6453   1
   2   1   7 350.344 21.1163   2
  -2   1  -7 346.721 16.2551   5
   2  -1  -7 309.915 18.3833   5
   2   1   7 272.877 21.0054   4
   2  -1  -7 342.187 16.7511   7
   2   1   7 329.502 20.0139   9
   1   2  -7 310.434 18.3202   3
   1   2  -7 312.549 15.3132   5
  -1   2   7 342.457 24.1683   1
  -1   2   7 347.560 15.2235   7
   1  -2   7 340.668 18.0089   8
   2   1   7 352.348 19.5165   5
  -1  -2   7 349.268 15.6976   8
   1   2   7 358.386 21.6419   1
  -1   2  -7 343.364 17.6484   8
  -1   2  -7 332.809 15.1930   5
   1  -2  -7 345.581 16.9609   7
   1   2   7 339.364 15.7514   6
  -2   1   7 350.738 16.7985  10
  -2  -1  -7 364.187 19.0515   3
  -1   2  -7 352.239 17.7956   6
  -2   1   7 344.432 31.6740   1
   2  -1   7 344.465 18.7930  10
   2  -1   7 351.737 19.7118   5
  -2  -1  -7 371.003 15.6992   4
  -1  -2   7 349.544 17.2387   2
   2   1  -7 382.501 20.7887   9
  -2  -1  -7 340.174 17.8322   6
  -1   2  -7 272.814 31.0963   1
  -1  -2   7 348.336 18.4666   4
  -2  -1  -7 354.596 17.8730   8
  -2  -1  -7 344.854 22.6392   2
   1   2   7 358.387 16.8091   5
   1  -2  -7 357.491 20.6230   2
   1   2   7 332.390 18.3150   2
  -2   1   7 350.990 24.3895   3
   2   1  -7 348.441 18.9378   6
   2   1  -7 329.828 16.4991   7
   2   1  -7 319.441 15.6448   8
   2  -1   7 367.418 19.2078   8
  -1  -2   7 343.122 19.3055   3
  -2   1   7 308.891 19.4876   4
  -1   2  -7 343.019 18.1420   7
  -1   2  -7 335.238 22.4429   2
   2  -1   7 345.284 17.6484   7
   1  -2  -7 353.654 18.3823   5
   1  -2  -7 347.733 19.7993   6
  -1   2  -7 322.540 33.2816   9
   1  -2  -7 336.871 16.4773   8
  -1  -2   7 335.643 15.7046   5
   2  -1   7 347.050 23.8801   3
   1   2   7 335.967 16.7500   8
  -2   1   7 350.190 16.0942   8
  -1  -2   7 360.221 14.7844   7
   2  -1   7 351.476 21.9070   9
   1   2   7 346.230 20.3064   3
  -1   2  -7 330.665 14.7975   4
  -2   1   7 352.257 19.5920   2
   1   2   7 349.700 18.9967   4
   1  -2  -7 366.170 17.9930  10
  -2   1   7 345.614 18.8532   5
  -2  -1  -7 348.607 18.3145   7
   1  -2  -7 313.875 22.3202   3
   2  -1   7 363.496 17.8534   6
   2   1  -7 344.948 17.6574   5
   1   2   7 370.696 15.7112   7
   2  -1   7 323.930 23.5586   4
  -2   1   7 350.421 19.4192   6
   2  -1   7 349.117 22.5828   2
   1  -2  -7 336.003 18.1963   4
  -1   2  -7 365.285 18.5298   3
   1   2   7 333.869 17.9479   9
   2   1  -7 339.451 21.8850   3
  -2   1   7 328.061 19.9344   9
   2   1  -7 368.234 20.0093   2
  -2  -1  -7 358.091 15.6679   5
  -2   1   7 358.588 15.9930   7
   2  -2   7 2452.53 97.6968   4
   2  -2  -7 2510.77 96.5154   6
   2  -2  -7 2552.09 90.3701   7
  -2   2   7 2398.92 90.2640  10
   2  -2   7 2402.96 91.6032   7
  -2  -2   7 2130.38 88.7196   7
   2  -2  -7 2556.60 97.0226   2
   2  -2   7 2507.47 92.7925   5
  -2   2  -7 2372.98 92.8221   7
   2  -2  -7 2459.35 102.799   3
  -2   2   7 2503.83 89.1845   8
   2  -2   7 2482.64 99.7226   2
  -2   2   7 2425.22 95.8126   9
   2   2   7 2543.25 90.9512   5
   2  -2   7 2576.34 91.9605  10
   2   2   7 2520.42 96.0863   3
   2   2   7 2383.85 93.4155   9
  -2   2  -7 2449.96 92.9828   8
  -2   2  -7 2608.59 107.786   9
  -2   2  -7 2292.94 115.370   1
  -2   2  -7 2506.20 94.5020   3
   2   2   7 2437.07 95.1087   2
  -2   2   7 2535.04 94.1174   5
   2  -2  -7 2424.85 93.9532   4
  -2  -2  -7 2503.91 97.3475   2
  -2  -2  -7 2513.01 91.6885   3
   2   2  -7 2357.49 93.2013   2
   2  -2  -7 2449.07 90.4656   8
  -2   2  -7 2454.02 89.2677   5
  -2   2  -7 2557.37 92.2231   6
   2  -2   7 2434.24 98.8719   3
  -2   2   7 2524.67 95.7846   4
  -2   2   7 2501.76 103.280   3
   2   2  -7 2497.15 91.7224   6
   2   2   7 2474.41 100.833   1
   2  -2  -7 2419.77 93.8123   5
   2  -2   7 2625.06 90.6317   6
  -2   2   7 2488.95 105.498   1
  -2   2  -7 2477.62 87.5432  10
  -2  -2   7 2451.72 98.4669   3
  -2   2   7 2613.56 94.7885   2
  -2  -2  -7 2504.35 90.5633   8
  -2  -2   7 2393.75 87.3156   8
  -2   2   7 2403.18 94.3085   6
   2  -2   7 2379.14 93.0311   8
  -2  -2  -7 2472.26 87.8195   4
   2   2  -7 2467.50 90.2700   5
  -2   2   7 2521.15 89.0519   7
  -2  -2   7 2438.00 89.9778   2
   2   2   7 2485.76 89.5492   7
   2   2  -7 2415.92 95.5947   3
  -2  -2  -7 2430.92 87.7099   5
  -2  -2  -7 2474.37 91.0996   7
  -2   2  -7 2401.05 100.988   2
  -2   2  -7 2549.62 88.8364   4
   2   2   7 2417.90 88.9305   6
   2  -2  -7 2478.52 91.2369  10
   0  -3  -7 267.833 18.9585   2
  -3   0   7 257.328 16.4799   5
   3   0  -7 242.339 18.1851   6
  -3   0  -7 271.828 16.4524   6
   3   0  -7 276.100 15.0368  10
   3   0  -7 269.681 18.5851   2
  -3   0   7 252.699 21.4739   3
   0  -3  -7 253.849 19.0920   3
   0   3  -7 234.330 13.8020   6
   0   3   7 253.473 13.1086  10
   3   0   7 274.785 22.7248   4
  -3   0   7 273.641 14.0267   8
  -3   0   7 280.550 13.6677   7
   3   0  -7 226.054 17.7974   9
   0   3   7 258.866 14.9449   2
   3   0  -7 232.821 21.4794   3
   0   3  -7 282.029 30.2253   9
   3   0  -7 253.851 14.0876   8
   3   0   7 239.989 16.0554   6
   0  -3  -7 261.772 14.1535   8
  -3   0   7 267.836 14.3489  10
  -3   0  -7 232.591 21.1774   2
   3   0   7 285.918 21.9041   3
  -3   0   7 250.175 16.8761   2
   3   0   7 274.869 25.0854   1
   3   0   7 219.995 19.4135   2
   0  -3  -7 269.694 13.8035  10
   3   0   7 273.503 17.0368  10
   0   3   7 220.694 18.3366   3
   0   3   7 221.364 14.1564   6
   0  -3   7 249.024 14.3553   8
  -3   0  -7 263.445 14.1312   5
   0  -3   7 182.642 15.9529   4
  -3   0  -7 250.695 16.7420   7
  -3   0  -7 240.366 16.3554   8
  -3   0  -7 260.116 13.9872   4
   3   0   7 257.995 15.8306   7
   3   0   7 260.881 17.4431   8
   3   0   7 250.122 19.7075   9
   3   0   7 275.733 18.0420   5
   3   0  -7 258.271 14.2001   7
   3   0  -7 261.767 16.9365   4
   0   3   7 252.626 12.3369   7
  -3   0   7 256.197 17.4556   4
   0  -3  -7 250.816 14.7894   5
   0  -3  -7 259.882 14.9334   4
  -3   0  -7 262.082 12.4400  10
  -3   0   7 254.523 16.9010   6
   3   0  -7 227.635 16.3693   5
   0   3   7 261.644 16.4600   9
  -3   0  -7 269.242 17.7577   3
   3   1   7 601.942 35.3642   2
   3  -1  -7 666.825 34.9333   6
  -1  -3  -7 649.036 27.8655   5
  -1  -3  -7 635.428 32.2831   3
  -3  -1   7 634.207 36.4363   3
   3  -1  -7 665.127 30.0834  10
   3   1   7 583.714 30.5356  10
  -3   1  -7 693.585 28.7963   4
  -3   1  -7 701.502 31.5082   6
   3   1   7 648.121 32.0026   5
  -3   1  -7 676.675 28.9562   5
  -1   3   7 652.088 31.3620   6
   1  -3   7 583.453 33.7650   4
   3   1   7 668.288 41.4903   1
  -3  -1   7 658.258 30.5511   5
   3   1   7 626.378 36.8009   3
  -3  -1   7 629.331 29.9517   2
  -1   3   7 663.882 28.3204  10
  -1   3   7 670.736 37.8896   3
  -1   3   7 669.756 31.0059   5
  -3   1  -7 690.685 27.0155  10
   3   1   7 700.142 31.9483   8
  -1   3   7 678.950 30.2642   2
   3  -1  -7 783.292 35.8137   9
  -3   1  -7 634.092 38.6560   2
   3  -1  -7 674.779 29.5875   8
   3   1   7 528.808 35.2864   4
  -3  -1   7 657.124 31.9028   4
  -1  -3  -7 683.891 29.2922   7
  -1  -3  -7 657.484 27.9085   8
   3  -1  -7 697.486 29.3897   7
   1   3  -7 714.438 44.4062   9
  -3   1  -7 648.700 32.0188   8
   1  -3   7 673.194 29.1201   7
   1  -3   7 663.339 30.2693   8
   3  -1  -7 627.187 32.5063   5
  -3   1  -7 675.136 32.2750   7
   1  -3   7 673.265 34.7334   2
   1  -3   7 654.456 29.9856   5
   3  -1  -7 651.265 32.7714   4
   3   1   7 657.104 29.9407   7
   1   3  -7 658.477 27.6927   6
  -1   3   7 639.361 26.3652   7
  -3   1  -7 613.238 46.8721   9
   3  -1  -7 711.062 35.3941   2
   3  -1  -7 629.430 39.6166   3
  -3  -1   7 679.984 28.1736  10
  -1   3   7 704.613 27.0558   8
  -3  -1   7 625.693 26.9618   8
   3   1   7 631.146 34.8914   9
  -1  -3  -7 655.007 27.7511   4
  -3  -1   7 638.026 26.3303   7
  -3   1  -7 649.350 33.7702   3
   1  -3   7 620.981 34.4005   3
   3   1   7 640.788 29.5572   6
  -1   3   7 671.454 33.1350   9
  -1  -3  -7 698.904 33.5634   2
   3  -1   7 655.397 30.6932   6
  -3   1   7 678.994 33.9977   4
  -3  -1  -7 654.513 32.2313   6
   1  -3  -7 682.978 28.8229  10
   3   1  -7 629.495 37.1769   3
  -1   3  -7 681.940 30.3030   7
   1  -3  -7 689.562 28.3762   8
  -1   3  -7 734.699 37.1809   2
   3  -1   7 664.604 31.1380   7
   3   1  -7 586.139 32.1258   6
   3  -1   7 650.830 32.6037   8
  -3   1   7 688.930 33.5378   6
  -1  -3   7 631.491 26.9817   8
  -3   1   7 647.546 32.3744   5
  -1   3  -7 650.649 26.3637   5
  -1   3  -7 685.265 44.2363   9
   3  -1   7 705.004 31.3899  10
   1   3   7 665.543 28.3054   5
   3  -1   7 621.569 37.3563   3
   3  -1   7 672.612 36.5953   9
  -3   1   7 696.122 40.7767   3
   1  -3  -7 687.859 28.8383   7
   3  -1   7 661.049 36.9350   4
   3  -1   7 679.894 32.3676   5
  -1   3  -7 644.700 29.0206   6
  -3   1   7 659.503 29.5217  10
  -1   3  -7 632.424 29.4675   3
   1   3   7 663.506 30.0221   9
   3  -1   7 713.383 39.0498   2
   1   3   7 651.994 33.2700   3
   1  -3  -7 702.675 31.4961   5
   1   3   7 631.174 27.5955   6
   3   1  -7 659.857 27.8936   7
   1  -3  -7 677.187 32.8139   2
   1   3   7 654.404 26.5276   7
  -3   1   7 651.682 33.3093   2
   3   1  -7 624.215 28.4136  10
  -3  -1  -7 643.526 27.4999   4
  -3  -1  -7 659.955 27.4029   5
  -3   1   7 699.679 28.8523   8
  -3  -1  -7 659.521 31.0247   7
  -3  -1  -7 668.358 30.8373   8
  -3  -1  -7 671.020 25.8328  10
   1  -3  -7 674.635 37.8928   3
   1  -3  -7 670.862 31.3014   4
   1   3   7 637.106 29.7934   2
  -1  -3   7 671.166 29.5933   4
  -3  -1  -7 653.105 31.2565   3
  -3  -1  -7 654.149 37.2992   2
   3   1  -7 651.667 31.0362   5
  -3   1   7 657.274 28.2434   7
  -2   3   7 220.539 19.1263   9
   3  -2  -7 186.726 12.7765   7
   3   2   7 177.692 12.7727   7
   2  -3   7 201.802 18.5893   3
  -2   3   7 171.996 15.0711   6
   3  -2  -7 188.789 13.3762   8
   3  -2  -7 200.078 18.2891   6
   2  -3   7 181.026 15.1242   8
  -2   3   7 189.194 14.9664   5
   3   2   7 172.712 17.7226   3
   3   2   7 191.507 12.8437   6
  -2   3   7 146.033 20.8184   3
  -3   2  -7 208.338 13.0905   5
   3  -2  -7 202.592 17.4052   2
   3   2   7 165.012 12.6507  10
   2  -3   7 188.361 18.0969   2
   3  -2  -7 203.282 13.9067  10
  -3  -2   7 204.246 14.2175   4
  -3   2  -7 162.549 22.6498   2
  -3   2  -7 200.700 16.0443   3
  -3   2  -7 190.023 12.1504   4
  -3   2  -7 186.642 10.8076  10
   3  -2  -7 188.549 15.8279   5
  -2   3   7 173.145 14.4109   2
   2  -3   7 218.681 13.9615  10
  -2   3   7 208.052 13.0608  10
   2   3  -7 188.023 12.6156   6
  -3  -2   7 181.920 10.2543   8
   3   2   7 207.999 17.5315   2
   3  -2  -7 220.601 28.6046   3
   3  -2  -7 207.481 16.6861   4
  -2   3   7 194.608 11.5738   7
  -3   2  -7 217.452 16.3287   8
  -2   3   7 190.139 17.0217   4
   3   2   7 203.724 14.9687   5
  -2  -3  -7 189.163 10.7013   4
   2  -3   7 172.815 18.1032   4
  -3   2  -7 208.780 32.9349   9
   3   2   7 206.033 17.2882   9
  -3   2  -7 199.335 15.0058   6
   2  -3   7 210.559 15.2528   5
  -3   2  -7 164.691 14.8935   7
   2  -3   7 195.529 13.9625   7
  -2   3   7 202.150 11.7547   8
  -2  -3  -7 193.944 12.7541   8
  -3   2   7 204.284 15.9276   5
  -3   2   7 211.573 16.6376   2
  -3   2   7 207.586 21.2197   3
   2  -3  -7 195.615 15.6510   5
   3  -2   7 206.468 24.2395   2
   3  -2   7 188.216 19.8665   3
  -3   2   7 200.180 16.6201   4
  -3   2   7 196.911 18.9097   9
  -3  -2  -7 167.053 13.5234   3
  -3  -2  -7 200.220 11.0291   4
   3  -2   7 191.036 15.6646   5
  -2   3  -7 196.472 11.5601   5
  -2   3  -7 198.722 10.0250  10
   2  -3  -7 189.965 12.8178  10
   2  -3  -7 193.232 12.4550   7
  -3   2   7 195.896 13.2122  10
   2  -3  -7 202.949 13.1585   8
   3   2  -7 175.438 14.7986   9
  -2   3  -7 208.771 30.7421   9
   2   3   7 182.724 14.2987   9
  -3   2   7 196.407 16.5702   6
   3   2  -7 187.705 15.0243   6
  -3  -2  -7 203.658 14.1169   7
  -3  -2  -7 200.104 9.69859  10
  -3   2   7 194.492 12.5720   8
  -3  -2  -7 208.895 14.2038   8
   2  -3  -7 173.016 14.9446   4
  -3  -2  -7 204.602 18.3160   2
   2  -3  -7 214.022 21.6379   3
  -3  -2  -7 189.426 11.2038   5
   3  -2   7 198.431 14.8241   7
  -2   3  -7 207.927 15.2204   7
   3  -2   7 219.006 14.9509   6
  -3   2   7 208.099 12.7403   7
  -2   3  -7 202.452 14.5576   3
   3  -2   7 193.004 15.7528   8
   2  -3  -7 199.165 16.8242   2
   3  -2   7 200.641 14.5201  10
   2   3   7 187.195 11.1144   6
  -2   3  -7 183.220 23.3000   2
   3  -2   7 205.516 19.6430   4
  -2   3  -7 211.880 14.3437   6
  -3   3   7 231.170 19.8813   6
  -3   3  -7 265.592 18.2763   6
   3  -3   7 250.620 17.2091  10
  -3  -3  -7 274.136 13.3421   4
   3  -3   7 253.173 23.4610   2
   3  -3   7 305.987 24.3352   3
  -3   3  -7 239.529 13.1757  10
   3  -3  -7 227.256 16.3984  10
  -3   3  -7 198.206 26.4173   2
  -3   3  -7 281.262 38.2510   9
  -3   3  -7 257.638 19.2033   7
   3  -3  -7 249.249 25.8133   3
  -3   3   7 251.071 15.1115   8
  -3   3   7 241.418 19.0542   5
   3   3   7 284.098 20.5161   9
  -3   3  -7 265.188 19.2736   3
  -3   3   7 253.520 24.3417   9
   3  -3   7 257.020 23.3118   4
  -3   3   7 250.051 16.3600  10
  -3   3  -7 255.882 15.4189   5
   3   3  -7 298.134 17.6596   6
   3  -3  -7 251.330 16.6389   8
  -3   3   7 262.887 20.0786   4
   3  -3   7 233.518 17.6873   7
   3  -3  -7 241.817 19.3586   4
   3  -3  -7 244.480 19.8066   5
   3  -3  -7 239.818 21.2818   6
  -3   3   7 242.848 15.0444   7
   3  -3  -7 255.265 15.9714   7
  -3  -3  -7 275.423 16.5602   8
   3   3   7 276.834 14.5676   6
  -3   3   7 249.179 25.5024   3
   3  -3   7 249.000 19.7617   8
   3  -3   7 235.304 18.3555   5
  -4   0  -7 70.9250 9.05402   5
  -4   0  -7 76.0373 11.7696   3
  -4   0  -7 48.6439 9.90375   8
   4   0  -7 64.2404 12.9930   6
   4   0  -7 51.4998 7.50753   7
   4   0  -7 55.1606 7.89791   8
   4   0  -7 55.6649 14.1315   3
  -4   0  -7 63.7506 11.1226   7
   4   0   7 62.7780 10.4050   7
  -4   0   7 56.4154 9.84925   5
  -4   0  -7 57.6634 9.93037   6
   4   0   7 44.5402 9.35434  10
  -4   0  -7 39.6774 12.6302   2
   4   0   7 52.4540 9.86099   6
   4   0  -7 54.7149 10.5344   5
  -4   0   7 66.7205 8.36562   8
  -4   0  -7 53.8943 7.61618   4
   4   0   7 60.7026 14.0410   4
   0   4  -7 46.7560 6.98512   6
   0  -4  -7 53.5209 8.77169   4
   4   0  -7 57.6662 11.4405   9
   0  -4   7 41.1171 8.64103   4
  -4   0   7 63.2837 14.6106   3
   4   0   7 66.6162 13.6369   3
  -4   0   7 57.5436 7.96884  10
   4   0   7 59.5910 13.4088   2
  -4   0   7 64.7515 11.6995   4
   4   0  -7 49.8703 7.87263  10
   4   0  -7 42.2514 9.67257   2
   4   0   7 51.2435 10.3942   5
   4   0   7 61.3394 13.1297   9
   0   4  -7 63.0942 20.9846   9
  -4   0  -7 63.3963 5.95241  10
   0   4   7 73.1732 11.1082   9
   4   0   7 60.8838 11.3715   8
   0   4   7 63.5451 9.27899   6
  -4   0   7 42.9117 8.99965   2
  -4   0   7 53.4772 7.25760   7
  -1  -4  -7 110.704 9.64590   4
   4  -1  -7 98.5793 19.7682   3
   1  -4   7 122.146 12.1331   8
   4  -1  -7 110.233 15.4137   4
  -1   4   7 104.977 10.7694   5
  -1  -4  -7 127.159 10.0053   8
  -4   1  -7 141.014 14.5420   3
  -4  -1   7 115.074 9.51875   8
  -4  -1   7 118.653 8.87543   7
  -4  -1   7 112.537 11.4120   5
  -4   1  -7 121.394 10.5026   4
   4   1   7 111.394 14.2374   5
   4   1   7 102.707 12.4442   7
  -4   1  -7 109.914 14.2641   6
   4  -1  -7 114.545 10.8414  10
  -4   1  -7 120.796 10.6646   5
   1  -4   7 96.6341 15.0985   4
  -4  -1   7 106.537 27.0336   3
  -4   1  -7 127.189 15.5779   7
  -4   1  -7 120.772 15.8315   8
  -4   1  -7 117.132 8.85433  10
  -1   4   7 128.381 12.5244   6
  -1   4   7 117.188 14.4529   9
   4   1   7 117.128 15.7632   9
   1   4  -7 91.6763 20.7087   9
  -1   4   7 111.429 8.29049   7
   4   1   7 102.102 13.1276  10
   4   1   7 105.300 13.1511   6
   4   1   7 114.994 18.2027   3
   4  -1  -7 114.402 10.3965   7
  -4  -1   7 134.404 15.1322   2
   4  -1  -7 108.668 15.0025   5
   4  -1  -7 119.451 11.0382   8
   4   1   7 119.696 17.9898   2
   4  -1  -7 130.352 15.7740   9
  -4  -1   7 126.152 9.26492  10
  -4  -1   7 121.164 12.7223   4
   4  -1  -7 125.661 18.5556   6
   4  -1   7 146.318 20.7105   4
  -4   1   7 118.145 16.1348   4
   4  -1   7 107.942 13.6411   6
  -4  -1  -7 120.467 7.78485  10
  -4  -1  -7 136.344 12.4693   3
  -4  -1  -7 122.846 14.8168   8
  -1   4  -7 117.957 10.3458   6
  -4  -1  -7 129.142 14.5729   7
   1   4   7 134.333 9.94083   6
   4   1  -7 123.806 16.9828   6
   4   1  -7 114.765 14.1892   9
   4   1  -7 106.056 14.1399   2
   4  -1   7 109.552 12.1776  10
   1  -4  -7 125.852 12.5160   5
   4  -1   7 105.901 17.0458   3
   4   1  -7 113.515 19.1571   3
  -4  -1  -7 107.109 9.36351   4
  -4  -1  -7 136.676 21.2181   2
   4   1  -7 121.681 9.74206   7
  -4   1   7 116.224 10.3610   8
   4  -1   7 98.0365 13.8475   5
   4  -1   7 125.698 16.2545   8
   1  -4  -7 112.043 12.0054   4
   4  -1   7 130.988 15.1711   7
   4   1  -7 120.926 12.0372   5
  -4   1   7 119.335 15.0406   5
  -1   4  -7 168.560 31.0379   9
   1  -4  -7 119.920 11.0072   7
  -4   1   7 148.192 23.4752   3
  -4   1   7 102.548 9.83276  10
  -4  -1  -7 117.808 9.53140   5
   4   1  -7 112.046 9.37522  10
  -4   1   7 133.969 10.7730   7
  -4   1   7 138.647 17.5995   6
   1   4   7 125.872 11.6940   9
   1  -4  -7 126.416 10.2674   8
  -4   2  -7 396.162 19.8352  10
  -4  -2   7 418.281 24.1118   4
   4  -2  -7 405.999 22.3888   7
  -2   4   7 382.989 23.2455   2
  -4   2  -7 388.508 26.3208   8
  -4   2  -7 416.623 21.8456   4
  -2   4   7 432.921 32.3174   3
   4   2   7 430.725 29.6614   9
   4  -2  -7 433.126 30.5977   6
   4  -2  -7 395.869 23.5537  10
   4  -2  -7 389.156 22.8843   8
  -4   2  -7 422.217 26.5098   7
  -4   2  -7 442.788 25.8273   6
   4   2   7 410.366 25.0525   5
  -2   4   7 421.768 21.8528  10
  -2  -4  -7 405.440 19.7227   4
  -4   2  -7 406.734 22.3675   5
  -2   4   7 385.966 19.1531   7
   4  -2  -7 407.514 26.9393   4
  -4  -2   7 423.170 19.1273   8
  -4   2  -7 378.537 45.8168   9
  -2   4   7 407.092 24.6983   5
   2  -4   7 429.635 29.6486   4
   4  -2  -7 438.420 27.6343   5
  -2   4   7 434.079 26.8138   6
   2  -4   7 400.250 24.9784   8
   2   4  -7 341.625 32.5148   9
  -2   4   7 428.541 29.6435   9
   4   2   7 359.135 21.2749   6
   4   2   7 384.186 22.4941   7
  -4   2   7 425.302 28.2465   6
   4  -2   7 433.662 26.2706   5
   4   2  -7 375.780 25.0208   9
  -4  -2  -7 395.314 23.9761   8
   2  -4  -7 387.623 20.8170   7
   4  -2   7 375.074 23.2726  10
  -4   2   7 419.468 26.7412   5
  -4   2   7 410.331 23.0324  10
   2   4   7 428.002 19.9274   6
   4  -2   7 403.975 25.0750   7
   4  -2   7 411.426 30.2569   4
   4   2  -7 423.259 26.5495   6
  -4   2   7 414.604 27.4742   4
   4  -2   7 408.369 27.2020   8
   2  -4  -7 422.930 25.9532   4
   2  -4  -7 405.593 21.4410   8
  -4  -2  -7 427.979 19.7772   4
  -4   2   7 418.111 22.1776   8
   2  -4  -7 415.708 22.3197  10
   2  -4  -7 404.121 25.1802   5
   4  -2   7 418.740 24.7972   6
  -2   4  -7 410.947 22.7617   6
  -4   2   7 427.650 22.1094   7
  -2   4  -7 395.377 46.4321   9
   2   4   7 428.432 23.9602   9
   2  -4  -7 419.062 33.0138   3
  -3   4   7 101.077 16.3580   6
  -4   3  -7 90.4814 15.2870   8
  -4   3  -7 82.7874 13.8675   6
  -3  -4  -7 76.6018 12.5273   4
   3  -4   7 85.4997 17.6033   4
   4   3   7 75.1998 9.69539   6
  -4   3  -7 29.9020 20.8584   9
   4  -3  -7 89.8837 18.1032   6
   4  -3  -7 93.6729 16.0155   5
   4  -3  -7 89.5294 11.6170   7
   4  -3  -7 88.8634 12.9437  10
  -4   3  -7 74.8508 10.8093   5
  -3   4   7 92.0225 9.80754  10
   3  -4   7 69.0198 11.6744   5
  -3   4   7 108.822 16.0841   5
  -3   4   7 77.2641 9.42247   7
  -4   3  -7 79.3492 8.06077  10
  -4   3  -7 86.6522 16.1725   7
  -3   4   7 89.2078 18.2300   9
   3  -4   7 86.9107 14.4295   8
   3  -4   7 90.1547 12.2741  10
   4   3   7 105.110 19.4807   9
   3  -4   7 80.4385 13.6175   7
   4  -3  -7 65.3313 13.2741   4
   4  -3  -7 104.211 13.8228   8
   3  -4  -7 87.4085 10.4933   7
   4  -3   7 102.012 17.8811   8
  -4   3   7 83.0669 14.9445   4
   4  -3   7 103.765 14.6815   7
   4  -3   7 80.0639 12.4344  10
   3  -4  -7 89.8254 12.5718  10
   3   4   7 81.9999 15.3827   9
   3  -4  -7 84.8735 14.3420   5
   3  -4  -7 89.0812 15.2117   4
  -3   4  -7 81.6329 12.6062   7
  -4  -3  -7 68.2579 10.8559   8
  -3   4  -7 90.9322 7.02493  10
  -3   4  -7 87.5205 13.1072   6
   3   4   7 77.6041 7.61072   6
   4  -3   7 74.1636 12.9862   5
  -4   3   7 72.9472 10.4776   7
  -4  -3  -7 80.0511 7.90238   4
  -3   4  -7 72.3999 29.3467   9
  -4   3   7 70.9745 13.3844   5
   3  -4  -7 82.0911 11.5846   8
  -4   3   7 86.9127 12.1040  10
  -4   3   7 94.8865 17.0468   6
   4  -3   7 77.5512 16.5029   4
  -4   3   7 90.1404 10.9980   8
  -3   4  -7 96.4972 8.82707   5
  -4   4  -7 21.0891 8.33591   6
  -4   4  -7 26.2105 6.40003   5
   4  -4  -7 14.9824 8.43869   7
   4  -4   7 20.4553 7.21116  10
  -4   4  -7 -14.233 45.4920   9
  -4   4  -7 19.9617 5.20185  10
   4  -4   7 23.9898 8.91002   5
   4  -4  -7 17.3827 7.61219   4
   4  -4   7 15.8519 18.0290   8
  -4   4   7 27.0063 11.1527   6
   4  -4  -7 17.1392 8.40906   5
   4  -4  -7 16.4935 11.3890   8
  -4   4  -7 16.5075 13.2180   7
   4   4   7 22.3724 17.3989   9
  -4   4   7 20.5617 6.81120  10
  -4   4   7 21.2842 8.59340   5
   4  -4   7 19.5042 12.6416   4
  -4   4   7 10.7509 7.96595   7
   4  -4  -7 20.7675 7.30844  10
  -5   0   7 63.1728 9.06055   7
   5   0   7 82.6374 14.4279   7
  -5   0   7 95.6687 15.3034   4
   0  -5  -7 86.6739 11.6350   4
  -5   0  -7 93.8191 16.7800   8
   5   0  -7 77.1957 14.2879   5
  -5   0   7 68.6999 9.76616  10
   0   5  -7 63.5482 24.6350   9
  -5   0  -7 71.3139 10.1304   5
   0   5   7 90.3260 12.2067   6
  -5   0  -7 75.5707 7.74587  10
   5   0   7 115.322 22.5022   9
  -5   0  -7 80.1506 13.7563   7
  -5   0  -7 84.0710 11.1137   4
   5   0   7 84.7298 15.7378   8
   5   0  -7 97.0274 17.8007   6
  -5   0   7 83.2592 13.7734   5
   5   0   7 78.5889 12.4133   6
   5   0   7 77.2347 13.1593   5
   5   0  -7 64.0329 9.64471   7
   0   5   7 91.5582 15.2717   9
  -5   0   7 76.1754 10.4111   8
   5   0   7 79.3644 13.3866  10
   5   0  -7 74.4346 11.7127  10
   5   0  -7 61.9231 14.4134   9
   5   1   7 386.793 26.0860  10
  -5   1  -7 416.067 32.8316   8
   5  -1  -7 447.667 31.8387   9
  -1   5   7 429.186 30.9513   9
  -5  -1   7 398.161 27.0221   4
  -5   1  -7 439.808 32.3944   7
   5   1   7 419.848 25.4760   6
   5   1   7 383.941 26.3886   7
   5  -1  -7 421.289 29.4107   5
   5  -1  -7 413.486 25.5252  10
  -5   1  -7 461.615 27.1304   6
   5  -1  -7 453.104 25.2417   8
   5  -1  -7 456.124 33.5393   6
  -5   1  -7 455.519 24.7521   5
  -5   1  -7 488.842 24.9501   4
  -5  -1   7 410.656 22.2576   8
   5  -1  -7 461.662 25.5901   7
  -5   1  -7 444.482 21.7923  10
  -1   5   7 463.116 27.2831   6
   5   1   7 424.071 33.9174   9
   5   1   7 381.164 26.4174   5
  -1   5  -7 494.102 60.6454   9
  -5   1   7 439.826 23.9815   7
  -5   1   7 437.428 29.4958   4
  -5  -1  -7 419.220 22.0472   5
  -5   1   7 435.695 24.9831   8
   5   1  -7 384.233 31.3668   9
   5  -1   7 417.189 26.5999  10
   1   5   7 468.366 25.9356   9
  -5  -1  -7 390.118 29.0252   8
  -5   1   7 446.937 29.0681   5
  -5  -1  -7 397.138 26.4367   7
   5  -1   7 467.429 28.4030   5
   1  -5  -7 470.902 26.9228   4
  -5   1   7 481.318 25.5268  10
  -5  -1  -7 402.001 22.2396   4
   5   1  -7 395.137 30.1863   6
  -5  -1  -7 423.369 19.8559  10
   5  -1   7 433.869 27.6450   6
   1  -5  -7 439.255 22.1935   8
   5  -1   7 439.257 30.8550   7
   5  -1   7 392.411 30.8124   8
   5  -2  -7 75.7580 16.0038   5
  -5   2  -7 55.8103 17.7200   7
  -5  -2   7 73.7322 11.8523   4
   5  -2  -7 87.0674 16.2767   4
  -5   2  -7 85.3642 12.0397   4
  -2   5   7 94.2041 22.6040   9
  -5  -2   7 69.6475 8.46594   8
   5   2   7 67.8803 11.0801   6
  -5   2  -7 101.972 13.3523   5
   5  -2  -7 78.5892 18.6875   6
  -5   2  -7 60.8769 17.5992   8
  -2   5   7 89.1716 15.6533   6
   2  -5   7 71.0580 16.7616   4
   5  -2  -7 72.9716 13.0407  10
   5  -2  -7 46.6457 11.0975   8
  -5   2  -7 89.7268 15.4133   6
   5  -2  -7 62.0948 12.1549   7
  -5   2  -7 69.6743 9.43222  10
   5   2   7 86.6482 23.3249   9
   5   2  -7 69.6020 14.3861   6
   5  -2   7 66.8958 16.5013   4
  -5   2   7 55.8848 11.5446   7
   5  -2   7 51.0706 12.1591   5
  -5   2   7 64.7636 10.9336  10
   2   5   7 79.5801 14.5785   9
   5  -2   7 34.4567 17.3589   8
  -5   2   7 57.0424 11.2961   8
   5  -2   7 83.3748 18.3302   7
   2  -5  -7 79.0468 13.9663   4
  -2   5  -7 71.8735 10.4354   6
   5  -2   7 63.4376 12.3862  10
  -5   2   7 80.5483 15.2382   4
  -5   2   7 51.1136 12.6688   6
  -2   5  -7 57.0880 43.3664   9
   2  -5  -7 55.1577 9.28647   8
  -5  -2  -7 111.718 16.1121   8
  -5  -2  -7 66.0096 8.59309   4
   5  -2   7 62.8621 12.0766   6
   5   2  -7 46.0270 15.1961   9
  -5   2   7 72.5060 14.3528   5
  -5   3  -7 205.377 14.8858  10
   5  -3  -7 291.833 35.9047   6
  -3   5   7 228.195 22.3589   6
   5  -3  -7 217.448 22.2115   7
  -5   3  -7 269.981 31.5654   7
   5  -3  -7 191.137 20.4771   4
  -5   3  -7 224.104 28.1053   8
   5  -3  -7 230.141 23.3533   8
   5  -3  -7 215.344 18.5236  10
   5   3   7 288.708 37.3598   9
   5   3   7 195.471 15.0314   6
  -3   5   7 235.645 34.9846   9
  -5   3  -7 233.715 21.6639   6
   3  -5   7 189.854 26.3059   4
  -5   3  -7 229.021 17.0415   5
   5  -3  -7 270.139 24.7929   5
  -3   5  -7 218.761 17.5618   6
  -5   3   7 237.456 21.7878   4
   5  -3   7 234.158 21.2455   5
  -5   3   7 165.881 18.3235   8
   5  -3   7 191.597 27.2509   4
   3   5   7 236.430 27.7498   9
   5  -3   7 233.901 28.0375   7
  -5   3   7 200.830 17.7538  10
  -5   3   7 236.263 21.4215   5
   5  -3   7 206.877 19.2725  10
   3  -5  -7 232.304 21.7980   4
  -3   5  -7 202.597 64.1844   9
   5  -3   7 180.884 28.8654   8
  -5   3   7 241.801 23.7360   6
  -5  -3  -7 223.148 13.4145   4
  -5   3   7 197.240 20.0276   7
   3  -5  -7 212.725 20.9043   8
  -4   5   7 33.3812 10.7315   5
  -4   5   7 53.8120 13.6601   6
  -5   4  -7 23.9818 8.37944  10
  -5   4  -7 47.9982 8.37599   5
   5  -4  -7 32.7980 11.5434   4
  -4   5   7 34.7608 11.9510  10
   5  -4  -7 24.2084 9.89820   5
   5  -4  -7 23.9615 12.4328  10
  -5   4  -7 28.8122 10.5665   6
   4  -5   7 21.9032 13.4918   4
   4  -5  -7 37.5861 10.8720   4
  -5   4   7 43.6168 14.5712   6
   5  -4   7 36.3193 11.9504  10
  -5   4   7 37.0684 10.6248   5
  -5   4   7 27.9265 13.4399  10
   5  -4   7 50.3140 10.0005   5
  -4   5  -7 29.3048 8.79670   6
   5  -4   7 30.2523 12.8175   4
  -6   0   7 137.017 17.3959   8
  -6   0  -7 133.116 26.1501   8
   6   0  -7 121.115 16.0041   7
  -6   0   7 127.690 11.9999  10
  -6   0   7 183.873 18.9854   4
   6   0   7 158.149 17.2170   6
   0   6   7 152.577 21.8512   9
  -6   0   7 163.858 16.4735   7
  -6   0  -7 159.198 24.8872   7
   6   0   7 118.334 17.1940  10
   6   0  -7 114.251 24.5074   9
  -6   0  -7 176.582 14.0122   4
   6   0   7 161.562 20.3618   5
   6   0   7 203.240 35.7289   9
  -6   0  -7 167.329 13.7549   5
   6   0  -7 151.271 21.4558   5
   6   0   7 194.908 26.0349   7
   6   0  -7 116.279 18.8129   6
   6   0  -7 135.212 14.9477  10
  -6   0  -7 144.515 11.2272  10
  -6   0   7 189.783 21.6305   5
   6  -1  -7 54.8406 13.3251   7
  -6   1  -7 46.8023 24.3426   8
   6  -1  -7 51.4610 12.1657  10
   6   1   7 66.2148 15.7793   5
   6   1   7 51.8389 10.2777   6
   6  -1  -7 74.9628 18.6971   6
  -6   1  -7 53.8411 8.65663  10
   6  -1  -7 70.3370 15.1285   5
  -6  -1   7 56.8073 12.5773   8
  -6   1  -7 44.4399 28.5579   7
   6   1   7 74.2362 29.7227   9
   6   1   7 110.643 32.0125   7
  -6   1  -7 75.7650 12.0287   5
   6   1   7 51.6710 12.8541  10
  -6  -1   7 64.2931 13.2897   4
  -6   1  -7 90.4087 12.0503   4
  -6  -1  -7 72.3186 7.06769  10
  -6   1   7 62.1424 10.5845  10
   6   1  -7 39.8886 11.7275   6
  -6  -1  -7 58.5158 9.80496   4
  -1   6  -7 39.3902 43.1817   9
  -6  -1  -7 61.4195 23.1370   8
   6  -1   7 59.5847 12.5657   5
   6  -1   7 65.8928 14.6741  10
   6  -1   7 52.4649 11.7166   6
  -6   1   7 50.7472 12.9375   7
   1   6   7 81.2854 14.9028   9
   6  -1   7 85.1438 23.4439   8
  -6   1   7 62.5545 13.4914   4
   6  -1   7 55.1837 24.5122   7
  -6   1   7 68.4972 13.9691   5
  -6   2  -7 417.698 28.3269   6
  -6   2  -7 454.854 25.2442   4
  -6   2  -7 432.137 25.9652   5
  -2   6   7 457.439 30.2230   6
   6  -2  -7 343.859 30.6800  10
   6  -2  -7 405.784 31.2318   5
   6   2   7 374.414 23.7228   6
  -6  -2   7 462.111 27.6092   4
  -6   2   7 426.416 30.4701   5
  -6   2   7 382.896 29.8152   4
  -6   2   7 395.908 28.5490  10
   6  -2   7 377.033 32.2106  10
   2  -6  -7 419.033 28.1640   4
  -6  -2  -7 443.439 22.2479   4
  -6   3  -7 17.8496 11.2407  10
   6  -3  -7 33.7244 17.4955  10
  -6   3   7 32.4021 12.5028   4
  -6   3   7 55.8912 16.7336  10
   0   0  -8 6.47227 3.02484   8
   0   0   8 8.66105 4.04331   9
   0   0   8 6.03437 3.27763   8
   0   0  -8 6.83419 2.54252   4
   0   0  -8 7.31804 3.67970   3
   0   0  -8 -0.3806 18.0755   1
   0   0  -8 5.57452 7.41913   1
   0   0  -8 6.66452 4.42769   7
   0   0  -8 11.3563 5.33620   2
   0   0  -8 4.75313 14.5868   9
   0   0   8 8.73773 2.66051   7
   0   0   8 10.5288 4.34605   4
   0   0   8 7.01687 3.11871   5
   0   0   8 9.63309 4.57207   1
   0   0   8 7.32077 3.46379   2
   0   0  -8 5.90460 3.12230   6
   0   0   8 11.0649 3.00655   6
   0   0   8 4.71146 4.33617   3
   0   0  -8 9.44664 2.86209   5
  -1   0  -8 294.587 15.8933   6
   1   0   8 277.498 15.3964   8
   1   0   8 265.384 19.6432   4
   1   0   8 277.074 67.8972   1
   0  -1  -8 279.555 20.1877   2
   1   0  -8 281.789 16.1142   7
  -1   0  -8 285.350 15.2080   8
   0  -1  -8 289.021 18.0321   3
   0  -1  -8 284.962 14.4288   4
   0  -1  -8 272.885 65.4076   1
  -1   0  -8 248.035 28.7241   9
  -1   0   8 289.822 15.8790   2
  -1   0  -8 305.013 13.7553   5
   1   0   8 287.586 20.5364   1
   0  -1   8 276.161 18.4720   4
   0  -1   8 270.440 14.5781   5
   0   1  -8 271.078 15.6390   7
   0   1  -8 287.969 14.7084   8
  -1   0  -8 321.308 42.3677   1
   0  -1  -8 300.773 15.0887   8
   0  -1  -8 279.084 15.6896   6
  -1   0   8 272.362 13.6954   8
   0  -1   8 281.791 18.4938   3
   1   0  -8 254.391 18.0686   3
   1   0  -8 297.054 15.4472   4
   1   0  -8 282.830 14.9440   5
   0   1   8 286.725 14.3624   6
   1   0   8 294.894 17.8387   2
   0  -1   8 293.122 16.6733   2
   1   0  -8 272.516 16.0936   6
   0   1  -8 325.652 44.6814   1
  -1   0   8 270.822 14.8444   6
   0  -1   8 292.989 13.6882   6
   0  -1   8 287.725 13.5929   7
   0  -1   8 287.954 14.8448   8
   0   1   8 266.626 14.5676   5
   0   1   8 306.818 14.7074   8
   0   1   8 298.544 16.7051   9
   1   0  -8 302.976 59.8623   1
   0  -1  -8 290.159 14.3162   5
  -1   0  -8 272.786 13.1801   4
  -1   0   8 280.099 16.2635   9
   0   1   8 292.266 13.3909   7
   1   0   8 271.668 16.1702   5
   0  -1  -8 239.073 30.5045   9
   0   1   8 295.461 19.3863   1
   1   0   8 289.824 17.5452   9
   0   1   8 305.673 17.7822   4
  -1   0  -8 282.314 16.1571   7
   1   0   8 281.840 20.2434   3
  -1   0   8 305.244 13.5058   7
   0   1  -8 290.627 16.2532   3
   0   1  -8 299.340 13.6919   4
  -1   0  -8 303.557 16.8731   3
  -1   0  -8 277.084 19.9517   2
  -1   0   8 286.120 15.1684   5
  -1   0  -8 317.047 31.1313   1
   0   1  -8 295.246 15.3329   6
   0   1  -8 308.572 32.8093   9
   1   0  -8 272.350 19.0956   2
   0   1   8 275.363 15.7422   2
  -1   0   8 269.246 16.8892   4
   1   0   8 276.709 14.0078   6
   0   1  -8 290.077 19.3582   2
   0   1  -8 289.629 13.2777   5
  -1   0   8 272.923 19.0682   3
   0  -1  -8 301.485 17.5166   7
   1   0   8 281.968 14.2503   7
   1  -1   8 235.766 15.2793   5
   1   1   8 228.326 15.0964   2
   1  -1   8 217.343 18.6272  10
   1  -1  -8 250.857 17.5823   2
  -1  -1  -8 224.753 11.7410   5
   1   1   8 228.694 12.1085   7
  -1   1  -8 166.096 31.9991   1
  -1   1   8 225.807 13.7511   6
   1   1   8 232.148 13.7104   8
   1   1  -8 229.737 15.9960   3
  -1  -1  -8 212.499 13.4522  10
   1  -1  -8 237.908 15.2562   6
  -1   1  -8 245.437 14.6715   6
   1   1   8 234.786 12.4990   6
  -1  -1  -8 219.189 14.2332   7
  -1  -1  -8 236.721 13.2781   8
  -1   1   8 237.268 19.2358   1
   1   1  -8 241.650 15.1411   7
  -1  -1   8 225.458 12.7508   5
   1  -1  -8 258.825 13.3595   8
   1  -1   8 224.194 12.4093   6
   1  -1   8 230.080 18.9525   3
   1  -1   8 180.502 17.7263   4
   1   1   8 239.831 15.1205   9
   1  -1  -8 243.102 14.1642   4
  -1  -1   8 222.486 12.4761   6
   1  -1   8 245.598 16.6635   2
   1  -1  -8 358.527 65.3150   1
   1  -1  -8 243.042 12.3070  10
   1   1  -8 221.300 12.7632   4
  -1   1  -8 228.513 31.0868   9
  -1   1   8 246.795 12.4567  10
   1   1  -8 246.160 18.0347   2
   1   1   8 253.871 14.9894  10
  -1   1   8 251.351 11.7769   7
   1   1  -8 235.533 12.6263   8
   1  -1  -8 237.113 13.8445   5
  -1  -1  -8 231.462 17.9198   2
   1  -1  -8 232.258 14.0965   7
   1   1   8 252.842 14.0854   5
  -1  -1   8 226.390 12.0887   8
   1   1  -8 210.800 49.5563   1
  -1  -1   8 221.341 11.1261   7
   1   1  -8 239.924 14.0447   6
  -1  -1   8 242.846 13.8965   2
  -1   1   8 229.411 14.1646   2
   1   1   8 234.071 17.7231   1
   1  -1   8 231.836 14.1571   8
   1  -1  -8 248.495 18.3106   3
  -1  -1   8 233.033 16.6435   3
  -1  -1   8 262.340 15.8223   4
  -1  -1  -8 227.053 13.4921   6
  -1   1  -8 214.114 17.3266   2
  -1   1   8 270.513 18.9560   3
  -1   1  -8 238.602 14.9763   3
  -1   1  -8 240.122 12.0195   5
  -1   1  -8 245.804 14.5960   7
  -1   1  -8 230.896 13.5887   8
  -1   1   8 247.087 15.3884   9
   1   1  -8 231.498 12.6434   5
   1   1   8 236.563 17.2060   3
  -1   1   8 230.748 13.6235   5
  -1   1   8 246.099 12.2711   8
  -1  -1  -8 231.707 14.6887   3
  -1   1   8 240.495 15.6274   4
   1   1   8 223.268 16.5878   4
   1  -1   8 232.476 12.7981   7
  -1   1  -8 223.695 11.3808   4
  -1  -1  -8 235.423 11.8031   4
   2   0  -8 209.238 17.6684   3
  -2   0  -8 185.594 13.3987   7
   0   2   8 181.815 12.6361   2
  -2   0   8 192.621 10.2429   7
  -2   0   8 203.850 10.8073   8
   2   0   8 177.202 14.4100   5
  -2   0  -8 187.197 10.6143   4
  -2   0  -8 192.058 11.1242   5
   0   2   8 185.304 10.5924  10
  -2   0   8 189.042 14.1221   4
  -2   0  -8 224.282 18.7458   2
  -2   0  -8 188.330 28.5251   9
   2   0   8 162.641 20.0916   3
   0   2   8 203.839 11.6775   8
  -2   0   8 240.917 18.5474   3
   2   0   8 178.299 18.8751   4
  -2   0   8 212.007 13.3077   5
   0   2  -8 183.123 9.82100   5
  -2   0  -8 197.593 13.7619   6
   0  -2   8 201.513 14.9976   3
   0   2  -8 220.863 32.1392   9
   0   2   8 207.508 16.2821   1
   0  -2   8 178.817 11.8107   8
   0   2  -8 141.599 28.6227   1
   0   2   8 197.122 13.7620   4
   0  -2  -8 202.063 10.4542  10
  -2   0  -8 179.975 12.7292   8
   0  -2  -8 182.454 16.7887   2
  -2   0   8 205.086 13.3113   2
   0   2  -8 191.713 13.7447   8
   0  -2   8 167.337 14.8382   4
  -2   0  -8 192.025 9.42969  10
   2   0   8 187.205 15.8918   2
   0   2   8 167.200 11.6114   5
   0  -2  -8 197.627 11.9410   5
   0  -2  -8 177.869 12.8377   6
   0   2   8 188.588 11.7567   6
   0   2   8 197.061 10.3644   7
   2   0  -8 192.628 11.3946   8
   2   0  -8 196.407 11.9883   7
   0   2  -8 166.982 14.9646   2
   2   0   8 205.393 13.9815   8
   2   0   8 188.298 15.4140   9
   2   0   8 151.303 13.1892  10
  -2   0  -8 191.444 14.1190   3
   2   0  -8 206.009 17.5510   9
   0   2  -8 173.611 11.6985   6
   0  -2   8 192.037 11.5648   5
   0  -2  -8 200.969 14.8464   7
   0  -2   8 193.050 10.7863   7
   2   0   8 188.865 18.5621   1
   0   2   8 192.721 13.7875   9
   0   2  -8 184.613 12.2794   7
   2   0   8 192.300 12.1839   7
   2   0   8 194.091 12.2756   6
   0  -2   8 199.483 14.0756   2
   2   0  -8 172.860 12.8827   4
  -2   0   8 203.299 11.3967  10
   2   0  -8 196.043 11.3722  10
   0  -2  -8 188.835 15.3585   3
   2   0  -8 182.774 12.7017   5
   2   0  -8 189.436 14.2675   6
   0  -2  -8 189.602 11.8791   4
   0   2  -8 176.402 12.2180   3
   2   0  -8 178.113 15.0473   2
   0   2   8 169.429 15.2582   3
  -1  -2  -8 1.64276 4.33375   2
   1   2  -8 2.54650 2.82868   6
   2  -1  -8 7.76111 3.47519   8
  -2   1  -8 4.49426 4.91415   2
   2  -1  -8 4.31186 5.04199   3
  -2   1  -8 6.69275 4.03517   8
  -1  -2  -8 0.80764 2.25467   4
   1  -2   8 4.59138 4.44784  10
  -2   1  -8 0.38662 2.21177   4
  -1   2   8 4.23461 2.76964   7
  -2  -1   8 3.27535 3.30955   2
  -1  -2  -8 2.05153 2.48175   5
   2   1   8 -1.1600 4.30116   5
  -2   1  -8 -0.8163 2.46579   3
  -1   2   8 3.43463 3.40349   4
   2   1   8 -0.2335 3.61917   6
   2   1   8 0.89397 2.54565   7
  -1   2   8 2.11945 3.37676   2
  -2   1  -8 14.3278 18.4802   9
  -1  -2  -8 2.74662 4.10374   7
  -1   2   8 2.56535 4.61306   9
   2  -1  -8 1.23202 3.77011   6
   2   1   8 0.91457 4.29971  10
   1  -2   8 4.61319 4.95795   5
   2   1   8 -0.6573 3.00160   2
   2  -1  -8 1.94610 3.63432   5
  -1   2   8 2.14512 4.29841   1
  -1   2   8 7.61225 3.28325   8
   2  -1  -8 2.18644 6.64854   9
  -2  -1   8 3.27344 2.80058   5
  -2   1  -8 5.22518 3.01016   5
  -2   1  -8 3.43094 4.33707   6
  -2   1  -8 -0.0326 3.26445   7
   2   1   8 6.84437 6.04712   4
   2   1   8 -6.3366 2.89519   8
   2   1   8 1.70028 5.29756   3
  -1  -2  -8 3.11047 3.47964   3
   1  -2   8 4.32410 3.11504   7
   2  -1  -8 4.08823 2.96099  10
  -2  -1   8 3.50936 2.48682   8
  -2  -1   8 2.68012 3.92338  10
   1  -2   8 2.18551 3.79239   8
   2   1   8 3.34048 4.11480   1
   2  -1  -8 1.65820 3.38270   4
  -2   1  -8 8.15611 11.5650   1
  -1   2   8 1.95278 2.86471   5
   1  -2   8 9.27776 4.69379   2
  -2  -1   8 0.56960 2.28165   7
   2  -1  -8 2.20093 3.00823   7
   1   2  -8 -22.119 17.2339   1
   1   2  -8 6.13605 5.00340   2
   1   2  -8 7.89726 4.17459   3
  -2   1  -8 6.49890 2.50984  10
  -1  -2  -8 5.78889 3.77210   8
   1   2  -8 -0.1584 3.43640   7
   1   2  -8 8.79127 23.3528   9
   1  -2   8 2.65117 6.24069   3
  -1  -2  -8 4.71311 1.94637  10
   1   2  -8 7.74178 2.77134   5
   1  -2   8 9.00395 7.09788   4
  -1   2   8 5.93056 2.71619  10
  -1   2   8 6.86778 5.37253   3
   2   1   8 0.92105 3.89358   9
  -2  -1   8 5.99742 4.04549   3
   2  -1   8 4.91974 7.37395   4
  -1   2  -8 -3.1984 9.37565   1
  -2  -1  -8 5.26381 3.05160   5
  -1  -2   8 6.45103 2.55189   7
   1   2   8 6.28751 3.46500   2
   1   2   8 2.67747 3.42798   8
  -1  -2   8 1.52143 2.21104   5
   2   1  -8 19.0499 18.4112   1
   1  -2  -8 7.26427 3.75118   8
   1  -2  -8 6.52617 2.58348  10
  -1   2  -8 8.76441 5.01732   2
  -2  -1  -8 5.81013 4.42921   3
  -1   2  -8 9.12249 4.13890   7
  -1   2  -8 2.29152 2.20207   4
   2  -1   8 15.7764 6.26241   2
   2   1  -8 3.74304 2.98834  10
  -1  -2   8 3.39659 3.53120   4
  -1  -2   8 7.40879 3.88525   3
  -1   2  -8 3.31387 3.62881   3
  -2  -1  -8 1.45531 2.67889   4
   2   1  -8 4.46478 6.95805   9
  -2   1   8 2.75876 2.72411   7
   1   2   8 0.37135 2.52088   5
   1   2   8 4.01037 2.73945   6
   1  -2  -8 7.51454 3.65907   5
  -2  -1  -8 -1.1754 2.99444   8
  -2  -1  -8 4.46016 2.38407  10
  -2   1   8 1.75302 2.62972  10
   1   2   8 2.00642 2.55883   7
   2   1  -8 2.61900 3.41677   7
  -1  -2   8 1.21364 3.03611   8
   2   1  -8 6.57494 3.51026   8
  -1   2  -8 0.80510 2.98301   8
   2  -1   8 12.9117 6.29657  10
  -1   2  -8 1.20027 3.87146   6
   2  -1   8 -1.9566 6.33382   3
   1  -2  -8 4.34056 5.02883   2
   1  -2  -8 2.05080 3.83979   3
   1   2   8 1.94134 3.85005   9
  -1   2  -8 10.3310 19.5022   9
  -1   2  -8 10.3596 2.44363  10
   1  -2  -8 4.48623 3.48877   4
  -2   1   8 -1.9107 3.12915   2
  -1  -2   8 6.58935 3.36404   2
  -2   1   8 2.93109 4.46494   9
   2   1  -8 -1.9008 3.50281   3
   2  -1   8 -0.1657 5.03938   5
   2   1  -8 6.45478 3.86733   6
  -2   1   8 3.47164 3.89475   6
   1   2   8 5.02777 3.79407   1
   1  -2  -8 10.2258 4.22999   7
  -2  -1  -8 -1.3439 3.27873   7
  -2   1   8 6.16448 2.90697   8
   2   1  -8 4.56412 2.80788   5
   2   1  -8 10.4101 5.52075   2
   1   2   8 0.65670 3.09904   4
  -2  -1  -8 -0.4804 3.90039   2
  -1   2  -8 4.08580 2.59865   5
  -2  -1  -8 6.08828 4.01453   6
   1   2   8 4.17628 2.53180  10
   1  -2  -8 7.64366 4.49225   6
   2  -1   8 5.16778 3.34801   7
  -2   1   8 3.01587 3.36621   5
   2  -1   8 -1.3217 3.06806   8
  -2   1   8 19.1325 7.87503   3
   1   2   8 2.42651 4.04576   3
  -2   1   8 -1.4552 2.55368   4
   2  -1   8 1.69083 3.27868   6
   2   2   8 559.877 25.7365   5
   2   2   8 539.522 24.0140   6
   2   2   8 564.705 24.6830   7
   2   2   8 556.456 30.1927   3
  -2   2  -8 556.676 23.8463   5
  -2   2   8 507.507 24.6881  10
  -2  -2  -8 575.491 21.7886  10
  -2   2   8 559.561 29.8874   9
   2   2   8 531.073 29.2810   2
   2  -2   8 514.326 32.5336   3
   2  -2  -8 562.064 28.3679   5
  -2  -2  -8 543.785 22.9598   5
  -2   2   8 579.016 35.5198   3
   2  -2   8 489.121 26.5746  10
  -2  -2  -8 544.185 26.3188   7
  -2  -2  -8 543.222 25.6295   8
  -2   2  -8 564.355 44.6607   9
  -2   2  -8 549.167 22.1369  10
  -2  -2   8 513.074 22.5413   8
   2  -2  -8 553.045 25.1932   7
   2  -2  -8 602.695 36.2287   3
   2   2  -8 440.892 28.5665   2
   2   2  -8 541.875 26.1014   7
   2  -2   8 560.041 32.6855   2
   2  -2   8 520.908 32.8935   4
  -2  -2  -8 580.024 31.8809   2
  -2  -2  -8 543.385 26.6112   3
  -2  -2  -8 557.424 23.1220   4
   2  -2   8 593.954 25.0696   6
   2  -2  -8 513.505 27.8137   4
  -2   2   8 560.778 23.5950   7
  -2   2  -8 484.511 43.4860   1
  -2   2   8 527.690 27.4902   2
  -2   2  -8 549.947 27.8584   3
   2   2  -8 547.932 26.6185   6
  -2   2  -8 543.087 23.1823   4
   2   2   8 534.949 28.3471   9
   2  -2  -8 551.617 25.0167   8
   2  -2   8 524.431 27.4974   8
   2   2  -8 562.079 31.4400   3
   2   2   8 551.336 24.6874  10
  -2   2   8 577.246 23.9335   8
   2  -2  -8 525.692 25.3242  10
  -2   2   8 521.218 28.2763   6
  -2   2  -8 514.213 26.3300   6
  -2   2  -8 557.611 27.8418   7
   2   2  -8 533.822 25.2455   5
   2  -2   8 535.771 28.0136   5
   2  -2  -8 546.159 30.2465   6
   2  -2   8 553.481 26.4252   7
  -2   2   8 545.618 29.3539   4
  -2   2   8 559.206 28.1409   5
  -2   2  -8 543.932 33.9685   2
  -2   2  -8 555.146 27.5739   8
   0   3  -8 207.055 12.8921   6
   3   0  -8 181.095 14.6137   5
   3   0   8 188.452 14.1467   6
   3   0  -8 192.046 12.7722  10
  -3   0   8 217.370 11.7988   7
  -3   0  -8 230.818 21.0160   2
  -3   0  -8 200.680 15.0263   8
   3   0   8 188.480 13.8571   7
  -3   0  -8 196.554 15.4710   3
   3   0  -8 195.952 12.7092   7
   0   3   8 214.896 18.3025   3
  -3   0  -8 197.777 10.5189  10
   0  -3   8 229.332 13.7422   8
  -3   0  -8 212.095 12.2562   4
   0   3   8 214.619 11.8548  10
   3   0   8 187.165 15.2673  10
  -3   0   8 196.477 15.7642   4
  -3   0   8 200.063 14.8818   5
   0  -3  -8 199.334 13.3313   5
  -3   0  -8 199.174 15.0219   6
  -3   0  -8 199.492 12.0861   5
   3   0  -8 229.596 17.8985   9
   0  -3  -8 204.626 18.0018   3
   0  -3  -8 209.354 13.7011   4
   3   0  -8 185.321 19.5903   3
   0  -3  -8 186.304 15.9700   7
   0  -3  -8 226.399 11.9326  10
   3   0  -8 194.600 16.5296   2
   3   0  -8 204.268 16.9361   6
   3   0   8 195.677 18.2938   2
   0   3  -8 187.476 29.6315   9
   0   3   8 202.626 15.3906   9
  -3   0  -8 196.593 15.3532   7
   3   0  -8 197.472 15.1650   4
  -3   0   8 214.553 15.3281   2
  -3   0   8 220.933 20.5439   3
   3   0   8 171.734 22.1097   4
   3   0   8 176.163 15.7430   5
  -3   0   8 197.867 15.1741   6
   3   0   8 205.032 16.1827   8
   3   0   8 201.941 18.2510   9
  -3   0   8 221.557 12.3072   8
   0  -3  -8 190.086 17.7187   2
   0   3   8 194.333 13.2001   6
   3   0  -8 199.613 12.4434   8
   0   3   8 207.447 13.8165   2
   0  -3   8 162.725 15.4416   4
   0   3   8 203.640 11.0843   7
   3   0   8 207.270 19.9467   3
   3   1   8 97.2941 13.0962   5
   1   3  -8 155.519 26.7736   9
   3   1   8 101.166 11.2036   7
  -3  -1   8 109.172 7.75444   7
   3   1   8 89.1603 15.8680   3
  -1  -3  -8 120.474 10.0169   8
   3  -1  -8 116.866 14.3470   5
  -1   3   8 114.039 13.3846   9
  -1  -3  -8 120.762 12.3916   3
  -3   1  -8 109.000 8.82733   4
  -3   1  -8 109.709 9.14643   5
  -3   1  -8 107.196 11.8232   6
  -1  -3  -8 110.969 8.93681   4
  -1  -3  -8 111.861 8.90777   5
  -1  -3  -8 143.137 11.6210   7
   1  -3   8 90.3366 14.3361   4
   3  -1  -8 112.144 9.60048  10
   1  -3   8 115.362 9.95727   7
   3  -1  -8 117.633 14.4995   9
   3   1   8 96.9988 15.4394   2
   1  -3   8 120.140 11.1705   8
   1   3  -8 102.824 8.93775   6
   3  -1  -8 109.967 11.8173   4
   3   1   8 123.269 14.0835   8
  -1   3   8 106.399 10.6051   2
  -3  -1   8 117.874 8.38048  10
   3  -1  -8 130.714 15.9554   2
  -3   1  -8 98.4233 25.3818   9
  -3   1  -8 102.057 13.1994   8
   3  -1  -8 129.916 17.3984   6
  -3  -1   8 106.782 10.3273   2
   3  -1  -8 122.878 9.85333   7
   3  -1  -8 114.287 9.76604   8
  -3  -1   8 100.732 10.1475   5
   3   1   8 110.154 13.7706   9
   1  -3   8 121.685 11.7317   5
   3   1   8 117.466 10.8285   6
  -3  -1   8 110.164 16.6700   3
  -1   3   8 109.294 8.15705   7
   1  -3   8 119.678 16.6960   3
  -1  -3  -8 116.294 14.5184   2
  -1   3   8 122.691 17.3290   3
  -1   3   8 110.212 8.78776  10
  -3   1  -8 117.322 7.76492  10
   1  -3   8 125.331 16.3377   2
  -1   3   8 109.171 10.9986   6
  -3   1  -8 112.166 13.5755   7
  -1  -3  -8 115.136 9.59477  10
  -3  -1   8 120.689 11.7496   4
   3   1   8 82.6803 11.9588  10
  -3  -1   8 105.114 8.21114   8
  -1   3   8 106.498 8.99743   8
   3  -1  -8 122.157 19.8981   3
  -3   1  -8 112.210 11.1809   3
  -1   3   8 110.852 10.5931   5
   3   1  -8 111.225 18.0555   3
   3   1  -8 111.507 8.72858  10
   1   3   8 100.661 10.6462   9
   1  -3  -8 125.334 11.5216   5
  -3   1   8 115.261 9.15687   8
   1   3   8 112.785 8.26060   7
  -3   1   8 115.817 12.5190   6
  -3  -1  -8 116.432 11.5038   8
   3   1  -8 100.455 10.4612   5
   1  -3  -8 107.995 9.73000   8
  -1   3  -8 107.702 16.0435   2
   3  -1   8 115.522 12.6913   7
  -3  -1  -8 115.723 8.61409   4
  -3  -1  -8 121.727 17.9192   2
  -1  -3   8 113.588 8.97872   8
  -3  -1  -8 104.711 12.3507   7
   3  -1   8 121.689 12.4880  10
  -3   1   8 112.584 9.27751  10
   3   1  -8 117.955 13.7783   9
   3  -1   8 127.122 18.4547   4
   1  -3  -8 107.502 14.3694   2
   3   1  -8 113.881 15.0407   6
  -3   1   8 114.060 13.4082   2
   3  -1   8 103.099 13.1813   5
  -1   3  -8 141.917 27.7522   9
   1  -3  -8 119.314 10.8488   7
   3   1  -8 106.490 13.5096   2
   3   1  -8 111.080 9.39217   7
  -3  -1  -8 116.687 11.6171   3
   1   3   8 125.399 10.7530   2
  -3  -1  -8 114.688 7.12929  10
   3  -1   8 142.398 20.2449   2
   1   3   8 116.165 15.0971   3
   1   3   8 103.208 8.99538   5
   1   3   8 101.385 8.53680   6
  -1   3  -8 94.0094 9.97443   3
  -1  -3   8 114.356 10.6061   4
   1  -3  -8 123.370 9.12299  10
   3  -1   8 108.481 13.8050   8
  -3   1   8 112.547 12.3533   4
  -1   3  -8 127.088 7.28314  10
  -3   1   8 115.812 18.8146   3
  -1   3  -8 110.276 7.78436   5
  -1   3  -8 108.268 10.8165   6
   1   3   8 99.7146 7.33928  10
  -3  -1  -8 109.366 8.82473   5
  -3   1   8 118.897 9.11464   7
   1  -3  -8 110.678 10.9611   4
   1  -3  -8 100.018 16.5056   3
  -1   3  -8 122.278 11.2514   7
   3  -1   8 111.075 18.3125   3
  -3   1   8 115.380 11.6665   5
   3  -1   8 97.8018 10.8874   6
   2  -3   8 2.62250 4.48072   2
  -3   2  -8 4.67543 4.76725   8
  -2   3   8 2.14746 3.96828   3
  -2  -3  -8 -2.5889 3.60686   8
   3   2   8 -1.9890 4.83995   5
  -2   3   8 -1.7098 2.62735   7
  -3  -2   8 -1.4689 2.60528   8
   3   2   8 -5.5255 3.04597  10
  -2  -3  -8 -2.6559 2.17344   4
  -2   3   8 1.67439 6.28257   9
  -3   2  -8 -0.3951 4.09423   7
  -3   2  -8 9.48820 6.90323   2
  -3   2  -8 6.17629 3.22212   3
  -3   2  -8 3.99601 2.83810   4
   2  -3   8 0.10937 3.62578   7
   2   3  -8 0.40285 3.35465   6
   3   2   8 -0.8915 2.96487   7
   2  -3   8 5.44822 7.61663   4
   2  -3   8 0.92293 5.44659   5
  -3   2  -8 -2.0098 4.54026   6
   2  -3   8 -0.4686 4.66519   8
   3   2   8 3.03189 5.25391   9
   3  -2  -8 -1.3242 2.32214  10
   2   3  -8 -11.932 22.9472   9
  -3   2  -8 -2.2973 2.60393   5
  -2   3   8 10.7026 5.54755   6
   3  -2  -8 9.16276 7.98194   3
   3   2   8 10.0618 6.12444   2
   3  -2  -8 0.15358 5.76706   6
  -3   2  -8 8.98179 17.6102   9
  -3  -2   8 -1.8737 2.91689   4
   3  -2  -8 0.57723 4.47926   5
   2  -3   8 2.51477 5.20085  10
   3  -2  -8 1.32806 2.96691   7
  -2   3   8 2.54555 1.99442  10
   3  -2  -8 3.89248 3.57698   8
   3   2   8 0.02160 5.71047   3
   3  -2  -8 -1.2573 3.23221   2
   3   2   8 3.21305 4.59964   6
  -2   3   8 -2.2549 3.11725   2
   2  -3   8 3.31643 7.49071   3
  -2   3   8 -2.2559 3.01779   8
  -3   2  -8 0.59258 2.06643  10
   3  -2  -8 0.92573 3.80545   4
  -2   3   8 5.09799 4.16923   5
  -2   3  -8 4.85766 2.90684   3
  -3   2   8 -1.9309 3.62978   2
  -3  -2  -8 -0.3522 4.33390   7
  -3   2   8 1.59196 3.48256   4
  -3  -2  -8 0.27630 3.06242   5
   2   3   8 -0.6778 3.93431   9
  -2   3  -8 1.80161 1.71559  10
   2   3   8 -2.1651 2.42749   6
   3  -2   8 0.33923 3.86221   6
  -3  -2  -8 -2.3288 2.60090   4
   2  -3  -8 0.15604 5.64060   3
   2  -3  -8 0.09856 3.24431   4
   2  -3  -8 0.41862 3.95644   5
  -3   2   8 -1.9369 1.85689  10
   2  -3  -8 2.29970 3.73610   8
  -2   3  -8 1.51104 6.16543   2
   3  -2   8 -6.9376 4.48996  10
  -3  -2  -8 3.83772 5.92012   2
  -3   2   8 3.89560 3.28052   7
  -3   2   8 2.49067 3.54024   5
   3  -2   8 -5.7437 3.48124   8
  -3  -2  -8 1.87402 4.18533   8
  -3  -2  -8 -5.1464 3.30899   3
  -3  -2  -8 0.31360 2.18932  10
  -3   2   8 2.40697 3.36288   8
  -2   3  -8 1.12291 2.68745   5
   3  -2   8 3.96273 4.45525   7
   3   2  -8 -2.1653 5.81105   9
  -2   3  -8 4.54258 4.50949   7
   3  -2   8 7.71272 6.88299   3
   2  -3  -8 3.00853 2.69945  10
  -3   2   8 -2.2535 5.59414   9
  -2   3  -8 -0.8536 4.13514   6
   3  -2   8 -2.9918 5.54512   5
   3   2  -8 6.45216 5.35516   6
   3  -2   8 -5.1258 6.64980   4
  -3   2   8 -2.3912 4.02472   3
  -2   3  -8 10.4515 16.8559   9
   2  -3  -8 0.30565 3.15849   7
  -3   2   8 4.27445 5.00209   6
   3  -2   8 6.89596 5.68075   2
   3  -3   8 57.5083 10.4087   7
  -3   3  -8 43.9306 9.92225   3
  -3   3  -8 52.9788 7.89767   5
   3  -3   8 31.0232 9.31278   5
   3   3   8 47.5680 7.28803   6
  -3   3  -8 27.3084 19.3416   9
  -3   3   8 63.7037 11.8717   4
  -3  -3   8 68.9858 9.53651   4
  -3  -3  -8 59.4892 9.33001   8
  -3   3  -8 50.6120 5.83463  10
   3  -3   8 49.3160 15.4489   3
  -3  -3  -8 53.7854 6.74025   4
  -3   3  -8 45.0938 9.93540   6
  -3   3   8 59.6753 8.98710  10
   3   3   8 55.8791 12.3395   9
   3  -3  -8 44.8050 7.89636   7
   3  -3  -8 42.0975 7.68876   8
   3  -3   8 40.3723 9.25883  10
  -3   3   8 52.9550 14.0208   9
  -3   3   8 47.6474 7.20977   7
   3  -3  -8 50.9556 9.00508  10
   3  -3  -8 67.1934 12.5203   5
  -3   3   8 49.9766 10.3580   5
   3  -3  -8 63.5650 12.2804   4
   3  -3   8 49.8861 14.2797   4
   3   3  -8 59.4631 9.81031   6
  -3   3   8 45.3909 10.7763   6
   3  -3   8 60.9724 12.3482   8
  -3   3  -8 64.2454 12.0661   7
  -3   3   8 55.5841 8.07305   8
   3  -3  -8 48.9190 12.4059   6
   4   0   8 -3.9428 5.18949   8
   0  -4  -8 -3.2519 2.74791   4
   4   0   8 6.55005 6.50248   3
   4   0   8 1.67817 9.77742   4
   4   0   8 -0.8544 4.15199   7
  -4   0   8 -3.6449 3.02206   8
  -4   0   8 -5.1658 4.16650   2
   4   0  -8 -6.8041 4.18735   2
  -4   0   8 0.31374 4.03240   5
   0  -4   8 5.30300 5.74753   4
   4   0   8 0.44927 5.79330  10
  -4   0  -8 0.46403 2.86284   4
  -4   0  -8 1.15735 3.75590   5
  -4   0  -8 -2.0426 5.22298   6
  -4   0  -8 2.36624 5.84891   7
  -4   0  -8 1.32526 5.24363   8
  -4   0   8 0.46119 3.94987   4
   4   0  -8 0.20648 5.29164   3
   0   4   8 1.07620 5.57379   9
   4   0   8 -4.5693 4.58419   6
   4   0  -8 0.80978 5.88443   9
  -4   0   8 5.61158 2.95278  10
  -4   0  -8 -0.4179 2.41886  10
   4   0  -8 5.36117 5.54115   5
   4   0   8 -0.5790 6.27991   5
   0   4  -8 1.66678 3.67657   6
   4   0  -8 0.98663 3.21205   7
   0   4  -8 5.52966 21.1977   9
  -4   0   8 2.59115 3.35793   7
  -4   0   8 -1.5632 4.82735   3
   4   0  -8 -2.8696 4.26430   6
  -4   0  -8 15.8083 5.93673   3
   4   0  -8 -0.3940 2.26494  10
   0   4   8 1.31650 3.58424   6
   4   0   8 3.15300 6.47399   9
   4   1   8 50.6576 14.2986   3
  -4   1  -8 73.1474 12.7740   7
   4  -1  -8 53.7005 11.3725   4
   4   1   8 63.5391 10.1609   7
   4  -1  -8 52.2349 12.7419   6
   4  -1  -8 40.7012 7.24230   7
  -4   1  -8 57.1100 8.30978   4
  -4  -1   8 54.6260 6.17584  10
  -1   4   8 54.3154 6.28742  10
   4  -1  -8 57.4012 9.27070   8
  -4  -1   8 63.5803 7.72150   8
   1   4  -8 37.8051 21.5443   9
  -4   1  -8 56.8758 6.41700  10
   4   1   8 84.6113 16.2260   9
  -1   4   8 40.9213 5.95423   7
   4   1   8 62.1717 12.2578   5
   4  -1  -8 39.5338 11.2802   9
  -1  -4  -8 50.3165 8.06090   4
  -1   4   8 74.0724 13.8989   9
   4   1   8 44.8361 10.5610  10
  -4  -1   8 88.1252 13.0130   4
  -1   4   8 44.0219 9.55239   6
   4  -1  -8 40.1461 8.04687  10
  -1   4   8 54.4425 9.30562   5
  -4  -1   8 58.7285 6.84019   7
   1  -4   8 39.0526 12.3226   4
  -4   1  -8 68.1417 12.8967   8
   1  -4   8 62.0481 10.2087   8
   4   1   8 57.0557 9.95422   6
  -4   1  -8 64.8464 11.1204   6
   4  -1  -8 72.4488 12.7375   5
  -1  -4  -8 60.1461 8.06495   8
  -4   1  -8 60.4693 8.87294   5
  -4  -1   8 69.1608 10.8396   5
  -4  -1  -8 67.5575 6.05310  10
   4  -1   8 53.0484 10.6569  10
  -4  -1  -8 69.6225 8.46757   4
  -1   4  -8 40.5917 8.08862   6
   1   4   8 66.9506 8.98460   6
   4   1  -8 38.5874 10.1803   9
  -4  -1  -8 69.6309 10.9177   3
  -4   1   8 58.3572 8.39583   8
  -4   1   8 75.0621 12.4917   5
   1  -4  -8 51.8943 8.04288   8
  -4  -1  -8 67.3182 8.36846   5
   4  -1   8 54.4697 11.7517   8
  -4   1   8 43.5643 7.08498   7
  -4   1   8 40.0543 9.35399   4
   1  -4  -8 39.0255 7.98564   7
  -4  -1  -8 71.4532 11.5271   7
   1  -4  -8 54.8754 10.2865   4
   1  -4  -8 40.4456 8.41484   5
   4   1  -8 76.5624 14.6908   6
   4  -1   8 57.8880 10.4175   7
   4  -1   8 46.3183 13.9575   4
   4   1  -8 65.6534 7.38054  10
   1   4   8 71.5181 11.5157   9
  -4   1   8 49.5743 8.31524  10
   4  -1   8 48.8494 9.76055   6
   4   1  -8 79.2196 12.1624   5
   4  -1   8 35.9443 9.70137   5
  -4  -1  -8 58.2474 11.2045   8
  -4   1   8 72.1384 13.3206   6
   4   1  -8 52.5775 7.63331   7
  -1   4  -8 51.5723 24.6524   9
   4  -2  -8 76.4585 14.2377   5
  -2   4   8 65.9800 11.0206   5
  -2   4   8 72.7485 8.22207  10
  -2   4   8 71.3832 8.11749   7
  -4   2  -8 41.1893 23.9829   9
  -4  -2   8 71.3966 7.70024   8
   4   2   8 97.7049 12.5063   7
  -2   4   8 93.8070 16.6938   9
   4  -2  -8 67.3208 13.4281   4
   4  -2  -8 70.9345 9.76473   7
  -4   2  -8 84.7651 12.9868   6
   2  -4   8 85.7358 17.9825   4
   4   2   8 94.0150 17.5732   9
   4   2   8 62.5436 11.6280   5
  -4   2  -8 65.0009 13.2351   7
   4  -2  -8 76.0112 11.4956  10
  -4   2  -8 83.3843 14.8399   8
  -2  -4  -8 81.6157 9.45502   8
   4  -2  -8 79.5573 10.8285   8
   4   2   8 59.6709 9.24663   6
  -4   2  -8 66.8325 9.53615   5
  -4  -2   8 93.8796 13.3576   4
   2   4  -8 100.663 24.5804   9
   2  -4   8 72.4567 11.7089   8
  -2   4   8 69.7629 12.7855   6
   4  -2  -8 95.5369 18.4719   6
  -2  -4  -8 84.6068 8.36685   4
  -4   2  -8 73.5263 7.70042  10
   4   2   8 59.3951 10.0375  10
  -4   2  -8 92.0349 9.31872   4
  -4   2   8 84.6816 14.3821   5
  -2   4  -8 50.7774 25.8172   9
   2   4   8 91.3791 12.5142   9
  -4   2   8 104.436 16.8576   6
   2  -4  -8 84.6033 8.87226  10
  -4  -2  -8 64.9958 8.85140   5
  -4  -2  -8 78.3052 13.2823   7
   4  -2   8 55.0913 15.3046   4
  -4   2   8 95.9820 16.3394   4
  -4  -2  -8 83.7613 8.28590   4
   4  -2   8 71.8180 12.6994   5
   4  -2   8 88.2625 15.9173   8
   2  -4  -8 88.6005 14.5253   4
  -4   2   8 84.5655 9.87643   7
   2  -4  -8 72.6494 9.64826   8
   4   2  -8 76.4248 13.7931   6
   2  -4  -8 52.0072 8.57142   7
   2   4   8 81.0986 8.14309   6
  -2   4  -8 67.6960 10.9822   6
   4  -2   8 62.6321 11.4150   6
  -4   2   8 83.4307 10.3124   8
   2  -4  -8 75.7749 12.3657   5
   4  -2   8 91.8856 14.0567   7
  -4  -2  -8 81.5443 12.5052   8
  -4   2   8 76.8941 11.0668  10
   4  -2   8 73.1617 12.3362  10
  -3   4   8 89.7248 16.3383   6
  -3  -4  -8 72.9359 7.84474   4
  -4   3  -8 73.0781 7.80586  10
   3  -4   8 65.8000 16.5572   4
   4  -3  -8 55.2112 11.5785   8
  -3   4   8 78.0565 11.1582  10
   4  -3  -8 72.5232 12.0479  10
   3  -4   8 69.7175 14.5726   8
   3  -4   8 78.7609 16.5180  10
   3   4  -8 -26.550 39.1557   9
   4  -3  -8 76.2585 14.6586   4
  -3   4   8 68.9632 9.33509   7
   4   3   8 97.0534 21.9858   9
  -4   3  -8 82.6145 17.6748   7
   4  -3  -8 73.7464 15.7803   6
  -4   3  -8 76.8719 10.1121   5
  -4   3  -8 85.8872 14.1504   6
   4  -3  -8 67.5102 11.3135   7
   4  -3  -8 98.0750 17.4888   5
  -3   4   8 82.7608 13.9008   5
   4   3   8 50.1510 8.94498   6
  -3   4   8 112.926 19.7733   9
   3  -4  -8 86.6542 14.4841   5
  -4   3   8 71.4212 11.5238  10
  -4   3   8 60.3470 9.75214   8
   3  -4  -8 65.1821 11.2121  10
   4  -3   8 98.7609 15.1447   7
   4  -3   8 100.254 19.8761   8
  -3   4  -8 64.7582 14.0739   7
  -4   3   8 85.1583 15.1756   5
  -4   3   8 67.1115 10.4848   7
  -4   3   8 99.3629 18.3186   6
   4  -3   8 68.7710 12.3600   5
   3  -4  -8 81.5637 12.5393   8
   3   4   8 84.4896 17.6298   9
   4  -3   8 66.4791 16.3276   4
  -3   4  -8 57.6115 10.8342   6
  -4  -3  -8 83.8564 12.7229   8
   3  -4  -8 65.9980 9.68238   7
  -4  -3  -8 73.5748 8.09283   4
   3   4   8 69.4743 7.64028   6
  -4   3   8 80.8435 13.8167   4
   3  -4  -8 103.503 17.3187   4
  -3   4  -8 78.7651 6.68779  10
  -3   4  -8 69.4255 38.6044   9
   4  -3   8 72.8980 12.5800  10
  -3   4  -8 76.5370 7.91715   5
   4  -4   8 -5.8648 19.4206   8
   4  -4  -8 -1.9680 4.40754  10
  -4   4  -8 14.7771 4.36690   5
   4  -4   8 -1.0028 12.3093   4
  -4   4   8 -5.1646 8.16026   6
   4  -4  -8 -1.1606 10.9530   8
  -4   4  -8 12.6098 7.25187   6
  -4   4  -8 -24.091 46.4473   9
   4  -4   8 11.6928 7.36795   5
   4  -4   8 8.38126 6.50871  10
   4  -4  -8 -3.7870 8.38193   7
  -4   4   8 -0.1835 7.38746   7
  -4   4   8 1.46500 5.08561  10
  -4   4  -8 3.45023 3.21670  10
  -4   4   8 2.19138 5.37017   5
   4   4   8 -3.8425 18.3703   9
   4  -4  -8 5.31579 7.18935   5
  -4   4  -8 7.32398 14.3031   7
   4  -4  -8 4.93232 5.52488   4
   5   0  -8 18.9599 6.74198  10
   5   0  -8 9.73638 8.85005   9
  -5   0  -8 39.7079 16.2419   8
  -5   0  -8 22.7842 6.56720   5
  -5   0  -8 23.0405 6.13994   4
   5   0   8 29.1457 10.1355   5
   0   5   8 20.0240 11.8715   9
   5   0   8 19.3228 11.1668   9
  -5   0   8 30.6536 9.10381   5
   5   0   8 19.5280 8.00221   6
  -5   0   8 16.7305 4.89004  10
   0   5  -8 -6.0032 31.8288   9
   0   5   8 22.8605 7.43336   6
   0  -5  -8 23.1557 7.11776   4
  -5   0  -8 16.8676 4.83706  10
   5   0  -8 21.6312 7.37377   7
   5   0  -8 11.4110 6.60814   5
  -5   0   8 16.8281 5.51630   7
  -5   0   8 15.7779 7.68955   8
   5   0  -8 9.62403 9.82900   6
   5   0   8 12.6219 11.2970   8
   5   0   8 25.7360 12.7244   7
  -5   0   8 29.1621 9.34477   4
  -5   0  -8 23.3924 11.4707   7
   5   0   8 22.7554 9.07558  10
   5  -1  -8 89.6940 15.6882   5
  -5  -1   8 88.4995 14.9671   4
   5   1   8 55.8600 13.2136  10
  -1   5   8 107.766 19.7138   9
   5   1   8 101.642 16.8243   7
  -5   1  -8 122.802 21.8724   7
  -5   1  -8 98.6364 10.7289   4
  -5   1  -8 116.707 13.1829   5
   5  -1  -8 97.4287 14.0024  10
   5   1   8 115.346 22.4916   9
  -5   1  -8 95.9552 9.34054  10
  -5  -1   8 80.5540 10.1751   8
   5   1   8 66.0889 13.6644   5
   5  -1  -8 84.1346 12.3937   8
   5  -1  -8 137.860 23.6539   6
  -5   1  -8 117.139 16.2916   6
   5  -1  -8 91.3241 12.8941   7
   5   1   8 77.0511 12.3574   6
  -5   1  -8 135.033 22.9232   8
  -1   5   8 114.787 16.1242   6
   1   5   8 116.806 17.3533   9
   5   1  -8 60.3362 16.7382   9
  -5  -1  -8 81.7797 9.85242   5
   5  -1   8 75.4505 18.0756   4
  -5  -1  -8 91.5496 10.0328   4
   1  -5  -8 107.391 15.0582   4
  -5  -1  -8 99.5794 19.3277   8
  -5   1   8 92.1523 13.0634   8
  -5  -1  -8 91.4899 7.85899  10
  -1   5  -8 48.2126 41.6232   9
  -5   1   8 106.302 12.3897   7
   5  -1   8 102.443 15.7171   5
   1  -5  -8 85.6104 10.8897   8
  -5   1   8 109.814 16.5378   5
  -5   1   8 88.0374 11.9913  10
   5  -1   8 112.297 21.0396   8
   1   5   8 97.1319 12.6047   6
  -5  -1  -8 89.7832 17.6732   7
   5   1  -8 94.5241 17.1643   6
   5  -1   8 81.0269 13.7198  10
   5  -1   8 77.3410 12.2974   6
   5  -1   8 97.0349 19.0674   7
  -5   1   8 90.1929 15.8513   4
   5  -2  -8 17.5167 9.80035   7
   5  -2  -8 1.82106 7.03232   5
   5   2   8 19.4068 6.60870   6
   5  -2  -8 11.0356 6.61607  10
  -5   2  -8 26.8590 7.17000   5
   5  -2  -8 32.0232 10.4878   4
  -5   2  -8 10.6238 16.0727   7
   2  -5   8 -5.3153 12.5649   4
   5   2   8 21.1206 20.8094   9
  -5   2  -8 12.9247 4.95652   4
  -5   2  -8 8.00995 4.65225  10
  -2   5   8 12.9420 7.99123   6
   5  -2  -8 9.83342 9.39074   8
  -2   5   8 19.2741 18.8270   9
   5  -2  -8 9.45208 10.1965   6
  -5   2  -8 21.8140 16.6955   8
  -5  -2   8 13.0481 6.11724   4
  -5   2  -8 3.95765 7.57270   6
   5  -2   8 14.6575 7.40927   6
  -5   2   8 7.84774 9.35585   7
  -2   5  -8 20.2381 7.04623   6
  -5  -2  -8 7.71096 12.3014   8
  -5   2   8 19.1500 7.70735   4
   5   2  -8 8.68505 13.4336   9
   2  -5  -8 31.9226 10.0189   4
   2  -5  -8 12.0692 7.96328   8
  -5   2   8 10.5605 9.32062   8
  -2   5  -8 9.42005 45.9237   9
  -5  -2  -8 15.3160 4.82238   4
   5   2  -8 26.6515 10.0609   6
   5  -2   8 13.3863 8.43495   5
   5  -2   8 -0.4394 8.48589   4
   5  -2   8 6.82016 7.96075  10
  -5   2   8 14.1886 6.31424  10
   5  -2   8 -1.6121 15.6295   7
  -5   2   8 33.8667 10.5287   6
   5  -2   8 26.6798 18.2446   8
  -5   2   8 20.4825 8.59157   5
   2   5   8 33.6229 13.7805   9
   3  -5   8 23.8715 14.9924   4
  -5   3  -8 32.2540 19.9537   7
   5  -3  -8 55.5258 12.6306   4
   5  -3  -8 67.8007 16.4543   6
  -5   3  -8 54.8818 8.45926  10
   3  -5   8 19.1906 18.7466   8
  -5   3  -8 71.2430 10.1236   5
   5   3   8 68.5411 33.0666   9
   5  -3  -8 45.8666 10.2475  10
  -5   3  -8 67.9895 14.5438   6
   5   3   8 31.7792 8.10032   6
  -3   5   8 63.6029 14.2820   6
   5  -3  -8 39.9731 13.3244   8
   5  -3  -8 51.2116 17.1315   7
  -3   5   8 54.8897 26.5698   9
   5  -3  -8 43.1319 13.5497   5
  -5   3   8 40.9148 9.61211  10
   5  -3   8 16.0955 9.06734  10
   3  -5  -8 55.8192 14.1544   4
  -5   3   8 45.2230 11.5602   8
   3   5   8 43.8697 18.1072   9
  -5   3   8 44.3197 14.0998   7
  -5   3   8 72.8027 17.6340   6
   5  -3   8 36.4524 10.8432   5
   5   3  -8 12.9050 14.6490   9
  -3   5  -8 56.2479 83.6999   9
  -3   5  -8 41.4374 9.20400   6
   5  -3   8 43.2251 24.3623   8
  -5  -3  -8 43.6137 7.42544   4
   5  -3   8 52.8165 16.0013   4
  -5   3   8 67.4157 13.5531   5
   5  -3   8 22.7848 19.2366   7
   3  -5  -8 46.2476 13.2102   8
  -5   3   8 52.5606 12.6060   4
   4  -5   8 -6.7839 14.9190   4
   5  -4  -8 -7.7714 8.10529   4
  -4   5   8 8.04895 7.49634   5
  -4   5   8 15.0192 12.0366  10
   5  -4  -8 17.6735 10.8523   5
   5  -4  -8 -0.1610 13.2517  10
  -5   4  -8 24.3171 13.3735   6
  -5   4  -8 7.61587 7.97942  10
  -5   4  -8 22.0131 6.29622   5
  -4   5   8 16.9575 14.3323   6
   5  -4   8 -0.4733 12.5104  10
  -5   4   8 17.6043 12.8060   6
   4  -5  -8 20.8177 12.0785  10
  -4   5  -8 17.8000 8.08191   6
   4  -5  -8 12.6139 16.5828   4
   5  -4   8 19.4466 19.3744   4
  -5   4   8 15.6202 11.7179   5
  -5   4   8 -0.1416 12.8183  10
  -6   0  -8 44.9006 7.67042   4
   6   0  -8 47.7133 11.7887   5
   6   0  -8 52.6658 15.3704   6
  -6   0   8 30.1725 11.2015   7
   6   0   8 39.9361 9.71878   6
   6   0   8 14.6929 11.9718  10
   6   0  -8 50.8997 10.7313  10
  -6   0   8 34.6592 10.1659   4
   6   0   8 34.8755 33.1952   9
  -6   0  -8 40.9732 6.76698  10
   6   0  -8 35.7448 11.8223   7
   6   0   8 29.8435 11.0640   5
  -6   0   8 60.2008 12.2841   5
  -6   0  -8 48.8227 8.62361   5
   6   1   8 8.76920 10.6026   5
   6   1   8 -18.619 8.70897  10
   6   1   8 9.88909 6.06136   6
  -6  -1   8 -1.2999 5.08594   4
  -1   6   8 6.04609 7.64840   6
  -6   1  -8 14.3806 4.68216   4
   6  -1  -8 -11.317 5.52601   5
  -6   1  -8 4.97385 5.93987  10
  -6   1  -8 13.9891 5.84120   5
   6  -1  -8 -0.0780 9.91340  10
   6  -1  -8 -16.447 8.19876   6
   6  -1   8 9.33478 6.72515   6
  -6  -1  -8 1.84624 4.06802   4
   6   1  -8 -7.8844 5.88817   6
   6  -1   8 -9.1192 11.8695  10
  -6   1   8 0.87188 7.39017   5
  -6   1   8 6.23623 6.00656  10
  -6   1   8 6.08447 6.48290   4
   6  -1   8 8.76562 7.15878   5
  -6   2  -8 171.260 13.8762   4
   6  -2  -8 134.924 22.7382  10
   6   2   8 138.343 14.0735   6
  -2   6   8 166.725 22.9166   6
  -6  -2   8 144.494 14.7711   4
   6  -2  -8 150.591 25.3341   6
  -6   2  -8 106.219 13.9531  10
   6  -2  -8 168.794 24.3305   5
  -6  -2  -8 148.762 11.6275   4
   6   2  -8 79.7024 14.9843   6
   6  -2   8 104.314 22.2012  10
   6  -2   8 55.9993 19.3797   4
   2  -6  -8 153.767 20.9509   4
  -6   2   8 136.786 21.4998   4
   6  -2   8 97.7488 17.1248   5
  -6   2   8 162.939 22.5976   5
  -6   2   8 136.092 20.0308  10
   0   0   9 -9.3053 4.53467   3
   0   0  -9 -1.7712 3.96870   6
   0   0  -9 -5.7805 3.93861   3
   0   0   9 -5.6452 2.84989   6
   0   0  -9 -16.029 17.8050   1
   0   0  -9 1.43604 15.7965   9
   0   0  -9 -5.8577 1.99890  10
   0   0  -9 -3.6557 4.87869   7
   0   0   9 -3.0541 4.02631   8
   0   0  -9 -4.0955 2.74785   5
   0   0  -9 -8.3148 4.87112   2
   0   0   9 -4.0135 2.96768   7
   0   0   9 -6.1398 4.58243   4
   0   0  -9 -5.2873 2.76619   4
   0   0   9 -4.5317 3.65387   2
   0   0   9 -4.7852 2.86624  10
   0   0  -9 -5.0311 3.33796   8
   0   0   9 -7.9696 2.85096   5
   0   0   9 -1.9996 4.13181   9
   1   0   9 816.156 33.6791   6
   0   1   9 817.221 40.7233   1
   0   1  -9 873.544 33.6978   4
   0  -1   9 847.137 39.8739   4
   0  -1   9 808.037 34.6475   5
  -1   0   9 819.202 41.1957   3
   1   0  -9 804.588 35.3847   4
  -1   0   9 863.184 32.8187   7
   0  -1  -9 858.777 37.3510   7
   0  -1  -9 832.606 34.7241   8
  -1   0   9 842.807 35.4029   5
   0   1  -9 829.829 41.1163   2
   0   1   9 840.836 34.4699   6
   0   1   9 866.685 32.9597   7
   0   1   9 837.696 34.2953   8
   0   1   9 872.643 37.1526   9
   0   1   9 867.983 33.8425  10
  -1   0  -9 495.338 96.8772   1
   0   1  -9 838.167 33.0824   5
   0   1  -9 790.914 71.9301   1
   0  -1   9 836.878 33.4576   6
   0   1  -9 840.001 35.9937   7
   1   0   9 817.720 34.0281   7
  -1   0  -9 822.394 32.9826   4
  -1   0  -9 853.652 33.1279   5
  -1   0  -9 853.496 35.9164   6
  -1   0  -9 785.289 36.1215   7
  -1   0  -9 844.584 31.7550  10
   1   0  -9 846.864 41.5102   2
   1   0  -9 816.329 40.3296   3
   0  -1  -9 851.030 34.5334   5
   1   0  -9 829.384 35.0717   5
   1   0  -9 847.644 37.1072   6
   0   1  -9 871.436 34.9623   8
   1   0   9 882.867 39.2963   2
   1   0   9 804.911 40.8842   3
   1   0  -9 646.505 72.6344   1
   1   0   9 803.855 35.3552   8
   1   0   9 875.159 38.8343   9
   0  -1  -9 802.967 36.1480   6
   1   0  -9 851.988 34.7635   8
  -1   0   9 876.128 36.3876   2
   1   0   9 831.454 35.1508  10
   0  -1   9 884.345 40.0257   3
  -1   0   9 863.443 35.4428   6
  -1   0   9 868.672 38.4983   4
   0   1  -9 828.166 37.0377   3
   1   0   9 778.208 40.8215   4
   0   1  -9 871.205 31.9283  10
  -1   0  -9 844.740 35.5024   8
  -1   0  -9 756.378 49.9956   9
  -1   0  -9 833.674 41.9929   2
   0  -1  -9 853.351 39.6577   3
   0   1  -9 866.481 35.6986   6
   1   0   9 852.910 36.4136   5
   0  -1   9 886.479 33.5158   7
   0  -1   9 820.969 34.5864   8
   0  -1   9 875.800 33.8206  10
  -1   0   9 807.126 33.2274   8
   0   1  -9 897.133 53.0284   9
   1   0  -9 841.210 33.4255  10
   0   1   9 876.870 35.3067   5
  -1   0  -9 850.317 37.2108   3
   0  -1   9 873.008 37.7766   2
   0   1   9 829.441 36.2876   2
   0  -1  -9 877.867 32.8860  10
   0  -1  -9 805.309 41.2409   2
  -1   0   9 870.965 33.8746  10
   0  -1  -9 858.312 34.7340   4
   1  -1   9 50.7956 8.58101   5
  -1  -1   9 39.0742 4.84479   7
  -1   1   9 45.7156 5.69548   7
  -1   1  -9 31.0253 17.2367   1
  -1   1  -9 54.0320 5.54770   4
  -1   1  -9 49.0630 6.09794   5
  -1   1  -9 55.5458 4.67743  10
  -1   1  -9 56.0336 10.7251   2
  -1  -1  -9 49.2612 7.30254   6
  -1  -1  -9 43.1707 5.66957   4
   1  -1  -9 23.2517 8.25449   2
  -1  -1   9 40.7977 6.20545   8
   1   1   9 43.9437 9.46272   3
  -1   1   9 49.7618 7.77346   2
   1  -1   9 56.1928 7.86155  10
  -1  -1   9 50.9584 6.98833   5
   1   1  -9 32.7407 9.02553   2
   1   1  -9 50.1950 9.51284   3
   1   1  -9 45.5903 6.93406   4
   1   1  -9 55.4473 7.03868   5
   1   1  -9 57.2507 8.46643   6
   1   1  -9 43.4400 8.12111   7
   1   1  -9 46.8082 6.74810   8
   1   1  -9 53.9759 30.4868   9
   1   1  -9 51.6538 5.00710  10
   1   1   9 50.7998 11.1745   1
   1   1   9 38.3050 7.76584   2
  -1  -1  -9 45.5512 5.69580   5
  -1  -1  -9 41.8357 6.68663   8
  -1   1  -9 56.7463 8.87376   3
   1   1   9 47.5864 6.39470   6
   1   1   9 48.3069 6.06492   7
   1   1   9 49.5488 7.53960   8
   1   1   9 53.2879 9.20845   9
   1   1   9 50.6920 6.60586  10
   1  -1  -9 43.7223 9.82497   3
   1  -1   9 55.1790 6.86070   6
   1  -1   9 41.9096 6.21488   7
   1  -1  -9 44.6790 7.98410   6
  -1   1  -9 43.9916 7.68275   7
  -1   1   9 42.3330 6.18551   8
   1  -1  -9 61.4657 5.72210  10
   1  -1   9 40.1971 8.40099   2
  -1   1  -9 54.1380 7.64147   8
  -1   1   9 43.2442 6.94903   5
   1   1   9 47.3857 9.35600   4
   1  -1  -9 41.0378 7.58196   7
  -1   1  -9 25.0335 20.3852   9
  -1   1   9 46.8855 10.4593   3
  -1  -1  -9 54.0950 4.66998  10
  -1  -1   9 51.7528 7.42244   2
  -1   1   9 44.6424 8.28635   9
   1  -1   9 50.6459 8.00542   8
  -1  -1  -9 46.9423 8.23542   3
  -1   1   9 47.6256 7.28932   6
   1  -1  -9 45.3116 7.55489   4
   1  -1  -9 62.0934 8.18315   5
  -1  -1  -9 47.9302 7.83792   7
  -1  -1   9 55.3716 5.29894  10
  -1  -1   9 43.9427 9.21360   3
  -1  -1   9 42.6537 7.90525   4
  -1   1  -9 48.0401 7.61388   6
  -1  -1   9 51.5828 6.95624   6
  -1   1   9 39.2607 7.56574   4
   1  -1   9 55.9651 11.9241   3
   1  -1  -9 37.8033 6.48542   8
  -1   1   9 46.9501 5.36779  10
   1  -1   9 34.5766 9.64138   4
   1   1   9 45.4990 7.02031   5
   1   1  -9 24.7426 30.3117   1
  -1  -1  -9 57.4733 11.4554   2
   2   0   9 37.7484 8.02762  10
   0   2  -9 36.0379 4.92206   5
   2   0   9 30.4209 5.99245   7
   0  -2  -9 33.2593 6.91127   6
   0  -2  -9 30.8921 8.00570   7
  -2   0   9 50.5982 7.77803   2
   0  -2  -9 35.8766 6.43427   5
  -2   0  -9 41.7212 10.8144   2
  -2   0  -9 44.6322 8.87755   3
  -2   0   9 35.5239 7.40883   6
   2   0  -9 32.4963 6.78590   5
   2   0  -9 9.34828 8.78667   9
  -2   0  -9 41.4961 6.18784   5
   0   2  -9 52.9400 23.0232   9
  -2   0   9 30.6732 7.43107   4
  -2   0  -9 34.7501 6.98470   8
  -2   0  -9 97.2921 29.6838   9
  -2   0   9 35.9773 9.57949   3
   2   0  -9 50.4606 28.6328   1
   2   0   9 41.2438 7.11976   6
   2   0   9 36.7037 8.93195   9
   0   2  -9 37.1147 6.69410   6
   2   0  -9 39.1920 7.24343   4
   0   2   9 43.1432 6.64255   6
   0   2   9 36.2631 5.32266  10
  -2   0   9 28.9533 4.66215   7
   2   0  -9 33.5103 6.39765   7
  -2   0  -9 29.1987 7.06025   7
  -2   0  -9 35.7705 5.19835   4
   0  -2   9 44.8862 9.27993   4
  -2   0   9 32.8767 5.44161  10
   0  -2   9 36.3914 5.59296   7
   0  -2   9 26.7632 5.77062   8
   0   2   9 30.7823 5.70741   8
   2   0   9 28.9202 10.3391   4
   0   2   9 24.0732 5.82021   2
   0   2   9 31.3260 8.40247   3
   0   2  -9 41.1197 7.24069   7
   0  -2   9 35.1534 5.89301   5
   0  -2   9 41.6605 5.56346  10
  -2   0   9 38.8739 5.70513   8
   2   0   9 34.9468 7.60234   8
  -2   0   9 39.7210 7.30532   5
   0   2   9 27.7452 6.60112   4
   0   2  -9 26.7301 8.11838   2
   0   2  -9 33.6712 6.95563   3
   0   2   9 31.3284 4.78117   7
   0   2  -9 36.6805 3.72675  10
   0   2   9 48.5961 10.2584   1
   0   2   9 36.6124 8.09802   9
  -2   0  -9 23.9480 6.82848   6
   2   0  -9 38.8378 8.83459   6
   2   0  -9 37.5812 9.78522   3
   2   0  -9 32.3462 5.61970   8
   2   0   9 30.1807 7.98712   5
   0  -2  -9 26.9628 9.06461   2
   0  -2  -9 39.6197 8.96889   3
   0  -2  -9 27.1411 5.78036   4
  -2   0  -9 37.7890 4.73565  10
   2   0  -9 28.1313 7.63366   2
   2   0  -9 37.6212 5.74241  10
   0  -2   9 35.7133 8.30103   3
   0  -2   9 30.6580 6.91449   2
   0  -2  -9 35.5508 6.55183   8
   0  -2  -9 43.2933 5.65915  10
   2   0   9 22.9146 9.17347   3
   2   0   9 48.7211 10.2887   2
   0   2   9 34.8341 6.25411   5
  -1  -2  -9 54.4313 4.86115  10
   1   2  -9 60.2187 8.69738   6
  -2  -1   9 66.9970 11.9502   3
  -2  -1   9 49.5450 5.51350   7
  -2  -1   9 51.8695 6.24027   8
  -2  -1   9 50.2656 5.38733  10
   2   1   9 48.6391 6.91434   7
   2   1   9 46.8282 8.20045   8
   2   1   9 67.8944 11.5718   9
  -1   2   9 39.5427 5.97271  10
   1  -2   9 41.0477 7.74493   8
  -1  -2  -9 60.5776 7.84287   8
  -2   1  -9 47.6975 11.2226   2
  -1   2   9 46.9765 12.1441   1
   1   2  -9 41.8937 9.16252   2
   2  -1  -9 46.8317 9.77491   2
   2  -1  -9 52.6218 12.3887   3
   2  -1  -9 48.6778 9.13266   4
   1   2  -9 51.8722 4.86923  10
   2  -1  -9 53.0966 7.44259  10
  -1   2   9 48.6380 6.01681   7
   1  -2   9 47.6363 7.62487  10
  -2  -1   9 51.9916 7.83276   5
   1   2  -9 45.8763 7.70045   7
  -2   1  -9 52.2888 8.91183   7
   2  -1  -9 57.8931 10.6551   6
  -2   1  -9 45.3734 8.30769   8
   1  -2   9 53.9220 10.5599   2
   1  -2   9 28.3374 10.1425   3
   1  -2   9 38.1160 10.8989   4
  -1   2   9 46.3509 8.11573   2
  -1  -2  -9 59.7239 11.6839   2
  -1  -2  -9 58.5825 9.84415   3
  -1  -2  -9 56.9182 6.39511   4
  -1   2   9 49.1153 8.22162   5
  -1   2   9 50.9265 9.88047   9
   2   1   9 48.2287 9.83792   2
   2   1   9 71.3989 13.6342   3
   2   1   9 39.4137 10.2943   4
   2   1   9 59.4415 9.76965   5
  -2   1  -9 42.9949 8.46045   6
   2   1   9 49.7798 7.95046  10
   2  -1  -9 43.5551 8.06731   5
   1  -2   9 50.9923 8.98385   5
   1  -2   9 48.0858 7.07335   7
  -2  -1   9 42.5534 7.44407   2
  -1   2   9 53.1818 9.57916   4
  -2   1  -9 43.3022 4.64180  10
   2   1   9 53.9852 7.65114   6
  -2   1  -9 48.2780 9.22359   3
  -2   1  -9 60.5090 22.8154   9
  -1  -2  -9 43.7171 6.12334   5
  -1   2   9 38.7516 6.22052   8
  -1   2   9 30.2929 8.90192   3
  -1  -2  -9 69.7082 9.67904   7
   2   1   9 44.4998 11.6851   1
  -2   1  -9 43.8421 6.49329   5
   1   2  -9 52.9508 6.68909   5
   1   2  -9 70.6342 28.0790   9
   2  -1  -9 52.1511 7.19170   8
   1   2  -9 63.1336 10.0994   3
  -2   1  -9 44.2781 5.77732   4
   2  -1  -9 54.5443 7.81153   7
   1  -2  -9 49.9347 8.60953   7
   1   2   9 57.3041 5.90707  10
   2  -1   9 53.4472 8.03901   7
  -1  -2   9 52.5178 6.87094   8
   2   1  -9 36.9528 9.44016   2
  -1   2  -9 51.5677 8.79578   7
   1  -2  -9 44.4643 10.4257   2
   1   2   9 60.5156 9.74990   9
   1  -2  -9 44.1131 6.85528   8
   1  -2  -9 51.3255 5.76740  10
   2   1  -9 50.6892 7.81621   5
  -1  -2   9 52.1498 8.87791   4
  -1   2  -9 42.6519 8.45911   3
  -2   1   9 49.4385 6.12740   7
   1   2   9 54.1546 10.1914   3
   2  -1   9 52.3038 11.0314   2
   2  -1   9 51.6354 9.51482  10
   2  -1   9 51.5903 7.52814   6
  -2  -1  -9 60.7192 10.0079   3
  -2  -1  -9 49.9229 8.09382   6
   1   2   9 60.7865 9.07276   2
   1  -2  -9 44.4764 9.30912   6
  -1  -2   9 42.7519 7.34832   2
  -1   2  -9 28.2228 22.7110   9
  -2   1   9 48.3427 6.48011   8
  -1  -2   9 60.7610 7.38395   5
   2   1  -9 64.1561 12.1895   3
  -2   1   9 37.6684 7.43048   5
  -1   2  -9 42.5758 10.8979   2
   1   2   9 60.8846 7.89665   5
   2  -1   9 40.8997 12.1512   3
  -1   2  -9 49.4265 7.81203   8
  -1   2  -9 44.3536 8.18331   6
  -2  -1  -9 48.9403 11.1995   2
  -1   2  -9 42.5371 5.83229   5
   2  -1   9 55.2738 9.12966   8
  -2  -1  -9 48.4605 6.23243   5
  -2  -1  -9 50.0075 6.04347   4
  -2  -1  -9 57.9375 8.74035   8
   1   2   9 53.0135 11.0472   4
  -1  -2   9 45.7029 5.37814   7
   1   2   9 48.4558 6.85213   6
   1   2   9 64.1800 7.06153   7
  -2   1   9 52.9635 8.48487   2
  -2   1   9 29.5411 9.15827   3
  -2   1   9 42.8693 8.70309   4
  -1  -2   9 44.1170 8.48549   3
  -2   1   9 47.1392 6.47703  10
   2  -1   9 46.8353 9.26642   5
  -2  -1  -9 51.1397 8.92852   7
   1   2   9 60.8677 8.04577   8
   1  -2  -9 40.1668 7.58884   4
   1  -2  -9 48.7562 8.05869   5
  -1   2  -9 47.6960 4.77125  10
   2   1  -9 48.4560 8.65625   6
   1   2   9 65.5386 12.5912   1
  -2   1   9 45.3885 8.50983   6
  -1  -2   9 62.8198 5.94490  10
   2  -1   9 31.0838 11.3139   4
  -2  -1  -9 57.6974 5.03290  10
   1  -2  -9 55.3234 12.0223   3
   2   1  -9 56.0877 5.64398  10
   2   1  -9 32.6912 6.84876   7
   2  -2   9 60.1847 10.6830   5
  -2   2   9 89.8842 16.4369   3
   2   2   9 69.7108 8.40332   7
   2  -2  -9 61.7112 10.3045   5
  -2   2  -9 61.5511 10.3391   7
  -2   2  -9 67.4377 10.8805   3
  -2  -2   9 50.2783 6.64977   8
  -2   2  -9 68.7570 7.25190   5
  -2   2  -9 60.1659 9.84707   6
  -2  -2  -9 77.3433 5.91133  10
   2   2   9 83.3169 13.4504   9
   2   2   9 69.9646 7.90393  10
   2  -2  -9 63.4757 8.67205   7
  -2   2   9 82.4643 7.65561   7
   2  -2   9 54.9901 8.59906   6
   2  -2  -9 62.4838 10.7177   4
  -2   2   9 65.7164 10.6800   4
  -2   2   9 71.6949 10.6653   5
  -2   2   9 64.2480 7.32461  10
   2   2   9 62.8980 10.9381   2
  -2  -2  -9 74.3710 10.2897   7
   2  -2   9 69.7740 15.1481   3
   2   2  -9 56.3837 10.1184   7
  -2  -2  -9 66.5317 9.14362   8
   2  -2   9 68.4206 12.8312   2
   2  -2   9 79.3148 9.88344   7
   2  -2  -9 53.6624 10.6494   2
   2   2  -9 80.7126 11.1005   6
  -2   2  -9 81.6514 25.7404   9
  -2   2   9 79.2134 11.8785   9
   2  -2   9 49.5226 9.03733   8
  -2  -2  -9 68.2484 12.9896   2
  -2   2  -9 58.0247 5.51554  10
  -2   2   9 59.4075 9.16622   2
   2  -2  -9 78.8676 15.9099   3
  -2   2   9 71.3358 8.03728   8
  -2   2  -9 82.0916 11.8342   8
  -2   2  -9 64.7851 13.8265   2
   2   2   9 73.2562 7.99396   6
   2  -2  -9 78.8131 12.8901   6
   2  -2  -9 67.5847 8.58937   8
  -2   2  -9 69.3844 6.80514   4
   2  -2   9 64.0530 10.7969  10
  -2  -2  -9 66.4576 10.1518   3
   2   2   9 85.3400 10.3783   5
  -2  -2  -9 66.7229 6.71260   5
   2  -2   9 49.1507 13.1390   4
   2  -2  -9 68.2939 7.48890  10
  -2   2   9 73.5267 11.5971   6
   2   2   9 80.6717 13.0091   3
  -2  -2  -9 79.2970 7.31120   4
   0   3   9 528.179 22.4985   7
   3   0   9 543.083 26.9637   7
  -3   0   9 542.606 23.4981   8
   0   3  -9 484.672 43.2205   9
   0   3   9 524.762 26.0928   2
   0   3   9 490.348 31.5419   3
   0   3   9 480.984 25.2434   6
   3   0   9 531.118 32.6564   9
   3   0  -9 498.983 25.1956  10
   3   0   9 500.759 32.7077   2
   0  -3  -9 547.525 25.4303   8
   3   0  -9 493.056 24.0758   8
  -3   0   9 540.486 28.1043   5
   3   0   9 514.884 29.3886   5
   0  -3  -9 455.234 30.5337   2
   0  -3   9 512.012 25.2503   8
   0  -3  -9 486.404 25.6643   4
   3   0   9 454.969 34.8157   4
   0   3   9 529.669 28.0839   9
   0  -3  -9 505.574 27.5439   7
  -3   0   9 558.410 29.9688   4
   3   0  -9 558.438 28.8266   5
   3   0   9 482.846 25.0906   6
   3   0  -9 522.513 28.3686   4
  -3   0  -9 507.150 34.4844   2
  -3   0   9 514.442 22.7474   7
  -3   0  -9 496.313 28.1192   3
  -3   0   9 564.641 36.1699   3
   0   3  -9 519.401 24.7471   6
   0  -3   9 461.587 28.5514   4
  -3   0  -9 527.036 23.9536   5
   0  -3  -9 523.634 23.6699  10
   3   0   9 460.989 27.7914  10
  -3   0   9 531.129 27.3037   2
   3   0   9 467.369 33.5779   3
  -3   0  -9 518.804 23.4725   4
   0  -3  -9 540.243 32.2714   3
   3   0   9 515.366 28.6653   8
  -3   0  -9 520.311 27.4325   6
   3   0  -9 567.758 36.2002   3
   0  -3  -9 539.750 26.0659   5
   3   0  -9 481.863 30.1388   9
   3   0  -9 503.736 30.1023   6
   0   3   9 507.073 23.5165  10
   3   0  -9 534.833 25.2675   7
  -3   0  -9 500.293 27.9185   7
   3   0  -9 523.393 29.6873   2
  -3   0  -9 525.722 21.8368  10
  -3   0  -9 533.765 28.0556   8
  -3  -1   9 17.9754 6.26074   4
   1  -3   9 23.3610 6.76767   8
  -3  -1   9 17.6849 5.88447   2
   3  -1  -9 19.4657 5.38471  10
  -3  -1   9 17.6558 4.10251   7
   3   1   9 19.2283 6.28309   6
  -1  -3  -9 20.7409 5.35080   4
  -1   3   9 15.0722 4.24698   7
  -1  -3  -9 16.5496 7.00560   3
   3  -1  -9 23.2435 5.81861   7
  -1  -3  -9 22.0545 5.37243   5
  -1  -3  -9 14.8190 5.37890   7
  -3   1  -9 8.28979 5.34949   2
   3  -1  -9 16.8889 6.87766   4
  -1   3   9 25.9470 8.80015   3
  -1   3   9 29.2271 7.00558   5
  -1   3   9 25.6021 6.97001   6
   3   1   9 31.1793 8.12043   8
   3  -1  -9 10.5521 7.15078   3
  -3   1  -9 20.0688 20.1726   9
  -3   1  -9 27.5502 4.56287  10
  -1  -3  -9 35.8356 9.48530   2
   3   1   9 18.4305 7.23091   5
  -3  -1   9 22.7474 4.65881   8
  -3  -1   9 23.2620 8.15646   3
   1  -3   9 19.2604 11.6471   2
   3   1   9 27.3559 8.80978   9
  -1  -3  -9 26.0551 6.23503   8
  -1   3   9 18.7846 4.17846  10
   3   1   9 5.59831 5.98784  10
   3   1   9 14.9875 6.50280   2
  -1   3   9 10.3350 4.76654   8
  -3   1  -9 20.0214 5.52825   3
  -3   1  -9 19.2019 4.41488   4
  -3   1  -9 25.8374 5.48688   5
  -3   1  -9 18.4822 7.25882   6
  -3   1  -9 19.5096 7.16937   7
  -3   1  -9 33.2875 8.56052   8
  -1   3   9 26.6478 9.22564   9
   1  -3   9 18.4047 6.52417   5
  -3  -1   9 19.6179 5.71461   5
  -1   3   9 5.87752 4.86229   2
   3  -1  -9 26.1963 7.66774   5
   3  -1  -9 7.10357 7.55502   9
  -1  -3  -9 21.2091 4.14098  10
   1  -3   9 18.8639 9.71654   4
   1  -3   9 18.5488 5.33401   7
   3  -1  -9 22.5380 5.48680   8
   3   1   9 17.4671 5.48652   7
   1   3  -9 4.28379 22.2620   9
   3   1   9 12.1036 8.69711   3
   3  -1  -9 22.5356 7.55238   6
   1   3  -9 12.5218 4.83710   6
   1  -3  -9 12.0310 5.64409   7
   1   3   9 16.2906 3.78829  10
   3  -1   9 19.0041 10.4578   3
   3   1  -9 12.5410 8.57679   9
   3   1  -9 16.0828 4.42017  10
   1   3   9 27.1534 6.16292   2
   1  -3  -9 14.0393 7.32274   2
   3  -1   9 19.7138 7.53854   2
   1   3   9 17.9886 6.59216   3
  -3  -1  -9 30.8487 9.35727   2
  -3  -1  -9 21.0779 7.24923   3
  -1   3  -9 16.8558 7.67305   2
  -3   1   9 31.3487 11.0378   3
  -1   3  -9 20.4290 6.44339   6
  -3   1   9 26.8927 7.57098   2
   3   1  -9 19.4293 7.60666   2
  -1   3  -9 13.7604 6.03524   3
  -3   1   9 23.2535 5.17761   8
   3   1  -9 10.9602 5.84149   3
  -3  -1  -9 23.0102 4.16888  10
   3   1  -9 23.9813 7.97059   6
   1  -3  -9 26.3940 6.86031   5
  -1  -3   9 27.4883 5.68629   8
  -1   3  -9 17.3132 6.43309   7
   3  -1   9 23.7334 7.93035  10
   3  -1   9 24.5423 8.85243   5
   3  -1   9 22.5676 6.50183   6
   3  -1   9 33.9768 7.44899   7
   3  -1   9 33.1033 8.85075   8
   1  -3  -9 30.0560 6.54634   8
   3   1  -9 18.5095 5.79677   7
   1   3   9 27.7325 5.85450   6
  -3  -1  -9 23.0086 7.14865   7
   1   3   9 26.1885 7.48175   9
   1   3   9 24.4125 4.95957   7
   1  -3  -9 17.0838 5.90016   4
   3  -1   9 3.60222 9.44986   4
  -3   1   9 11.2472 5.15105   4
  -3   1   9 23.6007 7.28170   5
  -3   1   9 19.9113 7.15748   6
  -3   1   9 18.2356 4.74127   7
  -1   3  -9 20.5490 4.50534   5
  -1  -3   9 21.8626 6.73866   4
   3   1  -9 22.9872 6.49650   5
  -3  -1  -9 22.6770 5.26781   5
   1  -3  -9 26.4056 9.16365   3
   1  -3  -9 28.8855 5.39745  10
  -3  -1  -9 18.6258 6.37506   8
  -3  -1  -9 19.4562 4.71866   4
  -1   3  -9 34.9718 21.7008   9
   1   3   9 26.0530 6.24387   5
  -1   3  -9 20.1357 3.51310  10
   2  -3   9 49.3639 9.79235   8
   3   2   9 35.8392 7.57793   6
  -3   2  -9 49.1387 7.29695   5
   3   2   9 59.4717 13.3948   9
  -2   3   9 46.6761 9.34513   5
   2   3  -9 6.92311 30.0102   9
   3  -2  -9 52.5518 8.71065   8
   2  -3   9 59.7742 12.5571   2
   3   2   9 39.4624 8.70088   5
   2   3  -9 47.8148 8.93259   6
   2  -3   9 27.1394 12.5386   3
   3   2   9 46.3905 11.5117   3
  -2  -3  -9 36.2688 6.27319   4
   2  -3   9 35.9707 9.20064  10
   3  -2  -9 52.7658 12.1040   6
  -3   2  -9 45.6021 6.42745   4
   2  -3   9 42.1438 8.32319   7
   3  -2  -9 45.8112 8.35139  10
   3   2   9 34.4429 7.49890  10
  -3  -2   9 36.8306 6.04275   8
  -3  -2   9 50.0777 9.12862   4
  -3   2  -9 56.4958 11.4591   7
   3   2   9 42.8938 7.90940   7
  -2   3   9 44.6022 11.6907   3
  -3   2  -9 33.3774 22.2746   9
  -2   3   9 49.1320 10.6835   6
  -2   3   9 40.4778 6.04685   7
  -2   3   9 41.6742 6.32939   8
   3  -2  -9 46.3052 10.1965   5
   3   2   9 34.9716 9.36167   2
  -3   2  -9 31.6887 9.17678   8
   2  -3   9 36.5851 12.8556   4
  -3   2  -9 36.5636 7.95964   3
   2  -3   9 48.1874 10.2250   5
  -3   2  -9 46.0436 5.81531  10
  -3   2  -9 39.4904 8.92962   6
   3  -2  -9 47.6807 7.94074   7
  -2   3   9 55.9092 12.3332   9
  -2  -3  -9 55.0532 8.92945   8
   3  -2  -9 41.9966 9.48103   4
  -2   3  -9 42.7977 11.6411   2
  -3  -2  -9 32.8999 9.81398   2
   3  -2   9 48.5301 10.2899  10
  -3   2   9 63.6388 12.5326   6
   2  -3  -9 43.3867 7.96101   7
   2  -3  -9 30.2051 10.2309   3
   2   3   9 40.2497 9.41057   5
   2   3   9 39.2689 6.32362   6
  -3  -2  -9 45.4452 9.02440   8
  -2  -3   9 32.1518 6.62792   8
  -3  -2  -9 40.7217 8.66547   7
  -2   3  -9 50.5056 5.60353  10
  -3   2   9 41.1691 9.08486   5
   3  -2   9 22.5748 10.2079   3
  -3  -2  -9 43.9981 9.15245   3
  -3  -2  -9 40.3967 5.34291  10
   3  -2   9 39.1156 7.45555   6
  -3   2   9 44.9040 10.0944   4
   3   2  -9 44.1596 10.1486   6
   3  -2   9 49.2658 9.27080   7
  -3   2   9 42.2958 6.81403   7
  -3   2   9 49.2505 7.01377   8
   2   3   9 31.4356 6.84279   7
   2   3   9 57.6495 11.3066   9
   3  -2   9 65.7573 12.0641   8
  -3   2   9 50.1541 8.04069  10
  -2   3  -9 63.3683 10.7724   7
   2  -3  -9 33.1230 6.71517  10
  -2   3  -9 48.2734 9.29310   3
  -2   3  -9 44.0761 6.44490   5
  -2   3  -9 75.6979 25.8201   9
  -2   3  -9 39.1663 8.63015   6
   2  -3  -9 34.2945 8.43720   5
   2  -3  -9 47.3320 9.93058   4
   3  -2   9 48.2741 10.9057   5
  -3  -2  -9 29.4492 5.66598   4
  -3  -2  -9 38.9711 6.06320   5
   3  -2   9 50.6927 14.5501   4
   2  -3  -9 52.1785 8.28106   8
  -3   3  -9 3.95711 3.63924   5
  -3   3   9 6.79397 4.08390  10
  -3   3   9 1.17418 3.82405   7
  -3   3   9 8.93749 5.64500   5
   3  -3  -9 3.53833 3.72208  10
  -3   3   9 10.2516 5.28674   4
   3  -3   9 -3.5440 4.48580   7
   3   3   9 1.41111 7.68057   9
  -3   3   9 -4.9787 4.62436   6
   3  -3  -9 7.46847 5.88062   5
   3  -3  -9 -0.8804 5.10635   8
  -3  -3   9 4.74403 3.68904   4
  -3   3  -9 7.30652 6.09490   7
  -3   3  -9 5.31346 3.20909  10
   3  -3   9 3.02195 11.7641   4
  -3  -3  -9 3.16399 3.66216   4
   3  -3  -9 5.99302 4.76716   7
   3  -3   9 -3.5351 6.22293  10
  -3   3   9 1.27722 8.60380   9
   3  -3  -9 3.21202 5.00381   4
  -3   3   9 1.48442 4.11379   8
   3  -3   9 3.66847 7.27861   5
  -3  -3  -9 6.02664 5.70590   8
  -3   3  -9 -1.3781 5.63898   6
   3   3   9 3.74227 4.39659   6
   3  -3   9 4.21697 6.85488   8
   3   3  -9 7.25805 5.31342   6
  -3   3  -9 6.09738 22.2112   9
   0  -4   9 5.81830 6.36688   4
   4   0  -9 3.30505 6.00353   9
  -4   0   9 2.20506 5.08528   4
  -4   0   9 -1.5737 4.20519   5
   4   0  -9 6.78011 4.48417   7
   0  -4  -9 2.73246 6.48538   8
  -4   0  -9 8.66425 4.49489   5
  -4   0  -9 -3.3746 6.06639   6
   0   4   9 6.38779 4.70781   6
   4   0  -9 4.94439 5.21558   5
   4   0   9 5.44352 7.40928   5
   4   0   9 7.68942 6.46799   8
   4   0   9 14.6916 6.24760   7
   4   0  -9 4.38172 3.23552  10
   0  -4  -9 10.2039 5.23526   4
   4   0  -9 -4.1474 5.11529   6
   4   0   9 2.74186 7.39460   9
   0   4   9 9.63997 7.93133   9
  -4   0   9 3.08449 3.78316   7
  -4   0  -9 0.80728 3.21279  10
  -4   0  -9 5.87585 7.01649   7
   4   0   9 -1.5151 5.47121   6
   4   0   9 4.51942 7.88040  10
  -4   0   9 8.34481 4.62473   8
   4   0   9 -1.8395 10.0363   4
  -4   0   9 9.80115 3.55386  10
  -4   0  -9 4.04835 6.25893   8
   0   4  -9 8.08518 4.79347   6
   0   4  -9 2.92555 22.5147   9
  -4   0  -9 4.74110 3.52144   4
  -4  -1   9 207.730 16.1624   5
  -1   4   9 160.115 11.9989   7
   1  -4   9 154.583 22.2673   4
  -1  -4  -9 227.370 14.7710   8
   4  -1  -9 200.223 21.3592   6
   4   1   9 224.026 17.3993   7
   1  -4   9 188.098 16.5232   8
  -4   1  -9 182.872 17.2772   6
  -4   1  -9 209.515 13.9436   4
   4   1   9 169.115 14.9574   6
   4   1   9 182.316 18.3161  10
   4  -1  -9 195.942 18.3391   5
   4  -1  -9 179.564 14.5832   8
  -1   4   9 210.471 20.1652   9
  -4   1  -9 187.743 14.2545   5
  -4  -1   9 224.106 18.3195   4
  -1   4   9 177.107 16.5353   6
  -4  -1   9 221.614 14.2180  10
   1   4  -9 217.372 33.8528   9
   4   1   9 205.317 22.0134   9
   4  -1  -9 196.119 14.8776   7
  -4   1  -9 203.162 19.0985   7
  -4   1  -9 181.925 18.4302   8
   4   1   9 197.963 19.5537   5
  -1   4   9 199.207 15.8444   5
   4  -1  -9 179.593 20.1100   9
  -4  -1   9 228.063 12.5606   7
   4  -1  -9 170.427 14.7975  10
  -4   1  -9 195.350 12.0568  10
   4  -1  -9 182.674 17.6742   4
  -1  -4  -9 222.630 15.1361   4
  -4  -1   9 219.466 13.2713   8
   4   1  -9 217.133 17.1792   5
  -1   4  -9 182.523 15.4473   6
   4   1  -9 188.654 13.7577  10
   4  -1   9 203.993 23.3974   8
  -4  -1  -9 220.131 14.1261   5
  -4   1   9 189.022 17.8111   5
  -4   1   9 181.413 13.5383   8
   1   4   9 226.316 14.7730   6
  -4  -1  -9 212.835 11.5107  10
  -4   1   9 172.643 17.8197   6
  -4   1   9 195.605 14.6917  10
   1  -4  -9 202.428 13.7212  10
  -1   4  -9 286.879 42.1542   9
   4  -1   9 169.000 25.7422   4
   1  -4  -9 210.315 17.3458   4
   4   1  -9 212.301 19.9973   6
   4   1  -9 206.164 14.6297   7
  -4  -1  -9 190.310 17.9614   8
   4  -1   9 178.746 18.3803  10
   1   4   9 219.119 17.1923   9
  -4  -1  -9 239.264 18.9784   7
   1  -4  -9 207.534 15.3037   8
   1  -4  -9 160.922 16.0082   7
  -4   1   9 189.556 18.1237   4
   4   1  -9 143.395 18.4350   9
  -4   1   9 192.757 13.5046   7
   4  -1   9 196.855 16.3952   6
   4  -1   9 194.229 17.1975   7
  -4  -1  -9 226.190 13.7913   4
   4  -1   9 172.424 18.3785   5
   1  -4  -9 204.148 16.5639   5
  -2   4   9 25.2798 7.27655   5
   4   2   9 17.5906 11.5183   9
  -4   2  -9 19.5070 10.6842   8
   4  -2  -9 14.3793 9.09698   6
  -4   2  -9 9.65748 4.52174  10
   2   4  -9 15.8709 28.6326   9
   4  -2  -9 27.0022 9.65303   5
  -2   4   9 19.3349 8.60129   6
  -2   4   9 15.0422 4.72699   7
  -2   4   9 18.6623 11.2731   9
   4   2   9 18.1995 7.25802   7
  -4  -2   9 14.6206 4.93883   8
   4  -2  -9 21.4750 7.98668   8
   4  -2  -9 12.5948 6.95131   7
   2  -4   9 7.62881 12.5963   4
   4   2   9 0.95762 4.92364  10
  -4   2  -9 24.8925 13.1682   7
  -2  -4  -9 20.0523 6.32449   8
  -4   2  -9 9.55392 5.22574   5
  -4   2  -9 14.1168 8.61285   6
  -2  -4  -9 20.3614 5.55333   4
  -4  -2   9 16.0457 6.27350   4
   4  -2  -9 11.9723 6.04138  10
   4  -2  -9 31.9608 9.19406   4
   4   2   9 6.62650 6.89921   5
  -4   2  -9 22.2787 5.68738   4
   2  -4   9 20.3090 8.56965   8
  -2   4   9 13.1330 4.75633  10
   4   2   9 16.2743 6.76037   6
   2   4   9 16.8556 10.0541   9
   4  -2   9 14.1685 8.91881   5
  -4  -2  -9 17.8621 4.49627  10
  -2   4  -9 2.55906 35.6771   9
   4   2  -9 9.75532 11.1593   9
   2   4   9 19.0330 5.21656   6
  -4  -2  -9 19.5509 5.23357   4
  -4   2   9 13.3937 6.33583   7
   4  -2   9 23.6230 10.5082   7
  -4   2   9 17.2520 7.47255   5
   2  -4  -9 11.9325 6.77538   5
  -4   2   9 9.24388 5.80553   8
   2  -4  -9 22.8830 8.07200   4
  -4  -2  -9 15.3832 5.63304   5
  -4  -2  -9 11.5788 6.52313   7
  -4  -2  -9 13.0075 7.52039   8
   4  -2   9 3.74133 10.3789   4
  -4   2   9 19.9918 8.48409   4
   4  -2   9 4.12077 7.67875  10
   2  -4  -9 9.14215 5.91061   7
  -2   4  -9 5.14677 6.40057   6
   2  -4  -9 22.6823 7.38342   8
   4   2  -9 19.9542 8.60880   6
   4  -2   9 12.1853 6.63500   6
  -4   2   9 7.21518 4.64850  10
  -4   2   9 16.3929 8.67968   6
   4  -2   9 14.6182 12.3118   8
   2  -4  -9 16.7210 5.23922  10
   4  -3  -9 177.208 16.0933  10
  -4   3  -9 173.792 18.5153   6
  -3  -4  -9 173.884 12.5238   4
   4  -3  -9 195.312 19.2800   8
  -3   4   9 193.527 25.6978   9
  -4   3  -9 163.703 11.7909  10
  -4   3  -9 188.922 13.7681   5
  -3   4   9 167.321 14.5730  10
   4  -3  -9 165.807 22.0382   5
   4  -3  -9 216.649 23.7134   6
   4  -3  -9 175.651 18.1668   7
  -3   4   9 169.956 14.4316   7
  -4   3  -9 200.672 26.3140   7
   4  -3  -9 173.065 19.0718   4
   4   3   9 188.418 30.5412   9
  -3   4   9 171.136 17.4090   5
  -3   4   9 184.905 20.4074   6
   3  -4   9 151.231 25.7133   4
   3  -4   9 199.575 25.3147   8
   3   4  -9 24.9812 49.6806   9
   4   3   9 149.306 13.1197   6
   4  -3   9 171.286 26.2106   8
  -4   3   9 184.222 18.5402   4
  -4   3   9 163.323 15.2878  10
   4  -3   9 203.055 23.0431   7
   3  -4  -9 171.601 14.7909  10
  -3   4  -9 170.713 10.6252  10
   4  -3   9 143.474 18.4755   5
   3  -4  -9 185.011 19.0844   5
   3   4   9 173.078 12.2817   6
   4  -3   9 163.427 18.1343  10
   3   4   9 191.402 28.5526   9
   4  -3   9 160.115 25.8474   4
   3  -4  -9 146.672 16.6650   8
  -4   3   9 193.999 18.8307   5
  -4   3   9 184.818 16.4782   7
  -4   3   9 169.211 15.5849   8
  -4  -3  -9 160.035 11.9429   4
   3  -4  -9 161.576 15.2110   7
  -4  -3  -9 171.761 18.7009   8
  -3   4  -9 159.847 51.1411   9
   3  -4  -9 168.489 22.0502   4
  -3   4  -9 175.685 16.8430   6
  -4   3   9 195.948 24.7692   6
   4  -4   9 -2.1124 14.5699   4
  -4   4   9 -0.3927 5.06794   5
   4   4  -9 -0.1477 62.6842   9
  -4   4  -9 6.74189 7.16188   6
  -4   4   9 5.51147 6.15792  10
  -4   4  -9 -3.9719 14.8655   7
  -4   4   9 -2.1188 7.14037   6
   4  -4   9 3.34186 8.14145   5
  -4   4  -9 2.91796 54.6068   9
   4  -4   9 6.89190 15.6782   7
  -4   4  -9 4.18444 3.39465   5
   4  -4  -9 3.43399 12.3112   7
  -4   4  -9 4.74722 3.59705  10
   4  -4  -9 -0.7616 3.74371  10
   4  -4  -9 12.0533 8.32602   5
  -4   4   9 -2.6090 8.45182   7
   4  -4  -9 3.31822 6.60214   4
   0   5   9 98.2875 18.4769   9
   5   0  -9 79.4284 14.9502   5
   5   0  -9 87.7867 18.0615   6
   0   5   9 96.2304 13.9482   6
  -5   0  -9 98.4311 21.7334   8
   0  -5  -9 93.5151 12.8991   8
  -5   0  -9 90.6710 8.68661  10
  -5   0   9 76.1676 11.6239   8
   5   0   9 76.9540 19.4285   8
  -5   0   9 140.228 18.0107   5
  -5   0  -9 96.2008 20.9488   7
   0  -5  -9 95.7346 13.2443   4
   5   0  -9 60.3600 15.4871   9
   5   0  -9 74.3464 12.2633  10
  -5   0   9 105.277 16.7577   4
   5   0   9 52.7229 10.6052   6
   0   5  -9 77.3341 44.5834   9
  -5   0  -9 95.2043 11.4791   5
  -5   0   9 91.0406 9.72880  10
   5   0   9 107.128 19.4423   7
  -5   0  -9 107.088 10.4119   4
   5   0   9 103.616 16.5396   5
   5   0   9 80.4252 15.6350  10
   5   0  -9 85.1778 13.0154   7
  -5   1  -9 37.4782 19.3319   8
  -1  -5  -9 20.4232 6.73344   4
  -5   1  -9 29.9809 7.46940   5
   5  -1  -9 39.6074 10.7748   7
  -5   1  -9 10.4139 7.35902   6
   5   1   9 11.6385 6.21374   6
   5   1   9 30.3594 14.0126   7
   1   5  -9 37.5756 41.8645   9
   5   1   9 8.02080 9.65982  10
  -5  -1   9 17.2136 8.12548   4
   5  -1  -9 31.6787 10.3632   5
  -5  -1   9 19.7847 7.65640   8
   5  -1  -9 19.6659 8.27961  10
  -1   5   9 23.2648 16.4651   9
  -5   1  -9 40.1502 20.4169   7
  -1   5   9 28.2326 8.50618   6
  -5   1  -9 18.2865 5.76626   4
   5   1   9 14.4397 9.77344   5
   5   1   9 29.3811 17.5123   9
   5  -1  -9 56.0134 15.1717   6
  -5   1  -9 38.6942 6.79343  10
   5  -1   9 23.0717 10.3716   5
  -5   1   9 34.7765 7.90890  10
  -5  -1  -9 35.3217 17.8493   8
   5  -1   9 25.5332 13.6504   4
   1  -5  -9 27.1906 8.92149   4
   1  -5  -9 16.3434 8.18086   8
  -5   1   9 31.2575 10.0597   5
  -5  -1  -9 23.7054 6.73440   5
   5   1  -9 16.0742 14.1098   9
  -5  -1  -9 26.4836 5.54055  10
   5  -1   9 17.1191 8.05532   6
  -5   1   9 27.4093 9.52501   8
  -1   5  -9 61.0983 52.9470   9
   5  -1   9 32.6472 11.3308  10
  -5   1   9 15.2536 8.21552   7
   5  -1   9 30.4612 17.6745   8
   5   1  -9 40.3107 11.8122   6
   1   5   9 26.4523 7.21839   6
   5  -1   9 33.9581 16.4528   7
   1   5   9 31.5512 12.9898   9
  -5   1   9 17.9765 7.25916   4
  -5  -1  -9 20.1290 5.60403   4
   2  -5   9 -1.9872 13.8389   4
  -5   2  -9 2.24768 6.33639   6
   5  -2  -9 2.68813 6.00206   5
  -5  -2   9 1.58395 4.87041   4
  -5   2  -9 8.04906 5.12547   5
   5  -2  -9 -2.9470 4.85126   4
  -2   5   9 -3.8694 19.2924   9
  -5   2  -9 0.08164 3.94103  10
   5  -2  -9 3.17911 9.76779   8
  -5   2  -9 18.9399 18.1605   7
  -5   2  -9 10.9064 4.04243   4
   5  -2  -9 3.94458 5.58673  10
   5  -2  -9 1.20477 9.19553   7
   5  -2  -9 16.9716 10.9403   6
   5   2   9 2.71751 5.66032   6
   5   2   9 -9.3515 21.1986   9
  -2   5   9 0.26609 5.66345   6
  -5   2  -9 8.91472 17.6499   8
   2  -5  -9 -10.090 9.21011   8
  -5   2   9 10.4121 9.83846   7
  -5   2   9 -4.1999 8.02276   8
  -5   2   9 7.37038 6.94615   6
  -2   5  -9 -25.995 50.5583   9
   5  -2   9 3.00320 5.96285   6
   2   5   9 8.63357 13.9702   9
  -2   5  -9 -3.6628 6.38357   6
  -5   2   9 4.27489 4.47329  10
   5  -2   9 1.18760 8.19335   5
  -5  -2  -9 1.83464 4.15949   4
  -5   2   9 5.58208 6.37573   5
   5  -2   9 16.1763 14.2767   4
   5  -2   9 2.56457 9.00658  10
  -5   2   9 9.65164 6.71633   4
  -5  -2  -9 -4.4132 16.0189   8
   5   2  -9 -3.9577 16.4091   9
   5   2  -9 4.82252 7.31472   6
   5  -2   9 3.24385 17.9200   7
   5  -2   9 -7.2578 18.4202   8
   2  -5  -9 2.52612 6.39320   4
   5  -3  -9 4.17990 10.9437  10
   5  -3  -9 1.81480 5.83136   4
   5  -3  -9 12.9327 8.88090   5
  -3   5   9 17.3439 11.2597   6
  -5   3  -9 6.02027 6.83471  10
   5   3   9 -1.2575 5.74805   6
  -5   3  -9 29.6323 7.13988   5
   3  -5   9 -4.5302 15.1602   4
  -5   3  -9 7.07606 8.53593   6
  -5   3   9 14.2164 10.7433  10
   5  -3   9 24.7607 10.3287   5
  -5   3   9 5.44459 8.73271   6
  -5   3   9 17.9128 8.32361   4
   5  -3   9 12.4980 11.9804  10
   3  -5  -9 7.05685 7.50571   4
   5  -3   9 5.61320 12.4874   4
  -3   5  -9 16.1490 7.90987   6
  -5   3   9 1.40511 6.76927   5
  -5  -3  -9 0.01911 4.73225   4
   6   0  -9 0.88287 9.65560   6
  -6   0  -9 9.75594 4.14370   4
   6   0   9 -2.2138 8.55804   5
   6   0   9 10.2786 6.72671   6
   6   0  -9 10.5404 7.44445   5
  -6   0  -9 16.5962 7.82580   5
  -6   0  -9 2.01258 5.80815  10
   6   0  -9 12.9282 11.2844  10
   6   0   9 -8.4222 15.6464  10
  -6   0   9 18.9522 8.00463   4
   6   1   9 -1.3244 6.24082   6
  -6   1  -9 6.21628 4.96263   4
   6  -1  -9 -2.0364 8.53269   5
   6  -1  -9 10.4974 15.0286  10
   6   1   9 -15.897 14.6646  10
  -6   1  -9 -5.9889 6.91226  10
   6  -1  -9 -4.1238 9.93432   6
  -6   1  -9 3.15118 4.97298   5
  -6  -1   9 -3.4274 4.26917   4
  -6   1   9 15.1467 8.74729   4
   6  -1   9 8.77063 6.29714   6
   6  -1   9 2.65195 8.66131   5
  -6  -1  -9 2.28877 4.34027   4
   6   1  -9 10.9598 10.7952   6
   6  -1   9 -8.0474 17.1938  10
  -6   1   9 -5.1395 8.95059  10
   0   0 -10 16.5155 29.5761   1
   0   0  10 51.3795 6.10016   7
   0   0 -10 15.6616 17.6449   9
   0   0  10 46.3900 6.39298   6
   0   0 -10 35.1553 6.80341   6
   0   0  10 43.4583 6.69930   5
   0   0  10 49.3418 7.98068   2
   0   0 -10 44.4498 4.63689  10
   0   0 -10 39.2307 5.88640   5
   0   0 -10 42.7175 6.21276   4
   0   0 -10 39.3842 8.20432   3
   0   0  10 48.8907 9.86402   3
   0   0 -10 40.4967 8.33076   7
   0   0  10 54.1190 6.06519  10
   0   0  10 30.4855 7.32774   4
   0   0 -10 34.4309 8.70172   2
   0   0 -10 45.1883 6.97415   8
   0   0  10 34.7506 6.26417   8
   1   0 -10 312.152 21.8740   3
   0   1 -10 224.809 46.6939   1
   0   1 -10 313.581 14.2358  10
  -1   0 -10 318.408 23.1977   2
  -1   0  10 314.417 15.3000   7
   0   1  10 304.473 20.0704   4
   0   1  10 315.148 17.3613   5
   0   1  10 317.849 16.7964   6
  -1   0  10 301.481 15.6759  10
   0   1  10 309.781 17.1369   8
   0   1  10 299.437 18.7940   9
   0   1 -10 301.090 15.4499   5
  -1   0 -10 313.781 18.2848   6
   1   0 -10 323.501 17.9262   4
   0  -1 -10 325.252 20.1714   7
   0  -1  10 295.230 17.1899   8
  -1   0  10 298.035 17.1714   6
  -1   0  10 315.438 20.1351   4
  -1   0  10 296.671 17.2107   5
   0   1  10 310.708 15.7623  10
   0   1 -10 290.034 22.0377   2
   0   1 -10 346.082 20.1790   3
  -1   0 -10 295.629 13.8676  10
   0  -1  10 325.801 15.8481  10
  -1   0  10 284.817 15.9393   8
  -1   0 -10 323.619 15.6946   4
   0   1 -10 295.080 37.5174   9
   1   0  10 303.385 16.4114   7
   1   0  10 319.155 18.2129   8
   1   0  10 307.680 18.0509   5
   1   0  10 315.411 16.2258   6
   0  -1  10 306.130 21.1881   3
   0   1 -10 292.139 17.5689   6
   0  -1  10 312.761 15.6870   7
  -1   0 -10 302.940 17.6651   8
  -1   0 -10 282.280 36.3363   9
   0   1  10 262.861 20.9164   3
   0  -1 -10 318.119 18.7362   6
   0   1  10 307.549 18.3041   2
  -1   0 -10 290.452 18.7328   3
   0  -1 -10 289.314 16.5977   4
  -1   0 -10 308.801 15.4306   5
   1   0 -10 293.792 66.2526   1
   0  -1  10 336.048 22.0925   4
   0  -1  10 324.813 17.1171   5
   0  -1  10 307.836 15.8061   6
   1   0  10 278.790 22.2334   4
  -1   0  10 324.541 18.6126   2
  -1   0  10 307.383 22.4392   3
   0   1 -10 300.028 18.3750   7
   0   1 -10 328.449 17.3512   8
   0  -1 -10 325.484 17.0600   5
   0  -1 -10 297.763 22.9645   2
   0   1  10 309.774 15.3779   7
   0   1 -10 311.105 15.9715   4
   1   0 -10 287.880 20.0152   7
   1   0 -10 334.633 17.6768   8
   1   0 -10 250.988 43.5437   9
   1   0 -10 313.964 15.6249  10
   1   0  10 303.585 20.3334   2
   1   0  10 270.461 21.2952   3
   0  -1  10 331.223 19.7638   2
   1   0  10 310.181 20.3868   9
   1   0  10 300.905 16.8321  10
   0  -1 -10 319.267 15.1119  10
   1   0 -10 330.201 19.3694   6
   0  -1 -10 337.806 17.6505   8
   1   0 -10 328.921 23.9555   2
  -1   0 -10 296.587 18.6653   7
   0  -1 -10 308.840 21.1533   3
   1   0 -10 301.566 17.2475   5
  -1   1 -10 119.798 11.4248   6
  -1   1 -10 117.730 8.75165   5
   1  -1  10 139.388 10.2905   7
   1   1  10 96.9838 17.9138   1
   1  -1  10 134.644 16.0450   2
   1  -1 -10 120.540 10.8969   4
  -1   1  10 130.750 11.1096   6
  -1   1  10 119.265 11.3428   2
   1   1 -10 130.469 9.96260   5
   1  -1  10 133.456 10.9575  10
   1  -1 -10 121.877 12.0983   6
   1  -1 -10 57.2264 36.4298   9
  -1   1  10 125.364 9.11012  10
   1  -1  10 122.053 16.7960   3
  -1   1 -10 89.7041 27.4069   1
  -1   1 -10 125.663 17.1516   2
  -1  -1 -10 128.037 9.24946   5
  -1   1 -10 132.091 8.86239   4
   1   1 -10 112.554 14.9926   3
   1  -1  10 131.687 9.65007   6
   1   1 -10 134.165 8.55218  10
   1   1  10 105.860 15.0081   3
   1  -1 -10 132.709 17.4801   3
  -1   1 -10 144.333 11.6774   8
  -1   1  10 133.372 9.52374   7
  -1   1 -10 123.485 7.60265  10
   1   1  10 117.334 9.28240   7
  -1  -1  10 109.021 11.9960   4
  -1  -1 -10 114.165 10.8469   6
  -1  -1 -10 117.233 9.02423   4
  -1   1 -10 117.496 11.2940   3
  -1  -1 -10 124.332 7.75485  10
  -1  -1  10 143.979 11.3987   2
  -1  -1  10 100.372 13.9778   3
   1   1  10 137.880 9.89425  10
  -1  -1 -10 102.607 10.1697   8
  -1  -1  10 114.700 8.37440   7
  -1   1  10 119.998 12.4535   4
  -1   1  10 112.385 10.2495   5
   1  -1 -10 115.838 16.6025   2
  -1  -1 -10 116.097 12.5629   7
   1  -1 -10 114.841 10.2732   5
  -1   1  10 125.244 12.5451   9
  -1  -1 -10 109.874 13.6355   3
   1  -1 -10 124.976 8.89668  10
   1   1  10 117.495 10.6530   5
   1   1  10 130.600 9.68927   6
  -1  -1 -10 106.551 15.9552   2
   1   1 -10 112.557 10.9900   6
  -1  -1  10 130.054 8.69635  10
   1   1 -10 124.402 13.4643   7
   1   1 -10 105.220 9.70245   8
   1   1 -10 104.372 37.3064   9
  -1   1  10 113.862 9.97726   8
   1   1 -10 105.571 15.3101   2
   1   1  10 117.699 13.7753   2
  -1   1 -10 109.347 12.5596   7
   1   1  10 116.696 12.4668   9
   1  -1  10 128.337 11.6836   5
   1  -1  10 124.446 11.4295   8
  -1   1  10 120.787 16.5466   3
   1   1  10 130.862 14.1860   4
  -1  -1  10 111.396 9.58179   5
   1   1  10 102.585 10.7383   8
  -1  -1  10 103.324 10.0235   8
   1  -1  10 87.5069 14.9511   4
  -1   1 -10 109.378 26.2208   9
   0   2  10 55.0753 7.93250   8
   2   0 -10 60.0281 9.83406   4
   0   2 -10 76.0946 5.55283  10
  -2   0  10 74.5142 7.32676  10
   0  -2 -10 62.1324 12.8675   2
   0   2  10 61.3170 11.7570   3
  -2   0 -10 69.7829 10.3115   6
   0   2  10 74.0915 18.5076   1
   2   0  10 64.3909 8.58836   6
   0  -2  10 76.5800 12.6260   4
   2   0 -10 82.4059 33.6823   1
   0   2  10 87.5945 11.3537   9
  -2   0  10 67.5518 7.38264   7
  -2   0  10 63.5289 7.84817   8
   2   0 -10 60.2979 8.47391   8
   0   2  10 72.0665 11.1346   4
   0   2  10 70.0565 9.38942   5
   0   2  10 74.3678 9.55085   6
   0  -2  10 76.6227 6.71361  10
   2   0 -10 67.1971 13.7246   3
  -2   0  10 72.3814 10.6332   6
   2   0  10 46.3442 8.76358   8
   2   0  10 71.2054 12.2793   9
   2   0  10 54.3532 9.37879  10
  -2   0 -10 77.2518 7.89931   5
   0  -2  10 88.9161 10.4488   8
  -2   0  10 77.1107 10.3164   5
   2   0 -10 75.9144 10.5784   5
   2   0  10 88.0701 9.98584   7
   2   0  10 68.4502 12.0235   2
  -2   0  10 59.5932 9.01470   2
   0   2  10 65.9928 7.15132   7
   0  -2  10 84.2595 8.13421   5
  -2   0  10 78.6089 11.9393   4
   0   2 -10 68.8308 10.1328   3
   0   2 -10 72.3696 13.0398   2
   2   0  10 52.9661 12.9052   3
  -2   0 -10 68.4336 11.0912   3
   0   2  10 84.0321 10.5301   2
  -2   0 -10 82.4117 11.2551   7
   2   0 -10 71.4409 9.93231   7
   0   2 -10 65.5271 9.23638   6
  -2   0 -10 62.3792 9.82612   8
  -2   0 -10 80.5102 6.52176  10
  -2   0 -10 72.5862 7.57626   4
  -2   0  10 86.0753 14.9652   3
   0  -2 -10 79.7651 11.8000   7
   2   0 -10 54.8070 10.3621   6
   0  -2 -10 68.7823 9.07823   8
   0  -2 -10 78.6027 6.77796  10
   0  -2  10 72.7010 11.0486   2
   0  -2  10 70.1388 8.19963   7
   2   0  10 59.3482 10.4541   5
   0  -2  10 100.124 13.9897   3
   0  -2 -10 53.9238 11.5164   3
   0  -2 -10 79.7835 8.50769   4
   0  -2 -10 75.8351 9.61265   5
   0  -2 -10 66.2744 10.5731   6
   2   0 -10 74.5869 13.6115   2
   0   2 -10 76.7388 6.73490   5
   2   0  10 54.6984 13.1477   4
   0   2 -10 87.8854 11.2757   7
  -2   0 -10 46.4380 11.4132   2
   0   2 -10 69.1995 26.0197   9
   0   2  10 77.8819 6.99082  10
   2   0 -10 73.9030 7.17376  10
   2  -1 -10 87.4923 8.25645  10
  -1  -2 -10 106.588 12.0275   7
  -2  -1  10 83.6714 7.56497   7
   2  -1 -10 84.5561 12.4223   4
   1   2 -10 94.9839 11.1288   7
  -2   1 -10 82.9042 7.92243   4
  -1  -2 -10 91.8198 6.74268  10
   1  -2  10 74.1556 9.36094  10
  -2   1 -10 74.3292 11.7382   7
  -2  -1  10 94.0029 10.8784   2
  -2   1 -10 77.5668 7.80193   5
  -2   1 -10 64.2381 10.5485   6
   2   1  10 70.0740 12.1299   2
  -2   1 -10 80.9315 6.47843  10
  -1  -2 -10 98.5328 15.7134   2
  -2   1 -10 79.9100 12.0629   3
  -1  -2 -10 94.5171 8.49279   4
  -1  -2 -10 100.446 8.71718   5
   1   2 -10 87.0910 6.42094  10
   1  -2  10 95.6052 11.5352   5
   2   1  10 87.2515 9.49292   6
  -1  -2 -10 80.5591 9.92307   8
   1   2 -10 90.6036 13.4477   3
   2   1  10 61.9904 12.7003   4
   1  -2  10 82.1362 11.2038   8
  -2   1 -10 79.1573 27.1104   9
  -1   2  10 70.2202 11.5836   4
  -1   2  10 67.2918 8.27130   8
  -1   2  10 73.2398 13.4594   3
  -2   1 -10 58.4603 12.5735   2
   2  -1 -10 97.3462 12.2974   5
  -2  -1  10 94.1114 14.7321   3
   2  -1 -10 82.9741 9.82626   8
   2   1  10 61.6402 9.62271   8
   1   2 -10 94.0216 13.8727   2
   2   1  10 79.1800 14.6441   3
   1  -2  10 75.6234 9.16760   7
   1   2 -10 83.1081 9.33311   5
   1   2 -10 90.7850 9.76105   6
  -1  -2 -10 77.8675 11.9507   3
   2   1  10 79.0694 11.2141   5
   2   1  10 81.1460 9.79788   7
  -2  -1  10 84.6260 10.3512   5
  -2   1 -10 92.7983 12.0455   8
   1   2 -10 146.578 32.0009   9
   2  -1 -10 47.3020 10.5936   2
   2  -1 -10 81.8115 15.4782   3
  -2  -1  10 85.8704 8.69803   8
   2  -1 -10 106.209 15.4901   6
   2  -1 -10 79.2943 10.4910   7
  -1   2  10 73.1667 7.87887   7
   1  -2  10 97.4188 14.8358   2
  -1   2  10 83.0639 12.0071   9
  -1   2  10 69.7706 7.29291  10
   1  -2  10 93.7422 15.1992   3
  -2  -1  10 79.9240 7.21027  10
   1  -2  10 73.4094 14.9209   4
   2   1  10 89.6376 12.2948   9
   2   1  10 86.0416 10.6745  10
  -1   2  10 85.2415 11.0489   2
  -1   2 -10 81.5647 6.12927  10
  -1  -2  10 83.3435 7.21167   7
   2  -1  10 86.9211 16.0111   4
   1   2  10 103.246 9.46870   5
  -2  -1 -10 117.188 18.1472   2
   2  -1  10 116.338 17.5127   2
  -2   1  10 75.2291 10.2242   2
  -1   2 -10 85.2759 11.5965   6
   1   2  10 85.2266 10.1742   8
  -1   2 -10 74.6392 7.27490   5
   1   2  10 85.6584 11.7069   2
  -2   1  10 83.7861 12.4665   4
  -2  -1 -10 80.2184 11.9134   3
  -2  -1 -10 86.3424 7.97789   4
  -2  -1 -10 96.5542 8.20372   5
  -2   1  10 86.5230 11.6797   5
  -2   1  10 90.4310 12.2804   6
   1   2  10 85.4698 11.4474   9
  -1  -2  10 99.5088 11.7565   2
   1  -2 -10 56.2204 9.75642   7
  -1  -2  10 104.799 8.66102   5
  -2  -1 -10 74.9022 10.4116   6
  -2  -1 -10 108.987 13.0574   7
   2   1 -10 74.8572 7.06541  10
  -1   2 -10 65.0520 26.2655   9
  -1  -2  10 92.2200 7.06212  10
  -1  -2  10 65.2957 8.36819   8
   1  -2 -10 83.0276 11.2370   4
   1  -2 -10 82.4183 11.1536   5
   2  -1  10 84.1949 12.8447   5
   2  -1  10 70.9719 9.33235   6
  -1   2 -10 89.9599 11.2104   8
   2  -1  10 69.8990 10.8007   8
   2  -1  10 81.8661 11.8746  10
   1   2  10 85.2121 8.19424   6
  -2  -1 -10 87.1702 10.8655   8
   1  -2 -10 75.0287 12.0987   6
   1  -2 -10 105.131 16.7422   2
   1  -2 -10 92.0017 15.5143   3
  -1   2 -10 67.3394 13.6831   2
  -1   2 -10 71.0676 10.4366   3
  -2   1  10 60.7166 13.6224   3
  -1  -2  10 104.535 13.5113   4
   1   2  10 83.1860 7.51297  10
   2  -1  10 86.0620 17.6155   3
   1  -2 -10 78.7733 7.50334  10
  -1  -2  10 79.0827 11.7196   3
   2   1 -10 55.1711 11.8075   2
   2  -1  10 95.5092 11.3688   7
   1  -2 -10 61.3217 8.68827   8
   2   1 -10 102.831 13.4644   6
  -2  -1 -10 82.9316 6.49633  10
  -1   2 -10 88.9803 11.8080   7
   1   2  10 88.9070 8.19151   7
   2   1 -10 74.1167 10.1286   5
   2   1 -10 61.9041 12.3902   3
  -2   1  10 75.8382 7.71549  10
  -2   1  10 92.4563 8.27495   7
  -2   1  10 75.0636 8.52737   8
   2  -2  10 326.366 22.2772  10
   2  -2  10 315.125 29.1341   4
  -2   2 -10 390.213 23.7075   7
   2   2 -10 375.403 22.8398   6
  -2  -2 -10 407.899 19.4834   4
   2  -2  10 389.903 22.1247   7
  -2   2 -10 373.502 23.3351   8
  -2  -2 -10 427.793 23.4914   7
  -2   2 -10 403.489 19.2695   5
   2   2  10 412.051 25.8448   9
   2  -2 -10 351.104 23.3056   5
  -2  -2 -10 423.422 23.9420   3
   2   2  10 359.904 24.8991   2
   2   2  10 419.572 26.7718   3
   2   2  10 405.566 21.7398   5
   2  -2 -10 396.958 30.7964   3
  -2   2  10 395.620 19.5929   8
  -2   2  10 411.119 25.4734   9
   2  -2 -10 390.579 21.0198   8
  -2   2 -10 371.183 23.0703   3
   2  -2 -10 381.700 23.9350   4
  -2   2 -10 372.011 17.1611  10
   2  -2 -10 390.389 26.1137   6
   2  -2 -10 394.140 22.3839   7
  -2   2  10 410.389 30.7826   3
  -2  -2 -10 412.194 17.6610  10
  -2   2  10 402.632 23.8569   5
   2   2  10 429.646 20.5246  10
  -2   2 -10 360.179 28.4865   2
   2   2  10 408.366 20.2729   6
   2  -2  10 360.196 29.4933   3
  -2  -2 -10 409.170 28.6521   2
   2  -2  10 359.695 24.1257   5
  -2   2 -10 383.066 41.6932   9
  -2   2  10 374.524 18.7949   7
  -2  -2  10 363.850 19.1652   8
  -2   2  10 392.803 25.1060   4
  -2   2  10 361.159 20.2075  10
   2   2 -10 277.105 44.1809   9
  -2   2 -10 387.546 23.3489   6
   2  -2 -10 397.354 21.2938  10
   2  -2  10 419.257 28.6038   2
  -2   2  10 406.552 24.6920   6
   2   2  10 402.747 20.7846   7
   2  -2  10 385.731 23.6639   8
  -2  -2 -10 416.359 19.4324   5
  -2  -2 -10 397.454 22.1730   8
  -3   0  10 220.618 13.2101   8
   0  -3 -10 232.513 21.3548   2
   0   3  10 210.643 12.9977  10
  -3   0 -10 211.052 11.5919  10
   3   0  10 196.445 15.3409   6
   0  -3  10 219.051 19.0000   4
   0  -3  10 217.665 15.4088   8
  -3   0 -10 213.001 17.6677   7
  -3   0  10 216.359 21.8096   3
   0   3 -10 205.557 14.4891   6
  -3   0 -10 215.976 13.7174   5
   0  -3 -10 216.210 15.2507   5
   0  -3 -10 212.136 18.2742   7
   3   0  10 174.619 24.5621   3
  -3   0 -10 226.635 17.2954   8
   3   0 -10 168.076 21.3537   9
  -3   0  10 205.135 13.7461  10
   3   0  10 141.239 22.2062   4
   0   3  10 216.133 15.2285   2
   0   3 -10 186.520 32.9689   9
   3   0 -10 198.040 14.9258   7
   3   0 -10 232.189 22.6531   3
  -3   0  10 195.362 17.0254   4
   3   0 -10 198.609 14.0733   8
   0  -3 -10 212.436 15.4230   4
  -3   0  10 223.470 12.7426   7
  -3   0 -10 203.245 17.6895   6
   3   0  10 226.478 18.3019   8
  -3   0  10 214.635 16.8232   2
   3   0 -10 184.008 17.9129   2
   3   0  10 192.984 17.9988  10
   0   3  10 222.396 18.3022   9
  -3   0  10 211.763 16.5720   5
   3   0 -10 205.241 14.2873  10
   3   0  10 225.652 21.1606   9
   3   0 -10 222.164 17.2598   5
   3   0 -10 192.323 18.6394   6
  -3   0 -10 217.753 13.1837   4
   3   0  10 206.966 15.8294   7
  -3   0 -10 205.615 17.1719   3
   0  -3 -10 203.949 12.9077  10
   0   3  10 199.547 14.7015   6
   0  -3 -10 233.983 16.2187   8
   0   3  10 230.677 12.7567   7
   3   0  10 174.004 18.0580   5
   0   3  10 207.796 19.5198   3
   0  -3 -10 215.448 20.1459   3
  -3  -1  10 47.4224 6.92279   8
  -1  -3 -10 42.8196 7.69295   5
   3  -1 -10 43.1843 11.4218   6
   3  -1 -10 51.5211 10.4690   5
   3   1  10 35.7036 7.60219   7
  -3   1 -10 48.1181 5.91982  10
  -1   3  10 53.4218 12.2282   9
  -3  -1  10 21.7092 8.53764   3
   1   3 -10 61.0684 9.57244   6
   3  -1 -10 48.6440 10.5872   4
   3   1  10 32.2717 8.29489  10
  -1  -3 -10 43.2442 9.85299   2
   1  -3  10 36.5610 7.35391   7
   3  -1 -10 25.7143 11.9822   9
  -3   1 -10 51.8366 7.47138   4
  -1  -3 -10 36.2043 7.03358   4
   3   1  10 39.5425 8.58240   6
   3   1  10 48.5227 9.85483   8
  -3  -1  10 34.4258 5.80088   7
  -1   3  10 41.3260 9.08261   6
  -3  -1  10 41.4232 9.25801   4
   3  -1 -10 38.7233 7.52044   8
  -3  -1  10 50.4766 9.09594   2
  -1   3  10 36.9429 9.77981   8
  -3   1 -10 50.2242 7.57145   5
  -1  -3 -10 19.8533 7.32581   3
   1  -3  10 39.4050 8.65137   8
   1   3 -10 47.5954 27.1446   9
   3   1  10 21.2164 10.9445   3
  -1   3  10 46.1108 9.36288   5
  -1  -3 -10 34.9210 8.08711   7
  -1  -3 -10 41.9562 7.94998   8
  -1  -3 -10 54.5089 5.90988  10
  -3   1 -10 44.8139 10.3077   7
  -1   3  10 38.9050 6.21991   7
   3   1  10 30.8954 9.09055   5
  -1   3  10 48.8818 7.57402  10
  -3   1 -10 65.9857 12.1550   8
   3   1  10 40.7311 11.6094   9
   1  -3  10 51.2153 8.93126   5
  -3  -1  10 42.8032 6.71391  10
  -3   1 -10 49.9522 11.1661   6
  -3  -1  10 35.8054 7.78347   5
   3  -1 -10 39.8629 8.03475   7
   3  -1 -10 40.1432 7.87224  10
   1  -3  10 29.2984 11.5010   4
   3  -1  10 61.7352 11.4417   8
   1   3  10 30.0591 8.52321   3
   1  -3 -10 26.0260 9.44803   3
   3   1 -10 28.6500 9.30378   2
   1  -3 -10 43.6766 8.26316   8
   1   3  10 46.1675 8.04715   5
  -1  -3  10 36.4776 8.52647   4
   1  -3 -10 30.7189 7.86927   5
  -3   1  10 46.7531 6.89937   8
  -1   3 -10 50.4728 5.01586  10
   3  -1  10 18.6230 11.7114   4
   3  -1  10 43.2577 11.3532   5
   1  -3 -10 37.1900 8.43682   4
   3   1 -10 28.0677 7.33066   7
   1  -3 -10 30.9364 8.47553   7
  -3   1  10 36.3667 6.01337   7
   3  -1  10 50.3952 11.0841  10
  -1   3 -10 49.5078 6.60007   5
   1  -3 -10 43.4466 7.24850  10
  -3   1  10 52.9153 11.2931   4
  -3  -1 -10 31.7882 6.07222   4
  -3  -1 -10 43.9910 7.17698   5
  -1   3 -10 29.9741 8.20446   6
  -3   1  10 39.2373 8.74136   5
   1   3  10 51.1764 10.7246   9
   1   3  10 41.0699 6.96860   6
  -1   3 -10 31.0243 24.6986   9
   1   3  10 44.6896 8.39702   2
  -3  -1 -10 38.9707 5.72230  10
  -3  -1 -10 55.8931 10.6031   8
   3   1 -10 45.0296 10.6877   6
  -1   3 -10 44.7502 8.68833   7
   3   1 -10 44.2969 7.37797  10
  -1  -3  10 40.0454 7.21565   8
  -3   1  10 46.3371 9.95699   6
   3   1 -10 39.5284 11.8230   3
   1   3  10 35.2369 5.82781  10
  -3  -1 -10 49.1688 10.6618   7
   3   1 -10 48.1283 9.31517   5
   3  -1  10 48.0262 9.14514   7
   1   3  10 39.7849 6.31720   7
  -3  -1 -10 30.2588 8.46315   3
   3  -1  10 30.5685 7.17447   6
  -3   2 -10 60.1678 8.53264   5
   3   2  10 47.6689 8.51709   6
   2  -3  10 70.8494 11.9720   8
  -2   3  10 62.8690 12.4349   6
   3   2  10 68.7310 14.6114   9
  -3   2 -10 55.5690 7.34759   4
   2   3 -10 48.2856 32.6195   9
   3   2  10 51.4502 9.14102   7
  -3   2 -10 55.3239 11.4600   7
  -2   3  10 34.6041 6.18232   7
   2  -3  10 95.0724 12.6012   7
  -3  -2  10 38.5640 6.81670   8
   2   3 -10 74.0138 11.4033   6
   3  -2 -10 66.8117 10.2200  10
  -2  -3 -10 68.8217 10.2754   8
  -2  -3 -10 57.8424 8.03833   4
  -3   2 -10 51.6397 11.3147   8
   3  -2 -10 61.6057 12.9357   4
   3  -2 -10 56.3733 11.6720   5
   2  -3  10 39.4853 15.2792   4
   2  -3  10 46.6768 10.9009   5
  -2   3  10 50.3941 7.75155   8
   3   2  10 49.5001 8.74716  10
  -3   2 -10 51.3055 22.9634   9
   3  -2 -10 82.2775 16.2522   6
  -3  -2  10 82.9161 12.4894   4
  -3   2 -10 44.6060 10.9092   6
   2  -3  10 36.1239 8.85232  10
  -3   2 -10 58.3684 6.95382  10
   3   2  10 39.4215 11.8005   3
   3  -2 -10 44.0706 8.85625   7
   3   2  10 59.1577 10.2994   5
   3  -2 -10 58.3758 9.03843   8
  -2   3  10 57.5881 13.5004   9
  -2   3  10 58.6769 10.8048   5
   2  -3  10 34.2921 12.8424   3
  -2   3 -10 50.8642 10.2346   7
  -2   3 -10 60.2503 11.0029   6
   2   3  10 67.0235 13.0163   9
  -2   3 -10 48.2619 26.9162   9
   3  -2  10 52.8956 11.7201  10
   2   3  10 49.2157 8.44337   5
  -3  -2 -10 46.2563 9.90812   8
  -3  -2 -10 55.1349 5.96611  10
  -2   3 -10 58.1231 6.17818  10
  -2   3 -10 44.5565 7.16985   5
   3  -2  10 61.8427 12.7029   8
  -2   3 -10 49.8653 10.0549   3
   3  -2  10 50.6797 15.5658   4
   2   3  10 52.4104 8.04420   6
   2   3  10 64.2156 8.91113   7
   2  -3 -10 44.9393 8.44881   8
  -3   2  10 64.7098 12.8560   4
  -3   2  10 45.0028 7.06007   8
   2  -3 -10 69.1175 12.2191   4
  -2  -3  10 50.5259 7.56338   8
   2  -3 -10 48.1656 9.14431   7
   3   2 -10 87.2435 14.4971   6
   2  -3 -10 57.2165 11.4903   5
  -3   2  10 61.3276 9.60707  10
  -3   2  10 69.2722 13.0160   6
  -3  -2 -10 42.5896 7.05664   4
   2  -3 -10 50.5953 8.72320  10
  -3  -2 -10 30.7512 7.82479   3
  -3  -2 -10 42.5012 6.77283   5
  -3  -2 -10 46.9503 9.96036   7
  -3   2  10 53.1102 7.62881   7
   3  -2  10 39.3549 8.44298   6
  -3   2  10 54.3838 11.2458   5
   3  -2  10 48.6005 12.0501   5
   3  -2  10 74.0498 11.6648   7
   3   3  10 6.97977 12.7706   9
   3   3  10 14.6687 5.45386   6
  -3   3  10 6.13335 5.07442   8
   3  -3 -10 10.4604 5.48735  10
   3  -3  10 12.1636 9.41174   5
  -3   3  10 4.74142 5.28141   7
  -3  -3  10 13.4174 5.51760   4
  -3   3 -10 10.7462 4.99822   5
  -3   3 -10 10.2792 7.75185   6
  -3   3 -10 10.0609 9.98820   7
  -3   3 -10 11.7010 24.8797   9
   3  -3  10 18.1789 14.0093   8
   3  -3  10 16.2956 8.92461  10
   3  -3 -10 14.7923 7.91489   8
   3   3 -10 43.0065 47.5939   9
   3  -3 -10 9.51475 6.76704   5
  -3  -3 -10 28.2222 8.51918   8
  -3   3  10 15.0202 7.29803   5
   3  -3  10 19.3634 7.98491   7
  -3   3 -10 9.33339 3.78603  10
  -3   3  10 8.40555 4.41887  10
  -3   3  10 19.3930 9.23960   6
   3  -3 -10 6.32414 5.95883   4
   3   3 -10 17.5333 6.77536   6
  -3  -3 -10 17.6557 5.35250   4
   3  -3 -10 9.60690 7.21539   7
   3  -3  10 -5.4989 12.9349   4
  -3   3  10 7.61322 10.3238   9
   0   4  10 0.57267 4.01127   6
  -4   0  10 4.51889 5.06685   8
   4   0  10 7.42834 7.91209   8
   4   0 -10 8.17956 6.21633   5
   4   0  10 -0.5836 5.34338   6
  -4   0  10 7.24507 6.01733   4
   4   0  10 8.06338 8.69409  10
   4   0  10 5.66424 10.4649   4
   4   0  10 -3.2916 7.75257   5
  -4   0 -10 2.19206 3.47403  10
   0  -4 -10 5.34591 5.25972   4
   0  -4 -10 17.5813 7.37175   8
   0   4  10 -0.7249 8.75195   9
   0   4 -10 35.4418 34.7134   9
  -4   0 -10 11.9412 8.79066   7
  -4   0  10 4.23025 5.54851   5
   4   0  10 17.2079 10.1978   9
  -4   0 -10 3.51673 3.72369   4
  -4   0  10 4.98094 4.48308   7
   0   4 -10 5.70639 4.86390   6
   4   0  10 -6.3784 7.36978   7
   4   0 -10 -1.5841 7.58618   9
   4   0 -10 3.08375 5.46270   7
  -4   0 -10 7.30185 5.26206   5
   4   0 -10 2.37403 3.62962  10
   4   0 -10 6.51176 7.85780   6
  -4   0 -10 3.30509 9.32090   8
  -4   0 -10 9.31495 8.54230   6
   0  -4  10 -2.1836 5.78785   4
  -4   0  10 6.76481 3.75109  10
   1  -4  10 114.063 14.7170   8
  -4  -1  10 157.666 19.1635   4
  -4   1 -10 137.245 11.3756   4
   4  -1 -10 118.864 13.7276   7
  -4   1 -10 125.147 11.8712   5
  -4   1 -10 136.657 20.1638   8
  -1  -4 -10 150.230 13.0632   8
   1   4 -10 118.167 38.7364   9
   4   1  10 141.108 20.1686   9
   4  -1 -10 135.730 21.8749   6
   4  -1 -10 136.718 19.0635   4
   4   1  10 122.031 17.4497   5
   4   1  10 97.3067 12.8297   6
   4  -1 -10 121.409 18.2213   5
   4  -1 -10 93.5581 11.8128   8
   1  -4  10 123.289 20.3225   4
   4   1  10 104.863 15.7716  10
  -4  -1  10 108.625 11.9857  10
  -4   1 -10 143.588 17.8472   6
  -4   1 -10 135.467 20.5053   7
  -4  -1  10 124.407 10.8605   8
  -4   1 -10 127.974 9.93470  10
   4   1  10 120.919 16.1764   7
  -4  -1  10 177.316 27.8832   5
  -1  -4 -10 133.768 12.4549   4
  -1   4  10 144.371 13.7804   5
   4  -1 -10 118.864 12.8629  10
  -1   4  10 108.522 10.2703   7
  -1   4  10 134.732 20.0628   9
   4  -1 -10 77.9797 18.9032   9
  -1   4  10 122.629 16.3153   6
   4   1 -10 140.235 17.5501   5
  -4  -1 -10 125.899 9.40966  10
   4  -1  10 73.9554 14.0942   5
  -4   1  10 144.749 16.2063   4
   4  -1  10 149.292 19.2470   7
   4  -1  10 86.2044 12.2639   6
   4   1 -10 103.275 12.7575   7
  -4   1  10 124.601 11.9936  10
  -4  -1 -10 135.350 11.7904   5
  -4   1  10 123.358 11.7282   7
   1   4  10 140.645 12.2512   6
   4  -1  10 89.1488 21.9703   4
   1  -4 -10 140.747 14.1653   5
   4   1 -10 136.731 11.6851  10
   4  -1  10 150.315 21.7510   8
  -4   1  10 123.806 17.5955   5
   1   4  10 148.574 18.7746   9
  -4  -1 -10 150.776 11.4875   4
  -1   4 -10 186.324 48.4483   9
  -4  -1 -10 163.111 18.7737   7
   4  -1  10 107.222 16.5763  10
  -1   4 -10 122.238 14.9738   6
   1  -4 -10 108.384 13.0068   8
   1  -4 -10 128.730 11.2804  10
  -4   1  10 134.442 12.7137   8
  -4  -1 -10 131.027 18.9936   8
   1  -4 -10 122.519 16.0923   4
   4   1 -10 172.817 22.7727   6
  -4   2 -10 80.4365 14.3984   6
   4   2  10 49.8280 10.8066   5
  -2  -4 -10 48.2828 9.09030   8
  -2   4  10 54.5324 9.32658  10
  -4   2 -10 64.4430 16.7337   8
   4  -2 -10 52.9387 11.3914   7
   4  -2 -10 48.3707 15.0824   6
  -2   4  10 37.6314 10.0800   5
   4  -2 -10 67.2796 14.8461   4
  -2  -4 -10 52.7678 8.53746   4
  -2   4  10 72.1286 14.2851   6
   4   2  10 71.1350 12.7984   7
  -4   2 -10 56.8316 8.11710   4
   4  -2 -10 40.0999 10.3401   8
   4   2  10 39.5892 9.14336  10
   4   2  10 44.1947 9.42689   6
  -4   2 -10 46.7626 17.9836   7
   4  -2 -10 67.7734 13.8538   5
   2  -4  10 38.9401 15.4592   4
   2   4 -10 56.5217 40.1589   9
  -4  -2  10 63.3146 11.5032   4
   4   2  10 81.4817 21.9959   9
   2  -4  10 59.7938 12.7496   8
  -2   4  10 46.7977 7.97745   7
  -4  -2  10 48.2756 7.45339   8
   4  -2 -10 46.3143 10.3137  10
  -4   2 -10 58.9117 7.74874  10
  -2   4  10 67.0154 16.6569   9
  -4   2 -10 42.2643 7.77758   5
   4  -2  10 88.5363 17.8181   7
  -4   2  10 55.0078 9.96072   7
   4  -2  10 48.3369 17.7764   4
   2   4  10 61.9814 9.47894   6
   2   4  10 87.7527 18.4005   9
   2  -4 -10 56.7826 9.45676  10
  -2   4 -10 48.6857 11.0954   6
   2  -4 -10 62.9149 12.6053   4
  -4  -2 -10 71.5122 15.7666   8
  -4  -2 -10 49.2762 6.59121  10
   4   2 -10 12.3124 16.6499   9
  -2   4 -10 109.133 55.6282   9
   4  -2  10 42.4266 11.9295  10
  -4   2  10 52.1557 12.1270   5
   4   2 -10 70.8526 14.5177   6
   2  -4 -10 54.3143 11.0875   8
   4  -2  10 47.6435 17.8211   8
  -4   2  10 47.2235 12.3507   6
  -4   2  10 53.9994 9.51770  10
  -4  -2 -10 57.0353 8.34159   4
  -4  -2 -10 51.7410 7.90840   5
   4  -2  10 38.8223 8.64694   6
   4  -2  10 43.2091 12.0560   5
  -4   2  10 44.6336 11.1142   4
  -4   2  10 38.3260 8.70513   8
   2  -4 -10 63.0433 12.0525   5
  -3   4  10 71.3030 10.3950   7
  -3   4  10 83.7458 12.2150  10
   3  -4  10 77.6640 23.0256   4
  -3  -4 -10 108.385 10.7265   4
  -3   4  10 126.677 21.1996   6
  -4   3 -10 94.1978 9.32777  10
  -3   4  10 109.232 22.1617   9
   4   3  10 77.9549 10.9100   6
  -4   3 -10 117.334 17.3991   6
   4   3  10 103.753 28.0772   9
   4  -3 -10 91.5021 17.0836   5
   4  -3 -10 102.139 15.9181   7
   4  -3 -10 91.5070 13.7032  10
   3   4 -10 33.9231 51.4616   9
   4  -3 -10 76.4880 13.9101   8
  -3   4  10 91.8344 15.4494   5
  -4   3 -10 96.2621 22.1347   7
  -4   3 -10 111.471 10.8993   5
   4  -3 -10 91.0258 17.0141   4
   3  -4  10 91.0949 22.6535   8
   3  -4 -10 85.8660 14.4597   8
  -4   3  10 97.8428 16.7006   5
  -4   3  10 70.3867 11.1543   8
   4  -3  10 123.441 21.0895   7
   3   4  10 98.5048 10.0758   6
   3  -4 -10 89.1943 14.2337   7
  -4   3  10 101.716 14.2224  10
   3   4  10 89.2203 23.3826   9
   3  -4 -10 93.8206 16.0744   5
  -4   3  10 78.1949 11.7648   7
   4  -3  10 102.581 25.4711   8
  -3   4 -10 80.1268 9.67334  10
  -4   3  10 99.8479 17.6882   4
  -4  -3 -10 99.9521 10.1098   4
   3  -4 -10 116.654 15.6662  10
  -4  -3 -10 89.1837 16.9319   8
  -3   4 -10 98.0906 14.8619   6
  -3   4 -10 94.8589 55.8013   9
   4  -3  10 86.1958 15.0512  10
   4  -3  10 89.4949 15.9438   5
   3  -4 -10 87.5285 16.3003   4
  -4   3  10 111.074 20.2795   6
   4  -3  10 60.3238 19.2444   4
  -4   4 -10 5.48725 3.89576   5
  -4   4 -10 -2.4454 7.08021   6
  -4  -4 -10 -2.3439 5.56493   4
   4  -4 -10 8.63643 10.3027  10
   4   4  10 0.45432 4.79246   6
  -4   4 -10 -0.2410 4.67201  10
  -4   4  10 13.8295 10.6356  10
  -4   4  10 6.84896 7.61264   6
   4  -4 -10 -5.1902 5.20084   4
   4  -4 -10 8.96160 7.82704   5
  -4   4  10 7.86362 7.50255   5
   4  -4  10 -6.5339 17.5380   4
   5   0  10 91.5313 20.8086   7
  -5   0 -10 81.4213 9.39076  10
  -5   0 -10 85.7231 23.6654   7
   0  -5 -10 85.4881 13.7226   4
   5   0 -10 58.7442 12.0750   7
  -5   0 -10 83.7285 22.7736   8
  -5   0  10 75.9084 12.3071   8
   5   0 -10 80.2495 15.2459   5
  -5   0  10 69.7783 14.7223   4
   0   5 -10 113.457 52.6999   9
  -5   0 -10 101.342 10.1489   4
   5   0 -10 48.7093 15.6144   6
  -5   0  10 60.9684 9.49569   7
   5   0 -10 43.0086 19.8160   9
   5   0 -10 70.2323 12.2147  10
  -5   0 -10 69.8075 10.6698   5
  -5   0  10 89.2838 12.1900  10
   5   0  10 60.4715 11.2659   6
   0   5  10 90.0751 19.8387   9
   5   0  10 46.5995 14.3213   5
  -5   0  10 107.277 16.0233   5
   5   0  10 70.8954 15.3922  10
   0   5  10 83.2926 13.5285   6
   5   1  10 65.8163 13.8672  10
  -5  -1  10 66.2963 14.4151   4
  -5   1 -10 88.7919 15.5280   6
   5   1  10 56.0415 10.4945   6
   5  -1 -10 86.2225 14.7319  10
  -5   1 -10 100.550 12.6513   5
  -1   5  10 119.825 17.8675   6
  -5   1 -10 127.396 11.3389   4
   5  -1 -10 99.3559 20.2445   6
  -5   1 -10 93.1366 9.43182  10
   5   1  10 84.7571 19.4815   7
   5   1  10 72.8042 15.6880   5
  -1   5  10 106.580 23.1013   9
   1   5 -10 106.797 51.5173   9
  -5   1 -10 154.024 30.0321   7
  -5   1 -10 100.404 24.9090   8
   5   1  10 106.205 27.9462   9
  -1  -5 -10 83.3250 12.1463   4
   5  -1 -10 121.767 18.7294   5
  -5  -1  10 71.9127 11.5499   8
   5  -1 -10 77.3924 14.2841   7
   5  -1  10 118.584 25.3468   8
   5  -1  10 58.7608 22.0057   4
  -5   1  10 70.2716 12.3226   8
  -5   1  10 87.0804 12.3343   7
  -5   1  10 87.2799 15.7144   4
  -5  -1 -10 105.430 9.35813  10
   5  -1  10 47.1839 12.8828   5
  -5  -1 -10 90.8984 10.2686   4
  -5  -1 -10 112.201 21.5177   7
   5  -1  10 49.1093 10.1634   6
  -5  -1 -10 78.9044 23.9684   8
   1   5  10 113.458 20.2467   9
  -5  -1 -10 94.0133 11.5363   5
  -5   1  10 97.1337 11.1093  10
  -5   1  10 123.597 18.8607   5
   5   1 -10 105.527 18.8985   6
  -1   5 -10 99.5631 60.0907   9
   5  -1  10 77.0981 15.9210  10
   5  -1  10 112.384 23.2967   7
   1  -5 -10 113.038 17.1402   4
   1   5  10 107.567 13.9346   6
  -5   2 -10 27.2575 6.91269   5
   2   5 -10 17.8200 47.8922   9
  -5   2 -10 10.9963 5.71091  10
  -5   2 -10 21.5076 20.6106   8
  -5   2 -10 27.9490 6.10159   4
   2  -5  10 22.2086 15.8899   4
   5  -2 -10 16.2979 9.64136   5
  -2   5  10 27.7237 10.7827   6
   5  -2 -10 1.46193 5.75246   4
   5  -2 -10 31.2933 14.2158   6
   5   2  10 14.2300 7.66909   6
   5  -2 -10 11.0780 8.85757  10
  -5   2 -10 28.3465 11.2932   6
   5  -2 -10 11.8403 10.5444   8
  -5  -2  10 12.0132 6.07551   4
   5  -2  10 11.6697 10.1829   5
  -5  -2 -10 34.7945 26.5608   8
  -5   2  10 19.3545 7.42573  10
   5  -2  10 20.5897 16.3782   4
   5   2 -10 14.8205 9.04885   6
   5  -2  10 18.3841 9.18183   6
  -5   2  10 18.2114 9.46323   5
  -5  -2 -10 11.5445 5.76068   4
  -2   5 -10 21.2970 9.58813   6
   2  -5 -10 15.9694 9.62045   4
   5  -2  10 9.63010 12.0000  10
   2  -5 -10 -10.028 16.3219   8
  -5   2  10 10.6294 7.08179   4
   5  -3 -10 62.1493 16.5155   5
  -5   3 -10 25.8183 11.5226   6
   5  -3 -10 65.8928 18.5064  10
  -3   5  10 71.7312 17.3476   6
   5   3  10 31.5754 8.55980   6
  -5   3 -10 34.5393 9.29763  10
  -3   5  10 41.7352 11.9123  10
   5  -3 -10 43.3314 14.2713   4
   3  -5  10 37.1793 20.1088   4
  -5   3 -10 60.3390 9.85179   5
  -5  -3 -10 39.7563 7.74925   4
  -5   3  10 43.3156 13.6860   4
  -5   3  10 53.0502 15.5412   6
   5  -3  10 5.37685 17.9513   4
   5  -3  10 28.6428 11.8718   5
   3  -5 -10 65.0686 16.0912   4
  -5   3  10 41.6671 15.6572  10
   5  -3  10 22.9149 17.0836  10
  -3   5 -10 26.0571 11.9637   6
  -5   3  10 57.2203 14.5836   5
  -6   0  10 25.6220 10.0544  10
   6   0 -10 6.30261 15.1152  10
  -6   0 -10 32.5913 9.17945  10
   6   0  10 19.0721 20.2447  10
   6   0  10 -12.228 15.8738   5
   0   0 -11 61.8976 10.7237   3
   0   0 -11 47.8424 10.5502   2
   0   0  11 118.511 10.9627   8
   0   0  11 79.9740 12.4390   4
   0   0 -11 82.2005 11.8286   7
   0   0 -11 110.483 9.23527   5
   0   0  11 100.700 9.04137   6
   0   0 -11 81.4443 10.1400   8
   0   0  11 117.667 8.84458  10
   0   0 -11 52.4066 24.6984   9
   0   0  11 101.537 9.64684   5
   0   0  11 125.372 9.43882   7
   0   0 -11 90.4444 8.86302   4
   0   0 -11 127.663 11.5348   6
   0  -1 -11 52.3071 5.63100  10
   0  -1 -11 58.1718 9.04512   8
  -1   0  11 55.0169 11.5496   3
  -1   0  11 58.8765 8.79428   6
  -1   0  11 44.1103 7.89882   5
   0  -1 -11 44.6001 10.4301   3
  -1   0 -11 47.1641 9.05788   7
   0  -1 -11 66.0705 10.9654   7
   0   1 -11 17.9735 22.8284   9
   0   1 -11 46.3575 5.22310  10
   0   1  11 51.6240 8.38333   2
   0   1 -11 47.9910 6.81168   5
   1   0 -11 52.2880 10.2991   7
   0  -1 -11 62.5630 10.4481   6
   0   1  11 45.0873 7.37693   6
  -1   0 -11 43.3076 8.20738   3
  -1   0 -11 56.4548 7.40362   4
   0  -1  11 52.2797 9.62453   2
   1   0 -11 54.6819 8.79497   4
  -1   0 -11 42.3315 10.4842   2
   0   1  11 54.1243 6.95444   7
   0   1  11 48.5511 7.92702   8
   0   1  11 55.9243 9.38106   9
   0   1 -11 50.6819 9.65503   3
   1   0 -11 42.0419 8.39213   6
   1   0  11 45.2471 8.14486   5
   1   0  11 52.2922 7.19628   6
   1   0  11 57.2104 7.79564   7
   1   0  11 47.8645 8.72731   8
   0  -1  11 61.0974 8.40800   5
   0  -1  11 52.8333 10.4674   4
   0   1 -11 52.5021 8.18338   8
   0  -1  11 61.7634 12.2020   3
   0  -1  11 52.6852 8.12289   8
   0  -1  11 55.7540 6.32905  10
   0  -1  11 58.0083 7.55215   6
   1   0 -11 44.8767 6.65474  10
   0   1 -11 44.3832 8.25432   6
   0  -1 -11 62.1660 8.81710   5
   1   0  11 52.5356 7.70206  10
  -1   0 -11 57.1470 9.16766   8
  -1   0 -11 27.3044 29.9215   9
  -1   0 -11 51.3788 5.31261  10
  -1   0  11 43.5603 8.05362   2
   1   0 -11 49.7382 12.5730   2
  -1   0 -11 55.8132 7.10054   5
   0   1  11 48.7537 7.86730   5
  -1   0  11 56.5636 10.2422   4
  -1   0  11 45.6833 6.35051   7
   0   1 -11 61.3464 12.2788   2
   0   1 -11 61.7108 10.0061   7
   0  -1 -11 37.6025 10.8113   2
   1   0  11 62.1568 10.7440   2
   1   0  11 37.0629 10.4135   3
   0   1  11 48.3558 10.5586   3
   1   0 -11 60.8021 8.97719   5
   1   0 -11 48.7269 8.19961   8
   0  -1 -11 46.3531 7.57648   4
   0   1  11 59.1235 10.9717   4
   0   1  11 54.0374 7.12545  10
  -1   0 -11 46.1629 8.62858   6
   1   0 -11 40.2970 9.95543   3
   0  -1  11 46.9654 6.93829   7
   1   0  11 46.6386 11.2582   4
  -1   0  11 45.8514 7.43388   8
  -1   0  11 59.3026 7.49223  10
   1   0 -11 6.06138 33.1767   9
   0   1 -11 54.8226 7.50072   4
   1  -1  11 409.351 21.1116  10
  -1  -1 -11 401.570 19.8265   5
   1  -1 -11 333.402 27.2775   2
   1   1  11 403.381 24.7246   9
   1   1  11 392.832 20.0766   6
   1  -1 -11 410.238 22.6535   4
   1  -1  11 332.786 26.4789   4
   1  -1 -11 388.363 19.7548  10
  -1  -1  11 398.241 20.7676   8
  -1  -1  11 393.662 26.4532   3
  -1  -1  11 404.804 21.0749   5
   1  -1  11 415.457 22.4058   5
   1  -1  11 379.963 19.5154   6
  -1  -1  11 395.156 19.0963  10
  -1   1  11 375.362 20.1273   8
   1   1 -11 403.906 20.7418   8
   1   1 -11 366.707 54.4904   9
  -1  -1 -11 382.961 22.1622   6
  -1  -1 -11 401.163 19.9809   4
  -1   1 -11 370.350 27.2893   2
   1   1  11 403.390 26.3113   3
   1  -1 -11 389.872 21.7038   8
  -1  -1  11 416.767 22.8582   2
   1  -1  11 404.509 20.7787   7
   1  -1  11 381.539 22.0347   8
   1  -1  11 384.695 25.5043   2
   1  -1  11 382.911 26.7083   3
  -1  -1  11 395.721 18.7955   7
  -1   1 -11 407.422 22.3639   8
   1   1  11 415.769 20.2426   7
  -1   1  11 423.213 28.7165   3
   1  -1 -11 379.866 24.9214   7
   1   1  11 392.196 19.9324  10
   1   1 -11 426.181 21.3089   5
   1   1 -11 356.377 22.1765   6
   1   1 -11 417.183 23.7517   7
  -1  -1 -11 367.927 24.0989   3
  -1   1 -11 410.434 17.5478  10
  -1   1 -11 417.889 19.3046   5
  -1   1  11 397.575 19.8837  10
   1   1 -11 362.626 26.4023   2
   1   1  11 366.075 21.3955   8
  -1   1 -11 425.889 23.6732   3
  -1   1  11 383.354 21.7651   5
  -1   1  11 391.657 21.9185   6
  -1   1  11 407.119 19.2292   7
   1   1  11 450.653 26.9985   4
   1   1 -11 375.700 18.7188  10
  -1   1 -11 376.721 21.9574   6
   1   1  11 357.800 23.3449   2
  -1  -1 -11 399.096 28.0026   2
   1   1 -11 393.960 25.9813   3
   1  -1 -11 370.677 21.5822   5
  -1  -1 -11 381.836 17.8278  10
  -1  -1  11 390.360 24.1448   4
   1   1  11 387.413 21.3541   5
  -1   1  11 437.263 25.4762   4
  -1   1 -11 415.535 19.3531   4
  -1  -1 -11 398.298 23.0884   7
   1  -1 -11 383.764 24.0542   6
  -1   1 -11 368.953 22.5745   7
  -1   1  11 348.910 21.8891   2
  -1   1 -11 324.274 41.2813   9
   1  -1 -11 384.710 27.7908   3
  -1  -1 -11 409.166 21.8329   8
   2   0  11 306.064 18.0146   7
  -2   0 -11 301.568 19.6080   6
   0   2 -11 278.654 19.5753   3
  -2   0 -11 293.503 15.7963   5
  -2   0 -11 303.169 14.3252  10
  -2   0  11 265.173 16.2302   8
  -2   0  11 286.156 15.5649   7
   0  -2  11 307.817 15.5671  10
   2   0 -11 256.184 18.5287   4
   0   2 -11 289.890 13.9720  10
  -2   0 -11 295.159 20.1617   7
  -2   0 -11 275.025 19.7787   3
  -2   0 -11 297.035 15.9695   4
  -2   0  11 264.591 15.8932  10
   2   0  11 305.525 17.3421   6
  -2   0  11 274.404 18.6356   5
  -2   0  11 286.487 19.3289   6
   0  -2  11 302.156 21.0305   2
  -2   0 -11 282.943 19.2512   8
   0  -2 -11 281.258 17.7833   4
   0  -2 -11 294.199 23.9847   2
   0  -2 -11 278.874 19.6127   6
   0  -2 -11 304.153 21.3398   7
   0  -2 -11 301.645 18.3248   8
   0  -2 -11 274.611 15.4544  10
   0  -2 -11 268.862 22.3192   3
   0  -2  11 292.298 22.2256   4
   2   0  11 294.194 19.9104   8
   0   2  11 299.527 18.0673   5
   0   2  11 303.155 18.0574   6
   0   2  11 303.853 15.7772   7
   0   2  11 274.704 17.2767   8
   0   2 -11 256.878 22.0332   2
   2   0 -11 267.180 23.5602   3
   0   2  11 269.044 19.9237   4
   2   0 -11 276.591 18.7443   5
  -2   0  11 254.780 18.3507   2
   0  -2  11 271.391 20.7588   3
   0  -2  11 311.521 18.6062   8
   0   2 -11 286.534 15.4532   5
   0   2  11 286.329 15.9241  10
  -2   0 -11 298.608 45.2143   2
   0   2 -11 240.239 36.7743   9
   0   2  11 295.672 18.7083   2
   0  -2  11 301.650 17.0184   5
   0   2  11 256.703 21.9371   3
  -2   0  11 266.573 23.6433   3
  -2   0  11 279.977 20.3807   4
   0   2  11 310.485 20.6190   9
   2   0  11 239.780 22.7307   3
   2   0  11 261.135 24.8708   4
   0  -2  11 297.649 16.5146   7
   2   0  11 283.297 18.7006  10
   0   2 -11 286.662 18.0330   6
   0  -2 -11 279.611 17.6257   5
   0   2 -11 315.272 19.4837   7
   2   0 -11 265.468 20.2503   6
   2   0 -11 254.286 19.3903   7
   2   0 -11 253.915 16.0808  10
   2   0 -11 288.463 23.8090   2
   2   0  11 295.897 20.0820   5
  -2   1 -11 132.442 10.6745   5
  -2   1 -11 144.966 16.4633   7
  -2   1 -11 119.120 8.61120  10
   1  -2  11 109.787 13.1380   8
  -1   2  11 110.518 9.61245  10
  -2  -1  11 120.489 9.46548  10
   1  -2  11 109.723 17.9935   4
   1   2 -11 165.908 37.4802   9
   2   1  11 85.0203 11.6995   8
  -2   1 -11 127.827 30.8535   9
   2  -1 -11 115.092 16.1275   6
   1   2 -11 135.029 13.0514   7
  -2  -1  11 122.869 9.25421   7
   1  -2  11 117.589 16.3214   2
   2  -1 -11 142.292 12.4119   8
  -2   1 -11 129.041 14.9718   8
   2   1  11 122.194 15.0656   9
   1   2 -11 119.682 12.2092   6
   1  -2  11 116.468 10.8705  10
   2  -1 -11 120.663 10.5546  10
   2   1  11 134.169 12.0689  10
   2  -1 -11 88.0755 16.5215   3
   2  -1 -11 105.855 13.3028   7
  -1  -2 -11 122.493 10.6742   5
   1   2 -11 111.268 8.34178  10
  -1  -2 -11 124.673 10.6946   4
   2   1  11 129.978 11.5123   6
   2   1  11 128.336 18.0453   4
  -2  -1  11 139.453 12.5837   2
  -1   2  11 120.507 12.0860   5
  -2  -1  11 111.260 11.2213   5
   1  -2  11 134.577 12.5462   5
  -1   2  11 121.566 14.6667   9
   2   1  11 126.143 18.1496   3
  -1   2  11 88.8841 10.1165   8
  -1  -2 -11 124.121 14.1517   7
   2  -1 -11 109.987 14.3962   4
   2  -1 -11 128.499 12.7563   5
  -1   2  11 114.687 15.4948   4
   2   1  11 117.596 11.0260   7
  -1  -2 -11 116.674 15.3359   3
  -2   1 -11 111.880 14.5603   3
  -2   1 -11 120.181 9.92157   4
  -2   1 -11 130.478 15.9256   6
  -1  -2 -11 120.294 8.68270  10
  -1  -2 -11 136.662 12.5273   8
   1  -2  11 130.395 11.7340   7
   1   2 -11 124.560 16.7041   2
   1   2 -11 96.3639 14.5248   3
   1   2 -11 118.379 10.2039   5
  -2  -1  11 121.340 10.9333   8
   1  -2  11 125.491 18.4176   3
  -1   2  11 116.708 10.2249   7
  -1  -2 -11 173.050 21.0511   2
  -1   2  11 146.364 19.6371   3
   2   1  11 126.236 13.0335   5
  -2  -1  11 148.452 19.7525   3
   1  -2 -11 129.707 12.4508   5
  -2  -1 -11 129.822 15.1815   7
   2  -1  11 120.462 19.3123   3
   1   2  11 142.287 10.7450   7
  -2   1  11 118.300 12.4102   5
   1   2  11 125.106 9.74891  10
  -1  -2  11 130.000 10.6756   5
   1  -2 -11 112.139 15.5222   6
   1  -2 -11 120.404 10.0218  10
   1  -2 -11 113.818 18.0994   3
  -2  -1 -11 133.186 10.3983   5
  -2   1  11 105.408 17.9493   3
  -1   2 -11 97.7311 30.7798   9
  -1  -2  11 128.656 8.90514  10
   2   1 -11 137.289 19.8642   3
   2  -1  11 103.127 18.6396   4
   1   2  11 129.102 12.3447   8
   1   2  11 131.852 14.4502   9
  -1   2 -11 110.444 17.8281   2
  -1   2 -11 135.465 12.7584   3
  -1   2 -11 131.873 9.73276   5
   2  -1  11 102.990 14.1528   5
  -1   2 -11 149.423 14.1312   7
  -2  -1 -11 134.857 13.1075   8
   2   1 -11 115.834 17.4357   2
  -2   1  11 119.921 10.5945   7
  -2   1  11 121.327 11.2056   8
  -2   1  11 125.385 10.4754  10
   1   2  11 98.4604 13.1175   2
  -1  -2  11 123.078 9.53271   7
  -2  -1 -11 131.587 10.1434   4
  -2   1  11 139.930 14.3463   4
   2  -1  11 96.5611 12.6464  10
   2  -1  11 120.820 11.1856   6
   2  -1  11 128.253 13.4611   7
  -1   2 -11 121.050 12.5168   6
  -1  -2  11 131.479 11.7352   8
   2  -1  11 123.228 14.7436   8
  -2  -1 -11 130.568 8.62308  10
   2   1 -11 136.069 16.5535   7
  -2   1  11 120.234 13.0138   6
  -1  -2  11 116.611 21.6189   3
   1   2  11 128.341 10.9176   6
   1   2  11 136.167 11.4373   5
  -2  -1 -11 123.524 12.6862   6
  -2  -1 -11 131.060 13.2831   3
   2   1 -11 131.948 11.9061   5
   1  -2 -11 111.076 11.9376   4
   2   1 -11 113.255 12.7701   6
  -1  -2  11 140.659 17.2279   2
   2   1 -11 107.370 9.22784  10
  -1  -2  11 138.962 14.4745   4
  -1   2 -11 122.945 8.11634  10
   2   2  11 670.869 31.3787   5
  -2   2 -11 618.250 28.4170   5
  -2   2 -11 599.288 55.1056   9
  -2   2 -11 575.810 25.8790  10
   2  -2  11 473.270 38.0369   4
   2  -2  11 626.492 33.5376   8
  -2   2  11 623.259 28.9935   8
  -2  -2 -11 674.622 28.9363   5
   2   2  11 630.550 37.1828   3
   2   2 -11 511.960 66.6608   9
   2   2  11 677.384 29.5931  10
  -2   2  11 579.259 32.7239   5
  -2   2 -11 653.684 34.1649   7
   2  -2 -11 589.773 30.0677   8
   2  -2 -11 624.512 30.6202  10
   2  -2  11 512.757 30.7043  10
  -2  -2 -11 630.326 34.1915   3
  -2  -2 -11 674.433 29.1362   4
  -2   2 -11 639.778 33.3566   8
   2   2 -11 678.643 33.8666   6
  -2   2  11 685.624 36.2738   4
   2  -2 -11 614.914 32.5768   7
  -2   2  11 647.359 30.2284  10
  -2  -2 -11 697.773 32.4546   8
  -2   2  11 611.128 27.7787   7
  -2   2 -11 613.702 32.8396   6
  -2   2  11 630.783 34.4983   6
  -2  -2  11 643.283 29.0241   8
   2  -2  11 610.206 33.6973   5
   2  -2 -11 629.681 33.9788   5
  -2  -2 -11 671.307 33.1056   7
   2   2  11 696.705 36.8219   9
  -2  -2 -11 647.093 26.7444  10
   2  -2 -11 637.585 34.2774   4
   2  -2  11 632.799 31.7602   7
   2  -2 -11 639.676 36.7248   6
   2   2  11 650.443 30.2149   7
   2   2  11 699.192 29.9651   6
   0   3  11 29.9619 10.4536   9
   0   3  11 15.1701 6.02539   6
   3   0 -11 21.8988 5.89546  10
   0  -3 -11 21.7963 7.67266   8
  -3   0 -11 21.5035 8.34461   8
   0  -3 -11 11.8055 6.01114   4
   0   3  11 16.7292 4.73638   7
   0  -3  11 10.4501 6.33588   8
  -3   0  11 21.9249 5.85518   8
   0  -3 -11 25.6084 5.71608  10
   0  -3 -11 12.9245 5.87117   5
   0  -3 -11 16.4520 9.20057   7
   3   0 -11 -6.1062 9.30349   9
   3   0 -11 15.7283 6.65156   5
   3   0  11 5.17315 9.25998   4
  -3   0  11 24.7401 8.27128   4
  -3   0 -11 15.3179 4.65594  10
   3   0 -11 21.3843 9.47438   6
  -3   0  11 17.3183 5.52265  10
  -3   0 -11 24.0410 6.49204   5
   3   0  11 4.31552 7.22432   5
  -3   0 -11 15.1559 8.64482   6
   3   0  11 -0.4425 6.79565  10
   3   0  11 6.09920 6.80410   8
   3   0  11 14.8620 6.51000   6
   3   0 -11 13.3219 6.25416   8
   0   3  11 19.3452 4.83014  10
   3   0 -11 9.60396 6.31043   7
  -3   0  11 27.0318 7.89534   5
   0  -3  11 17.1679 8.61758   4
   0   3 -11 20.2555 6.56323   6
  -3   0  11 22.7947 5.60363   7
   0   3 -11 30.2813 29.0183   9
  -3   0 -11 21.9715 8.48561   7
  -3   0 -11 25.0990 5.99237   4
   3   0  11 21.9372 6.76666   7
  -1  -3 -11 183.304 14.8944   8
   3   1  11 153.397 18.2001   5
   1   3 -11 159.865 13.9278   6
   3  -1 -11 197.091 23.9149   6
  -3   1 -11 184.427 12.6807   4
   3   1  11 175.292 17.4818   8
  -3  -1  11 168.699 11.8242   7
  -1  -3 -11 149.748 13.2546   4
   3  -1 -11 147.286 13.1687  10
  -1   3  11 167.188 15.9001   6
  -1  -3 -11 160.320 11.0845  10
  -3  -1  11 164.508 16.1930   4
   3  -1 -11 174.019 16.6000   5
  -1  -3 -11 170.694 13.4586   5
   3  -1 -11 195.055 16.1612   7
   3   1  11 140.428 14.1941   6
  -1   3  11 173.842 15.1437   5
   1  -3  11 166.529 23.5364   4
  -1   3  11 146.318 11.7132   7
  -1  -3 -11 163.199 14.9235   7
  -3   1 -11 171.832 20.1138   7
   3  -1 -11 161.948 13.9464   8
   1  -3  11 151.890 15.2811   8
  -1  -3 -11 144.653 25.1719   3
  -3  -1  11 137.552 12.2397   8
   3  -1 -11 161.875 16.3101   4
  -1   3  11 160.018 18.3714   9
  -3   1 -11 187.250 19.7094   8
  -3   1 -11 169.465 10.7680  10
  -1   3  11 148.692 11.8406  10
   1  -3  11 150.972 14.5073   7
  -3  -1  11 153.674 26.7433   3
  -3  -1  11 168.163 12.1730  10
  -3   1 -11 162.010 18.0097   6
   1  -3  11 168.695 15.8012   5
   1   3 -11 127.035 32.9472   9
   3   1  11 178.323 14.9073   7
  -3  -1  11 150.462 14.1127   5
  -3   1 -11 175.673 12.8595   5
   3   1  11 150.635 15.2565  10
   3   1  11 162.513 19.4195   9
  -3  -1 -11 159.768 10.5388  10
  -3   1  11 160.622 12.2822   8
  -1   3 -11 170.466 11.2361   5
  -1   3 -11 168.382 15.4362   6
   3   1 -11 127.992 15.0242   7
   3  -1  11 185.317 16.0575   7
   1   3  11 166.788 12.4249   7
   3  -1  11 174.728 20.1763   8
   1   3  11 165.009 11.3760  10
   1   3  11 184.568 17.7574   9
   1   3  11 149.963 24.7256   3
  -1   3 -11 92.0211 31.6399   9
   1   3  11 166.619 13.3553   6
   3   1 -11 166.436 14.8427   5
   3   1 -11 160.293 17.5265   6
  -3   1  11 170.480 16.8053   4
   3  -1  11 150.790 17.4694  10
  -3   1  11 172.406 12.2351   7
   1  -3 -11 143.186 14.8688   4
   3  -1  11 151.174 14.2389   6
   1  -3 -11 171.559 12.7609  10
   3  -1  11 133.655 17.7936   5
  -3  -1 -11 164.504 12.3017   4
   3  -1  11 117.105 21.4502   4
  -1   3 -11 179.809 15.8345   7
  -3  -1 -11 170.916 12.6492   5
   3   1 -11 155.528 12.1610  10
  -3  -1 -11 153.858 17.9853   7
  -1  -3  11 149.161 13.4113   8
  -3   1  11 169.716 16.9103   6
   1   3  11 181.475 13.6383   5
  -3  -1 -11 151.020 17.5258   8
   3   1 -11 153.979 23.6169   3
   1  -3 -11 162.372 15.5936   5
  -1   3 -11 161.742 9.58426  10
  -3   1  11 192.692 16.8871   5
  -1  -3  11 169.244 16.0614   4
  -2  -3 -11 74.1753 9.90109   4
   3   2  11 77.7933 11.5223   7
  -3   2 -11 70.2222 7.58837  10
  -2   3  11 54.4399 8.44288   7
  -2  -3 -11 98.8122 12.8865   8
  -2   3  11 57.3720 9.19223  10
   3   2  11 72.5002 10.6705  10
   3  -2 -11 57.8083 11.3466   7
   3   2  11 76.2100 10.5605   6
   2   3 -11 83.6141 13.5780   6
   2   3 -11 42.3519 41.1176   9
   2  -3  11 58.1126 12.0480   5
   3  -2 -11 93.0908 18.2682   6
   2  -3  11 83.5152 14.0631   8
  -3   2 -11 62.1011 13.0387   8
  -2   3  11 66.5687 11.6986   5
  -2   3  11 75.7408 14.7060   6
  -3   2 -11 80.4427 29.7707   9
   3   2  11 75.1143 15.7887   9
   3  -2 -11 82.0800 14.6688   5
  -3   2 -11 84.9866 16.4205   7
  -3  -2  11 71.1821 12.0524   4
  -3  -2  11 61.6327 8.65995   8
  -2   3  11 91.4099 16.9955   9
   3  -2 -11 72.6808 11.2615  10
   3   2  11 98.6044 13.1237   5
  -2   3  11 53.6976 8.86124   8
   3  -2 -11 71.1959 13.0523   4
   2  -3  11 74.5653 11.8513   7
   2  -3  11 73.5600 11.3216  10
   2  -3  11 34.1640 15.4353   4
  -3   2 -11 83.0393 14.5016   6
  -3   2 -11 78.4246 10.0845   5
   3  -2 -11 67.2771 10.9248   8
   2  -3 -11 54.7823 10.4236   7
  -3   2  11 59.1773 8.52080   7
  -3  -2 -11 76.0754 13.2798   8
   2   3  11 58.5233 7.96031  10
  -2   3 -11 65.3184 7.28008  10
  -3   2  11 59.5138 11.8744   5
  -3   2  11 84.4026 15.5506   6
   2  -3 -11 69.6890 11.2033   8
   2  -3 -11 67.6342 10.2859  10
  -2  -3  11 73.2362 9.78832   8
  -2   3 -11 69.6040 13.1104   6
   3  -2  11 79.6923 16.4081   8
   2  -3 -11 67.6680 13.0881   4
   2  -3 -11 64.1316 11.7264   5
   2   3  11 62.6997 9.13668   7
   3  -2  11 64.8713 12.3400   7
   3   2 -11 109.008 17.3572   6
   2   3  11 71.9252 9.99544   5
   3  -2  11 53.3809 17.6351   4
  -3   2  11 58.3814 13.3006   4
  -2   3 -11 82.4701 13.2603   7
  -3  -2 -11 71.6563 7.24581  10
   3  -2  11 67.3359 14.2352   5
  -2   3 -11 83.6889 31.5366   9
  -2   3 -11 65.7562 8.90563   5
   2   3  11 87.0000 10.5902   6
  -3  -2 -11 89.2998 13.4358   7
  -3  -2 -11 74.7925 9.41848   5
   2   3  11 96.1579 17.0425   9
  -3   2  11 58.9809 9.13545   8
   3  -2  11 65.2185 12.8954  10
  -3  -2 -11 67.3436 9.07130   4
  -3   2  11 68.4926 10.6137  10
  -3   3 -11 60.4106 7.53214  10
   3  -3 -11 57.1695 10.8427  10
  -3   3 -11 61.5080 14.0588   6
   3  -3  11 70.7487 19.9743   8
  -3   3  11 62.2657 12.4734   5
  -3  -3 -11 74.2516 9.69555   4
   3  -3 -11 79.1240 15.8183   5
   3   3  11 79.8248 10.5318   6
   3   3  11 94.1406 22.5130   9
  -3   3  11 81.1092 15.2753   6
   3  -3  11 62.3432 12.7104  10
  -3   3 -11 103.992 38.9023   9
  -3   3  11 42.7327 8.74371   7
   3  -3 -11 58.9429 14.1107   4
  -3   3  11 46.3882 9.63074   8
  -3  -3  11 65.6421 10.7895   4
   3  -3  11 50.4312 19.8174   4
   3  -3  11 68.1723 14.4991   5
   3   3 -11 107.494 15.8763   6
   3  -3  11 57.5264 16.5230   7
  -3   3 -11 77.3953 18.2264   7
   3   3 -11 26.9969 60.2785   9
  -3  -3 -11 75.6336 13.6584   8
  -3   3 -11 70.9990 9.83074   5
  -3   3  11 49.4928 9.68565  10
   3  -3 -11 62.2440 12.0755   8
   3  -3 -11 49.2357 12.4135   7
   4   0  11 13.7320 9.72326  10
  -4   0 -11 5.04812 5.78830   5
  -4   0  11 7.69673 5.08315   7
   4   0  11 7.42862 11.2851   4
   4   0 -11 -6.1640 10.9100   9
   4   0 -11 7.72825 7.52175   5
   0   4 -11 8.84524 5.94201   6
   4   0 -11 21.1863 11.0337   6
  -4   0 -11 4.27651 4.26102   4
   4   0  11 -6.1547 11.1687   8
  -4   0 -11 9.56473 13.5396   8
   4   0 -11 1.15215 7.91715   7
  -4   0 -11 -16.579 11.0613   6
  -4   0 -11 -3.5237 14.4907   7
   0  -4 -11 12.6651 7.75601   8
   4   0 -11 8.55602 5.10305  10
  -4   0 -11 7.14938 4.34724  10
  -4   0  11 9.84739 6.45499   4
  -4   0  11 6.96590 6.13197   5
   4   0  11 5.30783 6.62437   6
   4   0  11 7.30788 11.9324   7
   0   4  11 8.69187 5.95797   6
   0   4  11 8.10927 12.2858   9
  -4   0  11 10.1594 7.25968   8
  -4   0  11 14.9328 4.47149  10
   0  -4 -11 9.54012 6.07254   4
   0  -4  11 6.93297 8.12352   4
   4   0  11 8.81642 9.32922   5
   0   4 -11 7.76722 46.9328   9
  -1  -4 -11 35.9680 8.46270   4
  -4  -1  11 25.6713 7.51874   8
   1  -4  11 35.5985 10.3343   8
   1   4 -11 66.0570 50.5513   9
  -1   4  11 32.3347 8.04887   5
  -4   1 -11 36.4293 6.83895   4
   4   1  11 31.7125 10.8044   5
   4   1  11 29.7527 12.6614   9
  -4   1 -11 37.6137 8.24002   5
  -1   4  11 45.2953 11.5141   6
  -1  -4 -11 38.0942 8.53207   8
   4  -1 -11 37.2619 9.46625   8
  -4   1 -11 49.8131 20.6565   7
  -4   1 -11 44.6342 18.0653   8
  -1   4  11 32.5836 7.21171   7
   4  -1 -11 44.1861 13.2007   6
  -4  -1  11 27.9267 8.73155   4
   4   1  11 22.3978 8.62492   6
   4   1  11 30.0563 10.0277  10
   1  -4  11 42.1586 13.8334   4
  -1   4  11 44.6176 16.2725   9
   4  -1 -11 16.7051 9.39128   7
   4  -1 -11 62.5308 13.1395   5
   4  -1 -11 32.0275 8.84735  10
   4   1  11 35.4662 13.3139   7
  -4   1 -11 32.5489 11.9465   6
  -1   4  11 31.4294 7.43385  10
  -4   1 -11 31.0548 6.35548  10
   1  -4 -11 39.3482 10.0989   4
   4  -1  11 47.2301 16.4476   7
   4  -1  11 20.7533 7.40792   6
  -4  -1 -11 30.2822 11.8546   7
  -1   4 -11 33.8812 9.00051   6
  -4  -1 -11 64.4183 18.7484   8
  -4  -1 -11 34.2452 8.58525   5
   4  -1  11 30.9484 12.0709  10
   4  -1  11 77.0382 20.1696   8
   1   4  11 47.0584 16.1850   9
   1  -4 -11 36.3809 6.93728  10
  -4  -1 -11 34.7082 6.45673  10
  -4   1  11 33.6533 7.91430  10
  -4   1  11 31.3915 8.21045   7
  -1   4 -11 33.4457 54.4700   9
   1   4  11 38.5175 8.20667   6
  -4  -1 -11 30.4459 6.96968   4
   4   1 -11 32.4617 11.0146   5
  -4   1  11 42.6152 11.1489   5
   4  -1  11 28.2658 15.1389   4
   4  -1  11 36.0749 12.6424   5
  -4   1  11 29.3822 8.23969   8
   4   1 -11 61.4444 13.7759   6
   4   1 -11 -0.5696 17.2175   9
   4   1 -11 35.2352 7.92515  10
   1  -4 -11 35.9808 9.05230   5
  -4   1  11 22.5128 8.26008   4
  -4   2 -11 114.804 18.1910   6
   4   2  11 83.9827 12.5525  10
   4   2  11 87.1735 12.4783   6
   4   2  11 94.8776 16.9003   7
   4   2  11 129.907 28.0518   9
  -2   4  11 74.3607 10.3758   7
  -4   2 -11 119.174 11.7790   5
  -2   4  11 133.376 12.2667  10
   2   4 -11 125.609 52.6464   9
   4  -2 -11 80.9451 13.0565  10
  -2   4  11 111.108 22.6047   9
  -4  -2  11 86.9478 10.4229   8
  -4  -2  11 136.267 17.5479   4
  -4   2 -11 104.412 24.1538   7
  -2   4  11 123.167 19.4638   6
   4  -2 -11 87.4730 16.9144   5
  -4   2 -11 111.136 22.1933   8
   4  -2 -11 106.595 18.1184   4
  -4   2 -11 89.6642 9.31755  10
   4  -2 -11 95.6933 14.7263   8
  -2   4  11 116.339 16.5003   5
  -4   2 -11 78.8457 11.1519   4
   2  -4  11 98.7157 22.1621   4
   4  -2 -11 113.888 16.1983   7
   4   2  11 112.158 14.8696   5
  -2  -4 -11 104.097 13.6166   8
   4  -2 -11 120.775 21.9742   6
  -2  -4 -11 111.266 11.9819   4
   2  -4  11 97.3916 18.2617   8
  -4  -2 -11 99.0562 11.0946   4
  -4   2  11 97.8560 16.5799   4
  -4   2  11 124.525 18.5418   5
   4  -2  11 110.051 23.8499   8
   2  -4 -11 134.358 17.9849   5
  -4  -2 -11 126.743 21.9247   8
   4  -2  11 40.4774 17.4322   4
   4  -2  11 79.5962 15.9784   5
   2  -4 -11 104.534 15.0652   8
   2  -4 -11 113.332 17.9237   4
   4  -2  11 111.276 21.2646   7
   4   2 -11 134.601 21.0091   6
  -2   4 -11 144.357 65.6969   9
   2   4  11 129.855 24.0156   9
   2   4  11 116.544 11.5206   6
  -4   2  11 109.847 14.0248  10
  -4   2  11 94.6888 17.2564   6
  -4   2  11 74.4168 11.6385   8
   2  -4 -11 79.1459 11.9432  10
  -4   2  11 97.8758 12.6593   7
   4  -2  11 117.236 17.5897  10
  -4  -2 -11 111.246 11.9814   5
  -4  -2 -11 109.951 8.94408  10
  -2   4 -11 100.916 15.7120   6
  -3   4  11 27.7718 7.87240  10
   4  -3 -11 2.66360 5.79412   4
  -4   3 -11 11.4445 4.80149  10
  -3   4  11 3.77678 7.42015   7
   4  -3 -11 14.0480 6.83639  10
  -4   3 -11 14.4999 6.15897   5
  -4   3 -11 21.2077 52.4077   9
  -3   4  11 10.7044 20.8196   9
  -3  -4 -11 20.0279 6.13881   4
   3   4 -11 -65.754 53.8580   9
   4   3  11 10.1508 6.06740   6
  -3   4  11 24.3119 8.28187   5
   4  -3 -11 18.1173 8.35083   5
   3  -4  11 2.23576 22.0705   8
  -4   3 -11 25.3895 20.1833   7
   3  -4  11 -3.3301 15.6289   4
  -4   3 -11 8.14084 10.3703   6
  -3   4  11 10.6285 9.47859   6
   3  -4 -11 23.7232 9.87054   4
   3  -4 -11 24.4033 12.7631   7
  -4   3  11 21.7977 10.9369   6
  -3   4 -11 56.0676 80.9494   9
   4  -3  11 19.9382 19.0597   7
   4  -3  11 0.91300 15.1377   4
  -4   3  11 13.2457 8.69914   8
  -4  -3 -11 -4.0498 16.5755   8
   3   4  11 22.7131 6.49605   6
   3  -4 -11 6.75861 7.03477   5
   4  -3  11 28.2090 12.5750   5
   4  -3  11 5.59617 10.2760  10
  -4  -3 -11 11.2110 5.82037   4
  -4   3  11 15.3585 8.40971  10
  -3   4 -11 0.37044 8.52351   6
   3  -4 -11 9.93339 5.68181  10
  -4   3  11 2.20635 6.00177   5
   4  -4  11 -6.4516 12.9043  10
   4  -4 -11 21.9695 14.8682   5
   4  -4 -11 -14.479 12.0315  10
  -4   4  11 0.17581 13.1936  10
  -4  -4 -11 -2.2849 4.14919   4
  -4   4 -11 9.98642 10.0236   5
   4   4  11 0.80709 4.89614   6
  -4   4 -11 -3.0387 6.21842  10
   5   0  11 39.3310 13.7252   5
   0   5 -11 84.8672 91.7296   9
   5   0 -11 54.9541 12.9350   5
   0  -5 -11 40.3679 12.5237   8
   5   0 -11 52.5420 14.1904   6
  -5   0 -11 39.5596 9.31337   5
   5   0 -11 10.8556 22.6969   9
   0   5  11 36.8970 9.96244   6
   5   0  11 14.0609 24.4964   7
  -5   0  11 32.3728 9.50329   7
  -5   0  11 37.0047 8.69849  10
   0  -5 -11 33.3544 9.27003   4
  -5   0  11 38.9515 9.86688   5
   5   0  11 36.5154 13.5326  10
   5   0 -11 34.4559 10.4009  10
  -5   0 -11 46.2043 7.57709  10
  -5   0  11 31.5308 9.92662   4
   5   0 -11 14.7143 11.4475   7
  -5   0 -11 37.8195 7.17036   4
   5   0  11 26.8116 8.69054   6
  -5   0 -11 34.7411 26.3502   7
   5   1  11 99.7993 24.6992   7
   5  -1 -11 147.149 21.4515   5
  -1  -5 -11 100.285 14.0533   4
   5  -1 -11 110.302 17.4917  10
   5   1  11 129.777 35.7249   9
  -5   1 -11 117.505 11.3393  10
   5  -1 -11 104.208 21.3337   6
  -5  -1  11 139.472 19.6506   4
   5   1  11 88.0470 16.6344   5
  -5   1 -11 125.162 14.1999   5
  -5   1 -11 143.482 12.0769   4
   5   1  11 84.9032 14.1191   6
  -1   5  11 175.253 22.1191   6
   5   1  11 92.4240 15.7104  10
   1  -5 -11 122.160 18.2892   4
  -5   1  11 115.668 12.8102  10
  -5  -1 -11 93.6932 12.3465   5
   1  -5 -11 84.1139 26.9297   8
  -5  -1 -11 118.926 12.7350  10
   5   1 -11 144.156 21.4203   6
   5  -1  11 81.4991 16.8080   5
  -5   1  11 138.755 21.0900   4
  -5  -1 -11 105.610 26.3060   7
  -5   1  11 177.593 22.7916   5
  -5  -1 -11 109.407 11.6979   4
   5  -1  11 99.1117 20.0435  10
   5  -1  11 63.0805 20.4146   4
   5  -1  11 72.3495 11.4472   6
   5  -1  11 170.564 40.5285   8
   1   5  11 113.040 15.5360   6
   5  -2 -11 93.2157 18.9795  10
  -5   2 -11 71.8041 10.7070  10
  -5   2 -11 45.1415 11.7227   4
  -5  -2  11 75.2851 13.3650   4
   5   2  11 57.0118 11.6332   6
   5  -2 -11 70.8833 19.5993   6
   5  -2 -11 70.0682 16.7781   5
  -2   5  11 95.8339 18.5651   6
   2  -5  11 77.1201 19.6075   4
  -5   2 -11 67.4032 16.2713   6
  -5   2 -11 94.9622 12.2032   5
   5  -2  11 65.9577 15.9967   5
  -5   2  11 77.7153 16.2000  10
   5  -2  11 38.7335 18.9461   4
   5   2 -11 89.1438 16.1583   6
   5  -2  11 48.6329 18.7417  10
  -5  -2 -11 62.4024 9.97547   4
  -5   2  11 98.5209 16.7599   5
  -2   5 -11 75.4015 13.7626   6
   2  -5 -11 92.5653 16.8460   4
  -5   2  11 62.6039 13.7757   4
   0   0  12 9.64874 9.69286   2
   0   0 -12 17.8723 8.03435   5
   0   0  12 7.12963 7.44764   8
   0   0 -12 26.6828 9.29765   8
   0   0 -12 3.58618 9.55859   3
   0   0  12 34.7693 7.44732  10
   0   0  12 25.4199 8.62269   5
   0   0 -12 8.48681 9.82353   7
   0   0 -12 15.9421 9.59111   6
   0   0 -12 15.2849 8.30766   4
   0   0 -12 16.1128 12.5265   2
   0   0  12 11.3802 9.59593   4
   0   0 -12 23.8390 6.09203  10
   0   0  12 12.3492 7.41105   6
   0   0  12 20.2845 6.99438   7
   0   0 -12 4.12881 28.1266   9
   1   0  12 12.8410 4.74573   6
  -1   0 -12 3.88302 4.42120   3
   0  -1 -12 5.41527 5.03426   6
  -1   0 -12 13.2332 6.23600   6
   1   0 -12 15.6490 4.46287  10
  -1   0  12 12.7089 3.94045  10
  -1   0 -12 13.3704 6.78171   7
   0   1  12 16.3932 6.28348   8
   1   0  12 12.1539 5.52948   5
   0   1  12 16.3454 6.59478   4
   0  -1 -12 8.48767 7.08212   7
  -1   0 -12 14.4546 4.01451  10
   1   0 -12 13.0883 8.77146   7
   1   0 -12 12.0253 7.72149   3
   0   1 -12 12.5535 5.73854   6
   0   1 -12 18.9004 7.86559   7
   1   0 -12 15.1510 5.95977   4
   0  -1  12 15.5027 5.12379   5
   1   0  12 6.43689 4.03308  10
   1   0  12 13.2717 7.98962   4
   0   1 -12 13.9962 4.82273   5
   0   1 -12 11.5261 6.06158   3
  -1   0 -12 17.7295 6.51591   8
  -1   0  12 9.47042 4.49344   7
   0   1 -12 6.96113 5.31734   8
   0   1 -12 1.20252 25.5557   9
   0   1 -12 14.5627 3.89087  10
   0   1  12 8.15551 4.32106   3
   1   0 -12 16.0881 5.56551   5
  -1   0 -12 11.6591 4.37395   4
   1   0 -12 14.6631 6.74959   6
   0  -1 -12 13.4675 4.06910  10
   0   1  12 25.6445 11.3688   9
  -1   0  12 10.3581 5.80454   3
  -1   0  12 12.6335 6.38921   4
  -1   0  12 9.67458 4.86547   5
   1   0 -12 -30.145 32.0266   9
   1   0  12 14.4483 5.84060   8
  -1   0  12 6.29662 5.21153   8
   0   1 -12 26.4378 7.95860   2
   0  -1 -12 9.94373 4.63837   4
   0  -1  12 8.29020 5.47621   8
   0   1  12 9.55163 4.76611   5
   0   1  12 18.6198 6.03414   6
   0   1  12 9.75315 3.82023  10
   0  -1  12 8.80266 4.39187   7
   0   1 -12 17.2313 5.94764   4
   0  -1  12 16.7550 6.26829   3
   0  -1  12 15.0526 7.30036   4
   0  -1  12 14.3908 5.74174   2
   0  -1 -12 7.92601 6.08602   3
   1   0 -12 10.4127 5.93789   8
   0  -1  12 13.3456 4.13676  10
   0  -1 -12 14.0246 6.09497   8
   1   0  12 7.80963 6.77535   3
  -1   0  12 15.8267 5.50883   6
  -1   0 -12 14.3742 4.75438   5
   1   0  12 14.4683 5.23394   7
   0   1  12 11.6613 4.25796   7
   0  -1 -12 12.7593 5.11236   5
  -1   1 -12 64.2807 6.33098  10
  -1   1 -12 60.8612 28.2901   9
  -1   1 -12 87.9357 12.5173   8
   1   1  12 59.7110 13.7324   3
  -1   1  12 70.7658 7.76459  10
  -1  -1  12 61.1184 9.07254   8
   1   1  12 49.7750 8.53090   5
   1  -1 -12 60.3412 10.4022   4
   1  -1 -12 66.4456 10.3724   5
   1   1 -12 70.3281 14.2197   2
   1  -1 -12 78.1806 13.2714   6
   1   1  12 87.3059 14.7056   9
   1   1  12 65.5918 12.4578   4
   1  -1  12 57.0765 8.26995   6
   1   1  12 52.4100 8.14235   7
  -1  -1 -12 72.7699 12.1613   7
  -1  -1 -12 60.5481 10.0292   8
   1   1 -12 70.2508 11.8010   6
   1   1 -12 52.8599 12.2503   3
  -1  -1  12 47.8600 9.04502   2
   1   1 -12 43.5904 33.9207   9
   1   1  12 57.4835 9.33336   8
  -1   1 -12 60.9584 11.1045   3
   1  -1 -12 64.4616 7.37298  10
  -1   1 -12 65.1022 8.29152   5
   1   1 -12 65.6785 9.67366   5
  -1  -1 -12 69.1814 9.13902   5
   1  -1 -12 61.4756 13.1908   7
  -1  -1 -12 54.8204 11.5984   3
  -1  -1 -12 68.5584 9.11642   4
  -1  -1  12 60.3940 7.88621   7
   1   1  12 58.9615 8.33895  10
  -1   1  12 66.9093 10.4713   6
  -1  -1  12 72.6227 7.15935  10
   1  -1 -12 63.2846 10.5075   8
  -1  -1  12 49.0468 11.2539   3
   1  -1  12 52.0840 9.79624   8
  -1  -1 -12 68.3020 10.9287   6
   1   1 -12 51.8389 10.9017   7
  -1   1 -12 65.3104 11.0085   7
  -1   1  12 61.6805 9.00885   8
  -1   1 -12 61.3502 10.8164   6
   1  -1  12 72.8801 14.7785   3
   1  -1  12 67.9768 13.8069   4
   1  -1  12 77.5874 11.1503   5
  -1   1  12 77.6836 10.8286   5
  -1  -1 -12 59.6707 6.52887  10
   1   1  12 62.9675 9.03053   6
   1  -1  12 74.2869 9.66502  10
   1   1 -12 60.4880 6.92730  10
  -1   1  12 72.0112 12.7606   4
  -1   1  12 58.3646 7.72717   7
   1  -1  12 59.0904 8.85285   7
  -1   1 -12 71.1995 7.93905   4
  -1  -1  12 62.7699 11.5245   4
  -1  -1  12 61.0495 9.51935   5
  -2   0 -12 61.5985 8.67486   4
   0   2  12 54.8144 9.39282   6
   0   2  12 67.4770 12.2917   4
  -2   0  12 58.6483 11.4561   4
  -2   0  12 78.3045 12.0412   5
   0   2 -12 63.5235 10.3334   6
   0   2  12 65.9774 9.96986   5
   0  -2  12 59.6387 6.86492  10
   0  -2 -12 50.3330 9.35993   5
   0  -2 -12 52.8813 10.5899   6
   2   0 -12 37.6032 39.1996   9
  -2   0 -12 53.5924 10.6664   6
   0  -2  12 75.1690 11.5739   3
  -2   0 -12 79.2253 13.4516   7
   0  -2 -12 68.6606 8.65813  10
   2   0 -12 45.4637 10.0408   8
  -2   0  12 52.2722 7.72818   7
   2   0 -12 59.9368 12.9175   6
  -2   0  12 53.7994 8.44060   8
   0   2 -12 53.5469 13.0816   2
   0   2  12 59.1503 7.73422   7
   0   2  12 77.5657 12.9237   9
   0   2  12 48.2687 7.51911  10
   0  -2  12 54.8748 12.8874   4
   2   0  12 57.6853 9.59372  10
  -2   0  12 61.2711 8.50596  10
   0   2 -12 71.2189 12.1142   7
   2   0  12 38.0230 7.56561   6
   0  -2 -12 44.0106 9.01741   8
   0  -2 -12 65.4748 10.5596   4
   2   0 -12 39.8393 7.21879  10
   0  -2 -12 73.3379 12.8030   7
   0  -2  12 59.5340 10.0512   8
   0  -2  12 55.0941 8.84330   5
   2   0 -12 67.5449 14.2020   7
   2   0  12 62.4142 15.2813   4
   2   0 -12 74.4238 12.3251   4
   0   2 -12 57.5281 6.01668  10
   2   0  12 48.9620 9.81207   5
   0  -2  12 66.2672 8.87961   7
   0   2  12 50.6279 8.78406   8
   0   2 -12 62.6720 30.8356   9
   0   2 -12 55.9024 11.0859   3
   0   2 -12 60.3554 7.98873   5
   2   0 -12 67.0816 11.3840   5
  -2   0 -12 68.8604 8.93268   5
   2   0  12 51.5963 10.4475   8
  -2   0 -12 80.1727 12.9060   8
  -2   0 -12 75.4159 7.22389  10
   2   0  12 58.2167 9.40178   7
  -1   2  12 199.506 17.5640   4
   2   1  12 181.761 14.5445   7
   2  -1 -12 143.579 16.8635   7
   2  -1 -12 179.937 16.4880   4
   1  -2  12 182.641 15.1897   5
  -1  -2 -12 210.716 15.0071   5
   1   2 -12 193.326 13.6994   5
   1  -2  12 187.725 13.8405  10
  -1   2  12 186.622 14.5627   8
   1   2 -12 169.892 15.6250   6
  -2   1 -12 180.343 11.3043  10
  -1   2  12 204.696 16.3936   5
  -2  -1  12 194.502 12.7951  10
   2  -1 -12 179.120 13.8031  10
   2   1  12 198.476 19.6724   9
   1   2 -12 163.595 11.2572  10
   1  -2  12 157.857 15.9390   8
  -2   1 -12 180.603 16.7875   8
   2   1  12 187.928 14.7986  10
  -2  -1  12 185.716 15.0000   5
  -2  -1  12 181.800 12.1498   7
  -2  -1  12 156.256 13.6290   8
   2   1  12 184.340 16.0976   5
   2   1  12 197.110 14.4612   6
  -1   2  12 191.084 18.3559   9
  -2  -1  12 182.702 27.9500   3
   1  -2  12 186.124 14.8456   7
  -2   1 -12 141.235 39.6071   9
  -1  -2 -12 161.953 11.5180  10
   2  -1 -12 171.374 16.1686   5
   2  -1 -12 178.695 18.9912   6
   2   1  12 204.291 21.2214   4
  -1  -2 -12 199.926 17.0995   7
  -1  -2 -12 221.013 16.6660   8
  -1   2  12 203.280 17.3592   6
  -1   2  12 202.186 13.3239   7
  -1   2  12 174.265 12.9367  10
   1   2 -12 108.838 35.7208   9
  -2   1 -12 195.542 13.2384   4
  -2   1 -12 203.982 13.4273   5
  -2   1 -12 191.473 17.5351   6
   1   2 -12 198.078 16.5033   7
   2   1  12 176.082 16.7730   8
  -2   1 -12 184.751 17.9809   7
   1  -2  12 159.331 22.5340   4
  -1  -2 -12 167.404 13.7579   4
   2   1 -12 105.313 46.4932   9
  -1  -2  12 174.827 11.4608  10
  -1   2 -12 188.357 15.9499   6
  -2  -1 -12 177.749 19.1111   7
  -2  -1 -12 181.798 16.1707   6
  -2  -1 -12 180.810 16.3847   8
   1   2  12 173.635 13.2381   7
  -2   1  12 189.177 13.6605   7
  -1  -2  12 195.401 14.9596   8
   2  -1  12 206.829 15.9881   7
   2  -1  12 189.141 17.1490   8
  -2  -1 -12 180.417 13.1248   4
  -2  -1 -12 212.378 13.8040   5
  -1   2 -12 117.159 34.1921   9
   2   1 -12 195.133 15.4247   5
   1  -2 -12 199.057 17.4719   8
   1  -2 -12 182.690 13.4018  10
  -2  -1 -12 186.515 11.3748  10
  -1   2 -12 191.595 12.5199   5
  -1   2 -12 179.310 10.7553  10
   2   1 -12 180.547 17.1194   6
   1  -2 -12 183.530 17.9804   6
   2  -1  12 158.168 15.4228  10
   2  -1  12 149.654 23.3004   4
   1   2  12 180.695 15.4540   8
  -2   1  12 168.331 16.9209   4
   1   2  12 177.673 12.6615  10
  -2   1  12 155.944 13.7127   8
  -2   1  12 171.965 13.1410  10
   2   1 -12 156.623 23.6554   3
   2   1 -12 177.034 12.6742  10
  -2   1  12 188.295 16.9777   6
  -1  -2  12 241.624 19.3743   4
  -1  -2  12 186.929 13.5869   5
  -1  -2  12 207.114 13.0848   7
   1   2  12 170.236 13.8265   6
  -1   2 -12 200.820 17.8641   7
   2   1 -12 190.269 20.4207   7
   2  -1  12 176.599 14.0040   6
   2  -1  12 186.310 17.6056   5
   1  -2 -12 191.496 15.9636   5
  -2   1  12 190.914 16.4254   5
   1   2  12 194.736 14.8673   5
   1  -2 -12 176.073 15.9415   4
   1   2  12 200.799 18.7689   9
   1  -2 -12 201.080 22.0705   7
  -2  -2  12 72.3081 10.4085   8
  -2  -2 -12 82.3217 10.5349   4
  -2  -2 -12 99.1724 11.3272   5
  -2  -2 -12 103.835 14.0962   7
  -2   2 -12 90.7160 8.14171  10
   2   2 -12 61.3776 41.5448   9
   2  -2 -12 81.4622 11.6349  10
  -2   2 -12 96.2145 15.4465   6
   2  -2 -12 63.0577 11.5531   8
   2   2 -12 110.936 16.9228   6
   2  -2  12 90.6030 15.3977   8
  -2   2  12 101.137 15.5488   6
  -2   2  12 76.7863 9.68615   7
   2   2  12 113.873 18.2724   9
   2   2  12 100.388 12.2446   7
   2  -2  12 77.6631 11.3398   7
   2   2  12 96.0584 12.6341   5
   2   2  12 93.1159 11.8839   6
   2  -2  12 79.5741 18.6106   4
   2  -2 -12 84.3229 16.5903   6
   2   2  12 83.3848 9.36428  10
  -2   2 -12 82.0133 31.8742   9
  -2  -2 -12 95.3573 14.2874   8
  -2  -2 -12 84.6344 7.83704  10
   2  -2  12 74.5415 12.4282   5
  -2   2 -12 108.445 10.3255   5
   2  -2 -12 77.8189 13.5672   7
  -2   2 -12 77.1467 14.6224   7
  -2   2 -12 54.1101 17.7723   8
  -2   2  12 75.7540 10.5114  10
   2  -2  12 89.5417 12.4118  10
  -2   2  12 98.1055 16.1904   4
  -2   2  12 89.2563 14.1167   5
   2  -2 -12 88.1580 14.7002   5
  -2   2  12 58.3681 9.39332   8
   2  -2 -12 95.3395 14.3691   4
   0   3 -12 -5.4230 35.9696   9
   0  -3 -12 -5.5441 3.49692  10
   3   0 -12 -10.107 4.14034  10
   0  -3 -12 -7.7344 5.05079   4
  -3   0  12 -7.7161 6.45710   8
  -3   0  12 -10.167 4.52001   5
   0  -3 -12 -3.0990 7.63927   7
   0   3  12 -6.1696 3.39327  10
  -3   0 -12 -16.027 9.03717   8
  -3   0 -12 -10.643 3.96140  10
  -3   0  12 -5.8928 5.04223   4
  -3   0  12 -15.953 4.50028   7
  -3   0  12 -10.924 3.74077  10
   3   0 -12 -10.126 7.72270   7
   0  -3 -12 0.57953 8.56461   8
   3   0 -12 -12.754 4.82418   5
   0   3 -12 -1.6562 6.11615   6
   3   0  12 -0.2255 9.39229   8
   3   0  12 -14.575 6.94685  10
   0  -3  12 -6.1766 8.46944   4
  -3   0 -12 -8.5755 7.08670   6
  -3   0 -12 -5.1316 10.6621   7
   0  -3  12 -6.7926 6.16834   8
   3   0  12 -3.5181 9.66509   4
   3   0 -12 -14.742 6.34115   6
   0   3  12 -6.7194 4.48855   6
   0  -3 -12 -9.4999 4.41709   5
  -3   0 -12 -5.8586 5.56742   5
   3   0  12 -11.400 8.10417   7
   3   0  12 -14.556 6.09264   5
   3   0  12 -8.9109 5.98937   6
   0   3  12 -3.4969 7.78690   9
   0   3  12 -4.4508 4.55395   7
  -3   0 -12 -10.107 4.41921   4
  -3  -1  12 28.9666 7.71773   8
   1   3 -12 5.49903 40.5794   9
   3   1  12 48.1381 11.7746   7
   1  -3  12 52.6416 15.3162   4
  -1  -3 -12 42.1049 9.33335   7
   3   1  12 31.8408 10.7886   8
  -3   1 -12 34.1092 7.69180   5
  -3   1 -12 51.5012 13.6721   6
  -3  -1  12 35.9541 9.94029   4
  -1  -3 -12 35.9446 6.51120  10
   3   1  12 38.6806 10.0440   5
   3   1  12 27.7615 8.32143   6
  -1   3  12 50.2840 14.0142   9
   3   1  12 46.6586 14.3254   9
  -3   1 -12 49.9552 15.8982   7
  -1   3  12 34.3153 7.11422  10
  -1  -3 -12 42.0119 8.85697   4
  -3  -1  12 26.3404 6.44604  10
  -3  -1  12 41.8482 9.25070   5
   1   3 -12 37.0868 9.22757   6
  -1   3  12 26.7982 6.77765   7
  -3   1 -12 28.8513 6.60692   4
  -3   1 -12 35.6609 6.40675  10
  -1   3  12 30.1543 8.07718   5
   3  -1 -12 39.7180 10.2228   4
  -3   1 -12 46.5867 13.9193   8
   1  -3  12 42.1580 10.5287   8
  -3  -1  12 24.7249 6.04251   7
   3  -1 -12 47.4476 14.5163   6
   3  -1 -12 27.3464 10.6439   7
   3  -1 -12 25.8453 8.42606   8
  -1  -3 -12 22.5422 6.74345   5
   3  -1 -12 47.5612 11.8223   5
   3   1  12 20.0964 8.35419  10
   3  -1 -12 32.8528 8.49684  10
  -1   3  12 50.3382 11.7582   6
  -1  -3 -12 37.7056 10.0714   8
  -1   3 -12 34.4060 5.23325  10
  -3   1  12 17.7528 7.31901   5
  -3  -1 -12 33.4013 7.32167   4
  -3  -1 -12 39.5787 13.5009   8
  -3   1  12 40.6095 7.86823   7
  -3   1  12 28.4263 9.07483   4
   1   3  12 46.0543 8.85554   5
   3  -1  12 28.6869 13.1278   4
   3  -1  12 27.3257 10.2911   5
   3  -1  12 60.5250 13.9072   7
  -3   1  12 24.5164 7.95617   8
  -3  -1 -12 39.2040 7.49010   5
   1  -3 -12 27.2210 6.72216  10
   3   1 -12 23.9977 6.08703  10
  -1   3 -12 34.7677 6.76846   5
  -3   1  12 24.0463 8.81709   6
   1  -3 -12 23.6471 11.3416   8
   3  -1  12 28.3868 9.71198  10
   1   3  12 40.3447 8.50640   6
  -1   3 -12 28.7108 8.67735   6
  -1   3 -12 44.7404 12.7254   7
  -1   3 -12 38.1155 39.2571   9
   3  -1  12 40.1164 13.8351   8
   1   3  12 49.3252 12.9809   9
   1  -3 -12 35.3062 9.61084   4
   3   1 -12 27.6051 10.1220   6
  -3  -1 -12 44.6383 11.5207   7
   1  -3 -12 32.6049 8.94601   5
   1   3  12 45.1370 7.61817  10
  -3  -1 -12 35.7116 6.09090  10
   1   3  12 35.2545 7.66950   7
   1  -3 -12 10.6692 10.8909   7
   3  -1  12 22.4841 7.72428   6
  -1  -3  12 44.9290 11.1579   4
  -1  -3  12 32.3293 8.26339   8
   3   1 -12 31.5009 8.48306   5
  -3   2 -12 57.7176 9.41069   5
   3  -2 -12 88.7921 16.2717   5
  -3   2 -12 60.9959 7.78164  10
   2  -3  12 53.5448 18.5776   4
   3  -2 -12 42.6925 13.3983   7
  -2   3  12 64.0810 13.9703   6
  -2   3  12 61.9904 10.8998  10
  -2   3  12 53.3563 10.4857   8
   3  -2 -12 63.4061 11.1069  10
   3  -2 -12 52.4214 11.8359   8
  -3  -2  12 81.2049 13.4982   4
   2  -3  12 73.4278 11.2455  10
   3   2  12 62.1637 13.0202   7
   3   2  12 106.751 20.6779   9
   2   3 -12 98.3936 15.3042   6
   3   2  12 82.8891 11.5908  10
  -3   2 -12 63.1489 18.2849   7
  -2  -3 -12 84.6403 11.2292   4
   3  -2 -12 62.2940 13.0396   4
   2  -3  12 88.8740 18.7376   8
   3  -2 -12 106.968 19.4785   6
   2   3 -12 11.1062 48.4663   9
  -3  -2  12 69.7481 9.78276   8
  -2  -3 -12 79.9725 14.4628   8
  -2  -3 -12 80.6285 7.64656  10
   2  -3  12 76.6807 13.1722   5
  -3   2 -12 66.1955 16.0342   8
  -2   3  12 70.5475 12.6281   5
  -3   2 -12 67.4969 15.1180   6
   3   2  12 85.8656 13.0905   5
  -2   3  12 48.8410 9.35365   7
   3   2  12 71.4100 10.8171   6
  -2   3 -12 60.5309 8.89956   5
   2   3  12 113.840 21.0328   9
   3   2 -12 -20.100 68.2672   9
   2  -3 -12 56.4261 12.0802   8
  -2   3 -12 66.2285 7.39921  10
  -3  -2 -12 95.6130 10.9394   5
   2  -3 -12 90.1737 12.4070  10
   2  -3 -12 65.5804 12.6275   5
   2   3  12 68.3950 11.2744   7
  -3   2  12 79.6320 13.7395   5
  -3  -2 -12 66.2547 7.45392  10
   3  -2  12 44.3405 16.2338   4
   3   2 -12 88.0072 16.3487   6
   2   3  12 91.3621 11.7812   6
  -3   2  12 61.5393 10.4417   8
   3  -2  12 49.0732 11.7591  10
   2   3  12 94.9869 12.3143   5
  -2   3 -12 63.5843 13.6085   6
  -2   3 -12 56.5069 14.1053   7
   3  -2  12 64.1554 15.5528   7
  -3  -2 -12 75.5016 10.2378   4
  -3   2  12 74.0306 14.8854   6
   3  -2  12 60.3256 14.3929   5
   2   3  12 85.7298 9.01844  10
   2  -3 -12 81.4361 15.2087   4
   3  -2  12 71.5387 19.2984   8
  -2   3 -12 73.5793 40.9591   9
  -3  -2 -12 90.2516 18.3696   8
  -3   2  12 71.7261 11.3870  10
   2  -3 -12 59.9077 14.0184   7
  -3   2  12 61.4075 9.67345   7
  -3   2  12 81.5775 16.1783   4
  -2  -3  12 76.3790 10.2812   8
   3  -3  12 17.3506 17.9280   4
  -3  -3 -12 7.50582 15.2049   8
  -3   3 -12 12.8440 5.30138  10
   3  -3 -12 21.9129 9.97147   4
   3   3  12 15.5977 6.62507   6
   3   3 -12 -21.001 67.5995   9
  -3  -3  12 27.3287 7.84382   4
   3  -3  12 15.9363 10.4347   5
  -3   3  12 15.0892 7.04355  10
   3   3 -12 26.4531 9.47494   6
  -3   3 -12 53.9512 18.4587   7
   3  -3  12 40.0247 15.6063   7
   3  -3 -12 5.60765 10.3673   8
  -3   3  12 24.6219 11.0363   6
  -3   3 -12 19.7282 11.3227   6
   3  -3  12 8.32251 19.9128   8
  -3   3  12 7.46515 7.72505   7
   3  -3 -12 5.58324 12.9082   7
   3  -3  12 20.9124 9.03337  10
   3  -3 -12 16.6580 8.66928   5
  -3  -3 -12 13.8322 6.55784   4
  -3   3  12 30.5276 9.28976   5
  -3   3  12 -3.5760 8.38095   8
  -3   3 -12 16.7375 6.91478   5
   3   3  12 25.6540 21.6033   9
  -3   3 -12 14.6210 51.6501   9
   3  -3 -12 8.20687 5.20618  10
   0  -4 -12 3.42810 11.0903   8
   4   0  12 15.9861 15.2034   7
  -4   0 -12 4.98099 6.79545   5
   0   4 -12 -12.476 57.3782   9
  -4   0  12 3.65459 3.28122  10
  -4   0  12 9.61318 6.41191   4
  -4   0 -12 8.19209 5.68646   4
  -4   0 -12 -5.5806 16.9759   8
   0   4  12 5.89463 15.2124   9
   0  -4  12 3.81337 8.03249   4
   4   0  12 14.0007 9.79516  10
   4   0 -12 2.97154 9.64942   6
   0  -4 -12 0.71673 5.33093   4
  -4   0 -12 6.23202 5.05699  10
  -4   0  12 7.39649 6.30688   5
   0   4 -12 4.00949 5.58151   6
   0   4  12 9.36914 7.56557  10
   4   0  12 -2.8002 6.58603   6
   4   0 -12 1.13383 16.1359   9
   4   0  12 17.6276 16.9917   8
   4   0 -12 3.74001 6.33796   5
   4   0 -12 -6.2777 10.0406   7
  -4   0  12 -2.9776 5.89232   7
  -4   0  12 16.1794 9.03341   8
   4   0  12 3.56400 8.76182   5
   4   0 -12 5.04586 4.97691  10
  -4   0 -12 -7.2194 19.5148   7
   0   4  12 -1.9089 4.58341   6
   4   1  12 6.20965 14.2850   7
  -4   1 -12 0.39156 4.56279   4
   1  -4  12 1.09554 9.93735   4
  -4   1 -12 3.51255 6.07482   5
   4  -1 -12 8.59693 9.03339   8
   4  -1 -12 7.05166 6.78170  10
  -4   1 -12 -11.401 8.31324   6
   4   1  12 4.33966 8.22261   5
  -1  -4 -12 -0.1813 10.8619   8
   4   1  12 -6.0955 6.57323   6
   1   4 -12 -2.1051 5.59839   6
  -4  -1  12 -1.8735 8.45258   8
   4  -1 -12 -2.1474 8.45013   6
   4  -1 -12 5.53147 7.32040   5
   1  -4  12 -2.6583 8.72756   8
   1   4 -12 48.6068 58.5971   9
  -1   4  12 -1.0250 3.68920   5
  -1   4  12 8.10191 6.81865   6
  -4   1 -12 2.58209 4.36265  10
  -1   4  12 4.93901 6.60082   7
  -4   1 -12 5.00247 18.0266   8
  -1   4  12 7.63654 5.24582  10
   4  -1 -12 -1.1285 10.9993   7
  -4   1 -12 33.3218 22.5461   7
  -4  -1  12 -1.8684 5.95862   4
   4   1  12 6.59120 8.07023  10
  -1  -4 -12 -1.8874 5.44141   4
  -1   4  12 7.13172 15.6367   9
  -4  -1 -12 -6.0251 3.73078  10
   4  -1  12 10.8032 10.6192  10
  -4   1  12 -1.3135 7.66024   7
   4  -1  12 -14.539 8.61478   4
  -1   4 -12 -3.6310 6.26964   6
   4  -1  12 -5.2962 6.17553   6
  -1   4 -12 51.5490 63.2374   9
   4   1 -12 9.12056 9.37277   6
   4  -1  12 -5.8168 17.5222   8
   1   4  12 12.4653 5.00179   6
  -4   1  12 10.5126 6.64619   4
   1  -4 -12 10.8834 7.12780   5
  -4  -1 -12 12.3828 19.5655   8
  -4   1  12 5.65006 8.54003   8
   4   1 -12 5.88797 22.0277   9
  -4  -1 -12 -0.6701 5.30991   5
   4   1 -12 5.88797 22.0277   9
  -4   1  12 0.48149 3.46674  10
  -4  -1 -12 -0.5733 4.64183   4
   4  -1  12 27.7723 18.2452   7
   1  -4 -12 -16.731 12.4005   8
   4  -1  12 -0.9336 9.81910   5
   1  -4 -12 -7.3671 2.76969  10
   4   1 -12 -0.1889 4.32713  10
   1   4  12 19.8375 16.0470   9
   1  -4 -12 1.62028 6.44265   4
  -4  -1 -12 7.38548 16.7407   7
  -4   1  12 8.64020 7.19091   5
  -2   4  12 2.50938 7.72218   7
  -2   4  12 13.8082 9.89374   6
   4  -2 -12 -4.5165 9.26701   8
   2  -4  12 10.4292 14.0455   4
   4   2  12 1.76172 6.17806   6
  -4   2 -12 35.0502 20.5239   8
   4   2  12 17.1891 14.6009   7
   4  -2 -12 8.67856 7.15569  10
  -4   2 -12 33.0165 23.0858   7
  -2  -4 -12 15.5611 6.61569   4
  -4   2 -12 21.8715 6.91577   5
  -2   4  12 14.8178 6.49129  10
   4  -2 -12 19.3229 9.47943   4
  -4  -2  12 10.4114 8.73020   8
   2  -4  12 12.9226 19.2352   8
   4   2  12 23.2016 8.50876  10
  -2   4  12 27.8824 20.1206   9
   4  -2 -12 34.4926 13.8217   6
  -4   2 -12 11.6025 10.6061   6
   4   2  12 10.2899 21.5450   9
   2   4 -12 53.7313 60.3293   9
   4  -2 -12 11.9363 13.2521   7
   4   2  12 11.7681 7.86154   5
  -4  -2  12 11.7304 6.95096   4
  -2  -4 -12 29.1056 13.9481   8
  -2   4  12 21.4359 7.83404   5
  -4   2 -12 19.2010 5.84657  10
   4  -2 -12 29.6587 10.6993   5
   4  -2  12 8.97329 12.9582   4
  -4   2  12 8.16064 8.65403   8
  -4   2  12 17.6676 7.88989   4
  -4  -2 -12 8.28993 4.45760  10
   2  -4 -12 7.64634 12.5902   8
   2   4  12 33.0200 21.0968   9
   2  -4 -12 19.4474 8.47542   5
  -4  -2 -12 4.72564 19.3352   8
   4  -2  12 12.7745 20.8191   8
  -4  -2 -12 4.00293 5.47998   4
  -4  -2 -12 16.9564 6.58780   5
   4  -2  12 22.6893 20.1272   7
  -4   2  12 5.82234 8.87679   5
   2  -4 -12 6.85859 4.80458  10
   4  -2  12 4.07613 9.63935   5
   4  -2  12 13.0486 10.7653  10
  -4   2  12 6.51659 5.10855  10
   2   4  12 26.7526 6.82138   6
   2  -4 -12 27.6080 9.29147   4
  -2   4 -12 -30.628 66.8571   9
  -4   2  12 7.72360 8.87308   7
  -2   4 -12 21.6026 10.3168   6
   4   2 -12 22.1581 10.4623   6
  -4   2  12 29.2637 9.71681   6
  -3   4  12 24.0522 11.2172   6
  -4   3 -12 6.13817 6.50932  10
   4  -3 -12 14.2199 7.83284   4
   4  -3 -12 23.6274 10.1396   5
   4   3  12 -7.8539 4.07896   6
   4  -3 -12 -2.3578 11.7251  10
  -4   3 -12 5.29713 11.4597   6
  -4   3 -12 2.11326 5.58776   5
  -3   4  12 11.4896 10.8101  10
   3  -4  12 11.7227 15.6170   4
  -3   4  12 15.7657 7.64340   5
  -3  -4 -12 -6.7938 3.76977   4
   3  -4 -12 -3.5952 8.23546  10
  -4   3  12 -3.2537 6.65123   5
   4  -3  12 -33.837 11.5671   4
  -4   3  12 -5.2625 7.31135   6
   4  -3  12 7.01390 12.0764   5
   3  -4 -12 10.9016 8.22816   4
   3  -4 -12 -0.0680 7.82443   5
  -4   3  12 -2.6692 11.3449  10
  -3   4 -12 -20.092 7.47236   6
  -4  -3 -12 -8.1391 4.15516   4
   3   4  12 -6.0144 4.08024   6
   4  -3  12 3.98268 12.4591  10
   0   5  12 6.38776 6.49462   6
   0  -5 -12 5.46211 5.86620   4
   5   0 -12 2.17300 9.45205   6
   5   0  12 -5.6363 9.36442   5
  -5   0 -12 8.80581 5.86121   4
  -5   0 -12 10.0303 6.99811  10
   5   0  12 -8.5429 14.7684  10
   5   0 -12 1.24310 7.58591   5
  -5   0  12 7.80495 6.22147   4
   5   0  12 -2.4218 7.38262   6
   5   0 -12 5.25239 11.2234  10
  -5   0 -12 -0.4103 6.58926   5
   5  -1 -12 13.5972 12.3823   6
   5   1  12 19.1458 10.1920   6
   5  -1 -12 8.34463 9.77219   5
   5   1  12 2.98740 9.25498   5
  -5   1 -12 14.8487 7.97363  10
  -1   5  12 9.55026 9.00981   6
   5  -1 -12 -1.6693 13.6669  10
  -5   1 -12 8.24246 5.82905   4
  -1  -5 -12 8.87110 5.45808   4
  -5   1 -12 13.1325 7.89112   5
  -5  -1  12 15.4628 8.03170   4
   5   1  12 16.8467 15.1527  10
   1   5  12 13.4092 6.86166   6
   5  -1  12 6.50496 11.5509   5
  -5  -1 -12 9.01931 8.71642   5
   5  -1  12 7.55795 18.4332  10
  -5  -1 -12 6.09153 6.48439  10
  -5   1  12 16.2760 10.1219   4
   5  -1  12 -0.9449 13.8021   4
   5   1 -12 -2.0956 10.1031   6
  -5   1  12 21.5505 8.43561   5
   1  -5 -12 10.2058 7.46384   4
  -5  -1 -12 3.75650 5.41058   4
  -5   1  12 4.68665 11.0457  10
   5  -1  12 5.08369 6.92306   6
   0   0 -13 65.1542 7.44139  10
   0   0  13 68.9470 13.0360   4
   0   0 -13 44.2868 46.0363   9
   0   0 -13 66.5029 10.2946   4
   0   0  13 62.4210 9.34484   6
   0   0  13 63.9694 8.85366   7
   0   0  13 48.5655 9.31948   8
   0   0  13 66.8221 10.3809   5
   0   0 -13 65.0940 9.79614   5
   0   0 -13 79.3260 13.1415   6
   0   0  13 78.1471 8.36261  10
   0   0 -13 59.4165 11.7637   7
   0   0 -13 84.8904 11.9657   8
   0  -1 -13 256.915 21.5674   7
   1   0 -13 247.648 22.2318   7
   0   1 -13 241.969 18.7150   6
   0   1  13 229.574 17.2440   5
   1   0  13 288.520 24.5165   4
   0   1  13 247.756 15.9357   7
   0  -1  13 258.943 22.0808   4
  -1   0  13 248.944 15.6365   7
   1   0 -13 252.029 15.7678  10
  -1   0 -13 240.731 16.1755   4
   1   0 -13 231.893 17.6289   4
   1   0 -13 241.524 20.2302   6
   1   0  13 227.455 18.6090   8
   1   0  13 277.215 16.9088  10
   0   1 -13 269.716 18.8720   8
  -1   0 -13 271.761 16.4593   5
  -1   0 -13 284.889 20.6368   6
   1   0 -13 244.553 17.9326   8
   0  -1 -13 245.036 17.7148   4
   0  -1 -13 259.720 18.7417   8
   0  -1  13 266.009 17.4061   5
   0   1  13 247.766 15.7266  10
   0   1  13 244.540 17.3793   6
   1   0 -13 263.072 18.2392   5
  -1   0  13 235.625 17.4317   5
  -1   0  13 267.996 17.5864   6
  -1   0  13 281.069 21.8254   4
   0   1 -13 276.862 20.9140   7
  -1   0 -13 244.145 18.8618   8
  -1   0 -13 255.651 14.3256  10
   0  -1  13 248.267 16.5591   7
   0  -1  13 259.570 15.4841  10
   0   1 -13 282.222 17.1152   5
  -1   0 -13 193.852 19.4060   7
   1   0  13 248.269 17.7144   5
   1   0  13 257.967 16.6433   6
   0  -1 -13 243.169 17.3006   5
   0  -1 -13 244.560 20.1231   6
   0  -1 -13 237.813 15.1095  10
  -1   0  13 222.821 17.1688   8
   0   1 -13 269.996 14.6652  10
   0  -1  13 219.264 17.8637   8
   0   1  13 281.973 22.1819   4
   1   0  13 243.780 16.9930   7
   0   1  13 228.843 17.4326   8
  -1   0  13 238.744 15.3280  10
  -1  -1  13 1.33457 3.90800   7
  -1   1 -13 5.03956 29.0010   9
  -1   1 -13 3.30763 3.31263  10
   1  -1 -13 -8.1994 9.08784   7
   1   1 -13 -1.3588 7.22906   7
  -1  -1  13 0.22241 5.55468   8
   1  -1  13 -4.0692 4.14094   5
  -1  -1  13 1.98420 4.44215   5
   1  -1  13 0.54510 4.16419   7
   1   1 -13 -0.1036 3.81599   5
  -1  -1  13 3.21834 2.90658  10
   1   1 -13 17.2729 32.1435   9
   1   1 -13 0.56297 2.87131  10
  -1   1  13 -5.0878 4.63530   8
  -1   1  13 -1.3604 2.73674  10
   1  -1 -13 6.39821 6.66836   8
   1  -1 -13 2.87027 3.83643  10
   1   1  13 4.81226 5.95877   8
   1   1  13 4.17994 3.83739  10
  -1  -1 -13 1.61936 4.96350   6
  -1   1 -13 4.55504 4.13420   4
  -1  -1 -13 6.29726 8.01635   7
  -1  -1 -13 2.75160 5.87692   8
   1  -1 -13 -0.8261 5.79059   6
   1   1  13 1.20395 5.83416   4
   1  -1  13 8.57105 7.93684   4
   1  -1  13 -1.0452 6.40680   6
   1  -1  13 -3.6781 5.13706   8
   1  -1  13 0.57279 4.07270  10
  -1  -1 -13 0.82659 4.05924   4
  -1  -1 -13 -0.5619 2.90455  10
   1   1  13 -0.3200 4.29734   5
  -1   1 -13 -2.3101 3.25783   5
  -1   1 -13 3.50579 5.99951   6
  -1   1  13 -4.7735 3.76347   5
  -1   1  13 -5.2332 3.88064   7
   1   1 -13 7.82009 5.95893   6
  -1   1 -13 5.54902 6.33478   8
  -1   1 -13 3.62856 6.62917   7
   1   1  13 -0.5395 4.41499   7
  -1  -1 -13 2.58733 4.85690   5
   1  -1 -13 2.72481 4.76674   4
  -1  -1  13 10.2014 7.61641   4
   1  -1 -13 -0.5103 4.30391   5
   1   1  13 -2.5692 3.61143   6
  -2   0  13 0.52648 4.95142   4
  -2   0  13 -0.6319 4.73190   5
   2   0 -13 -5.0332 4.14934   5
  -2   0 -13 6.30504 10.3329   7
   2   0 -13 8.62533 7.58994   6
   0  -2 -13 -3.7622 7.86572   7
   0   2  13 3.59371 4.64497   8
   2   0  13 -0.9996 5.26986   5
   0   2 -13 -2.4597 2.45478  10
   0   2  13 -7.4433 4.81096   4
   0   2  13 1.31725 4.04937   5
   0   2  13 1.91393 4.58442   6
   0   2  13 0.93963 5.10406   7
   0  -2  13 4.54727 4.69780   5
  -2   0 -13 -3.3164 3.59234   4
  -2   0 -13 2.28448 5.00037   5
   2   0 -13 -45.322 37.9879   9
  -2   0 -13 -6.6411 5.86794   6
   0   2  13 -2.5569 2.76252  10
   0   2 -13 -2.7255 3.18816   5
   2   0 -13 -11.299 11.7615   7
   0   2 -13 0.22110 6.08625   7
  -2   0  13 3.21321 3.72354  10
   0  -2 -13 2.14433 4.82160   4
  -2   0 -13 1.11268 7.58812   8
  -2   0  13 -5.9286 3.63586   7
  -2   0  13 -3.4174 5.81881   8
   2   0  13 -4.0440 8.37096   4
   0  -2 -13 4.64914 7.96407   8
  -2   0 -13 1.50467 3.30280  10
   2   0 -13 3.25182 7.04027   8
   0   2 -13 4.54769 5.39420   6
   2   0 -13 -1.3369 3.24985  10
   2   0  13 5.16832 5.29372   6
   0  -2  13 -0.1860 5.64005   8
   2   0  13 3.50539 8.00308   8
   0   2 -13 17.7082 31.4202   9
   0  -2 -13 -2.1215 3.18917  10
   0  -2  13 -4.3562 5.98880   4
   2   0  13 -9.4790 6.12155   7
   0  -2  13 2.61323 4.77773   7
   0   2  13 1.77827 7.16255   9
   0  -2  13 -0.4872 2.65505  10
   0  -2 -13 0.86704 4.81499   5
   1  -2  13 21.6832 10.7318   8
   2  -1 -13 37.9822 12.0549   6
  -1   2  13 40.4576 10.0641   4
  -2  -1  13 23.5590 8.27523   8
  -2   1 -13 40.2159 11.3512   8
  -2   1 -13 34.8892 6.03704  10
  -1  -2 -13 25.7660 8.92111   7
   1  -2  13 34.0557 8.22693   7
  -1   2  13 40.5004 9.81249   5
   2   1  13 35.2184 11.5951   4
   2   1  13 60.8082 10.8283   5
   2   1  13 38.2602 8.06240   6
  -1  -2 -13 36.8499 6.65502  10
   2  -1 -13 31.7384 9.38338   4
   1  -2  13 45.4484 14.1576   4
  -1   2  13 43.3940 10.9376   6
  -2  -1  13 52.3162 8.21993  10
  -1   2  13 34.7153 8.43909   8
   2   1  13 53.6405 11.0395   7
   2   1  13 36.1077 9.61514   8
   2   1  13 50.2437 14.5522   9
   2   1  13 43.1267 8.64721  10
  -2  -1  13 39.2916 8.72882   5
  -2   1 -13 33.0272 10.0480   6
  -2   1 -13 66.2975 16.0828   7
  -1  -2 -13 53.4981 9.74263   4
   1  -2  13 45.2077 7.84033  10
   1   2 -13 50.0336 8.78217   5
   1  -2  13 50.5878 9.52030   5
   1   2 -13 23.5941 34.9861   9
   1   2 -13 60.8486 8.27085  10
  -1   2  13 33.9009 7.34550  10
   2  -1 -13 43.0640 8.75589  10
  -2  -1  13 42.5563 6.83329   7
  -1  -2 -13 30.5907 8.06069   5
  -2   1 -13 45.9105 8.03850   4
  -2   1 -13 34.5569 7.24185   5
   1   2 -13 40.1833 10.6662   6
   2  -1 -13 28.7776 8.82487   5
   2  -1 -13 33.6447 17.4339   7
   2  -1 -13 21.5675 10.6029   8
  -1   2  13 35.1386 7.62925   7
  -1  -2 -13 45.0452 11.9184   8
   1   2 -13 44.9760 10.2085   7
  -1  -2  13 45.0284 8.33406   5
   2  -1  13 43.0537 10.9943   7
   1   2  13 40.9531 8.66917   6
  -1  -2  13 42.5522 9.04142   8
   1   2  13 21.5473 7.73560   8
   2  -1  13 35.4752 9.06067  10
   1  -2 -13 48.9652 11.7000   6
  -1   2 -13 43.1455 7.36170   5
  -1   2 -13 53.0515 10.7946   6
  -2   1  13 29.1566 8.37414   8
   1  -2 -13 38.3089 9.63530   5
  -1   2 -13 45.5290 6.33621  10
   1  -2 -13 28.4932 8.76127   4
  -1  -2  13 54.9644 12.4786   4
  -2  -1 -13 40.6505 7.91646   4
  -2  -1 -13 44.5409 8.29258   5
  -2  -1 -13 47.5545 11.3579   6
   1   2  13 55.4587 13.2389   9
   2   1 -13 33.3080 8.49951   5
   2   1 -13 38.3071 11.4239   6
   2   1 -13 23.1741 10.8636   7
   2   1 -13 -12.282 40.5273   9
   2   1 -13 35.6117 7.01716  10
  -1  -2  13 44.6318 6.72042  10
  -2   1  13 39.1155 7.59599  10
  -1  -2  13 31.1146 6.66678   7
   1   2  13 49.8284 7.81895  10
  -2  -1 -13 59.6599 13.4102   7
  -1   2 -13 43.2520 12.5176   7
  -2   1  13 33.9417 8.78616   4
  -1   2 -13 32.0025 32.3205   9
  -2  -1 -13 48.7088 7.13281  10
   1  -2 -13 44.9567 12.5298   8
   2  -1  13 32.9990 9.41851   5
   2  -1  13 23.7664 12.3547   4
   1   2  13 47.2574 9.45831   7
   1  -2 -13 28.4961 14.4736   7
  -2  -1 -13 37.7756 11.7032   8
  -2   1  13 21.8098 8.40902   6
  -2   1  13 20.9451 7.61195   7
   1  -2 -13 39.7533 8.13302  10
  -2   1  13 42.7049 9.79377   5
   2  -1  13 34.0676 12.3787   8
   2  -1  13 35.1209 7.88990   6
  -2   2 -13 12.4540 5.97024   5
  -2   2 -13 22.7987 5.51675  10
   2  -2  13 21.4258 9.01019   7
   2   2  13 18.0219 6.23339  10
  -2   2 -13 24.5780 15.4998   7
  -2   2  13 21.7310 9.24030   6
   2  -2  13 38.9257 14.3812   4
   2  -2 -13 17.3444 8.16640   5
   2  -2 -13 14.9361 9.88936   6
  -2  -2 -13 31.4130 7.46437   5
  -2  -2 -13 31.5295 9.97162   7
  -2   2 -13 10.5491 30.4929   9
   2   2  13 38.0792 12.9777   9
  -2  -2  13 26.4658 8.01370   8
   2  -2  13 19.7287 14.6320   8
   2   2  13 28.2919 10.1723   7
  -2   2  13 17.8890 6.30024  10
  -2  -2 -13 29.0483 13.6181   8
   2   2  13 23.5494 7.66038   5
  -2   2  13 12.7034 8.09631   8
  -2   2 -13 32.8090 11.3489   6
  -2   2  13 6.73071 7.26556   7
   2   2  13 16.7289 7.00318   6
   2  -2  13 20.9127 7.78945  10
  -2  -2 -13 38.7080 8.59544   4
   2   2 -13 30.2546 10.3989   6
   2  -2 -13 15.5871 7.36227   4
   2  -2  13 28.9264 9.44084   5
   2   2 -13 -8.6848 54.9029   9
   2  -2 -13 23.4356 7.15910  10
  -2  -2 -13 24.0677 5.26846  10
  -2   2  13 21.5382 7.82758   5
  -2   2  13 17.2845 6.96943   4
  -3   0 -13 194.412 25.3294   8
   0  -3  13 157.708 17.9631   8
   0   3 -13 184.125 16.8726   6
   0   3 -13 73.2766 54.9029   9
   0   3  13 220.627 21.3126   9
   3   0  13 152.756 23.9234   4
   0  -3 -13 184.627 19.9540   8
  -3   0 -13 196.146 12.8595  10
  -3   0 -13 199.902 14.8577   4
   0  -3 -13 178.544 13.8645  10
   0  -3  13 193.403 21.8553   4
   0  -3 -13 212.557 17.7264   5
   3   0 -13 177.125 18.5715   5
   3   0 -13 233.786 28.2167   6
  -3   0 -13 224.482 28.6057   7
  -3   0  13 178.613 18.3534   4
  -3   0  13 183.883 17.5667   5
  -3   0  13 184.827 14.6873  10
   0   3  13 212.266 14.8804  10
   3   0  13 190.204 18.8578  10
   3   0 -13 170.243 15.7325  10
   3   0  13 206.200 19.5919   5
  -3   0 -13 216.976 19.8702   6
  -3   0  13 180.965 15.0966   7
   3   0  13 219.308 23.5787   7
  -3   0  13 122.669 14.7787   8
   0  -3 -13 180.993 17.2228   4
   3   0  13 180.060 24.4663   8
   3   0  13 202.319 16.3884   6
  -3   0 -13 216.333 15.4669   5
   0   3  13 210.778 16.5481   7
  -3   1 -13 -1.3282 5.25830   5
  -1  -3 -13 2.45480 5.17040   4
   1   3 -13 5.48414 5.88305   6
  -3   1 -13 4.56820 4.75252  10
  -3   1 -13 -2.7930 4.93131   4
   3  -1 -13 -7.4974 4.01095  10
  -3  -1  13 3.63806 5.38383   4
   3  -1 -13 6.75972 6.53489   4
   3  -1 -13 11.0612 6.79300   5
  -1  -3 -13 -2.5116 4.25260   5
  -3  -1  13 4.64796 5.10807   5
  -1  -3 -13 3.26448 3.58324  10
  -1   3  13 2.50364 6.55677   7
   3   1  13 -7.8220 5.51574   5
  -3   1 -13 -6.5965 13.8934   8
   1   3 -13 15.6538 54.4800   9
   3  -1 -13 -2.7125 8.45481   6
  -3   1 -13 2.84754 17.9436   7
   1  -3  13 -7.1747 11.6861   8
   3   1  13 22.7860 12.7639   7
   3   1  13 -8.6524 11.3578   8
   3   1  13 3.32319 6.64753  10
  -3  -1  13 -1.0565 8.19481   8
  -3  -1  13 3.78382 4.07351  10
  -3   1 -13 -5.1805 7.28656   6
  -1   3  13 -0.0783 3.83756  10
  -1   3  13 -1.2043 3.88056   5
   1  -3  13 -2.6791 9.31798   4
  -1   3  13 4.11330 6.12925   6
   3  -1 -13 11.3454 13.3038   7
   3   1  13 1.25894 6.15749   6
  -1  -3 -13 10.4271 12.2302   8
  -1   3 -13 -11.800 5.74335   6
  -3   1  13 3.32019 7.97224   7
  -3  -1 -13 4.29917 3.79218  10
   3   1 -13 4.99106 4.67593  10
  -1  -3  13 3.40292 6.37744   8
   1   3  13 -1.4466 11.5595   9
   3   1 -13 -0.0916 7.04237   6
  -3   1  13 -10.441 4.31136   5
   1  -3 -13 -17.268 13.2360   7
   1  -3 -13 -3.0044 4.65892   4
   1   3  13 -0.3475 3.49617  10
   3  -1  13 8.19645 7.64525  10
   1  -3 -13 0.62288 3.78480  10
   1  -3 -13 -1.9951 12.6251   8
  -3  -1 -13 -0.7652 4.41715   4
  -1   3 -13 12.2897 56.9415   9
   1   3  13 7.61541 4.88482   5
   3   1 -13 -4.6538 4.22149   5
  -3   1  13 -2.5076 8.22334   8
   3  -1  13 -3.7335 5.44522   6
   3  -1  13 11.4451 13.7236   7
   1   3  13 3.86540 4.85299   6
   3   1 -13 -32.745 13.6456   7
   3   1 -13 -13.754 68.7602   9
  -3  -1 -13 1.94898 5.32865   5
   3  -1  13 -8.1926 7.61434   4
   3  -1  13 -9.6567 6.40357   5
   1   3  13 7.76065 8.12620   7
  -1   3 -13 1.62857 3.46005  10
  -3  -1 -13 14.4894 15.1246   8
  -3  -1 -13 17.8773 15.7760   7
  -3   1  13 4.07671 4.85200   4
   1  -3 -13 4.55639 5.88411   5
  -1  -3  13 -1.2573 7.00897   4
   3  -1  13 -10.345 14.6211   8
   3  -2 -13 26.9326 8.81153  10
  -2   3  13 45.4384 11.0228   5
  -3  -2  13 37.7641 10.5374   8
   3   2  13 27.8278 9.01495   5
   3  -2 -13 46.2192 15.8430   6
  -2  -3 -13 37.9509 6.94884  10
   2   3 -13 57.5602 12.5026   6
   2   3 -13 -22.925 61.1299   9
   2  -3  13 16.6747 7.13347  10
   3   2  13 30.1060 17.5089   9
   2  -3  13 29.9661 16.1425   4
   3  -2 -13 33.6301 10.4322   4
   3   2  13 39.2153 14.3856   7
   3  -2 -13 32.7971 12.1249   8
  -2   3  13 42.2693 12.9663   6
   3   2  13 27.4118 7.69065  10
   3   2  13 39.7492 8.97607   6
  -3   2 -13 19.2506 7.17777   5
  -3   2 -13 39.9188 13.1753   6
  -3   2 -13 53.9510 20.2837   7
  -3   2 -13 26.7341 6.23571  10
   2  -3  13 39.9735 19.7358   8
   3  -2 -13 33.2561 11.3195   5
  -2   3  13 35.2567 8.88230  10
  -2   3  13 24.3453 9.01755   7
   2  -3  13 49.1009 10.8788   5
  -2  -3 -13 44.7873 9.25926   4
  -3  -2  13 19.8142 7.95827   4
  -2  -3 -13 25.7884 14.8404   8
   3  -2 -13 40.2165 16.7744   7
   2   3  13 48.0739 12.4582   7
   3   2 -13 -36.418 83.7866   9
   2   3  13 46.1791 9.49828   6
  -3  -2 -13 41.6982 14.4992   7
   3  -2  13 52.2977 20.3910   8
   3  -2  13 25.5591 10.3868   5
   2   3  13 56.5287 20.5622   9
   2   3  13 31.8405 6.84369  10
   3   2 -13 41.1834 11.9387   6
  -2   3 -13 41.1424 7.94826   5
  -2   3 -13 29.0997 6.02317  10
   2  -3 -13 28.2659 9.32398   4
  -2   3 -13 34.6992 54.1813   9
  -3   2  13 32.3362 11.2746   6
  -3   2  13 22.0844 7.32393  10
  -3  -2 -13 33.7493 18.4116   8
   2  -3 -13 33.8609 8.23670  10
  -3   2  13 36.6582 10.5361   5
   2   3  13 43.1727 8.81865   5
   3  -2  13 41.6411 10.7648  10
   2  -3 -13 41.0365 11.1332   5
   3  -2  13 29.2094 16.3269   7
   3  -2  13 35.0417 15.2899   4
  -3  -2 -13 32.8929 8.10863   4
  -2   3 -13 56.8514 17.9029   7
  -3   2  13 20.6744 9.72971   7
  -3  -2 -13 42.7692 6.92117  10
  -2   3 -13 16.6091 9.49441   6
  -3  -2 -13 31.4491 8.09300   5
  -3   2  13 39.4617 10.2584   4
  -3   2  13 15.8828 9.84763   8
   3  -3 -13 8.46806 7.62568   5
   3  -3  13 42.7874 25.8824   7
  -3   3 -13 4.25039 5.84479   5
   3  -3  13 -1.5138 11.2093  10
   3  -3 -13 9.39229 6.77696   4
   3   3  13 3.15465 5.40723   6
  -3   3  13 17.2452 10.7137   8
  -3  -3 -13 -0.7520 5.42541   4
  -3   3 -13 5.19520 19.4013   7
  -3   3  13 12.2206 7.73561   5
   3  -3  13 10.7854 9.28178   5
  -3   3 -13 10.3589 12.0689   6
  -3   3 -13 12.7651 64.2443   9
  -3   3  13 3.05156 8.48428  10
  -3  -3  13 10.3307 5.69428   4
  -3   3 -13 3.54371 4.97434  10
  -3   3  13 7.46472 8.31281   6
   3  -3 -13 8.01290 7.23115  10
   3   3 -13 7.85522 6.70928   6
   3  -3  13 8.71558 14.3855   4
   4   0  13 18.5291 10.2092   5
   4   0 -13 50.0079 15.3349   6
  -4   0  13 22.6216 7.89233   4
   4   0 -13 -8.0216 13.0627   7
  -4   0  13 38.7883 11.0636   5
   4   0  13 30.8710 19.3380   7
  -4   0  13 10.2498 9.51348   7
  -4   0 -13 17.4068 7.89593   5
   0   4 -13 65.1201 73.0577   9
   4   0 -13 26.9740 9.26901   5
  -4   0 -13 21.0371 7.14082   4
  -4   0  13 5.92164 10.8693   8
  -4   0 -13 40.9242 25.0465   7
   0   4 -13 25.8472 8.36148   6
   0  -4 -13 42.7501 15.2660   8
   0  -4  13 31.6865 11.4800   4
  -4   0 -13 28.7737 6.70396  10
   4   0  13 27.6511 10.9045  10
   0   4  13 29.5710 18.0179   9
   0   4  13 25.6787 7.76752  10
   4   0 -13 10.0309 6.86670  10
  -4   0  13 17.9243 5.28687  10
   0  -4 -13 14.1842 8.04363   4
  -4   0 -13 30.3874 22.3256   8
   4   0  13 40.7058 21.0478   8
   0   4  13 19.1797 8.39850   6
   4   0  13 18.3048 8.47378   6
   1  -4  13 144.463 25.1829   4
  -1  -4 -13 91.0150 18.8587   8
   4  -1 -13 95.8015 15.6874  10
  -1   4  13 131.058 26.9079   9
   4   1  13 102.678 14.6701   6
   1   4 -13 143.400 20.3979   6
  -4   1 -13 92.6264 11.9605   4
  -4   1 -13 103.686 13.5976   5
   4   1  13 100.580 41.4219   9
   1   4 -13 46.4364 101.272   9
  -4   1 -13 92.5008 16.7588   6
  -4  -1  13 71.1499 15.5826   8
   4  -1 -13 132.871 20.4949   5
  -1   4  13 118.410 13.3267  10
  -1   4  13 91.8148 14.6901   5
  -1   4  13 95.0149 12.0834   7
  -4   1 -13 100.229 11.1323  10
   4  -1 -13 135.452 24.0803   6
   1  -4  13 75.1958 20.5876   8
   4   1  13 110.316 23.6495   7
  -1   4  13 131.610 18.5680   6
  -4  -1  13 148.144 20.5065   4
  -4   1 -13 100.120 26.1858   8
  -1  -4 -13 131.330 16.8067   4
   4   1  13 122.443 17.2400   5
   4   1  13 100.123 15.3099  10
   1  -4 -13 74.2970 21.5078   7
   4  -1  13 104.951 34.2240   8
   1  -4 -13 90.6844 14.3102   5
  -4  -1 -13 99.6447 12.2794   4
  -4  -1 -13 121.839 28.1102   7
  -4  -1 -13 106.698 12.7678   5
   4  -1  13 90.8134 17.1475   5
   4  -1  13 75.5887 13.0341   6
  -4   1  13 129.436 19.2054   5
  -4   1  13 114.363 12.2509  10
   1  -4 -13 123.539 18.5207   4
  -1   4 -13 112.439 16.0450   6
  -4   1  13 100.025 17.8911   4
   4  -1  13 77.2988 15.8061  10
   4   1 -13 129.067 20.8600   6
  -4  -1 -13 136.566 10.6556  10
   4  -1  13 49.8523 16.3034   4
   4   2  13 -6.7291 5.88007   6
  -4   2 -13 -10.420 9.54177   6
   4   2  13 -6.9790 5.65187   5
  -2  -4 -13 -0.0122 5.46590   4
  -2   4  13 12.7772 9.07391   6
   4   2  13 1.59154 8.55796  10
   4  -2 -13 2.82430 7.20331   4
  -4   2 -13 -11.060 6.12107  10
   4  -2 -13 3.88752 7.81448   5
   4  -2 -13 3.03244 8.77390   6
   4  -2 -13 6.46732 12.6119  10
  -4   2 -13 -7.2949 5.39067   5
   2  -4  13 -3.9149 10.4947   4
  -2   4  13 -5.7194 8.80194  10
  -4  -2  13 9.20287 6.03283   4
  -2   4  13 2.31759 5.26862   5
   4  -2  13 -8.0788 8.52595   5
  -4   2  13 -4.5018 9.67803  10
   2  -4 -13 -1.1216 6.73164   4
  -4   2  13 -9.5219 6.21835   5
   4  -2  13 -6.2040 12.6465  10
   2  -4 -13 4.70487 6.29263  10
   4   2 -13 5.33766 7.34490   6
   4  -2  13 -10.288 11.5078   4
   2  -4 -13 5.18039 7.04486   5
  -4   2  13 -0.1756 5.46949   4
   2   4  13 7.30051 4.97791   6
  -2   4 -13 -18.481 6.02069   6
  -4  -2 -13 -4.8004 4.69958   4
   0   0  14 487.741 31.3712   4
   0   0  14 428.697 23.4648  10
   0   0 -14 458.795 26.0212   4
   0   0  14 444.233 25.1640   6
   0   0 -14 487.444 26.2639   5
   0   0 -14 487.099 32.1172   7
   0   0  14 410.787 27.0002   8
   0   0 -14 423.651 22.7094  10
   0   0 -14 471.856 29.4745   6
   0   0  14 448.504 25.1457   7
   0   0  14 466.218 26.4213   5
   0   0 -14 483.830 28.0664   8
   0   1 -14 247.782 20.6674   6
   0  -1  14 244.530 22.7309   8
   0  -1  14 233.179 15.3687  10
   0  -1 -14 241.597 15.9391  10
  -1   0  14 233.669 17.9075   5
   0  -1  14 258.330 17.9150   5
  -1   0  14 235.601 21.2379   4
   0  -1 -14 255.850 26.7793   7
   1   0 -14 228.798 18.2817   4
   1   0  14 231.087 20.8072   7
   1   0 -14 247.346 25.8474   7
   0   1 -14 226.018 16.9035   5
   0   1 -14 135.539 37.8475   9
   1   0 -14 209.062 15.5669  10
  -1   0 -14 231.594 14.6328  10
  -1   0 -14 242.181 22.3769   8
   0   1  14 229.550 17.6694   6
   0   1  14 242.308 18.7133   7
   0   1  14 230.547 20.4099   8
   1   0  14 219.289 22.1563   8
   1   0  14 235.935 16.5861  10
   0   1  14 241.108 21.9363   4
   0   1  14 255.902 18.4451   5
   0  -1  14 258.024 17.7927   7
   0  -1 -14 252.584 21.4711   6
   1   0  14 254.984 18.6640   5
   1   0 -14 251.383 22.1367   6
  -1   0  14 197.102 19.4959   8
  -1   0  14 230.636 15.6098  10
   0  -1 -14 234.795 18.4533   4
   0  -1 -14 245.934 18.4101   5
   1   0 -14 241.515 18.5303   5
  -1   0  14 257.279 17.4620   7
   1   0 -14 249.094 19.5126   8
  -1   0 -14 252.177 20.8987   6
  -1   0 -14 236.839 25.4031   7
   0  -1 -14 282.094 23.1392   8
   0   1 -14 259.131 25.2208   7
   1   0  14 247.919 17.0508   6
   1   0  14 270.408 24.6387   4
   0   1  14 226.310 15.8455  10
  -1   0 -14 261.774 17.4151   5
   0  -1  14 282.821 23.9326   4
  -1   0 -14 241.241 17.1245   4
   0   1 -14 229.033 14.7313  10
  -1   1  14 73.8475 10.9803   7
  -1   1  14 69.5811 12.6453   8
  -1   1 -14 101.303 15.4837   6
  -1  -1  14 118.423 10.2508  10
   1   1  14 89.5385 13.5074   7
  -1  -1  14 116.062 18.1991   4
   1  -1 -14 104.500 17.5170   6
   1   1 -14 88.4493 9.82765  10
   1  -1 -14 86.7563 13.2494   4
  -1   1 -14 110.998 9.80356  10
  -1   1 -14 90.9174 14.9977   8
  -1   1 -14 29.2708 39.1859   9
  -1   1 -14 107.689 12.3212   5
   1  -1  14 82.2832 10.9769  10
  -1  -1 -14 87.7149 9.59678  10
   1   1 -14 115.584 17.4359   6
   1   1 -14 114.306 18.1879   7
   1   1 -14 49.0515 36.4362   9
   1   1  14 134.727 19.5086   4
   1  -1  14 87.0166 17.6679   4
  -1   1 -14 94.8663 19.2023   7
   1   1  14 77.6273 13.8265   8
   1   1 -14 110.054 14.0008   5
   1  -1  14 87.2424 12.6835   5
   1   1  14 93.7992 12.6820   5
   1  -1 -14 97.4803 11.0018  10
  -1  -1 -14 108.425 16.0023   6
  -1  -1 -14 112.059 20.0835   7
  -1  -1 -14 95.5433 16.2187   8
   1   1  14 116.775 14.3917   6
  -1  -1  14 99.4261 13.1804   5
  -1  -1  14 112.101 12.0264   7
  -1  -1  14 88.5791 14.1307   8
   1   1  14 98.7522 10.9249  10
   1  -1  14 92.0069 16.7877   8
  -1  -1 -14 111.506 13.7270   5
  -1   1  14 113.305 10.8453  10
  -1  -1 -14 97.2458 12.9926   4
   1  -1 -14 111.739 20.3860   7
   1  -1 -14 89.4878 13.6973   5
   1  -1 -14 110.108 15.9854   8
   1  -1  14 104.395 14.6404   7
   2   0 -14 96.3344 12.9264  10
  -2   0 -14 122.618 13.4584   5
   0   2 -14 116.842 11.8009   5
   2   0  14 93.2325 19.9478   4
   2   0 -14 -45.502 64.9284   9
   0  -2 -14 92.8329 10.5683  10
   0  -2 -14 98.4738 14.0075   5
   0   2 -14 84.0365 17.0358   7
   2   0  14 96.3236 14.0108   5
   2   0  14 96.3147 16.4792   7
   2   0 -14 78.8286 21.3344   7
   2   0  14 100.106 13.0716  10
   2   0 -14 95.6830 16.9480   8
   2   0 -14 127.054 17.0879   5
   0   2  14 128.718 16.2032   6
   0   2  14 93.3421 12.6088   7
   0   2 -14 93.8535 9.34316  10
  -2   0 -14 89.4055 9.52656  10
  -2   0  14 61.7326 12.3153   8
  -2   0 -14 139.418 21.2176   8
   0  -2 -14 125.791 20.8825   7
   2   0 -14 131.703 20.4594   6
   0   2 -14 141.101 18.4346   6
   2   0  14 102.826 12.8611   6
  -2   0 -14 114.134 11.7341   4
   0  -2  14 98.7157 16.7503   8
   0  -2  14 115.146 10.0952  10
  -2   0 -14 116.388 17.6275   6
  -2   0 -14 130.151 23.4633   7
   0  -2 -14 93.7719 13.6325   4
   2   0  14 69.0550 16.1979   8
   0  -2 -14 99.6363 16.6320   8
   0   2 -14 69.9507 41.8837   9
   0   2  14 135.072 15.9040   5
  -2   0  14 148.863 17.8791   5
  -2   0  14 93.2096 11.2038   7
   0   2  14 75.3328 13.2840   8
   0   2  14 105.689 10.8687  10
  -2   0  14 91.3651 10.4532  10
   0  -2  14 116.555 12.1225   5
   0  -2  14 116.238 19.1558   4
  -2   0  14 82.6180 14.6535   4
   1  -2  14 223.247 28.2162   4
   2   1  14 186.646 15.8223   6
   2  -1 -14 187.585 18.3567   5
  -2  -1  14 196.464 19.2184   4
  -2   1 -14 193.577 19.3359   6
  -2   1 -14 203.691 27.4719   7
  -1  -2 -14 166.353 21.2146   8
   1   2 -14 112.287 52.7241   9
  -1  -2 -14 186.449 13.6163  10
  -1   2  14 180.457 18.9257   6
  -1   2  14 136.687 16.8709   8
  -1   2  14 185.398 18.2811   4
   2   1  14 185.932 20.0459   7
  -1  -2 -14 213.261 17.0905   5
   2  -1 -14 215.010 27.5759   6
   1   2 -14 156.386 14.7805   5
   1   2 -14 199.257 18.6683   6
   1   2 -14 198.416 27.2105   7
   2  -1 -14 148.494 19.1401   8
   1  -2  14 160.670 21.5981   8
  -1  -2 -14 181.412 22.6167   7
  -1   2  14 171.156 16.8289   5
  -1   2  14 169.667 16.8655   7
   1   2 -14 174.829 12.8735  10
  -2   1 -14 193.158 24.0049   8
   2  -1 -14 159.041 14.9396  10
   2  -1 -14 153.450 26.5922   7
  -1  -2 -14 173.040 15.9443   4
  -1   2  14 176.107 14.4974  10
  -2   1 -14 198.860 14.7234   5
   2   1  14 172.474 16.8194   5
   1  -2  14 192.619 14.2158  10
  -2   1 -14 179.919 14.0602   4
   1  -2  14 181.120 15.8084   5
   1  -2  14 205.433 21.0792   7
   2  -1 -14 193.744 18.2558   4
   2   1  14 228.577 16.6792  10
   2   1  14 218.539 35.6533   4
  -2  -1  14 202.325 14.0140  10
  -2  -1  14 199.635 16.8394   5
  -2  -1  14 132.926 16.8848   8
  -2   1 -14 161.385 12.1985  10
   2  -1  14 173.186 23.9548   8
  -2  -1 -14 187.487 25.6439   7
  -1  -2  14 189.469 20.7115   4
   1   2  14 226.551 17.5381   6
   1  -2 -14 214.569 28.1038   7
  -2  -1 -14 220.990 25.5795   8
  -2  -1 -14 171.722 12.5779  10
  -2   1  14 201.983 19.0184   6
  -1   2 -14 181.872 14.1184   5
   1  -2 -14 201.631 20.7095   6
   1   2  14 188.654 16.6253   5
  -1  -2  14 164.103 19.0197   8
   1  -2 -14 180.673 17.9323   5
   2   1 -14 168.128 14.3844  10
   2  -1  14 193.875 18.1871   5
  -1   2 -14 156.678 11.7121  10
   2   1 -14 177.317 23.2037   7
   2  -1  14 159.200 22.3004   6
  -1  -2  14 188.404 13.4894  10
   1  -2 -14 178.494 14.8829  10
  -2   1  14 183.199 17.6954   7
  -2   1  14 120.994 15.5623   8
  -2   1  14 194.212 14.9979  10
   2  -1  14 208.895 17.0985  10
  -2   1  14 178.797 18.7173   4
  -2  -1 -14 171.656 14.8570   4
  -2  -1 -14 196.677 15.3859   5
   1   2  14 182.354 14.3923  10
   2  -1  14 205.174 22.3706   7
   1  -2 -14 186.370 17.9592   4
   1  -2 -14 144.014 19.6362   8
  -1   2 -14 182.544 18.4393   6
  -1   2 -14 188.505 25.0892   7
  -1   2 -14 61.0092 38.2284   9
   2   1 -14 210.060 25.3903   6
   2  -1  14 169.504 26.6024   4
   1   2  14 165.209 17.8714   7
   2   1 -14 87.8507 52.8865   9
  -2   1  14 166.883 17.3204   5
   2   1 -14 183.363 17.0254   5
   2  -2  14 -5.1554 5.13314  10
   2   2  14 6.47226 6.51308   6
  -2  -2  14 14.3084 11.0177   8
   2  -2  14 -4.2371 17.2551   8
  -2  -2 -14 0.21907 4.73979   4
   2   2 -14 1.22209 7.55300   6
  -2  -2 -14 -13.594 15.0778   8
   2  -2  14 3.81702 12.9112   7
   2  -2 -14 -1.3767 4.70204   4
  -2  -2 -14 2.37790 3.67348  10
   2  -2  14 -2.4975 9.54235   4
   2  -2 -14 -2.2131 6.16880   5
  -2   2 -14 -0.9401 4.55951   5
   2   2 -14 -16.524 63.2442   9
   2   2  14 14.3841 6.18837   5
  -2   2  14 -7.1028 6.31318   6
  -2  -2 -14 0.38975 5.41279   5
  -2  -2 -14 8.50103 14.7278   7
  -2   2  14 -2.4560 4.48392  10
  -2   2 -14 13.5218 17.4493   7
   2  -2  14 1.28396 6.54035   5
  -2   2  14 -0.4538 5.24397   4
   2   2  14 -4.7060 10.5030   7
  -2   2 -14 -7.1068 7.88948   6
   2  -2 -14 6.09764 4.58301  10
   2   2  14 -0.4063 4.55619  10
   2  -2 -14 -31.421 22.0223   7
  -2   2  14 3.12146 5.02659   5
  -2   2  14 -1.4714 7.94467   7
   2  -2 -14 -13.216 14.2372   8
  -2   2  14 1.56697 9.36912   8
   2  -2 -14 9.17322 8.97537   6
  -2   2 -14 4.80626 4.18361  10
   3   0  14 149.317 25.6380   8
  -3   0  14 143.605 19.1363   5
   3   0 -14 129.763 14.1938  10
   0   3 -14 23.2723 68.3932   9
   3   0  14 109.100 14.2959   6
   3   0  14 139.779 17.3973  10
   0   3  14 132.151 15.5113   7
   0   3 -14 179.327 17.1576   6
  -3   0 -14 142.527 14.1540   5
   0  -3 -14 163.255 23.3644   7
   0  -3  14 142.889 21.2361   8
   0  -3 -14 118.562 12.1076  10
   3   0 -14 173.005 25.7689   6
  -3   0  14 115.851 13.7936   7
   3   0 -14 130.195 18.6329   5
  -3   0 -14 134.421 11.4122  10
  -3   0  14 136.237 19.0942   4
   3   0 -14 82.7247 25.7909   7
   3   0  14 115.402 22.8749   4
   0   3  14 158.097 15.3606   5
  -3   0 -14 146.003 19.6356   6
   0  -3 -14 148.103 20.6963   8
   0   3  14 156.841 13.8368  10
  -3   0 -14 156.342 13.8078   4
   3   0  14 123.131 17.1257   5
  -3   0  14 89.8016 14.6403   8
  -3   0  14 163.515 13.9877  10
   0  -3 -14 139.480 15.5239   4
   3   0  14 164.087 23.1750   7
   0  -3 -14 120.627 15.9192   5
   0  -3  14 167.653 23.1700   4
   0   3  14 178.421 25.8988   9
  -3   0 -14 143.009 25.8516   8
  -3   0 -14 164.441 28.7891   7
  -3   1 -14 82.2487 11.3145   5
  -3   1 -14 83.8195 10.0162  10
  -3  -1  14 108.807 17.6126   4
  -1   3  14 68.8196 11.6930   7
   1   3 -14 98.8385 15.8456   6
  -1  -3 -14 71.2848 19.0362   8
  -3   1 -14 108.105 24.8019   8
   3  -1 -14 104.842 20.4254   6
  -1   3  14 82.4820 13.1170   5
   1  -3  14 124.862 23.0254   4
   1  -3  14 98.0505 21.6721   8
  -1  -3 -14 101.667 10.2212  10
   3   1  14 88.4470 12.7326   6
  -1   3  14 86.7251 16.1369   6
   3  -1 -14 94.3846 16.2551   5
   3  -1 -14 62.6060 12.1596  10
  -3   1 -14 93.4832 17.0102   6
   3  -1 -14 51.5588 17.6600   8
   3   1  14 105.114 15.5854   5
  -1  -3 -14 91.3380 13.2964   5
   1   3 -14 67.5357 69.7392   9
  -1   3  14 104.601 13.2701  10
   3   1  14 89.5473 13.3711  10
  -3   1 -14 86.6162 26.3629   7
  -3  -1  14 97.4584 10.5493  10
  -3  -1  14 57.8328 13.3933   8
  -3  -1  14 90.5075 14.3502   5
   3   1  14 85.7131 18.5284   7
  -1  -3 -14 90.5321 14.0088   4
  -1  -3 -14 94.4165 18.9286   7
  -3   1 -14 82.6936 11.4638   4
   1   3  14 100.039 14.2872   6
   3   1 -14 94.1574 14.9445   5
   1  -3 -14 83.8557 14.3920   4
  -3  -1 -14 96.5266 12.5832   5
  -3  -1 -14 88.2389 9.45270  10
   3   1 -14 77.8825 12.3687  10
  -1  -3  14 132.527 19.0236   4
   1  -3 -14 56.2960 9.52471  10
   1   3  14 126.012 15.7567   5
  -3   1  14 70.7814 12.8593   7
  -3   1  14 68.4292 14.2447   4
  -3   1  14 68.7415 13.4648   5
   1   3  14 131.195 25.9330   9
   3  -1  14 69.1026 21.4458   8
   3  -1  14 86.0972 14.3169  10
   1  -3 -14 82.5127 23.1829   7
   3  -1  14 71.2487 14.4290   5
   1   3  14 93.0730 14.9092   7
   1  -3 -14 85.0705 14.4103   5
   1   3  14 92.2142 11.9413  10
   3   1 -14 72.3959 22.0181   7
   3   1 -14 -6.5994 84.1332   9
  -3  -1 -14 112.666 25.7669   7
  -3  -1 -14 83.3232 22.0508   8
  -3   1  14 52.6984 12.5183   8
   3   1 -14 129.519 22.4826   6
  -3  -1 -14 91.5910 11.6726   4
   3  -1  14 88.4300 12.5621   6
  -1   3 -14 83.7132 73.8159   9
  -1   3 -14 105.593 16.4158   6
  -1  -3  14 91.7120 17.1446   8
   3  -1  14 44.6781 16.0420   4
   1  -3 -14 80.0018 18.1893   8
   3  -1  14 86.7053 21.0314   7
  -3  -2  14 111.627 18.1884   8
   3   2  14 104.524 13.2623  10
   2   3 -14 153.967 20.3417   6
   3   2  14 127.773 31.4095   9
   3  -2 -14 95.4040 18.2846   4
   3   2  14 109.332 14.7303   5
   2  -3  14 94.6660 28.4292   7
  -2   3  14 94.7915 14.9172   5
  -2   3  14 97.2827 14.2441  10
   3  -2 -14 97.6075 17.9201   5
  -3  -2  14 128.726 18.3861   4
   2  -3  14 85.8042 15.3135   5
   3  -2 -14 108.368 21.3128   6
   3  -2 -14 81.5985 14.7191  10
   3   2  14 113.832 14.6964   6
   3   2  14 113.124 20.8438   7
  -2  -3 -14 129.603 14.5264   4
   2  -3  14 130.499 25.8872   4
  -3   2 -14 99.7720 11.0068  10
  -3   2 -14 130.221 13.1326   5
  -2   3  14 133.739 20.8050   6
  -3   2 -14 98.9398 17.5090   6
   2   3  14 92.9367 26.5047   7
  -2   3 -14 38.8716 76.9880   9
  -3  -2 -14 103.839 13.0120   5
  -2   3 -14 95.1020 16.3941   6
   3   2 -14 128.108 20.7147   6
   3  -2  14 96.3879 22.3434   4
  -3   2  14 105.907 17.6313   5
   2  -3 -14 111.197 18.0485   4
   2  -3 -14 99.9160 14.7400  10
  -3   2  14 140.340 21.4278   4
   3  -2  14 103.353 16.6589   5
  -3   2  14 84.1489 13.6944  10
  -3   2  14 116.950 19.7528   6
  -3  -2 -14 113.363 25.0125   7
   2   3  14 138.156 17.1487   5
  -2  -3  14 131.871 17.2582   4
   2   3  14 144.383 17.6653   6
  -2   3 -14 103.702 12.1041   5
   3   2 -14 58.1039 126.840   9
   3  -2  14 75.7103 13.3826  10
  -2   3 -14 104.774 10.1450  10
   2   3  14 114.634 12.1949  10
  -3  -2 -14 107.326 12.2358  10
   2  -3 -14 98.2356 16.5421   5
  -3  -2 -14 95.6119 13.1528   4
  -2   3 -14 84.5364 21.5994   7
  -3   3  14 97.1337 18.9661   5
  -3   3  14 74.3776 17.5724  10
  -3   3 -14 63.2495 17.3154   6
  -3   3 -14 59.8863 10.0949  10
   3  -3  14 52.1399 22.1152   4
  -3   3 -14 67.0195 11.0555   5
   3  -3  14 44.1311 13.6418  10
   3  -3 -14 87.6433 16.9060   5
   3   3  14 82.2363 14.0304   6
   3  -3 -14 74.1575 17.1968   4
  -3  -3  14 92.4049 13.7278   4
   3  -3 -14 54.5789 16.8020  10
   3   3 -14 108.966 18.8979   6
  -3  -3 -14 76.8650 12.6260   4
  -3   3  14 65.1138 15.4306   6
  -4   0  14 183.426 20.5987   4
   0   4  14 227.444 21.0688   6
   4   0  14 182.608 21.9961   5
  -4   0 -14 167.596 16.2239   5
   0   4 -14 194.565 17.8591   6
   4   0 -14 215.818 28.4483   6
  -4   0  14 182.032 17.1396  10
   0  -4 -14 188.915 19.0446   4
  -4   0 -14 199.075 16.0068   4
   4   0  14 141.947 22.0926  10
   0  -4  14 243.934 22.7712   4
  -4   0 -14 186.808 15.7444  10
   0   4  14 215.708 19.4507  10
   4   0 -14 151.952 21.6750  10
   4   0 -14 197.092 20.2046   5
  -4   0  14 201.864 20.8731   5
   4   0  14 169.389 16.8773   6
  -1   4  14 111.513 19.0982   6
   4   1  14 105.410 16.2381   5
  -1   4  14 92.6529 14.2614   5
   4  -1 -14 106.123 19.6280   5
  -4   1 -14 84.1989 11.6981  10
   4  -1 -14 133.357 23.5685   6
  -4   1 -14 124.685 14.7488   5
   4   1  14 107.628 18.6720  10
   4   1  14 85.8856 14.1489   6
  -1   4  14 127.560 17.4417  10
   4  -1 -14 90.3337 19.2785  10
  -1  -4 -14 110.026 15.6188   4
   1  -4  14 105.645 20.4595   4
  -4   1 -14 109.457 14.2298   4
  -4  -1  14 117.197 18.9549   4
  -4   1  14 134.391 21.5588   4
   4  -1  14 96.4794 20.8581  10
  -4   1  14 106.258 17.2592   5
   4   1 -14 118.346 21.8797   6
   1  -4 -14 113.403 18.5035   4
  -4  -1 -14 85.8722 11.7228   4
   4  -1  14 97.2656 16.8906   5
  -4   1  14 102.167 17.7566  10
   4  -1  14 54.3420 17.1320   4
  -4  -1 -14 87.9052 10.9474  10
  -1   4 -14 119.725 17.4765   6
  -4   2  14 21.8135 14.7744  10
   0   0  15 91.4901 13.4231   6
   0   0 -15 84.9623 11.1693  10
   0   0 -15 115.251 18.5372   8
   0   0  15 93.7917 14.6518   7
   0   0 -15 78.4679 12.2531   4
   0   0  15 100.309 14.3016   5
   0   0 -15 91.1454 21.6553   7
   0   0  15 119.528 19.5915   4
   0   0 -15 94.3639 13.7864   5
   0   0 -15 119.960 19.2330   6
   0   0  15 66.1624 14.6648   8
   0   0  15 93.7936 10.6060  10
  -1   0 -15 -3.7518 3.94865   4
   0   1  15 4.66729 4.30275  10
   1   0 -15 -5.8580 4.42665   5
   1   0 -15 5.10134 8.05383   6
   1   0 -15 -2.7090 16.9190   7
   1   0 -15 -9.0190 9.52504   8
   0  -1  15 -8.0181 6.67227   4
   0  -1  15 15.5000 10.2716   7
  -1   0  15 0.03322 8.85833   7
  -1   0  15 10.0608 11.3865   8
   1   0  15 6.80689 5.90465   6
   0   1  15 -3.0829 9.08947   7
   0  -1 -15 -4.5987 5.57487   5
   0  -1 -15 -2.7230 6.62987   6
   0  -1 -15 -1.3445 17.6049   7
   0  -1  15 3.30952 13.9539   8
   0   1  15 -1.1611 6.16707   4
   0   1  15 -2.4080 4.21458   5
   0  -1  15 -0.4735 4.32346   5
   0   1 -15 -5.7288 6.93450   6
  -1   0  15 3.25340 6.63571   4
  -1   0  15 8.73052 5.57440   5
  -1   0 -15 -3.4337 4.85396   5
  -1   0 -15 1.13461 7.76507   6
  -1   0 -15 3.81367 17.4456   7
  -1   0 -15 -7.9399 12.8797   8
  -1   0 -15 -0.8121 4.07786  10
   1   0 -15 3.63151 4.52856  10
   1   0  15 -7.2964 6.80088   4
   1   0  15 -4.1235 4.53413   5
   1   0  15 -0.1220 11.6746   7
   1   0  15 16.7226 13.9285   8
   0  -1 -15 -3.7793 11.8718   8
   0  -1 -15 -6.0086 4.00569  10
   0   1 -15 0.20043 5.11910   5
   0   1  15 17.8543 12.1558   8
  -1   0  15 -1.9813 3.28186  10
   0   1  15 -1.6879 4.69763   6
   0  -1  15 -3.7452 3.22175  10
   0   1 -15 -0.4757 3.90086  10
   0  -1 -15 -3.5448 4.73791   4
   0   1 -15 4.12179 16.1630   7
   1   0  15 -0.6187 3.87090  10
   1  -1 -15 13.3420 7.39473   4
   1  -1 -15 11.3927 9.77211   6
   1   1  15 4.46389 5.20411  10
  -1   1  15 8.73710 10.6742   8
  -1   1  15 14.6340 6.22684  10
   1  -1  15 -0.8805 8.27265   4
   1  -1  15 13.2317 6.53820   5
  -1   1 -15 16.0022 5.59286  10
   1  -1 -15 25.2868 19.3209   7
  -1  -1 -15 14.0545 8.45172   6
  -1  -1 -15 21.0736 18.6067   7
   1   1  15 13.8281 6.43027   5
   1  -1 -15 7.21367 5.56984  10
   1  -1  15 10.6599 12.4818   7
   1  -1  15 -0.1345 14.0182   8
   1  -1 -15 24.0923 8.85761   5
   1   1 -15 23.2220 17.2162   7
   1   1 -15 -15.733 56.7374   9
   1   1 -15 2.00131 4.58747  10
   1   1  15 22.8120 10.4655   4
  -1  -1 -15 11.2864 6.93663   4
  -1  -1 -15 18.0223 7.86442   5
  -1  -1 -15 3.75214 4.58253  10
   1  -1 -15 9.30207 12.4638   8
  -1  -1  15 19.5428 6.37394   5
   1   1 -15 12.5297 6.44762   5
   1   1 -15 12.2518 8.67886   6
   1   1  15 13.4399 6.53551   6
  -1   1  15 10.8292 7.00888   6
  -1   1  15 2.76120 9.49301   7
  -1  -1  15 16.7043 5.29941  10
  -1  -1  15 12.4891 9.44063   4
  -1  -1 -15 15.7013 14.7349   8
  -1   1 -15 22.0781 7.43941   5
  -1   1 -15 27.7616 10.9714   6
  -1   1 -15 19.6253 18.4101   7
  -1   1 -15 8.36737 12.2308   8
   1   1  15 6.41862 11.2837   7
   1   1  15 23.3170 13.9290   8
  -1  -1  15 25.5240 9.36539   7
  -1  -1  15 18.9128 13.0218   8
   1  -1  15 4.45800 4.84699  10
   2   0  15 16.3460 16.7349   8
   2   0  15 11.9762 6.75897  10
   0   2  15 27.5696 8.47863   6
   0  -2  15 14.5460 6.12832   5
   2   0 -15 13.0516 6.47765  10
   2   0  15 10.8250 9.38869   4
   2   0 -15 10.6313 20.7707   7
  -2   0 -15 19.0116 5.79740  10
  -2   0 -15 1.86349 7.59971   6
  -2   0  15 10.6169 6.83515   5
  -2   0  15 5.76578 6.44545   4
  -2   0  15 13.5276 5.47030  10
   0  -2 -15 17.0794 7.60428   4
   0  -2 -15 18.3793 8.47735   5
  -2   0 -15 15.4405 16.1615   8
   0  -2 -15 15.9538 14.3257   8
   0  -2 -15 -2.6303 3.74875  10
   2   0 -15 9.84781 6.70467   5
   0   2 -15 29.9117 9.73325   6
   0   2 -15 25.2243 17.3036   7
   0  -2  15 23.3672 16.6230   8
   0  -2  15 14.5830 4.96578  10
   0   2 -15 11.7538 5.97083   5
  -2   0  15 5.42391 11.3893   8
   0   2  15 17.0426 10.9930   7
  -2   0 -15 29.8259 22.6063   7
  -2   0 -15 13.7214 6.12975   4
  -2   0 -15 14.8416 7.58217   5
   2   0  15 16.2255 15.7825   7
   0  -2  15 7.77968 9.98339   4
   2   0  15 19.0731 8.29810   5
   0   2 -15 77.1233 64.7967   9
   0   2 -15 7.05784 4.51919  10
   0   2  15 21.3301 7.01450   5
   0   2  15 13.2184 11.6919   8
   0   2  15 19.5704 6.83911  10
  -2   0  15 32.1828 10.4869   7
   2   0 -15 21.2550 12.0367   6
   0  -2 -15 28.3355 20.6737   7
   2   0  15 9.34206 6.28599   6
   2  -1 -15 38.1040 9.78232  10
  -2   1 -15 56.0398 13.4451   6
  -2  -1  15 38.4604 7.68116  10
  -1  -2 -15 26.3025 6.46834  10
  -1  -2 -15 39.7850 17.0359   8
  -2  -1  15 34.1062 10.4227   7
   1  -2  15 39.6187 15.6901   4
   1   2 -15 28.1974 7.01297  10
   1  -2  15 42.3319 15.6023   7
   1  -2  15 43.3504 20.2126   8
   1   2 -15 53.3569 12.3528   6
   2   1  15 41.9993 10.4149   5
   2   1  15 40.4585 15.6503   7
  -1   2  15 43.2092 12.3034   4
  -1   2  15 40.9109 10.1149   5
  -1  -2 -15 31.2266 9.00280   4
   2  -1 -15 56.0121 16.1657   6
  -1   2  15 33.6054 10.9073   7
  -1  -2 -15 34.0443 19.6789   7
   2  -1 -15 46.6419 15.7865   8
   1   2 -15 65.8966 66.0746   9
  -1   2  15 40.5131 11.5155   6
   2   1  15 26.8071 7.77640  10
   2   1  15 31.0296 8.65683   6
  -2  -1  15 23.7034 13.9452   8
   2  -1 -15 30.8324 8.96712   4
   2   1  15 30.0069 16.4817   8
  -1  -2 -15 29.3822 8.39104   5
  -2   1 -15 53.5266 19.4304   8
  -2  -1  15 44.3263 11.7328   4
  -2   1 -15 25.4685 7.69985   5
   2  -1 -15 31.3027 10.0975   5
  -2   1 -15 51.7422 23.7046   7
  -2  -1  15 43.9176 9.60022   5
   2  -1 -15 10.7098 22.5724   7
  -1   2  15 26.7398 12.5899   8
  -1   2  15 36.3677 8.24003  10
   1  -2  15 34.7034 7.45584  10
  -2   1 -15 23.9696 6.36792  10
   1  -2  15 49.3881 10.3247   5
  -2   1  15 32.5464 11.2479   4
   1   2  15 49.9396 11.2050   6
  -1  -2  15 50.8470 17.2207   8
  -1  -2  15 29.2384 7.91692  10
   2   1 -15 35.8483 8.38044  10
   1  -2 -15 27.7569 10.3975   5
   2  -1  15 33.9005 13.3445   4
  -2  -1 -15 37.7562 9.64483   4
  -2  -1 -15 32.1236 8.62868   5
   1   2  15 26.6780 8.37696   5
  -2  -1 -15 47.1820 19.6790   8
  -1  -2  15 39.3404 12.9843   4
  -2   1  15 19.2143 11.8044   8
   2  -1  15 44.2149 9.82684  10
   2   1 -15 24.5813 18.4591   7
   2   1 -15 -78.432 67.3023   9
  -1   2 -15 44.3003 21.3596   7
  -1   2 -15 12.2262 61.7438   9
   1   2  15 30.9853 12.6041   7
   1   2  15 28.2939 7.37250  10
  -2   1  15 39.6285 8.27703  10
   2  -1  15 29.1462 18.8640   8
   2  -1  15 23.5010 8.88162   5
   2  -1  15 38.1230 18.1294   7
   1  -2 -15 21.0738 22.5653   7
  -1   2 -15 39.5892 7.42856  10
   2   1 -15 42.2208 9.94816   5
  -2   1  15 46.8683 11.4663   6
  -2   1  15 36.8414 11.5076   7
  -1   2 -15 46.3964 8.88161   5
  -1   2 -15 54.7723 13.4002   6
   1  -2 -15 43.1557 11.5285   4
   2   1 -15 42.4242 13.0258   6
   1  -2 -15 41.4254 15.8132   8
  -2  -1 -15 41.4092 7.49611  10
   1  -2 -15 36.8523 8.58898  10
  -2   1  15 50.9923 12.0747   5
  -2  -1 -15 52.6040 23.5540   7
   2  -2  15 -0.8491 6.13170   5
   2  -2  15 -3.8698 4.82813  10
   2   2 -15 12.4183 9.53751   6
  -2   2 -15 -17.363 96.4532   9
  -2   2  15 5.75890 6.37082   4
  -2   2 -15 -4.2512 4.26664  10
  -2  -2 -15 -4.1940 5.06427   5
  -2  -2 -15 -9.9286 28.7323   7
  -2   2  15 10.9367 8.01965  10
   2  -2 -15 6.15254 6.12060   4
   2  -2 -15 4.92908 8.43751   5
   2   2  15 -1.4926 5.45313  10
   2  -2 -15 -1.9145 9.05601   6
   2  -2 -15 6.04341 7.17070  10
  -2  -2  15 9.78855 6.81588   4
  -2   2 -15 -7.2902 4.82936   5
  -2  -2 -15 5.17451 5.92258   4
   2  -2  15 9.01637 11.2944   4
   2   2 -15 -7.2569 77.3632   9
   2   2  15 4.54883 5.73977   5
   2   2  15 -0.6792 6.11038   6
   2   2  15 2.02566 18.0736   9
  -2   2 -15 20.1454 24.9362   7
  -2   2  15 10.3580 6.28947   5
  -2   2 -15 -6.5784 8.78344   6
  -2   2  15 14.2722 13.4295   8
  -2   2  15 7.13586 7.76028   6
   0  -3  15 -16.665 8.03290   4
   3   0 -15 5.39108 12.0095   6
  -3   0  15 -1.2380 6.88845   4
   3   0 -15 14.7341 9.03404   5
   3   0 -15 -3.7748 8.51983  10
  -3   0 -15 -12.471 5.08497   4
  -3   0 -15 -6.8468 6.21311   5
  -3   0 -15 -2.0255 6.42249  10
   0  -3 -15 -4.9773 5.35634   4
   0  -3 -15 -3.9968 6.41974   5
   3   0  15 -6.3611 6.96141   5
   3   0  15 -11.208 5.60858   6
  -3   0  15 -4.9523 5.80699   5
   0   3  15 -1.6278 5.70932   5
   0  -3 -15 -1.0440 4.94276  10
   0   3  15 4.75867 8.46103   6
   0   3  15 4.04749 24.6218   9
   0   3  15 -7.4260 7.26583  10
   3   0  15 -10.765 8.18159   4
  -3   0  15 -11.708 4.50709  10
   3   0  15 8.52518 11.3317  10
   0   3 -15 -2.6473 7.60215   6
   3  -1 -15 11.4371 11.1401  10
  -3   1 -15 10.6017 8.22460   4
   1  -3  15 19.2909 13.3257   4
  -1  -3 -15 8.02651 6.96186   5
  -3   1 -15 10.9252 6.98323  10
   3   1  15 26.0327 11.9591  10
  -1   3  15 8.61621 8.40335   6
   3  -1 -15 31.8990 10.7622   5
   3  -1 -15 40.5523 14.0436   6
  -3   1 -15 14.4914 10.4561   6
   3   1  15 13.2532 7.64343   5
   1   3 -15 28.2810 9.28304   6
   3   1  15 28.6564 8.72896   6
  -1  -3 -15 3.96734 5.95350   4
  -1   3  15 13.8832 7.46303   5
  -3   1 -15 21.5444 7.36462   5
  -3  -1  15 22.5065 9.16596   4
  -1   3  15 6.93409 9.06329  10
  -3  -1 -15 6.02700 6.40909   5
  -3  -1 -15 23.1519 7.73923  10
  -3   1  15 9.45082 7.63593   4
  -1  -3  15 24.6394 10.5468   4
   3  -1  15 10.2906 8.44830   5
   1   3  15 35.2756 7.50785   5
   1  -3 -15 8.62059 6.57284   4
   1  -3 -15 11.2345 7.83141   5
   1  -3 -15 21.4364 9.43882  10
  -3   1  15 12.1599 7.23658   5
   1   3  15 22.3598 7.83622   6
   3   1 -15 24.7837 9.23123  10
   3  -1  15 25.7257 13.2280   4
  -3  -1 -15 13.0552 6.67251   4
  -1   3 -15 7.70323 8.76333   6
   1   3  15 18.4235 9.32847  10
   3  -1  15 8.23974 11.8783  10
   3   1 -15 16.0620 10.7847   6
  -3   2 -15 8.60173 7.16133   5
   3   2  15 -0.2888 7.17987   5
   3  -2 -15 10.4070 8.64823   4
  -2  -3 -15 0.33577 7.22034   4
   3  -2 -15 10.9663 13.8544  10
  -3   2 -15 10.6616 11.5855   6
   3   2  15 25.6891 11.4534   6
  -3   2 -15 11.0806 8.07855  10
   3  -2 -15 20.9958 13.6035   5
  -3  -2  15 19.4333 7.24309   4
   3   2  15 12.8915 12.2634  10
  -2   3  15 1.11659 7.79294   5
   2  -3  15 14.1265 18.7321   4
  -2   3  15 15.0827 10.4345   6
   2   3 -15 29.2119 12.4427   6
   3  -2  15 22.2471 13.8602  10
   2   3  15 27.9926 11.2700  10
  -3  -2 -15 22.1226 8.71130   4
  -2   3 -15 11.5955 11.0515   6
   2  -3 -15 40.9689 12.1691   5
   2  -3 -15 17.1292 13.0172  10
   2   3  15 27.1782 10.6703   6
   3  -2  15 13.7838 16.2889   4
   3  -2  15 2.45644 8.09614   5
  -2  -3  15 9.93283 6.76135   4
  -3   2  15 12.3624 8.17981   4
  -3  -2 -15 28.9278 8.87038  10
   3   2 -15 7.97668 11.9395   6
  -3   2  15 26.6404 13.1222   5
   2  -3 -15 18.3759 12.0868   4
  -2   3 -15 15.8999 7.72259  10
  -3   2  15 17.0837 12.7804  10
   0   0 -16 37.0268 22.0144   7
   0   0 -16 70.0448 15.3011   6
   0   0  16 49.7057 15.7104   7
   0   0 -16 45.3287 10.0910   5
   0   0  16 67.2588 15.3744   4
   0   0  16 48.5124 8.69724  10
   0   0 -16 41.5148 8.76408  10
   0   0 -16 68.2353 18.4869   8
   0   0  16 52.8477 10.6685   5
   0   0  16 39.5855 16.4128   8
   0   1  16 3.33892 5.18549   5
   0   1 -16 -2.9452 5.01689   5
   1   0  16 -9.8522 15.4104   7
   1   0  16 9.85686 16.2728   8
   0   1  16 1.58609 7.04664   4
   1   0 -16 -3.9524 4.40075  10
   1   0  16 0.74063 7.51411   4
   0   1  16 1.29492 4.83587   6
   0  -1  16 -3.4584 3.31710  10
   1   0 -16 10.5440 20.4491   7
   1   0 -16 11.6225 18.2736   8
   0  -1 -16 2.74980 4.16129  10
  -1   0  16 13.6276 12.4058   7
   0  -1  16 -9.9463 12.8829   7
  -1   0  16 12.0833 5.29963  10
  -1   0 -16 5.74205 10.0150   6
   0  -1 -16 -1.0085 6.49089   5
   0   1 -16 -16.710 6.51481   6
   0   1  16 9.43016 5.75875  10
   1   0 -16 2.91832 6.09523   5
   1   0 -16 9.41983 10.3625   6
  -1   0 -16 0.83336 4.68544   4
  -1   0 -16 0.79435 6.23784   5
   0  -1  16 18.3272 11.7333   4
   1   0  16 8.14673 5.75283  10
  -1   0  16 17.5056 14.2699   8
   0  -1  16 14.8440 18.9580   8
  -1   0 -16 -9.6953 20.0300   7
   1   0  16 -3.5390 5.17373   5
   1   0  16 0.68896 4.84340   6
   0   1  16 4.18967 13.2424   7
   0   1  16 2.81138 13.5050   8
   0   1 -16 -4.7750 19.0677   7
   0   1 -16 7.42819 5.19658  10
   0  -1  16 7.65209 6.11524   5
   0  -1 -16 -7.3065 7.24920   6
  -1   0 -16 -1.8850 16.7092   8
  -1   0 -16 -0.0932 4.77827  10
   0  -1 -16 50.0700 23.8681   7
   0  -1 -16 4.31143 15.8730   8
   0  -1 -16 -2.1525 4.86346   4
   1  -1  16 38.6279 23.2383   7
   1   1  16 24.3811 7.90044  10
  -1  -1  16 37.3781 14.2219   7
   1  -1  16 38.5228 14.0190   4
   1  -1  16 5.75101 5.69683   5
   1  -1 -16 24.0459 7.75652  10
   1   1  16 24.1996 7.90323   6
   1   1  16 9.12212 15.7592   8
   1  -1 -16 24.3103 15.9096   8
  -1   1  16 24.7108 9.15760   4
  -1   1  16 19.4504 9.18611   5
   1  -1 -16 29.3183 8.93048   5
   1  -1 -16 36.5165 13.4494   6
  -1  -1 -16 36.0245 10.1615   4
  -1  -1 -16 23.4940 8.78599   5
  -1  -1 -16 28.5438 14.1075   6
  -1  -1 -16 57.8074 27.5855   8
  -1   1 -16 21.1798 7.03482  10
  -1  -1  16 23.7338 10.8704   4
  -1  -1  16 45.8611 9.51723   5
   1   1 -16 83.7926 70.1702   9
  -1  -1  16 22.7374 6.43186  10
  -1   1 -16 30.8511 8.57778   5
   1   1  16 45.1153 13.3961   4
   1   1  16 38.1234 10.0826   5
  -1   1 -16 33.2711 12.2212   6
  -1   1 -16 10.4430 25.4993   7
   1   1 -16 19.9420 7.59279  10
   1  -1 -16 21.2006 8.13066   4
  -1  -1 -16 16.0921 6.49196  10
  -1   1  16 31.5209 10.3830   6
  -1   1  16 16.8650 15.2732   8
   1   1 -16 14.3545 7.51231   5
   1   1 -16 20.8709 10.5877   6
   1  -1  16 15.9730 6.52722  10
  -1   1  16 18.6720 7.03087  10
   1   1 -16 38.2838 20.8699   7
   0  -2  16 40.7645 14.8549   4
   2   0 -16 26.6935 10.5482  10
   2   0  16 13.2319 11.7977   4
   2   0  16 25.7465 9.43091   5
  -2   0  16 23.9581 8.15258  10
   2   0  16 15.5230 6.80930   6
  -2   0  16 18.4090 8.78069   4
   0   2 -16 25.3582 8.38814   5
   2   0 -16 49.2800 15.4420   6
  -2   0 -16 25.4474 7.65064   4
   0  -2 -16 27.3901 9.57086  10
  -2   0 -16 22.7340 8.31839   5
  -2   0 -16 29.9669 11.5157   6
   0  -2 -16 14.0457 7.41779   4
   0  -2 -16 22.1985 8.74122   5
   0   2 -16 38.4711 125.908   9
   0   2 -16 30.2097 8.29543  10
   2   0  16 17.8846 10.5686  10
   0   2 -16 26.9132 24.5178   7
  -2   0 -16 25.2225 8.22138  10
  -2   0  16 47.0419 11.3397   5
   0   2  16 29.2476 21.1123   8
   0   2  16 7.60048 8.79965  10
   2   0 -16 24.8165 10.0065   5
   0   2 -16 47.3777 13.8496   6
  -2   1 -16 48.7181 10.3503  10
   2   1  16 48.6278 11.5000   5
  -1   2  16 51.0632 12.4734  10
  -2   1 -16 65.8153 14.6134   6
   1  -2  16 64.5322 11.9461   5
   1  -2  16 39.5739 9.15343  10
  -1  -2 -16 45.2192 10.0181   5
   1  -2  16 87.5392 20.8009   4
  -2  -1  16 57.2768 13.9337   4
  -2  -1  16 54.9446 17.1495   5
   2   1  16 54.2590 11.3498   6
   2   1  16 40.2096 12.1458  10
   2  -1 -16 75.2530 15.1466   5
   2  -1 -16 43.5555 14.1479  10
  -2   1 -16 51.0043 10.2532   5
  -1   2  16 44.4822 10.9572   5
   1   2 -16 61.5722 14.9188   6
  -1  -2 -16 48.5789 10.1790   4
  -1   2  16 75.2762 15.1034   6
  -1  -2 -16 51.8223 11.1035  10
   2   1 -16 78.0926 17.3806   6
  -2   1  16 53.6103 12.6796   4
  -2   1  16 50.4220 12.0359   5
  -2  -1 -16 40.8877 10.3436  10
  -1  -2  16 89.4490 18.0716   4
   2   1 -16 77.1710 14.6394   5
  -2   1  16 40.8207 11.5595  10
   1   2  16 71.6332 12.6160   6
   2   1 -16 56.1982 12.4089  10
   2  -1  16 50.7025 11.7658   5
   2  -1  16 47.4093 12.2082  10
   1  -2 -16 47.4668 12.0098   4
  -2  -1 -16 51.5580 9.81985   4
  -2  -1 -16 40.3376 9.82227   5
   1  -2 -16 66.0478 15.1952   5
   1  -2 -16 34.1277 12.4683  10
   2  -1  16 54.0966 16.4155   4
   1   2  16 74.6881 13.4075   5
  -1   2 -16 61.1250 11.2891   5
   1   2  16 42.0835 12.0921  10
  -1   2 -16 51.3880 10.1566  10
  -1   2 -16 74.2721 15.2024   6
   2   2  16 32.2369 13.1173  10
   2   2 -16 11.4027 12.3888   6
   2   2  16 10.6831 8.59590   5
  -2  -2 -16 7.58713 8.60494   4
  -2  -2 -16 31.4648 11.0374  10
  -2   2 -16 6.16735 12.2316   6
  -2  -2  16 23.8350 10.2026   4
   2   2  16 19.6182 10.5048   6
   2  -2  16 3.66270 9.71008  10
  -2   2 -16 13.4044 8.01771   5
   2  -2  16 14.3448 18.0285   4
  -2   2 -16 4.54694 8.53171  10
  -2   2  16 5.72723 7.21594   4
  -2   2  16 30.0849 12.7360   5
  -2   2  16 14.1281 12.5687  10
   2  -2 -16 11.6055 10.4995   4
   2  -2 -16 26.1564 13.5884   5
   2  -2 -16 -1.0375 12.6063  10
   3   0  16 -0.2756 15.8550   4
   3   0 -16 -12.996 8.93754   5
   0  -3 -16 6.18088 10.0285   5
   0  -3 -16 12.7359 11.2304  10
   0   3  16 -0.2363 12.3486  10
  -3   0 -16 -3.9901 5.87224   4
  -3   0 -16 10.6129 8.88179  10
   3   0 -16 -2.9671 13.7034  10
   0   3 -16 6.54718 13.7717   6
   0   3  16 -2.9027 9.24298   5
   3   0  16 -11.180 13.3037  10
   0   0 -17 111.114 16.8989  10
   0   0  17 99.9170 15.5662  10
   0   0 -17 109.936 16.0370   5
   0   0 -17 99.7134 19.0566   6
   0   0  17 132.356 17.0870   5
   0   0  17 126.049 22.0716   4
  -1   0 -17 1.37323 6.80201   5
   1   0  17 -3.2904 5.10085   5
   1   0  17 2.33752  9.9999  10
   1   0 -17 16.5281 12.1317  10
   1   0  17 9.42247 10.5665   4
   0   1  17 2.26365 10.2427  10
   1   0 -17 -0.0875 7.33549   5
   1   0 -17 -16.922 7.65975   6
   0  -1  17 -5.2321 7.12363  10
   0   1 -17 3.26999 6.49325   5
   0   1 -17 -1.5777 8.20858   6
   0   1 -17 4.23017 10.1153  10
   0   1  17 7.14448 9.19763   4
   0   1  17 10.2411 6.92505   5
  -1   0  17 1.16966 8.98082  10
   0  -1 -17 4.66721 6.93833   4
   0  -1 -17 5.25557 8.49240   5
   0  -1 -17 -5.9945 10.3064  10
   0  -1  17 -3.8467 10.2119   4
  -1   0 -17 -9.9413 9.73782   6
  -1   0 -17 12.7345 10.4759  10
   1   1 -17 16.7662 8.72941   5
   1   1 -17 8.48889 12.6179   6
   1   1 -17 10.6548 11.7439  10
   1   1  17 13.1406 8.55151   5
   1   1  17 23.4834 7.99142   6
   1   1  17 18.2193 12.0916  10
   1  -1  17 25.2749 8.59819   5
   1  -1  17 12.0612 10.3444  10
  -1   1  17 10.6675 11.1340  10
   1  -1 -17 17.1149 8.21437   4
   1  -1 -17 18.0181 10.7544   5
   1  -1 -17 9.20173 12.8619  10
   1  -1  17 28.4679 14.6600   4
  -1  -1  17 18.0460 9.02533  10
  -1   1 -17 18.4852 9.99636   5
  -1   1 -17 63.5243 15.7925   6
  -1   1 -17 17.3594 10.8726  10
  -1   1  17 26.4131 11.9141   4
  -1   1  17 16.6755 10.4700   5
  -1  -1 -17 11.3482 8.09695   4
  -1  -1 -17 19.4554 9.53699   5
  -1  -1 -17 21.6686 11.9052  10
   0   0   0    0.00    0.00   0

 _exptl_absorpt_process_details
)
 SADABS 2016/2: Krause, L., Herbst-Irmer, R., Sheldrick G.M. & Stalke D.,
 J. Appl. Cryst. 48 (2015) 3-10
)
 _exptl_absorpt_correction_type   multi-scan
 _exptl_absorpt_correction_T_max  0.6507
 _exptl_absorpt_correction_T_min  0.5694
 _exptl_special_details
)
 The following wavelength and cell were deduced by SADABS from the
 direction cosines etc. They are given here for emergency use only:
 CELL 0.71073    4.164    4.164   10.066   90.052   90.052   89.986
)

;
_shelx_hkl_checksum              37595
_shelx_space_group_comment
;
The symmetry employed for this shelxl 
refinement is uniquely defined by the 
following loop, which should always be 
used as a source of symmetry 
information in preference to the above 
space-group names. They are only intended 
as comments. 
;
_shelxl_version_number           2014/6
_xd_hkl_file
;
merg F\^2 NDAT 7
   1   1   0 1 7683.10 68.7509  1.0000
   0   2   0 1 5523.39 38.1284  1.0000
   2   2   0 1 294.921 2.78406  1.0000
   1   3   0 1 2649.00 14.7890  1.0000
   3   3   0 1 1739.44 17.2404  1.0000
   0   4   0 1 3444.11 29.6201  1.0000
   2   4   0 1 916.077 7.79082  1.0000
   4   4   0 1 1193.88 19.3419  1.0000
   1   5   0 1 397.108 4.61160  1.0000
   3   5   0 1 356.056 6.43297  1.0000
   5   5   0 1 68.4223 7.16912  1.0000
   0   6   0 1 411.833 8.73537  1.0000
   2   6   0 1 43.3712 3.10234  1.0000
   4   6   0 1 197.986 9.71429  1.0000
   1   7   0 1 300.764 9.22948  1.0000
   0   0   1 1 6537.01 162.386  1.0000
   0   1   1 1 2672.78 13.0109  1.0000
   1   1   1 1 862.805 4.79808  1.0000
   0   2   1 1 1135.87 5.76310  1.0000
   1   2   1 1 268.357 1.36225  1.0000
   2   2   1 1 15.3193 0.45286  1.0000
   0   3   1 1 370.543 2.61975  1.0000
   1   3   1 1 706.253 3.31319  1.0000
   2   3   1 1 29.1806 0.70873  1.0000
   3   3   1 1 474.396 4.41868  1.0000
   0   4   1 1 1076.01 7.70607  1.0000
   1   4   1 1 71.8996 1.20794  1.0000
   2   4   1 1 234.980 2.19527  1.0000
   3   4   1 1 107.165 1.72713  1.0000
   4   4   1 1 380.774 5.78007  1.0000
   0   5   1 1 24.1864 1.36440  1.0000
   1   5   1 1 100.511 1.71557  1.0000
   2   5   1 1 65.4945 1.85714  1.0000
   3   5   1 1 103.623 2.75127  1.0000
   4   5   1 1 9.26654 1.49213  1.0000
   5   5   1 1 23.7690 3.58127  1.0000
   0   6   1 1 130.816 3.61752  1.0000
   1   6   1 1 11.4367 1.46072  1.0000
   2   6   1 1 8.81472 1.32864  1.0000
   3   6   1 1 4.07992 1.29264  1.0000
   4   6   1 1 64.1266 4.15382  1.0000
   0   7   1 1 87.6436 5.64234  1.0000
   1   7   1 1 116.109 4.56115  1.0000
   2   7   1 1 13.5688 2.76503  1.0000
   0   0   2 1 438.854 4.92401  1.0000
   0   1   2 1 722.795 3.78293  1.0000
   1   1   2 1 13.0919 0.34907  1.0000
   0   2   2 1 5.95351 0.29784  1.0000
   1   2   2 1 3680.54 12.4013  1.0000
   2   2   2 1 110.984 1.09844  1.0000
   0   3   2 1 33.1495 0.72012  1.0000
   1   3   2 1 4.59559 0.30767  1.0000
   2   3   2 1 930.758 4.43716  1.0000
   3   3   2 1 -0.0099 0.46336  1.0000
   0   4   2 1 4.84666 0.61613  1.0000
   1   4   2 1 95.5652 1.34254  1.0000
   2   4   2 1 3.45080 0.52792  1.0000
   3   4   2 1 4.97868 0.57845  1.0000
   4   4   2 1 1.92701 1.09125  1.0000
   0   5   2 1 83.3182 2.29363  1.0000
   1   5   2 1 4.74646 0.61200  1.0000
   2   5   2 1 483.888 4.56694  1.0000
   3   5   2 1 -0.4709 0.94133  1.0000
   4   5   2 1 26.9492 1.95385  1.0000
   5   5   2 1 9.04322 3.29967  1.0000
   0   6   2 1 1.34121 1.18323  1.0000
   1   6   2 1 200.852 3.76361  1.0000
   2   6   2 1 8.23649 1.31689  1.0000
   3   6   2 1 81.5144 3.22673  1.0000
   4   6   2 1 6.21900 3.78996  1.0000
   0   7   2 1 23.5046 3.30577  1.0000
   1   7   2 1 8.66563 1.91852  1.0000
   0   0   3 1 3273.48 33.4664  1.0000
   0   1   3 1 1193.65 5.41626  1.0000
   1   1   3 1 81.2082 0.72868  1.0000
   0   2   3 1 -0.1215 0.20067  1.0000
   1   2   3 1 2686.25 8.57099  1.0000
   2   2   3 1 799.697 4.48489  1.0000
   0   3   3 1 614.577 3.90093  1.0000
   1   3   3 1 15.6408 0.44516  1.0000
   2   3   3 1 968.932 4.56590  1.0000
   3   3   3 1 71.2915 1.67768  1.0000
   0   4   3 1 393.994 3.54380  1.0000
   1   4   3 1 359.890 2.55006  1.0000
   2   4   3 1 -0.0551 0.43147  1.0000
   3   4   3 1 174.916 2.01023  1.0000
   4   4   3 1 188.381 3.84220  1.0000
   0   5   3 1 238.326 3.46066  1.0000
   1   5   3 1 5.80457 0.66901  1.0000
   2   5   3 1 416.577 4.18292  1.0000
   3   5   3 1 2.58829 0.98558  1.0000
   4   5   3 1 123.750 3.35167  1.0000
   5   5   3 1 8.73386 3.56261  1.0000
   0   6   3 1 15.4900 1.84989  1.0000
   1   6   3 1 257.710 4.21235  1.0000
   2   6   3 1 50.0445 2.22281  1.0000
   3   6   3 1 164.509 4.56173  1.0000
   0   7   3 1 49.2460 4.72032  1.0000
   1   7   3 1 32.7973 2.95174  1.0000
   0   0   4 1 9088.92 142.516  1.0000
   0   1   4 1 2917.70 12.5019  1.0000
   1   1   4 1 549.291 2.76329  1.0000
   0   2   4 1 455.913 2.52795  1.0000
   1   2   4 1 609.209 2.34367  1.0000
   2   2   4 1 106.483 1.15449  1.0000
   0   3   4 1 1277.01 7.07052  1.0000
   1   3   4 1 284.573 1.60478  1.0000
   2   3   4 1 426.078 2.44987  1.0000
   3   3   4 1 242.915 2.78843  1.0000
   0   4   4 1 812.891 6.00681  1.0000
   1   4   4 1 536.914 3.29855  1.0000
   2   4   4 1 78.5289 1.43590  1.0000
   3   4   4 1 413.392 3.35071  1.0000
   4   4   4 1 276.766 4.69537  1.0000
   0   5   4 1 300.815 4.10784  1.0000
   1   5   4 1 8.23909 0.75877  1.0000
   2   5   4 1 107.522 2.27390  1.0000
   3   5   4 1 19.3693 1.43576  1.0000
   4   5   4 1 148.970 3.51944  1.0000
   5   5   4 1 -0.8373 4.47337  1.0000
   0   6   4 1 37.6273 2.28116  1.0000
   1   6   4 1 114.375 3.13454  1.0000
   2   6   4 1 29.7086 1.80109  1.0000
   3   6   4 1 116.365 4.30573  1.0000
   0   7   4 1 197.145 7.64383  1.0000
   1   7   4 1 34.5196 4.43067  1.0000
   0   0   5 1 569.264 5.51722  1.0000
   0   1   5 1 2716.88 11.4186  1.0000
   1   1   5 1 258.060 1.64416  1.0000
   0   2   5 1 258.738 1.71726  1.0000
   1   2   5 1 33.6288 0.45287  1.0000
   2   2   5 1 46.0228 0.88832  1.0000
   0   3   5 1 1164.49 6.73853  1.0000
   1   3   5 1 145.542 1.08779  1.0000
   2   3   5 1 72.9509 0.96359  1.0000
   3   3   5 1 60.8963 1.56162  1.0000
   0   4   5 1 156.824 2.12175  1.0000
   1   4   5 1 365.994 2.51204  1.0000
   2   4   5 1 43.7728 1.12340  1.0000
   3   4   5 1 316.025 2.98556  1.0000
   4   4   5 1 46.2468 2.38148  1.0000
   0   5   5 1 149.213 2.96143  1.0000
   1   5   5 1 19.0159 0.99858  1.0000
   2   5   5 1 3.65509 0.92212  1.0000
   3   5   5 1 10.5336 1.30491  1.0000
   4   5   5 1 50.9449 2.46450  1.0000
   0   6   5 1 9.74744 1.59610  1.0000
   1   6   5 1 2.11620 1.05236  1.0000
   2   6   5 1 1.64189 1.11224  1.0000
   3   6   5 1 11.2325 1.86394  1.0000
   0   7   5 1 136.363 9.29607  1.0000
   0   0   6 1 1.39354 0.49831  1.0000
   0   1   6 1 60.8490 0.73253  1.0000
   1   1   6 1 527.372 2.89660  1.0000
   0   2   6 1 319.483 2.11555  1.0000
   1   2   6 1 652.951 2.60918  1.0000
   2   2   6 1 840.319 4.79339  1.0000
   0   3   6 1 -1.4523 0.38480  1.0000
   1   3   6 1 154.176 1.13987  1.0000
   2   3   6 1 252.794 1.74997  1.0000
   3   3   6 1 41.2217 1.35053  1.0000
   0   4   6 1 2.49543 0.61299  1.0000
   1   4   6 1 15.6893 0.63378  1.0000
   2   4   6 1 108.493 1.59634  1.0000
   3   4   6 1 0.48373 0.59423  1.0000
   4   4   6 1 1.25374 1.22776  1.0000
   0   5   6 1 27.9535 1.57761  1.0000
   1   5   6 1 134.547 2.25783  1.0000
   2   5   6 1 207.351 2.98987  1.0000
   3   5   6 1 58.8283 2.18605  1.0000
   4   5   6 1 15.3207 1.84415  1.0000
   0   6   6 1 33.4955 2.28304  1.0000
   1   6   6 1 102.475 2.75138  1.0000
   2   6   6 1 134.870 3.70011  1.0000
   3   6   6 1 45.4626 3.87466  1.0000
   0   0   7 1 197.355 2.77639  1.0000
   0   1   7 1 400.405 2.35466  1.0000
   1   1   7 1 1798.89 8.47614  1.0000
   0   2   7 1 1226.70 6.46041  1.0000
   1   2   7 1 342.763 1.63546  1.0000
   2   2   7 1 2466.75 12.4076  1.0000
   0   3   7 1 254.511 2.26872  1.0000
   1   3   7 1 660.150 3.00953  1.0000
   2   3   7 1 194.444 1.55733  1.0000
   3   3   7 1 254.412 3.14367  1.0000
   0   4   7 1 56.0575 1.56166  1.0000
   1   4   7 1 118.073 1.43944  1.0000
   2   4   7 1 408.839 3.26695  1.0000
   3   4   7 1 83.8198 1.72505  1.0000
   4   4   7 1 19.8120 1.97180  1.0000
   0   5   7 1 77.5933 2.46648  1.0000
   1   5   7 1 430.827 4.13239  1.0000
   2   5   7 1 68.5003 2.07063  1.0000
   3   5   7 1 217.828 3.74007  1.0000
   4   5   7 1 34.2716 2.56709  1.0000
   0   6   7 1 149.077 3.81252  1.0000
   1   6   7 1 62.0802 2.38933  1.0000
   2   6   7 1 416.159 7.40362  1.0000
   3   6   7 1 31.1270 6.87619  1.0000
   0   0   8 1 7.79514 0.83893  1.0000
   0   1   8 1 285.566 2.02879  1.0000
   1   1   8 1 234.467 1.74598  1.0000
   0   2   8 1 189.877 1.61781  1.0000
   1   2   8 1 3.22977 0.29623  1.0000
   2   2   8 1 544.211 3.67925  1.0000
   0   3   8 1 201.818 2.09789  1.0000
   1   3   8 1 112.134 1.05744  1.0000
   2   3   8 1 0.34644 0.37915  1.0000
   3   3   8 1 51.4777 1.70137  1.0000
   0   4   8 1 0.10784 0.68370  1.0000
   1   4   8 1 55.4761 1.15470  1.0000
   2   4   8 1 75.9643 1.50463  1.0000
   3   4   8 1 73.5762 1.73136  1.0000
   4   4   8 1 4.13374 1.47358  1.0000
   0   5   8 1 19.4663 1.56020  1.0000
   1   5   8 1 92.3766 2.11224  1.0000
   2   5   8 1 13.9176 1.33082  1.0000
   3   5   8 1 44.8508 2.17971  1.0000
   4   5   8 1 11.3859 2.46700  1.0000
   0   6   8 1 41.0386 2.76859  1.0000
   1   6   8 1 2.69262 1.45259  1.0000
   2   6   8 1 131.465 4.22987  1.0000
   0   0   9 1 -5.1957 0.79174  1.0000
   0   1   9 1 842.530 4.42215  1.0000
   1   1   9 1 47.7461 0.86082  1.0000
   0   2   9 1 34.6891 0.81984  1.0000
   1   2   9 1 49.5941 0.69425  1.0000
   2   2   9 1 67.7032 1.30471  1.0000
   0   3   9 1 514.591 3.91525  1.0000
   1   3   9 1 19.8937 0.59480  1.0000
   2   3   9 1 42.5920 0.95221  1.0000
   3   3   9 1 3.37694 0.92174  1.0000
   0   4   9 1 4.56008 0.92216  1.0000
   1   4   9 1 198.013 2.04430  1.0000
   2   4   9 1 14.6209 0.90410  1.0000
   3   4   9 1 172.120 2.63076  1.0000
   4   4   9 1 2.77245 1.53073  1.0000
   0   5   9 1 88.7200 2.82224  1.0000
   1   5   9 1 23.5804 1.37612  1.0000
   2   5   9 1 3.13737 1.11630  1.0000
   3   5   9 1 7.69628 1.80520  1.0000
   0   6   9 1 8.44881 2.25715  1.0000
   1   6   9 1 1.49124 1.70349  1.0000
   0   0  10 1 42.5659 1.66398  1.0000
   0   1  10 1 309.029 2.17597  1.0000
   1   1  10 1 120.838 1.37606  1.0000
   0   2  10 1 71.2558 1.16617  1.0000
   1   2  10 1 82.3794 0.92377  1.0000
   2   2  10 1 389.649 3.36021  1.0000
   0   3  10 1 209.503 2.37012  1.0000
   1   3  10 1 40.8640 0.86955  1.0000
   2   3  10 1 52.4743 1.13316  1.0000
   3   3  10 1 11.4117 1.27377  1.0000
   0   4  10 1 4.08287 1.03212  1.0000
   1   4  10 1 125.099 1.89260  1.0000
   2   4  10 1 52.1214 1.47189  1.0000
   3   4  10 1 91.9800 2.23759  1.0000
   4   4  10 1 2.01850 1.77525  1.0000
   0   5  10 1 74.8222 2.84040  1.0000
   1   5  10 1 88.3040 2.27457  1.0000
   2   5  10 1 15.4940 1.65744  1.0000
   3   5  10 1 40.9207 2.80854  1.0000
   0   6  10 1 20.4587 5.54315  1.0000
   0   0  11 1 96.7972 2.77421  1.0000
   0   1  11 1 51.1157 1.01768  1.0000
   1   1  11 1 392.818 2.76933  1.0000
   0   2  11 1 285.000 2.39165  1.0000
   1   2  11 1 122.629 1.18254  1.0000
   2   2  11 1 632.652 5.23115  1.0000
   0   3  11 1 16.8495 1.11039  1.0000
   1   3  11 1 162.681 1.67162  1.0000
   2   3  11 1 69.4171 1.38665  1.0000
   3   3  11 1 63.3623 2.40917  1.0000
   0   4  11 1 7.55682 1.29818  1.0000
   1   4  11 1 33.6639 1.30564  1.0000
   2   4  11 1 100.989 2.04535  1.0000
   3   4  11 1 12.3029 1.42187  1.0000
   4   4  11 1 -0.7344 2.50946  1.0000
   0   5  11 1 36.3060 2.36898  1.0000
   1   5  11 1 110.705 2.99962  1.0000
   2   5  11 1 71.2146 3.18179  1.0000
   0   0  12 1 17.5293 2.14192  1.0000
   0   1  12 1 12.1355 0.69377  1.0000
   1   1  12 1 63.3208 1.30140  1.0000
   0   2  12 1 58.6789 1.37375  1.0000
   1   2  12 1 183.899 1.60035  1.0000
   2   2  12 1 85.4674 2.06949  1.0000
   0   3  12 1 -8.5764 0.93295  1.0000
   1   3  12 1 33.1680 1.02814  1.0000
   2   3  12 1 70.2549 1.51489  1.0000
   3   3  12 1 15.4578 1.75301  1.0000
   0   4  12 1 3.93021 1.30649  1.0000
   1   4  12 1 0.41474 0.88435  1.0000
   2   4  12 1 13.1657 1.20521  1.0000
   3   4  12 1 -2.1360 1.39167  1.0000
   0   5  12 1 4.06852 2.12235  1.0000
   1   5  12 1 9.22290 1.66837  1.0000
   0   0  13 1 66.5046 2.84470  1.0000
   0   1  13 1 250.653 2.60500  1.0000
   1   1  13 1 0.55433 0.66533  1.0000
   0   2  13 1 -0.7602 0.69428  1.0000
   1   2  13 1 39.0171 0.97695  1.0000
   2   2  13 1 21.5886 1.44111  1.0000
   0   3  13 1 189.389 3.22566  1.0000
   1   3  13 1 0.31114 0.71525  1.0000
   2   3  13 1 32.8970 1.29523  1.0000
   3   3  13 1 6.37747 1.71890  1.0000
   0   4  13 1 21.2095 1.83650  1.0000
   1   4  13 1 104.596 2.51283  1.0000
   2   4  13 1 -1.8053 1.26113  1.0000
   0   0  14 1 454.567 7.65775  1.0000
   0   1  14 1 240.082 2.83614  1.0000
   1   1  14 1 98.0917 2.11009  1.0000
   0   2  14 1 101.722 2.18586  1.0000
   1   2  14 1 180.397 1.96325  1.0000
   2   2  14 1 0.86847 1.10601  1.0000
   0   3  14 1 137.735 2.97016  1.0000
   1   3  14 1 85.7562 1.84250  1.0000
   2   3  14 1 106.998 2.36236  1.0000
   3   3  14 1 71.4787 3.81113  1.0000
   0   4  14 1 189.388 4.66509  1.0000
   1   4  14 1 101.250 3.20095  1.0000
   2   4  14 1 21.8135 14.7744  1.0000
   0   0  15 1 92.3561 4.11952  1.0000
   0   1  15 1 -1.2407 0.85843  1.0000
   1   1  15 1 11.4794 1.19614  1.0000
   0   2  15 1 12.3750 1.21155  1.0000
   1   2  15 1 35.4959 1.21409  1.0000
   2   2  15 1 1.42041 1.35452  1.0000
   0   3  15 1 -5.2707 1.42136  1.0000
   1   3  15 1 15.4205 1.40132  1.0000
   2   3  15 1 13.7339 1.71468  1.0000
   0   0  16 1 49.9149 3.88952  1.0000
   0   1  16 1 1.24281 1.03474  1.0000
   1   1  16 1 23.1665 1.55443  1.0000
   0   2  16 1 23.8623 1.96368  1.0000
   1   2  16 1 53.0233 1.88892  1.0000
   2   2  16 1 13.0311 2.43697  1.0000
   0   3  16 1 -0.5654 3.00752  1.0000
   0   0  17 1 112.189 7.11596  1.0000
   0   1  17 1 0.77955 1.77508  1.0000
   1   1  17 1 18.1329 2.17108  1.0000

;
loop_
_space_group_symop_operation_xyz
'x, y, z'
'-y+1/2, x, z'
'-x+1/2, -y+1/2, z'
'y, -x+1/2, z'
'x+1/2, -y, -z'
'y+1/2, x+1/2, -z'
'-x, y+1/2, -z'
'-y, -x, -z'
'-x, -y, -z'
'y-1/2, -x, -z'
'x-1/2, y-1/2, -z'
'-y, x-1/2, -z'
'-x-1/2, y, z'
'-y-1/2, -x-1/2, z'
'x, -y-1/2, z'
'y, x, z'
loop_
_atom_local_axes_atom_label
_atom_local_axes_atom0
_atom_local_axes_ax1
_atom_local_axes_atom1
_atom_local_axes_atom2
_atom_local_axes_ax2
NA(1) O(3) Z NA(1) C(1) Y
O(3) C(1) X O(3) C(2) Y
C(1) O(3) X C(1) DUM1 Y
C(2) C(1) Z C(2) H(2B) X
H(2A) C(2) Z H(2A) H(2B) Y
H(2B) C(2) Z H(2B) H(2A) Y
H(2C) C(2) Z H(2C) H(2A) Y
loop_
_atom_site_label
_atom_site_type_symbol
_atom_site_fract_x
_atom_site_fract_y
_atom_site_fract_z
_atom_site_U_iso_or_equiv
_atom_site_adp_type
_atom_site_occupancy
_atom_site_symmetry_multiplicity
Na(1) Na -0.25 -0.25 0.41643(6) 0.01 Uani 1 2
O(3) O 0.25 -0.0174(2) 0.35749(10) 0.013 Uani 0.5 8
C(1) C 0.25 0.25 0.29861(14) 0.01 Uani 1 2
C(2) C 0.25 0.25 0.14752(17) 0.026 Uani 1 2
H(2A) H 0.027649 0.143832 0.11148(17) 0.0396(11) Uiso 0.125 16
H(2B) H 0.45312 0.110523 0.11148(17) 0.0396(11) Uiso 0.125 16
H(2C) H 0.269231 0.495645 0.11147(17) 0.07(2) Uiso 0.125 16
loop_
_atom_site_aniso_label
_atom_site_aniso_U_11
_atom_site_aniso_U_22
_atom_site_aniso_U_33
_atom_site_aniso_U_23
_atom_site_aniso_U_13
_atom_site_aniso_U_12
Na(1) 0.00700(19) 0.00700(19) 0.0148(3) 0 0 0
O(3) 0.0091(4) 0.0079(4) 0.0205(5) 0.0030(3) 0 0
C(1) 0.0075(3) 0.0075(3) 0.0143(6) 0 0 0
C(2) 0.0327(6) 0.0327(6) 0.0128(7) 0 0 0
loop_
_geom_angle_atom_site_label_1
_geom_angle_atom_site_label_2
_geom_angle_atom_site_label_3
_geom_angle
_geom_angle_site_symmetry_1
_geom_angle_site_symmetry_2
_geom_angle_site_symmetry_3
_geom_angle_publ_flag
NA(1) NA(1) NA(1) 75.739(15) 5_446 1_555 5_546 yes
NA(1) NA(1) NA(1) 120.48(3) 5_546 1_555 5_456 yes
NA(1) O(3) NA(1) 122.77(4) 1_555 1_555 1_655 yes
NA(1) O(3) C(1) 118.56(2) 1_555 1_555 1_555 yes
O(3) C(1) O(3) 123.93(14) 1_555 1_555 3_555 yes
O(3) C(1) C(2) 118.04(7) 3_555 1_555 1_555 yes
loop_
_geom_bond_atom_site_label_1
_geom_bond_atom_site_label_2
_geom_bond_distance
_geom_bond_site_symmetry_1
_geom_bond_site_symmetry_2
_geom_bond_publ_flag
NA(1) NA(1) 3.3854(6) 1_555 5_446 yes
O(3) C(1) 1.2593(11) 1_555 1_555 yes
C(1) C(2) 1.519(2) 1_555 1_555 yes
C(2) H(2A) 1.0863 1_555 1_555 yes
C(2) H(2B) 1.0863 1_555 1_555 yes
C(2) H(2C) 1.0863 1_555 1_555 yes
