#------------------------------------------------------------------------------
#$Date: 2018-03-24 08:09:01 +0200 (Sat, 24 Mar 2018) $
#$Revision: 207101 $
#$URL: file:///home/coder/svn-repositories/cod/cif/1/54/91/1549130.cif $
#------------------------------------------------------------------------------
#
# This file is available in the Crystallography Open Database (COD),
# http://www.crystallography.net/. The original data for this entry
# were provided by IUCr Journals, http://journals.iucr.org/.
#
# The file may be used within the scientific community so long as
# proper attribution is given to the journal article from which the
# data were obtained.
#
data_1549130
loop_
_publ_author_name
'Moorthy, K.'
'NizamMohideen, M.'
'Vetrivel, S.'
'Vinoth, E.'
'Arun, A.'
_publ_section_title
;
 2-Fluoro-5-nitroaniline
;
_journal_coeditor_code           HB4212
_journal_issue                   3
_journal_name_full               IUCrData
_journal_page_first              x180425
_journal_paper_doi               10.1107/S241431461800425X
_journal_volume                  3
_journal_year                    2018
_chemical_formula_iupac          'C6 H5 F N2 O2'
_chemical_formula_moiety         'C6 H5 F N2 O2'
_chemical_formula_sum            'C6 H5 F N2 O2'
_chemical_formula_weight         156.12
_chemical_name_systematic
;
2-Fluoro-5-nitroaniline
;
_space_group_crystal_system      monoclinic
_space_group_IT_number           14
_space_group_name_Hall           '-P 2yn'
_space_group_name_H-M_alt        'P 1 21/n 1'
_symmetry_space_group_name_Hall  '-P 2yn'
_symmetry_space_group_name_H-M   'P 1 21/n 1'
_atom_sites_solution_hydrogens   mixed
_atom_sites_solution_primary     direct
_audit_creation_method           SHELXL-2014/7
_cell_angle_alpha                90
_cell_angle_beta                 102.143(3)
_cell_angle_gamma                90
_cell_formula_units_Z            4
_cell_length_a                   12.1967(9)
_cell_length_b                   3.7559(2)
_cell_length_c                   14.4539(10)
_cell_measurement_reflns_used    2057
_cell_measurement_temperature    296(2)
_cell_measurement_theta_max      28.03
_cell_measurement_theta_min      2.45
_cell_volume                     647.31(7)
_computing_cell_refinement
;
SAINT (Bruker, 2004)
;
_computing_data_collection
;
APEX2 (Bruker, 2004)
;
_computing_data_reduction
;
SAINT (Bruker, 2004)
;
_computing_molecular_graphics
;
ORTEP-3 for Windows (Farrugia, 2012) and Mercury (Macrae <i>et al.</i>,
2008)
;
_computing_publication_material
;
SHELXL2014 (Sheldrick, 2015b), WinGX (Farrugia, 2012) and PLATON
(Spek, 2009)
;
_computing_structure_refinement
;
SHELXL2014 (Sheldrick, 2015b)
;
_computing_structure_solution
;
SHELXT2014 (Sheldrick, 2015a)
;
_diffrn_ambient_temperature      296(2)
_diffrn_measured_fraction_theta_full 0.980
_diffrn_measured_fraction_theta_max 0.980
_diffrn_measurement_device_type  'Bruker KappaCCD'
_diffrn_measurement_method       '\w and \f scan'
_diffrn_radiation_monochromator  graphite
_diffrn_radiation_source         'fine-focus sealed tube'
_diffrn_radiation_type           MoK\a
_diffrn_radiation_wavelength     0.71073
_diffrn_reflns_av_R_equivalents  0.0404
_diffrn_reflns_limit_h_max       14
_diffrn_reflns_limit_h_min       -14
_diffrn_reflns_limit_k_max       4
_diffrn_reflns_limit_k_min       -4
_diffrn_reflns_limit_l_max       17
_diffrn_reflns_limit_l_min       -17
_diffrn_reflns_number            7982
_diffrn_reflns_theta_full        24.984
_diffrn_reflns_theta_max         24.984
_diffrn_reflns_theta_min         2.456
_exptl_absorpt_coefficient_mu    0.141
_exptl_absorpt_correction_T_max  0.7456
_exptl_absorpt_correction_T_min  0.6656
_exptl_absorpt_correction_type   multi-scan
_exptl_absorpt_process_details
;
(SADABS; Bruker, 2004)
;
_exptl_crystal_colour            brown
_exptl_crystal_density_diffrn    1.602
_exptl_crystal_description       block
_exptl_crystal_F_000             320
_exptl_crystal_size_max          0.250
_exptl_crystal_size_mid          0.200
_exptl_crystal_size_min          0.150
_refine_diff_density_max         0.146
_refine_diff_density_min         -0.186
_refine_ls_extinction_method     none
_refine_ls_goodness_of_fit_ref   1.087
_refine_ls_hydrogen_treatment    mixed
_refine_ls_matrix_type           full
_refine_ls_number_parameters     108
_refine_ls_number_reflns         1124
_refine_ls_number_restraints     0
_refine_ls_restrained_S_all      1.087
_refine_ls_R_factor_all          0.0695
_refine_ls_R_factor_gt           0.0380
_refine_ls_shift/su_max          0.000
_refine_ls_shift/su_mean         0.000
_refine_ls_structure_factor_coef Fsqd
_refine_ls_weighting_details
'w=1/[\s^2^(Fo^2^)+(0.0453P)^2^+0.1287P] where P=(Fo^2^+2Fc^2^)/3'
_refine_ls_weighting_scheme      calc
_refine_ls_wR_factor_gt          0.0897
_refine_ls_wR_factor_ref         0.1063
_reflns_number_gt                731
_reflns_number_total             1124
_reflns_threshold_expression     'I > 2\s(I)'
_cod_data_source_file            hb4212sup1.cif
_cod_data_source_block           I
_cod_database_code               1549130
_shelx_space_group_comment
;
The symmetry employed for this shelxl refinement is uniquely defined
by the following loop, which should always be used as a source of
symmetry information in preference to the above space-group names.
They are only intended as comments.
;
_shelx_estimated_absorpt_t_min   0.966
_shelx_estimated_absorpt_t_max   0.979
_shelx_hkl_file
;
   1   0   0    0.10    0.60
   1   0   0   -0.10    0.30
   1   0   0   -0.80    0.50
   1   0   0    0.00    0.90
  -1   0   0   -0.30    0.30
  -1   0   0   -1.30    1.30
  -1   0   0   -0.20    0.60
  -1   0   0    0.10    0.50
   2   0   0   34.10    2.60
  -2   0   0   33.00    2.60
   2   0   0   37.10    2.20
  -2   0   0   27.20    6.60
   2   0   0   36.00    2.60
   2   0   0   42.80    6.10
  -2   0   0   33.30    2.20
  -2   0   0   35.10    2.40
  -3   0   0    0.10    1.20
  -3   0   0    0.30    1.50
  -3   0   0    0.00    1.30
   3   0   0    4.90    3.60
   3   0   0   -1.80    1.60
   3   0   0   -0.20    1.20
   3   0   0   -0.50    1.20
  -3   0   0   -3.10    3.10
  -4   0   0 1509.85   34.80
  -4   0   0 1564.84   32.10
  -4   0   0 1527.55   32.50
  -4   0   0 1295.57   74.69
   4   0   0 1705.13   77.69
   4   0   0 1525.85   32.00
   4   0   0 1505.05   32.40
   4   0   0 1541.15   34.90
  -5   0   0    1.00    2.50
  -5   0   0   -1.20    1.50
  -5   0   0   -2.70    2.60
  -5   0   0   -3.80    5.40
   5   0   0   -3.30    1.40
   5   0   0    2.30    4.70
   5   0   0   -0.10    1.70
   5   0   0   -5.30    2.20
  -6   0   0   41.60   12.20
   6   0   0   66.59    5.20
   6   0   0   63.49   13.60
  -6   0   0   74.19    5.10
  -6   0   0   76.09    6.30
  -6   0   0   64.19    6.20
   6   0   0   66.79    6.50
  -7   0   0   -0.80    4.00
   7   0   0   -2.80    7.70
  -7   0   0    2.20    2.60
  -8   0   0   39.60    7.40
   8   0   0   35.70   13.60
  -8   0   0   27.90    4.90
  -9   0   0    2.50    5.00
  -9   0   0    2.50    3.10
   9   0   0    1.70   10.90
 -10   0   0  637.24   25.30
  10   0   0  668.53   54.49
 -10   0   0  616.64   21.90
 -11   0   0    1.70    4.90
 -11   0   0    8.30    4.60
 -12   0   0    4.00    6.00
 -12   0   0    7.90    6.20
 -13   0   0    4.20    6.10
 -13   0   0   -1.90    5.40
 -14   0   0   -7.00    5.00
 -14   0   0    9.50    7.20
 -15   0   0    0.50    6.70
 -15   0   0    5.00    6.50
   0  -1   0   -0.80    0.60
   0  -1   0   -0.30    0.60
   0  -1   0    0.40    0.70
   0   1   0   -0.40    0.50
   0   1   0    0.10    0.70
   0   1   0   -0.30    1.40
   0   1   0    0.80    0.70
  -1  -1   0   10.30    1.40
   1  -1   0   14.90    1.60
  -1  -1   0   16.60    1.70
  -1  -1   0   17.50    1.60
   1  -1   0   15.00    1.50
   1  -1   0   14.60    1.50
  -1  -1   0   14.00    1.80
  -1   1   0   13.10    1.40
   1   1   0   12.20    2.60
   1   1   0   14.80    1.70
  -1   1   0   12.30    1.40
   1   1   0   18.60    1.80
   2  -1   0 2835.92   53.19
   2  -1   0 2793.52  126.09
  -2  -1   0 2745.13   56.69
  -2  -1   0 2757.62   55.89
  -2  -1   0 2807.52   53.09
   2  -1   0 2816.42   55.99
  -2  -1   0 2793.12   53.49
  -2   1   0 2744.93  126.29
   2   1   0 2818.02   56.49
   2   1   0 2821.42   53.59
  -2   1   0 2773.02   55.49
   2   1   0 2836.02   56.89
  -2   1   0 2814.72   53.19
   2   1   0 2769.22   53.09
   3  -1   0   12.40    2.40
  -3  -1   0   11.30    2.70
  -3  -1   0   11.30    2.30
  -3  -1   0   10.70    2.30
   3  -1   0   14.90    5.00
  -3  -1   0   12.20    2.10
   3  -1   0   13.20    2.10
  -3   1   0   13.90    2.50
  -3   1   0   14.60    2.50
  -3   1   0   12.80    4.90
   3   1   0   12.90    2.50
  -3   1   0   12.10    2.10
   3   1   0   12.50    2.70
   3   1   0   10.30    2.30
  -4  -1   0  154.88    7.00
  -4  -1   0  151.78    6.70
  -4  -1   0  155.68    6.30
   4  -1   0  157.78    7.40
  -4  -1   0  152.58   15.90
  -4  -1   0  154.98    8.00
   4  -1   0  143.69   16.40
   4  -1   0  147.49    6.30
  -4   1   0  169.68   16.10
  -4   1   0  155.08    7.30
   4   1   0  142.89    6.20
   4   1   0  152.18    6.90
  -4   1   0  153.78    6.40
  -4   1   0  152.18    6.70
   4   1   0  158.78    7.70
  -5  -1   0    3.40    2.20
  -5  -1   0   -2.30    4.80
   5  -1   0    0.60    2.20
  -5  -1   0    1.00    2.40
  -5  -1   0    1.60    1.60
   5  -1   0    2.10    2.30
  -5  -1   0    0.00    2.30
  -5   1   0   -2.70    2.60
  -5   1   0    0.60    2.10
  -5   1   0    0.50    4.20
   5   1   0    2.10    2.50
   5   1   0    1.10    1.80
   5   1   0    4.00    2.00
  -5   1   0   -1.90    1.80
   6  -1   0    2.50    2.70
  -6  -1   0    1.20    3.50
  -6  -1   0   -0.30    1.60
  -6  -1   0   -0.70    1.90
   6   1   0    3.40    2.90
   6   1   0    1.40    2.00
  -6   1   0    0.50    2.30
  -6   1   0    5.40    4.80
  -6   1   0    1.00    3.30
  -6   1   0    4.00    2.50
  -7  -1   0  113.29    8.00
   7  -1   0  127.39    8.50
  -7  -1   0  131.79    8.30
  -7  -1   0  131.79    9.20
   7  -1   0  112.19   19.50
   7   1   0  106.69    7.20
   7   1   0  136.79    8.40
  -7   1   0  116.19    6.90
  -7   1   0  137.49    9.90
  -7   1   0  123.29    7.70
  -8  -1   0  319.27   13.80
  -8  -1   0  335.57   16.20
   8  -1   0  350.36   33.50
   8   1   0  332.07   13.60
  -8   1   0  323.27   15.10
  -8   1   0  316.77   13.30
  -9  -1   0   27.70    6.50
  -9  -1   0   25.30    5.80
   9  -1   0   22.80   15.50
  -9   1   0   19.30    5.40
  -9   1   0   32.30    6.40
 -10  -1   0  171.68   13.10
 -10  -1   0  192.98   12.40
  10  -1   0  181.78   29.30
 -10   1   0  179.68   13.40
 -10   1   0  207.28   12.00
 -11  -1   0   13.70    7.60
 -11  -1   0   25.10    6.70
  11  -1   0   12.90   13.90
 -11   1   0   23.70    6.30
 -11   1   0   14.10    6.40
 -12  -1   0    9.90    8.00
 -12  -1   0    1.70    5.60
  12  -1   0   16.00   13.70
 -12   1   0   10.40    6.90
 -12   1   0    7.70    6.70
 -13  -1   0    0.30    5.70
  13  -1   0   20.90   14.90
 -13  -1   0    8.10    8.50
 -13   1   0   -0.30    5.10
 -13   1   0    3.20    5.00
 -14  -1   0   -8.10    7.90
  14  -1   0   -2.70   12.30
 -14  -1   0    4.60    6.60
 -14   1   0   -1.40    7.30
 -14   1   0    0.10    4.80
 -15  -1   0    7.80    7.60
 -15  -1   0   17.30    8.80
 -15   1   0   -7.30    6.60
 -15   1   0    5.20    7.90
   0  -2   0  170.98    5.90
   0  -2   0  164.28    4.40
   0  -2   0  173.88    5.30
   0  -2   0  170.98    4.30
   0   2   0  162.88    4.70
   0   2   0  155.58    8.10
   0   2   0  165.88    4.90
  -1  -2   0   54.49    2.60
  -1  -2   0   51.39    3.00
   1  -2   0   61.19    3.10
   1  -2   0   57.59    2.30
  -1  -2   0   52.99    2.40
   1  -2   0   51.59    2.40
  -1  -2   0   54.79    3.70
   1   2   0   54.49    3.20
   1   2   0   51.39    5.00
  -1   2   0   51.59    5.00
  -1   2   0   58.59    2.90
   1   2   0   50.89    2.90
   2  -2   0  251.67    8.00
  -2  -2   0  249.88    8.10
  -2  -2   0  269.67    7.60
  -2  -2   0  269.57    7.20
  -2  -2   0  259.87    9.10
   2  -2   0  255.37    7.10
   2  -2   0  239.28   21.60
   2  -2   0  254.27    7.00
  -2   2   0  263.77    7.40
   2   2   0  256.17    7.50
   2   2   0  257.77   11.20
  -2   2   0  255.87    6.20
  -2   2   0  270.07    6.40
   3  -2   0    7.90    1.80
  -3  -2   0    9.50    2.90
   3  -2   0    7.80    2.10
  -3  -2   0    8.10    1.90
  -3  -2   0    4.10    1.90
  -3  -2   0    3.60    1.60
   3  -2   0   10.00    5.80
   3  -2   0   10.80    1.90
   3   2   0    6.80    2.40
  -3   2   0   10.20    2.30
   3   2   0    7.00    2.50
   3   2   0    7.50    2.50
  -3   2   0    8.80    2.00
  -3   2   0   10.90    1.90
   3   2   0    8.70    3.20
   4  -2   0   -0.20    4.80
  -4  -2   0    2.40    2.00
  -4  -2   0    5.40    2.20
   4  -2   0    3.20    2.10
  -4  -2   0    6.30    3.20
   4   2   0    5.50    2.80
   4   2   0    1.40    2.30
   4   2   0    6.40    2.70
  -4   2   0    5.80    2.50
  -4   2   0    6.80    2.80
  -4   2   0    6.10    2.20
  -4   2   0    2.90    2.40
  -5  -2   0   95.49    6.00
  -5  -2   0  101.49    6.40
   5  -2   0  105.49   16.30
  -5  -2   0   98.09    7.70
   5  -2   0  101.49    6.80
  -5   2   0  103.99    6.20
  -5   2   0   90.79    6.20
   5   2   0   98.39    6.50
  -5   2   0  138.39   15.50
   5   2   0  102.09    6.50
  -5   2   0  101.69    6.00
  -6  -2   0    2.60    2.80
   6  -2   0    1.60    8.90
  -6  -2   0    0.00    2.10
   6  -2   0    4.60    2.70
  -6  -2   0   -2.70    3.50
   6   2   0    4.00    3.10
   6   2   0    2.40    2.90
  -6   2   0    3.20    3.00
  -6   2   0    0.50    2.60
  -6   2   0    9.60    3.00
  -7  -2   0    0.10    3.90
  -7  -2   0   -2.70    2.80
   7  -2   0    2.00    2.90
  -7  -2   0    3.30    3.10
  -7   2   0    3.90    2.90
  -7   2   0    3.20    3.40
  -7   2   0    0.00    3.10
   7   2   0    3.30    3.50
   7   2   0    4.50    3.80
   8  -2   0  106.39    8.60
  -8  -2   0  104.29    9.40
   8  -2   0   75.29   24.80
  -8  -2   0   85.69    7.90
  -8   2   0   88.19    8.20
  -8   2   0   83.49    7.10
   8   2   0   96.39    7.60
   8   2   0  104.39    8.70
  -8   2   0   96.39    8.50
  -9  -2   0  364.46   18.90
  -9  -2   0  372.16   15.90
  -9   2   0  354.86   16.00
  -9   2   0  374.06   15.90
 -10  -2   0    9.10    7.10
  10  -2   0   -2.60   17.20
 -10  -2   0    3.90    4.40
 -10   2   0    4.80    4.90
 -10   2   0   -2.20    4.70
  11  -2   0   29.20   15.50
 -11  -2   0   19.90    7.10
 -11  -2   0   15.90    4.90
 -11   2   0   10.10    5.90
 -11   2   0   18.30    6.60
 -12  -2   0   -5.20    7.10
 -12  -2   0   -0.40    3.80
  12  -2   0   21.60   13.90
 -12   2   0    4.90    6.30
 -13  -2   0   -2.90    7.80
 -13  -2   0    0.10    4.00
  13  -2   0  -12.50   13.00
 -13   2   0    6.90    6.50
 -14  -2   0   14.40   10.40
 -14   2   0   -3.70    7.10
   0  -3   0   -0.90    1.40
   0  -3   0   -0.30    1.10
   0   3   0   -0.10    1.00
   0   3   0   -0.50    3.30
  -1  -3   0   10.40    2.00
   1  -3   0   12.80    2.50
  -1  -3   0   12.90    2.50
   1  -3   0    9.90    1.90
   1   3   0    7.60    1.50
   1   3   0   10.90    1.80
   1   3   0    9.60    4.10
  -1   3   0   11.40    5.20
  -1   3   0    9.80    1.40
  -2  -3   0   18.40    1.80
   2  -3   0   25.70    9.70
  -2  -3   0   20.10    2.80
  -2  -3   0   14.80    3.30
   2  -3   0   18.90    2.60
  -2  -3   0   22.20    1.80
   2   3   0   22.80    2.70
  -2   3   0   16.50    1.90
   2   3   0   22.30    2.70
  -2   3   0   22.20    2.30
  -2   3   0   17.40    5.00
   2   3   0   22.70    5.20
   3  -3   0    3.10    6.10
  -3  -3   0   -2.00    2.20
   3  -3   0    0.00    1.10
   3  -3   0    3.00    2.00
  -3  -3   0    1.70    1.90
  -3  -3   0   -0.40    1.40
   3   3   0    0.50    4.60
  -3   3   0    3.10    1.80
  -3   3   0    0.10    3.90
   3   3   0    3.50    2.30
   3   3   0   -0.80    2.10
  -3   3   0    0.90    1.90
  -4  -3   0    8.10    2.50
   4  -3   0    9.00    2.10
   4  -3   0   10.00    2.80
  -4  -3   0    5.70    3.50
  -4  -3   0    8.70    2.50
   4  -3   0    8.60    7.60
   4   3   0    5.00    3.90
  -4   3   0   12.60    4.50
   4   3   0    9.50    3.10
  -4   3   0    1.20    1.60
   4   3   0    9.80    3.10
  -4   3   0    6.60    2.50
   5  -3   0   -5.50    7.60
  -5  -3   0    2.00    3.50
  -5   3   0   -1.90    2.50
  -5   3   0    4.80    2.60
   5   3   0    2.80    3.00
   6  -3   0   51.79   16.50
  -6  -3   0   83.49    8.30
  -6   3   0   71.39    6.30
   6   3   0   85.59    6.80
  -7  -3   0   30.70    6.90
   7  -3   0    4.10   15.80
  -7   3   0   21.80    4.60
  -8  -3   0   93.89   10.60
  -8   3   0   71.79    7.90
  -9  -3   0    2.00    5.50
  -9   3   0    1.00    4.60
  10  -3   0   11.70   23.40
 -10  -3   0    0.40    6.60
 -10   3   0   27.50    6.50
 -11  -3   0    7.70    7.80
 -11   3   0    7.90    5.70
 -12  -3   0    9.70    8.30
 -12   3   0    5.50    5.60
   0   4   0  164.68   13.80
   1   4   0   -1.60    5.90
  -2   4   0   11.60    5.90
   2   4   0   18.80    7.50
   3   4   0    1.30    6.00
  -3   4   0    3.20    6.00
  -4  -4   0    2.00    2.80
  -4   4   0   -0.50    4.40
  -5  -4   0    3.50    3.90
  -5   4   0    0.90    6.80
  -6  -4   0    3.80    4.60
  -6   4   0   10.50    7.40
  -6   4   0    2.90    2.80
  -7  -4   0    8.90    6.00
  -7   4   0   11.40    3.90
  -7   4   0    3.50    7.10
  -8  -4   0    3.60    5.80
  -8   4   0   10.30    4.20
  -8   4   0  -13.70    5.50
  -9  -4   0   -4.30    5.30
  -9   4   0   -1.80    4.10
 -15   0   1   -0.60    5.30
 -15   0   1    4.60    8.90
 -14   0   1    6.90    8.40
 -14   0   1   -5.70    3.90
 -13   0   1   25.00    7.80
 -13   0   1    6.20    8.20
 -12   0   1    4.90    5.70
  12   0  -1    0.50   14.80
 -12   0   1    1.50    5.30
  11   0  -1  173.58   33.70
 -11   0   1  185.78   13.90
 -11   0   1  207.48   13.50
 -10   0   1    4.10    4.60
 -10   0   1    5.10    4.90
  10   0  -1    0.60   12.90
  -9   0   1   11.80    4.80
   9   0  -1    4.00    9.10
  -9   0   1    5.30    4.40
  -8   0   1   -0.10    2.70
   8   0  -1    1.10    2.50
   8   0  -1    0.00    7.10
  -8   0   1   -3.60    4.80
   7   0  -1   72.09    5.70
  -7   0   1   70.59    8.00
  -7   0   1   74.09    6.00
   7   0  -1   71.99   15.90
   6   0  -1    0.20    2.00
  -6   0   1   -0.30    2.80
   6   0  -1   -3.30    2.30
  -6   0   1   -2.40    2.50
   6   0  -1   -3.50    1.80
  -6   0   1   -2.50    2.30
  -6   0   1   -2.90    1.60
   6   0  -1    3.20    8.70
   5   0  -1  321.37   26.00
  -5   0   1  307.77   10.00
   5   0  -1  304.07   10.30
  -5   0   1  256.77   26.00
  -5   0   1  314.27   10.90
  -5   0   1  282.37   10.10
  -5   0   1  303.17   12.00
   5   0  -1  295.57   11.50
   5   0  -1  297.27    9.90
  -4   0   1    0.80    1.50
  -4   0   1   -1.30    1.30
  -4   0   1    2.70    2.40
   4   0  -1    0.00    1.60
   4   0  -1    1.40    4.90
  -4   0   1   -5.10    2.40
   4   0  -1    6.30    2.20
  -4   0   1   -5.10    5.30
   4   0  -1    0.30    2.30
   3   0  -1   17.80    6.10
   3   0  -1   19.40    2.90
  -3   0   1   22.60    3.30
   3   0  -1   22.70    2.40
  -3   0   1   22.50    2.60
  -3   0   1   24.30    2.30
  -3   0   1   19.90    2.60
  -3   0   1   14.80    6.10
   3   0  -1   25.00    2.50
  -2   0   1   -2.50    0.90
  -2   0   1   -1.30    2.70
  -2   0   1   -1.40    1.00
   2   0  -1   -1.70    1.30
   2   0  -1   -2.30    1.10
  -2   0   1   -3.10    1.00
   2   0  -1   -4.10    1.20
  -2   0   1   -1.90    0.80
   2   0  -1   -2.20    2.60
   2   0  -1   -2.30    1.30
  -1   0   1   -6.50    1.60
   1   0  -1  -10.50    0.60
  -1   0   1   -8.30    0.90
   0   0  -1   -1.40    0.20
   0   0  -1   -1.40    0.40
   0   0   1   -1.80    0.30
   0   0   1   -1.60    0.20
   0   0   1   -1.90    0.30
   0   0  -1   -1.80    0.30
   1   0   1  135.09    4.30
  -1   0  -1  131.39    4.20
   1   0   1  137.49    3.90
  -2   0  -1   -0.70    2.50
  -2   0  -1   -0.90    1.30
   2   0   1   -1.40    1.40
  -2   0  -1   -3.50    1.40
   2   0   1   -2.40    1.00
  -3   0  -1  889.71   21.50
  -3   0  -1  852.21   19.80
   3   0   1  858.41   19.80
   3   0   1  938.91   46.40
   3   0   1  872.81   21.40
  -3   0  -1  883.41   45.90
   4   0   1   -1.40    1.40
  -4   0  -1   -0.60    3.80
  -4   0  -1   -1.10    1.30
  -4   0  -1   -1.70    2.70
   4   0   1   -0.50    3.20
  -4   0  -1   -2.70    2.10
   4   0   1    0.30    1.60
   5   0   1   82.99    5.30
   5   0   1   75.59   12.50
  -5   0  -1   87.59    5.60
  -5   0  -1   63.49   15.20
  -5   0  -1   83.29    6.30
  -5   0  -1   84.49    5.10
   5   0   1   80.79    5.90
   6   0   1   -0.20    2.80
   6   0   1   -3.00    6.80
  -6   0  -1   -1.70    6.80
   6   0   1   -1.60    2.50
  -6   0  -1   -2.00    3.80
  -6   0  -1   -2.60    2.90
  -6   0  -1    1.60    2.70
   7   0   1 1166.98   67.69
  -7   0  -1 1116.59   31.40
  -7   0  -1 1080.69   28.70
  -8   0  -1    2.30    3.00
  -8   0  -1    0.00    4.50
  -9   0  -1  142.39   10.30
  -9   0  -1  131.39   10.60
 -10   0  -1    3.00    6.30
 -10   0  -1    3.80    5.10
 -11   0  -1   16.00    7.60
 -11   0  -1   14.90    5.20
 -12   0  -1   -6.60    3.30
 -12   0  -1   -2.70    5.00
 -13   0  -1    9.90    6.90
 -13   0  -1   18.30    7.40
 -14   0  -1   12.20    7.30
 -14   0  -1    1.70    8.00
 -15   0  -1    8.10    8.90
 -15   0  -1   -0.30    7.00
 -15  -1   1    4.50    7.00
  15  -1  -1   31.30   16.10
 -15  -1   1    1.00    4.70
 -15   1   1   -1.30    5.10
 -15   1   1   10.20    6.70
 -14  -1   1   -1.10    6.60
 -14  -1   1   -2.40    6.20
  14  -1  -1  -20.80   16.00
 -14   1   1   -7.30    4.00
 -14   1   1    4.00    6.70
 -13  -1   1   15.90    7.20
  13  -1  -1   26.70   17.50
 -13  -1   1   28.20   10.30
 -13   1   1   31.00    8.30
 -13   1   1   30.90    9.30
  12  -1  -1  115.59   27.00
 -12  -1   1   91.49   13.40
 -12  -1   1  103.29   11.20
 -12   1   1   95.09   12.60
 -12   1   1  123.29   12.40
 -11  -1   1   10.50    5.80
  11  -1  -1   -8.90   16.20
 -11  -1   1   10.30    5.60
 -11   1   1    7.20    5.10
 -11   1   1    8.90    5.70
 -10  -1   1  451.15   18.30
  10  -1  -1  483.75   44.60
 -10  -1   1  490.35   21.70
 -10   1   1  445.56   19.70
 -10   1   1  475.45   18.50
  10   1  -1  510.95   19.10
  -9  -1   1   89.09   10.50
   9  -1  -1   97.89   24.20
  -9  -1   1   65.39    7.80
  -9   1   1   72.19    9.10
   9   1  -1   78.09    7.30
  -9   1   1   77.59    7.40
   8  -1  -1   13.80   15.60
  -8  -1   1   33.80    6.90
  -8  -1   1   24.90    5.20
  -8   1   1   32.90    5.10
  -8   1   1   32.50    5.50
  -8   1   1   30.70    5.50
   8   1  -1   27.20    5.00
  -7  -1   1   22.50    4.50
   7  -1  -1   24.50    5.00
  -7  -1   1   27.80    5.60
   7  -1  -1   23.60   13.90
  -7  -1   1   25.90    4.90
   7   1  -1   22.80    4.00
   7   1  -1   24.20    4.20
  -7   1   1   15.30    4.40
  -7   1   1   24.40    5.90
  -7   1   1   26.90    4.30
   6  -1  -1  364.36   13.80
  -6  -1   1  342.07   12.30
  -6  -1   1  345.27   12.80
  -6  -1   1  314.97   13.60
  -6   1   1  352.86   12.10
  -6   1   1  328.57   13.20
  -6   1   1  346.87   11.60
   6   1  -1  346.47   12.60
   6   1  -1  345.17   12.30
  -6   1   1  351.66   29.00
  -5  -1   1  198.38   22.50
  -4  -1   1  128.39    6.40
  -4  -1   1  135.59   15.50
   4  -1  -1  126.29    5.70
  -4  -1   1  136.89    6.50
   4  -1  -1  130.89    6.50
   4  -1  -1  139.59   15.80
  -4  -1   1  135.09    7.20
  -4  -1   1  137.99    5.70
   4   1  -1  135.29    6.50
  -4   1   1  130.99    5.70
  -4   1   1  124.89    5.90
   4   1  -1  124.19    6.10
  -4   1   1  120.89    6.40
  -4   1   1  123.59    5.50
  -4   1   1  133.49   15.20
   4   1  -1  127.69    7.10
   3  -1  -1   35.70    3.40
   3  -1  -1   39.80    8.70
  -3  -1   1   44.00    8.80
   3  -1  -1   34.20    3.00
  -3  -1   1   32.60    2.90
  -3  -1   1   31.50    4.00
  -3  -1   1   41.90    3.50
  -3  -1   1   31.40    3.20
  -3   1   1   31.30    3.30
   3   1  -1   33.30    3.40
  -3   1   1   33.50    2.90
  -3   1   1   34.40    8.20
   3   1  -1   32.80    3.50
  -3   1   1   34.40    3.20
  -3   1   1   33.90    2.80
   3   1  -1   38.50    3.90
  -2  -1   1 4513.05   83.99
   2  -1  -1 4475.25   87.49
  -2  -1   1 4466.45   89.29
  -2  -1   1 4499.05   88.19
   2  -1  -1 4450.45  199.78
   2  -1  -1 4592.24   83.39
  -2  -1   1 4446.35   84.59
   2   1  -1 4577.24   89.09
   2   1  -1 4495.25   88.39
   2   1  -1 4537.85   84.69
  -2   1   1 4578.04   86.79
   2   1  -1 4503.25   84.09
  -2   1   1 4131.69   82.99
  -2   1   1 4553.34   83.39
   2   1  -1 4493.55   88.09
  -1  -1   1 1421.76   27.80
   1  -1  -1 1369.46   27.50
  -1  -1   1 1389.66   27.30
  -1  -1   1 1403.56   28.90
   1  -1  -1 1393.66   26.00
  -1  -1   1 1392.06   29.70
   1   1  -1 1375.26   27.40
   1   1  -1 1398.06   30.10
  -1   1   1 1411.36   29.90
   1   1  -1 1376.16   28.70
   1   1  -1 1401.66   27.90
  -1   1   1 1387.56   26.10
   1   1  -1 1424.56   29.50
  -1   1   1 1406.66   26.00
   0  -1   1 5230.38  103.89
   0  -1   1 5426.56   97.49
   0  -1   1 5264.57   97.69
   0   1  -1 5191.08   99.09
   0   1  -1 5297.87   97.79
   0   1   1 5268.07  102.79
   1  -1   1 1360.96   27.10
   1  -1   1 1375.26   28.70
   1  -1   1 1348.67   62.89
  -1  -1  -1 1399.56   28.20
   1  -1   1 1358.16   27.40
  -1  -1  -1 1400.76   26.30
  -1  -1  -1 1400.16   26.40
  -1   1  -1 1372.76   28.50
   1   1   1 1344.57   29.80
   1   1   1 1391.46   27.70
  -1   1  -1 1374.16   27.30
   2  -1   1   86.89    8.60
   2  -1   1   76.79    3.80
  -2  -1  -1   73.39    4.30
  -2  -1  -1   81.39    3.60
  -2  -1  -1   77.99    3.50
   2  -1   1   76.09    4.10
   2   1   1   80.79    4.20
  -2   1  -1   77.39    4.00
   2   1   1   77.89    3.70
  -2   1  -1   75.09    4.30
   2   1   1   79.79    3.80
  -2   1  -1   77.39    8.40
   3  -1   1 1019.40   54.29
  -3  -1  -1 1072.79   25.60
   3  -1   1 1096.59   25.60
  -3  -1  -1 1097.29   23.70
   3  -1   1 1114.29   23.90
  -3  -1  -1 1083.79   23.20
  -3   1  -1 1085.09   23.90
   3   1   1 1061.29   23.40
  -3   1  -1 1070.89   25.10
   3   1   1 1106.49   25.60
  -3   1  -1 1161.88   54.99
   3   1   1 1096.69   23.90
  -4  -1  -1   24.60    4.00
   4  -1   1   22.00    3.30
   4  -1   1   18.80    7.90
  -4  -1  -1   24.80    3.20
   4  -1   1   20.20    3.30
  -4  -1  -1   19.70    2.90
   4   1   1   23.00    3.80
   4   1   1   25.80    3.60
  -4   1  -1   18.60    5.90
  -4   1  -1   21.30    3.50
  -4   1  -1   18.20    3.70
   4   1   1   15.30    3.10
   5  -1   1  708.23   19.40
   5  -1   1  688.73   20.00
  -5  -1  -1  642.84   20.10
  -5  -1  -1  670.93   18.20
   5  -1   1  698.83   43.20
  -5  -1  -1  704.93   19.00
  -5   1  -1  666.33   40.80
  -5   1  -1  667.23   17.70
   5   1   1  665.83   18.30
   5   1   1  678.23   20.00
  -5   1  -1  682.43   19.70
  -5   1  -1  658.53   18.00
   6  -1   1  391.86   32.20
  -6  -1  -1  386.76   13.20
  -6  -1  -1  377.26   15.30
   6  -1   1  385.76   14.90
   6   1   1  403.26   13.80
  -6   1  -1  408.86   30.30
  -6   1  -1  389.96   14.50
  -6   1  -1  383.46   12.90
  -6   1  -1  381.16   13.50
  -7  -1  -1  416.36   17.00
  -7  -1  -1  376.56   14.30
   7  -1   1  406.16   16.20
   7  -1   1  404.66   33.80
  -7   1  -1  372.76   14.00
   7   1   1  380.46   14.10
  -7   1  -1  370.06   15.60
  -7   1  -1  375.76   13.30
  -8  -1  -1   19.10    5.90
   8  -1   1   20.70   11.10
  -8  -1  -1   17.10    4.70
  -8   1  -1   19.20    5.40
  -8   1  -1   13.10    3.90
   9  -1   1  145.19   24.80
  -9  -1  -1  130.89    9.20
  -9  -1  -1  124.79   12.00
  -9   1  -1  142.29   11.50
  -9   1  -1  116.19    8.90
 -10  -1  -1   -3.90    5.80
  10  -1   1   -7.30    8.10
 -10  -1  -1    1.80    3.70
 -10   1  -1   -0.90    4.90
 -10   1  -1    2.10    5.70
 -11  -1  -1   36.90    9.70
 -11  -1  -1   49.20    7.50
  11  -1   1   32.10   16.70
 -11   1  -1   33.30    6.70
 -11   1  -1   50.49    9.30
 -12  -1  -1    3.10    6.90
  12  -1   1   16.40   12.90
 -12  -1  -1    4.30    5.60
 -12   1  -1    5.80    6.30
 -12   1  -1    7.80    6.90
 -13  -1  -1   15.30    9.60
 -13  -1  -1    4.00    6.30
 -13   1  -1   20.70    8.70
 -13   1  -1   22.00    6.90
 -14  -1  -1    7.70    7.40
 -14  -1  -1    6.90    8.50
 -14   1  -1   14.30    8.10
 -14   1  -1    7.70    8.00
 -15  -1  -1   17.60    7.90
 -15  -1  -1   23.80   11.70
 -15   1  -1   38.20   10.90
 -15   1  -1   12.80    7.30
 -14  -2   1   10.90    8.00
 -14   2   1   12.50    6.70
  13  -2  -1  -12.20   14.30
 -13  -2   1    2.60    4.30
 -13  -2   1   17.50    9.10
 -13   2   1   12.70    6.80
  12  -2  -1   23.20   17.40
 -12  -2   1    4.00    5.30
 -12  -2   1   14.30    8.20
 -12   2   1   -0.50    5.40
 -11  -2   1    7.80    5.30
 -11  -2   1    3.70    5.70
  11  -2  -1  -12.90   19.00
 -11   2   1    7.90    5.30
 -11   2   1    2.50    4.90
 -10  -2   1   84.09   11.70
  10  -2  -1   98.49   28.50
 -10  -2   1  102.89    9.60
  10   2  -1  108.19   10.30
 -10   2   1  103.29    9.90
 -10   2   1  104.99    8.80
   8  -2  -1  275.07   13.90
  -8  -2   1  267.27   14.50
  -8  -2   1  261.47   12.60
   8  -2  -1  223.88   35.80
   8   2  -1  263.87   13.50
  -8   2   1  268.67   12.30
  -8   2   1  281.87   12.80
  -8   2   1  275.17   11.50
   8   2  -1  273.57   12.90
  -6  -2   1   16.80    3.50
   6  -2  -1   27.40    4.70
  -6  -2   1   28.00    4.60
  -6  -2   1   17.30    5.00
   6  -2  -1   23.60   10.70
  -6   2   1   28.50    4.50
   6   2  -1   28.40    4.50
  -6   2   1   23.80    4.00
  -6   2   1   26.90    3.80
   6   2  -1   25.90    4.50
   5  -2  -1   15.90    8.20
   5  -2  -1   19.80    3.40
  -5  -2   1   14.40    3.20
  -5  -2   1   14.30    4.20
  -5  -2   1   15.40    3.30
  -5   2   1   18.40    3.00
   5   2  -1   14.40    3.60
  -5   2   1   13.70    3.50
   5   2  -1   16.50    3.70
  -5   2   1   15.30    3.20
   4  -2  -1   72.49    4.90
  -4  -2   1   63.19    6.40
  -4  -2   1   62.79    4.90
   4  -2  -1   69.09   13.50
   4  -2  -1   78.19    4.40
  -4  -2   1   73.29    5.00
   4   2  -1   72.09    5.20
   4   2  -1   68.69    6.90
  -4   2   1   68.79    4.70
   4   2  -1   76.49    6.00
  -4   2   1   75.59    4.30
  -4   2   1   73.29    4.60
   3  -2  -1   13.60    1.80
  -3  -2   1   12.50    2.50
   3  -2  -1   14.90    2.10
  -3  -2   1   13.30    2.40
  -3  -2   1   13.70    2.40
   3  -2  -1   15.30    2.30
   3  -2  -1   12.50    6.90
  -3  -2   1   12.90    3.30
  -3   2   1   12.70    2.20
   3   2  -1   18.90    4.00
  -3   2   1   15.10    1.60
   3   2  -1   14.80    3.00
  -3   2   1   12.50    1.60
   3   2  -1   11.70    2.80
   3   2  -1   18.80    3.30
   2  -2  -1 2974.90   54.49
  -2  -2   1 2927.21   59.69
   2  -2  -1 2905.31   58.19
  -2  -2   1 2927.11   56.29
   2  -2  -1 2820.92  139.69
   2  -2  -1 2931.61   54.39
  -2  -2   1 2908.81   61.19
  -2  -2   1 2939.01   56.99
   2   2  -1 2925.11   56.59
  -2   2   1 2956.60   62.89
  -2   2   1 2939.91   54.79
  -2   2   1 2987.10   54.79
   2   2  -1 2909.51   57.19
   2   2  -1 2896.51   62.99
  -1  -2   1    5.50    1.60
  -1  -2   1    4.90    1.40
  -1  -2   1    4.50    1.50
  -1  -2   1    2.00    2.10
   1  -2  -1    4.60    0.90
   1   2  -1   -0.60    0.90
  -1   2   1    3.40    0.60
   1   2  -1    2.30    1.40
   1   2  -1    4.10    1.90
   1   2  -1    4.70    2.70
  -1   2   1    3.60    0.50
  -1   2   1    8.00    2.90
   0  -2   1    0.60    1.20
   0  -2   1    2.70    1.50
   0  -2  -1    2.30    1.00
   0  -2   1    1.10    1.00
   0  -2  -1    1.20    0.60
   0  -2   1    0.70    1.70
   0   2  -1    2.70    1.20
   0   2  -1    5.00    2.70
   0   2  -1   -0.50    0.30
   0   2   1    2.50    2.30
   0   2  -1    0.00    1.60
  -1  -2  -1   31.70    2.60
   1  -2   1   28.10    2.50
  -1  -2  -1   28.20    1.30
  -1  -2  -1   26.40    2.00
  -1  -2  -1   28.50    1.40
   1  -2   1   26.50    2.80
   1  -2   1   25.40    2.20
  -1   2  -1   27.20    2.30
  -1   2  -1   27.60    2.90
   1   2   1   23.10    4.50
   1   2   1   25.40    2.00
   1   2   1   25.90    2.10
  -2  -2  -1   28.50    2.50
   2  -2   1   29.30    3.00
  -2  -2  -1   29.80    3.30
   2  -2   1   21.60    6.90
   2  -2   1   25.90    2.60
   2  -2   1   25.70    2.50
  -2  -2  -1   24.60    2.00
  -2  -2  -1   23.20    2.20
   2   2   1   29.60    2.90
  -2   2  -1   24.70    3.00
   2   2   1   26.60    4.40
   3  -2   1    6.10    4.40
  -3  -2  -1   11.40    1.90
  -3  -2  -1    9.10    2.20
  -3  -2  -1    9.20    2.00
  -3  -2  -1    8.50    2.70
   3  -2   1   12.50    2.50
   3  -2   1    8.10    1.90
   3  -2   1    5.80    1.90
   3   2   1    8.50    2.40
  -3   2  -1    8.20    2.50
  -3   2  -1    8.30    2.30
   3   2   1    9.10    2.40
   3   2   1   10.70    2.60
  -4  -2  -1  149.29    7.10
   4  -2   1  176.08   17.30
  -4  -2  -1  152.48    6.70
   4  -2   1  166.58    8.00
   4  -2   1  151.48    6.70
  -4  -2  -1  151.78    8.10
  -4   2  -1  144.39    7.10
   4   2   1  159.08    8.40
   4   2   1  155.18    7.00
   4   2   1  168.78    7.50
  -4   2  -1  162.78    7.60
   5  -2   1    2.50    2.40
  -5  -2  -1    5.40    2.40
  -5  -2  -1    0.80    3.20
  -5  -2  -1    3.10    2.70
   5  -2   1    0.80    7.70
  -5   2  -1    9.20    4.30
  -5   2  -1    0.60    2.20
   5   2   1    0.50    2.60
  -5   2  -1    3.20    3.00
  -5   2  -1   -5.00    2.30
  -6  -2  -1   14.20    3.50
  -6  -2  -1   22.10    4.00
  -6  -2  -1   22.50    5.10
   6  -2   1    8.00   12.00
   6  -2   1   13.90    3.80
   6   2   1   15.80    3.90
  -6   2  -1   14.80    3.30
  -6   2  -1   14.90    4.00
  -6   2  -1   16.60    4.00
  -6   2  -1   25.20    7.80
  -7  -2  -1   35.50    5.60
  -7  -2  -1   35.80    6.70
  -7  -2  -1   47.30    5.90
   7  -2   1   43.80    6.70
  -7   2  -1   45.10    6.30
  -7   2  -1   37.80    5.80
   7   2   1   43.10    5.90
  -7   2  -1   42.70    5.40
  -8  -2  -1  452.65   19.40
   8  -2   1  475.15   44.10
  -8  -2  -1  484.75   17.30
   8   2   1  480.45   17.50
  -8   2  -1  452.05   16.30
  -8   2  -1  515.15   17.90
  -8   2  -1  469.95   18.10
  -9  -2  -1   -2.00    5.20
  -9  -2  -1    7.30    4.40
   9  -2   1   42.40   17.70
  -9   2  -1    1.10    4.40
  -9   2  -1    5.00    4.80
 -10  -2  -1   29.60    8.60
  10  -2   1   42.00   15.20
 -10  -2  -1   25.90    6.20
 -10   2  -1   19.50    6.00
 -10   2  -1   16.60    6.00
  11  -2   1    4.80   11.00
 -11  -2  -1    4.60    7.20
 -11  -2  -1   -0.30    4.60
 -11   2  -1    0.70    5.20
 -11   2  -1   -0.10    3.60
 -12  -2  -1    5.60    8.00
  12  -2   1   11.30   11.10
 -12  -2  -1    2.70    3.90
 -12   2  -1   -4.80    5.50
 -13  -2  -1    0.10    7.80
 -13   2  -1    0.20    5.90
 -14  -2  -1   -0.50    8.70
 -14   2  -1    5.80    7.30
 -12  -3   1   18.90    8.90
 -12   3   1   11.50    5.90
 -11  -3   1    6.50    7.40
 -11   3   1    7.10    5.40
 -10  -3   1   46.40    9.90
  10  -3  -1   40.10   32.40
 -10   3   1   68.09    8.30
  -9  -3   1    4.90    5.80
  -9   3   1    6.30    4.70
   9   3  -1    1.50    4.50
  -8  -3   1   41.50    8.10
   8  -3  -1   14.60   19.30
   8   3  -1   38.50    6.70
  -8   3   1   32.90    5.90
  -7  -3   1   -7.90    3.30
   7  -3  -1    3.90   10.40
   7   3  -1    0.80    4.20
  -7   3   1    4.20    3.30
   6  -3  -1   -5.30   10.70
  -6  -3   1   28.10    6.20
  -6   3   1   19.70    3.90
   6   3  -1   19.70    4.40
  -5  -3   1    5.60    2.50
   5  -3  -1   -6.70    7.50
  -5  -3   1    2.20    3.50
   5   3  -1    1.50    3.90
   5   3  -1   -1.80    3.00
  -5   3   1   -1.50    3.10
  -5   3   1    5.10    2.60
  -5   3   1   -0.20    0.90
  -4  -3   1  137.79    6.80
  -4  -3   1  137.09    8.80
   4  -3  -1  132.59   20.30
   4  -3  -1  127.49    6.70
  -4  -3   1  129.69    7.20
  -4   3   1  131.69   10.80
  -4   3   1  141.49    5.70
   4   3  -1  138.59    7.30
   4   3  -1  127.19    7.30
   4   3  -1  140.59   11.20
  -4   3   1  139.79    5.60
   3  -3  -1   -1.40    1.30
  -3  -3   1    1.90    1.80
   3  -3  -1   -2.00    5.70
  -3  -3   1    1.90    3.00
  -3  -3   1    0.60    1.90
  -3   3   1   -0.40    1.30
   3   3  -1    1.00    3.40
  -3   3   1    0.10    4.60
  -3   3   1   -1.30    1.10
   3   3  -1   -1.70    1.50
   3   3  -1    3.20    2.50
  -2  -3   1   52.99    3.50
  -2  -3   1   55.69    5.40
   2  -3  -1   53.79    3.20
   2  -3  -1   52.69   14.00
  -2  -3   1   58.09    4.40
  -2   3   1   66.89    8.20
   2   3  -1   51.99    7.20
   2   3  -1   65.49    4.60
   2   3  -1   61.39    4.40
  -1  -3   1   31.30    2.50
  -1  -3   1   31.00    3.30
   1  -3  -1   30.00    2.40
  -1  -3   1   37.10    4.50
   1  -3  -1   30.10    2.00
   1   3  -1   31.40    3.40
   1   3  -1   29.10    6.30
  -1   3   1   38.20    6.20
   1   3  -1   36.30    3.40
   0  -3  -1  202.38    5.80
   0  -3  -1  212.88    6.50
   0  -3   1  214.48    8.90
   0  -3   1  212.58    7.90
   0  -3   1  216.98    6.10
   0  -3   1  209.78    5.80
   0   3  -1  223.98   12.20
   0   3   1  210.68   12.60
   0   3  -1  221.18    6.80
   1  -3   1    1.40    1.10
   1  -3   1   -1.60    1.00
   1  -3   1    4.10    1.80
  -1  -3  -1    0.80    1.00
   1  -3   1   -0.70    2.20
  -1  -3  -1    2.70    1.60
  -1   3  -1    0.40    4.70
   1   3   1   -2.50    3.20
  -1   3  -1   -1.60    1.70
   2  -3   1    1.30    1.70
  -2  -3  -1   -1.80    1.70
  -2  -3  -1    1.60    1.40
   2  -3   1    6.90    6.20
   2  -3   1    3.10    1.40
  -2   3  -1    2.00    2.10
   2   3   1    2.90    1.60
  -2   3  -1   -0.80    3.40
   2   3   1    1.60    4.90
   3  -3   1    1.50    1.60
   3  -3   1    4.30    6.10
   3  -3   1    3.30    2.00
  -3  -3  -1    3.10    2.40
  -3  -3  -1    2.00    1.80
  -3  -3  -1    2.20    1.20
  -3   3  -1    2.70    2.40
  -3   3  -1    2.80    3.60
   3   3   1    3.70    3.70
   3   3   1   -3.30    1.90
  -4  -3  -1   17.30    4.00
  -4  -3  -1   15.60    3.50
  -4  -3  -1   16.10    2.60
   4  -3   1   19.40    3.10
   4  -3   1   14.80    8.00
  -4   3  -1   18.30    3.70
  -4   3  -1   14.20    2.30
  -4   3  -1   15.30    3.10
  -5  -3  -1    3.80    3.80
   5  -3   1   -2.60    9.00
  -5   3  -1    7.90    3.30
  -6  -3  -1  103.29    9.40
   6  -3   1   67.19   19.60
  -6   3  -1  102.39    7.20
  -7  -3  -1   88.19    9.50
  -7   3  -1   96.79    8.40
  -8  -3  -1    5.70    5.40
  -8   3  -1    8.90    4.50
  -9  -3  -1    8.60    5.80
   9  -3   1  -29.50   18.80
  -9   3  -1    7.50    4.80
 -10  -3  -1    6.60    7.00
 -10   3  -1    3.00    4.80
 -11  -3  -1   14.90    7.90
 -11   3  -1    7.80    5.50
 -12  -3  -1   -2.70    7.20
 -12   3  -1    0.10    5.80
  -9  -4   1  -10.70    5.90
  -9   4   1   -1.90    4.00
  -9   4   1    7.10    4.10
  -8  -4   1    3.80    5.40
  -8   4   1   -0.40    3.40
  -8   4   1   -6.20    6.40
  -7  -4   1    9.90    5.70
  -7   4   1   -5.90    6.30
  -6  -4   1    1.10    4.50
  -6   4   1   -1.30    6.20
  -4  -4   1   16.40    4.50
   4   4  -1    1.00    4.70
  -4   4   1   26.90    8.20
   3   4  -1    5.60    4.80
   2   4  -1    6.40    4.80
  -2   4   1    2.70    6.30
   0  -4   1   -0.40    2.10
   0   4   1    1.10    4.70
   0   4  -1    2.90    4.50
   2  -4   1   -2.30    2.40
  -2  -4  -1    1.30    1.70
   2   4   1    0.10    4.90
  -2   4  -1    5.40    6.20
   3  -4   1    3.90    2.90
  -3  -4  -1    0.00    2.30
   3   4   1    1.20    4.90
  -3   4  -1   -5.80    3.60
  -3   4  -1   -1.00    1.50
  -4  -4  -1    0.50    2.60
  -4   4  -1    8.90    2.50
  -4   4  -1   10.70    7.40
  -5  -4  -1    2.60    3.40
  -5   4  -1    3.00    2.70
  -5   4  -1   -6.10    6.10
  -6  -4  -1   78.69    8.60
  -6   4  -1   47.40   10.10
  -6   4  -1   68.99    6.40
  -7  -4  -1   -1.00    5.20
  -7   4  -1    0.40    3.80
  -7   4  -1    3.70    6.90
  -8  -4  -1   -0.90    5.30
  -8   4  -1    1.70    4.10
  -9  -4  -1   -1.40    5.80
  -9   4  -1   -5.10    4.10
 -16   0   2    3.90    6.30
 -16   0   2    4.90    8.50
 -15   0   2  -10.80    5.40
 -15   0   2   -3.50    5.20
 -14   0   2   -8.10    3.90
  14   0  -2   11.60   12.60
 -14   0   2    0.90    8.20
 -13   0   2   14.90    8.30
  13   0  -2    5.50   11.40
 -13   0   2    3.00    4.50
 -12   0   2  851.91   32.50
  12   0  -2  818.12   68.49
 -12   0   2  881.91   29.50
 -11   0   2    2.70    4.90
  11   0  -2  -25.20   14.60
 -11   0   2   -1.10    4.90
  10   0  -2  228.48   11.90
 -10   0   2  233.38   12.60
 -10   0   2  217.28   15.00
  10   0  -2  236.98   33.60
   9   0  -2   -4.50    2.30
  -9   0   2   -3.30    3.70
   9   0  -2    6.00    9.20
  -9   0   2    5.50    5.00
   8   0  -2   28.70    4.60
  -8   0   2   34.50    5.40
  -8   0   2   33.90    6.20
   8   0  -2   44.00   15.60
  -7   0   2   -3.90    2.50
  -7   0   2   -1.80    3.20
   7   0  -2   -0.40    2.80
  -6   0   2   59.19    5.00
   6   0  -2   57.99    4.90
   6   0  -2   57.99    5.70
  -6   0   2   55.19    6.00
   6   0  -2   64.19    5.60
  -6   0   2   50.69    4.90
  -6   0   2   64.99   13.80
  -6   0   2   53.99    5.70
   5   0  -2   -0.40    6.10
  -5   0   2   -0.10    2.10
   5   0  -2   -3.00    1.90
  -5   0   2   -1.10    1.90
  -5   0   2   -1.20    3.70
   5   0  -2    0.10    1.70
   5   0  -2   -2.10    1.60
  -5   0   2    2.00    2.50
  -5   0   2   -2.30    1.30
  -4   0   2 2028.20   40.60
  -4   0   2 1960.00   44.20
  -4   0   2 2078.89   43.20
   4   0  -2 1991.70   44.30
   4   0  -2 1958.90   40.60
   4   0  -2 1999.30   41.40
   4   0  -2 1954.70   43.20
  -4   0   2 2085.99   98.09
  -4   0   2 1983.80   41.40
   3   0  -2   -3.40    1.10
  -3   0   2   -1.60    2.50
  -3   0   2   -0.60    1.40
  -3   0   2   -2.40    1.10
   3   0  -2    0.10    1.50
  -3   0   2    2.60    1.90
   3   0  -2   -2.80    1.30
  -3   0   2   -1.80    2.20
   3   0  -2   -1.20    3.60
   3   0  -2    1.10    1.80
   2   0  -2 6901.61  135.79
   2   0  -2 6931.61  129.29
   2   0  -2 6786.12  128.79
  -2   0   2 7017.00  302.57
  -2   0   2 6672.83  135.69
  -2   0   2 7668.03  129.59
   2   0  -2 7135.39  302.77
  -2   0   2 6899.51  134.89
  -2   0   2 6937.11  128.79
   2   0  -2 6830.42  134.89
  -1   0   2    0.30    1.30
   1   0  -2   -1.00    1.00
  -1   0   2    0.70    0.70
  -1   0   2    1.00    1.20
   1   0  -2   -0.10    1.10
   1   0  -2    0.70    0.90
   1   0  -2    0.50    0.70
  -1   0   2   -0.60    0.90
   1   0  -2   -0.30    1.90
  -1   0   2   -0.30    1.00
   0   0  -2 1085.89   21.80
   0   0  -2 1089.89   21.60
   0   0  -2 1084.29   22.80
   0   0   2 1082.99   21.80
   0   0   2 1074.99   21.60
   0   0   2 1108.19   22.80
   1   0   2    0.30    0.90
  -1   0  -2   -0.10    0.90
   1   0   2    0.50    1.30
  -1   0  -2   -0.70    0.90
   1   0   2   -1.00    0.80
  -2   0  -2   56.19    3.70
   2   0   2   66.59    3.50
   2   0   2   63.09    3.70
  -2   0  -2   55.79    3.30
   3   0   2    0.70    2.00
   3   0   2   -0.40    1.30
  -3   0  -2    0.10    1.80
  -3   0  -2    5.00    4.00
  -3   0  -2    0.40    1.60
   4   0   2 1704.03   36.40
  -4   0  -2 1730.33   83.39
  -4   0  -2 1694.13   38.90
  -4   0  -2 1708.83   36.50
   4   0   2 1665.63   38.80
  -5   0  -2   -1.20    2.10
  -5   0  -2   -0.90    2.90
  -5   0  -2   -3.70    6.30
   5   0   2   -3.30    1.40
   5   0   2    0.50    2.60
  -5   0  -2   -5.10    2.40
  -6   0  -2  210.68    9.50
   6   0   2  220.68   10.60
  -6   0  -2  195.08   10.50
  -7   0  -2    0.70    2.70
  -7   0  -2    3.30    3.90
  -8   0  -2  283.37   12.90
  -8   0  -2  330.47   15.30
  -9   0  -2   -2.60    4.10
  -9   0  -2    7.40    6.10
 -10   0  -2   46.30    7.30
 -10   0  -2   34.40    7.50
 -11   0  -2   -6.70    6.20
 -11   0  -2   -4.80    4.60
 -12   0  -2   18.50    7.10
 -12   0  -2   11.80    5.10
 -13   0  -2    2.80    6.30
 -13   0  -2   -9.20    6.30
 -14   0  -2    6.40    5.50
 -14   0  -2   14.00    9.50
 -15   0  -2    6.30    5.80
 -15   0  -2    3.00    6.40
  15  -1  -2   23.70   13.70
 -15  -1   2   -1.20    8.90
 -15  -1   2    0.70    5.00
 -15   1   2    1.40    7.40
 -15   1   2    6.70    7.60
 -14  -1   2   10.20    5.90
 -14  -1   2    3.10    8.70
 -14   1   2   23.10    8.10
 -14   1   2    5.20    8.30
 -13  -1   2   -4.80    5.20
  13  -1  -2  -11.60   10.40
 -13  -1   2   -0.20    5.80
 -13   1   2    6.80    7.50
 -13   1   2    0.00    6.20
  12  -1  -2  140.79   30.60
 -12  -1   2  158.48   15.90
 -12  -1   2  121.99   11.80
  12   1  -2  131.19   10.90
 -12   1   2  130.99   13.60
 -12   1   2  147.99   13.10
 -11  -1   2   61.59    8.20
 -11  -1   2   54.99    9.10
  11  -1  -2   58.39   26.00
 -11   1   2   59.69    8.80
  11   1  -2   52.59    8.40
 -11   1   2   44.10    8.90
  10  -1  -2  254.87   35.60
 -10  -1   2  271.37   14.30
 -10  -1   2  292.07   17.30
 -10   1   2  269.17   14.80
 -10   1   2  255.07   14.00
  10   1  -2  283.37   13.60
  -9  -1   2   10.00    3.90
  -9  -1   2   25.80    6.90
   9   1  -2    7.40    4.80
  -9   1   2   12.00    4.90
  -9   1   2   11.80    4.70
  -8  -1   2   71.99    7.90
   8  -1  -2   45.20   19.80
   8  -1  -2   56.49    7.20
  -8  -1   2   61.79    7.20
   8   1  -2   62.29    6.10
  -8   1   2   64.09    5.50
  -8   1   2   62.89    7.90
  -8   1   2   61.19    7.00
  -7  -1   2   80.49    7.10
  -7  -1   2   78.89    7.00
   7  -1  -2   89.99    7.60
   7  -1  -2   74.49   18.70
  -7  -1   2   76.89    8.70
   7  -1  -2   63.59    5.10
   7   1  -2   84.69    7.10
  -7   1   2   74.09    8.10
  -7   1   2   74.59    5.40
  -7   1   2   75.39    6.80
   7   1  -2   89.49    6.50
   7   1  -2   86.29   17.10
  -6  -1   2    4.70    2.90
   6  -1  -2    8.60    3.10
  -6  -1   2   -0.90    2.20
   6  -1  -2    8.80    2.40
  -6  -1   2    3.80    2.50
   6   1  -2    4.30    3.10
   6   1  -2    2.50    6.40
  -6   1   2    7.20    2.70
   6   1  -2    2.60    2.30
  -6   1   2    1.60    5.30
  -6   1   2   13.90    4.00
  -6   1   2    2.00    2.20
   5  -1  -2   -0.20    2.00
   5  -1  -2    3.90    1.70
  -5  -1   2    1.00    2.10
  -5  -1   2    4.50    2.00
  -5  -1   2    6.50    3.00
   5  -1  -2    1.30    1.60
  -5  -1   2    5.30    2.90
   5   1  -2    0.40    2.60
  -5   1   2    2.70    1.70
  -5   1   2    2.90    5.30
   5   1  -2    0.60    2.60
  -5   1   2    1.80    2.40
  -5   1   2   -3.60    2.30
   5   1  -2    4.30    2.40
   5   1  -2   -1.40    5.90
  -5   1   2    6.90    2.40
   4  -1  -2  599.54   16.80
  -4  -1   2  607.34   16.70
  -4  -1   2  605.54   16.20
   4  -1  -2  626.24   14.90
   4  -1  -2  620.44   15.30
  -4  -1   2  611.84   18.40
   4  -1  -2  622.54   39.20
  -4  -1   2  611.24   39.10
  -4  -1   2  583.14   15.30
   4   1  -2  608.54   16.30
  -4   1   2  610.84   14.80
   4   1  -2  606.54   17.90
   4   1  -2  619.24   17.20
  -4   1   2  618.04   16.40
  -4   1   2  617.84   15.80
  -4   1   2  606.14   15.30
   4   1  -2  607.54   15.70
  -4   1   2  636.54   39.50
   3  -1  -2  418.76   11.60
  -3  -1   2  405.06   10.80
   3  -1  -2  384.26   27.60
  -3  -1   2  413.86   13.10
   3  -1  -2  390.66   10.30
   3  -1  -2  400.26   10.10
  -3  -1   2  434.76   27.30
  -3  -1   2  393.06   11.60
  -3  -1   2  397.76   11.80
   3  -1  -2  413.76   11.10
   3   1  -2  423.66   13.00
  -3   1   2  401.46   28.40
  -3   1   2  418.96   10.70
  -3   1   2  414.36   11.10
  -3   1   2  393.16   10.10
   3   1  -2  405.26   11.70
  -3   1   2  399.96   10.40
   3   1  -2  395.56   11.90
   3   1  -2  384.56   11.00
   3   1  -2  407.86   11.60
   2  -1  -2 9466.05  181.78
   2  -1  -2 9709.73  190.68
   2  -1  -2 9766.22  183.38
  -2  -1   2 9729.83  424.16
  -2  -1   2 9689.13  187.18
  -2  -1   2 9585.74  179.38
   2  -1  -2 9567.84  185.98
  -2  -1   2 9698.83  188.58
  -2  -1   2 9637.94  178.68
   2  -1  -2 9291.57  421.46
   2   1  -2 9999.00  188.58
   2   1  -2 9867.21  179.48
   2   1  -2 9830.62  185.88
   2   1  -2 9773.42  178.88
  -2   1   2 9650.54  183.78
   2   1  -2 9563.84  187.08
  -2   1   2 9885.51  192.98
  -2   1   2 9793.82  185.38
   1  -1  -2 1004.10   18.90
  -1  -1   2  998.00   21.30
   1  -1  -2  986.00   19.00
  -1  -1   2  986.00   20.80
  -1  -1   2 1028.00   47.40
  -1  -1   2  990.50   22.10
  -1  -1   2 1016.10   23.40
   1  -1  -2  996.30   20.40
  -1   1   2 1014.90   22.30
  -1   1   2  952.00   19.00
  -1   1   2 1009.80   19.20
   1   1  -2  985.20   21.30
   1   1  -2 1011.00   21.00
   1   1  -2 1010.90   22.10
   1   1  -2  963.70   22.40
   0  -1  -2  267.07    6.00
   0  -1   2  242.48    7.50
   0  -1  -2  248.48    5.30
   0  -1   2  244.88    7.40
   0  -1   2  250.77    7.10
   0   1  -2  249.68    7.50
   0   1   2  248.58    5.60
   0   1   2  243.58    8.10
   0   1  -2  251.17    7.60
   0   1   2  243.08    5.50
   0   1  -2  253.67    7.20
  -1  -1  -2  283.47    7.70
  -1  -1  -2  284.47    6.80
   1  -1   2  280.97    7.90
   1  -1   2  291.47   14.50
   1  -1   2  271.47    8.50
  -1  -1  -2  277.67    6.80
   1  -1   2  295.97    8.40
  -1   1  -2  273.87    8.10
  -1   1  -2  285.77    8.10
   1   1   2  284.87    7.40
  -1   1  -2  265.17    8.40
   2  -1   2 1074.89   23.30
  -2  -1  -2 1110.19   24.20
  -2  -1  -2 1098.09   22.10
   2  -1   2  902.01   49.20
   2  -1   2 1096.79   23.20
  -2  -1  -2 1070.29   22.30
   2  -1   2 1085.89   24.60
   2   1   2 1070.99   23.80
  -2   1  -2 1049.59   24.40
  -2   1  -2 1059.09   23.10
   2   1   2 1065.09   22.40
  -2   1  -2 1092.29   49.90
  -3  -1  -2   -0.90    1.50
  -3  -1  -2   -1.00    1.90
  -3  -1  -2   -2.80    1.40
   3  -1   2   -1.80    1.00
   3  -1   2   -1.80    3.80
   3  -1   2    0.50    1.70
   3   1   2    1.60    1.80
  -3   1  -2   -1.10    2.00
  -3   1  -2   -1.80    1.60
  -3   1  -2    0.40    2.50
   3   1   2   -0.40    1.70
   4  -1   2  151.58    7.00
  -4  -1  -2  146.69    6.20
  -4  -1  -2  152.28    6.90
   4  -1   2  141.29    7.70
  -4  -1  -2  138.79    7.90
  -4   1  -2  147.09    7.30
  -4   1  -2  141.69   14.40
   4   1   2  140.39    6.70
   4   1   2  144.79    7.50
  -4   1  -2  156.58    8.10
   5  -1   2  327.97   12.70
  -5  -1  -2  316.47   11.10
  -5  -1  -2  295.77   12.30
   5  -1   2  333.97   25.20
   5   1   2  317.67   11.20
  -5   1  -2  326.37   24.90
  -5   1  -2  333.97   11.90
  -5   1  -2  319.07   12.60
  -6  -1  -2   56.99    5.10
   6  -1   2   64.29    5.90
  -6  -1  -2   50.39    6.80
   6  -1   2   73.19   13.70
  -6   1  -2   77.29    6.10
  -6   1  -2   58.39   13.30
   6   1   2   62.29    6.00
  -6   1  -2   60.39    6.20
  -6   1  -2   66.19    6.50
  -7  -1  -2  166.58   10.50
   7  -1   2  214.58   23.00
  -7  -1  -2  175.88    9.30
   7   1   2  192.28   10.00
  -7   1  -2  184.08   10.50
  -7   1  -2  168.18    9.40
   8  -1   2  115.99   20.70
  -8  -1  -2   89.89    8.10
  -8  -1  -2  137.89   11.00
  -8   1  -2  104.49    8.90
  -8   1  -2   96.29    9.50
  -9  -1  -2   66.39    7.20
  -9  -1  -2   91.99    9.60
   9  -1   2   99.79   21.20
  -9   1  -2   74.99    8.70
  -9   1  -2   70.99    9.40
 -10  -1  -2    5.40    5.40
 -10  -1  -2   -4.40    4.20
 -10   1  -2    3.30    6.00
 -10   1  -2    3.00    5.40
 -11  -1  -2   20.00    8.20
 -11  -1  -2   14.80    5.10
 -11   1  -2   16.60    7.40
 -11   1  -2   17.10    5.70
 -12  -1  -2    5.20    7.50
 -12  -1  -2   -1.20    5.00
 -12   1  -2   -6.60    5.70
 -12   1  -2    5.30    5.80
 -13  -1  -2    5.70    8.60
 -13  -1  -2   -4.30    5.10
 -13   1  -2    9.60    7.90
 -13   1  -2   -3.70    4.40
 -14  -1  -2   11.30    6.60
 -14  -1  -2   18.50    9.60
 -14   1  -2    5.00    6.30
 -14   1  -2    6.50    7.50
 -15  -1  -2   10.20    8.70
 -15   1  -2   14.70    9.20
 -14  -2   2    3.40    9.40
 -14   2   2   18.80    8.30
 -13  -2   2   -6.90    3.70
 -13  -2   2   -1.90    7.40
  13  -2  -2  -33.70   18.60
 -13   2   2    6.20    6.40
 -12  -2   2   -4.90    7.40
 -12  -2   2   -6.20    4.60
  12  -2  -2  -34.10   19.00
  12   2  -2    2.10    4.20
 -12   2   2    3.70    4.50
 -11  -2   2    4.30    7.10
 -11  -2   2    6.20    5.00
  11  -2  -2  -18.30   22.60
  11   2  -2    1.30    5.50
 -11   2   2   -0.60    5.00
 -11   2   2    0.80    4.80
 -10  -2   2   10.50    5.90
 -10  -2   2   24.10    5.40
 -10   2   2   16.70    5.80
 -10   2   2   14.30    5.40
  10   2  -2    1.10    3.50
  -9  -2   2   12.80    7.10
  -8  -2   2   -3.30    5.00
   8  -2  -2   -4.00   15.60
   8  -2  -2   -0.50    3.20
  -8  -2   2   11.20    4.30
  -8   2   2    0.80    3.70
  -8   2   2    4.40    3.10
  -8   2   2    3.90    3.80
   8   2  -2   -1.40    3.90
  -7  -2   2   30.20    5.90
  -7  -2   2   23.50    4.70
  -7  -2   2   25.40    4.80
   7  -2  -2   26.00    4.80
   7   2  -2   20.20    4.30
   7   2  -2   21.60    4.90
  -7   2   2   23.80    4.20
  -7   2   2   33.00    5.30
  -7   2   2   28.50    4.90
   6  -2  -2    3.00    7.50
   6  -2  -2    2.90    2.70
  -6  -2   2    2.10    2.40
  -6  -2   2    1.80    2.80
  -6  -2   2    5.50    4.00
   6   2  -2   -1.10    2.90
  -6   2   2    4.30    2.60
  -6   2   2    3.90    3.10
   6   2  -2    0.00    2.90
  -6   2   2    1.20    2.50
  -5  -2   2   23.60    4.10
  -5  -2   2   28.00    4.40
   5  -2  -2   19.70    9.50
   5  -2  -2   31.00    4.10
  -5  -2   2   21.80    5.20
  -5   2   2   24.50    3.70
  -5   2   2   31.30    3.50
  -5   2   2   27.80    3.40
   5   2  -2   27.90    4.60
  -5   2   2   29.50    3.70
   5   2  -2   19.10    3.90
  -4  -2   2  324.37   11.40
  -4  -2   2  322.47   11.10
  -4  -2   2  321.47   26.50
   4  -2  -2  319.77   10.60
   4  -2  -2  313.07    9.20
  -4  -2   2  286.37   12.60
   4  -2  -2  305.47   27.90
  -4   2   2  290.77    8.90
   4   2  -2  312.07   11.20
   4   2  -2  324.17   10.90
  -4   2   2  302.37    8.70
   4   2  -2  324.57   12.90
  -4   2   2  323.07    8.80
  -4   2   2  310.87    9.50
  -3  -2   2  802.02   20.50
   3  -2  -2  780.52   50.39
   3  -2  -2  790.22   18.90
   3  -2  -2  784.72   16.80
  -3  -2   2  765.32   22.00
  -3  -2   2  793.32   19.60
  -3  -2   2  836.62   47.20
  -3   2   2  789.92   16.90
   3   2  -2  788.92   19.80
   3   2  -2  792.22   19.20
  -3   2   2  816.02   17.20
   3   2  -2  804.12   22.60
  -3   2   2  796.12   22.00
   3   2  -2  791.32   20.10
   3   2  -2  811.82   21.30
   2  -2  -2   78.69   14.80
   2  -2  -2   90.49    3.60
  -2  -2   2   88.99    4.80
  -2  -2   2   80.69    5.90
  -2  -2   2   91.39    5.20
  -2  -2   2   95.89    4.60
  -2   2   2   95.29    6.70
   2   2  -2   97.49    7.10
  -2   2   2   90.69    2.70
   2   2  -2   93.49    5.10
   2   2  -2   96.09    5.50
  -2   2   2   88.69    2.70
   2   2  -2   96.59    5.20
  -1  -2   2   36.00    3.30
  -1  -2   2   39.30    3.10
  -1  -2   2   41.50    3.60
  -1  -2   2   40.90    4.70
  -1   2   2   40.30    4.90
   1   2  -2   35.60    3.70
   1   2  -2   39.20    5.40
   1   2  -2   37.70    3.80
   0  -2   2    2.40    1.70
   0  -2   2    0.60    1.50
   0  -2   2    2.30    2.20
   0  -2   2    2.00    1.50
   0  -2  -2    3.50    0.50
   0  -2  -2    4.20    0.70
   0   2   2    3.40    2.50
   0   2  -2    3.10    2.20
   0   2  -2    5.50    2.20
   0   2  -2    5.10    2.80
   1  -2   2    6.10    2.10
   1  -2   2    4.70    1.80
  -1  -2  -2    6.40    0.60
  -1  -2  -2    6.70    1.20
  -1  -2  -2    6.40    0.50
  -1  -2  -2    7.10    1.40
   1  -2   2    5.00    1.70
   1  -2   2    5.30    3.80
  -1   2  -2    4.50    2.20
   1   2   2    2.30    3.20
  -1   2  -2    2.80    1.70
   1   2   2    4.00    1.10
   2  -2   2    1.60    1.70
  -2  -2  -2    0.20    0.90
   2  -2   2    0.20    2.60
   2  -2   2   -0.30    1.50
  -2  -2  -2   -0.70    1.30
  -2  -2  -2    1.30    1.00
   2  -2   2    3.10    1.90
   2   2   2    0.80    1.40
  -2   2  -2   -0.10    2.10
   2   2   2   -0.80    2.10
  -2   2  -2    1.80    1.80
   2   2   2    1.80    0.80
   3  -2   2    7.40    2.30
   3  -2   2    8.50    2.50
  -3  -2  -2    5.40    1.60
  -3  -2  -2    6.70    1.70
   3  -2   2    5.00    4.00
  -3  -2  -2    5.90    2.50
  -3   2  -2    5.80    2.70
   3   2   2    7.10    2.60
   3   2   2   10.10    2.50
  -3   2  -2    6.50    2.60
   4  -2   2   51.69   13.20
  -4  -2  -2   67.59    4.40
   4  -2   2   69.29    5.60
   4  -2   2   56.09    4.70
  -4  -2  -2   74.99    5.90
  -4   2  -2   67.69    5.50
   4   2   2   65.89    4.80
  -4   2  -2   76.69    5.80
  -5  -2  -2   78.29    5.80
  -5  -2  -2   79.19    6.90
  -5  -2  -2   78.39    5.40
   5  -2   2   71.59    6.10
   5  -2   2   76.39    5.70
   5  -2   2   59.19   14.40
  -5   2  -2   79.59    6.20
   5   2   2   70.59    5.50
  -5   2  -2   88.29    7.00
   6  -2   2   12.30    3.80
  -6  -2  -2   10.60    3.20
  -6  -2  -2   22.50    4.00
  -6  -2  -2   13.10    4.50
  -6   2  -2   18.40    3.70
   6   2   2   16.40    4.00
  -6   2  -2   13.30    4.00
  -6   2  -2   16.80    4.30
  -6   2  -2   15.80    7.60
  -7  -2  -2  317.77   15.30
  -7  -2  -2  315.57   12.80
  -7  -2  -2  310.77   13.60
   7  -2   2  290.67   29.60
   7  -2   2  288.57   14.20
   7   2   2  300.77   12.80
  -7   2  -2  307.37   13.80
  -7   2  -2  300.47   12.30
  -7   2  -2  303.37   13.20
   8  -2   2    9.00   11.10
  -8  -2  -2   10.10    3.60
  -8  -2  -2   13.80    5.10
  -8   2  -2   13.10    5.50
  -8   2  -2   10.80    4.00
   8   2   2    7.80    4.20
  -9  -2  -2    7.30    4.40
  -9  -2  -2   -3.30    5.10
  -9   2  -2   -0.10    4.70
  -9   2  -2    2.80    4.80
 -10  -2  -2   -2.00    2.90
  10  -2   2    7.30    9.40
 -10  -2  -2    2.50    6.20
 -10   2  -2    0.70    5.10
 -10   2  -2    3.40    5.10
 -11  -2  -2    6.80    5.00
  11  -2   2   22.60   11.10
 -11  -2  -2    4.50    7.20
 -11   2  -2   10.10    5.70
 -11   2  -2    1.10    5.40
 -12  -2  -2    7.00    5.60
 -12  -2  -2    9.90    7.90
 -12   2  -2   -6.40    5.40
 -13  -2  -2   13.00    8.80
 -13   2  -2   16.40    7.50
 -14  -2  -2    2.00    8.80
 -12  -3   2   -2.10    7.30
 -12   3   2   -0.50    4.60
 -11  -3   2    8.30    7.30
  11  -3  -2   11.70   38.90
  11   3  -2   12.20    6.20
 -11   3   2   19.30    6.00
 -10  -3   2    8.90    7.00
  10  -3  -2  -41.50   26.80
 -10   3   2   13.40    5.10
  10   3  -2    0.90    5.20
  -9  -3   2   -1.10    5.50
   9  -3  -2  -41.60   21.10
  -9   3   2    6.20    4.50
   9   3  -2   -1.60    4.40
  -8  -3   2   12.60    6.20
   8  -3  -2   10.70   14.60
  -8   3   2   10.30    4.40
   8   3  -2   10.20    4.90
   7  -3  -2   20.60   11.10
  -7  -3   2   11.70    5.60
   7   3  -2   23.60    5.30
  -7   3   2   20.70    4.30
  -6  -3   2   52.49    6.30
   6  -3  -2   49.60   15.80
  -6  -3   2   55.59    8.10
  -6   3   2   45.40    7.70
  -6   3   2   59.49    5.40
   6   3  -2   55.09    6.60
   5  -3  -2   -6.40    7.50
  -5  -3   2    1.10    3.70
  -5  -3   2   -2.00    2.30
  -5   3   2   -0.60    1.90
  -5   3   2   -1.10    3.10
   5   3  -2    2.30    3.40
  -5   3   2    0.90    2.10
   5   3  -2   -2.80    4.50
  -4  -3   2  258.27   10.00
   4  -3  -2  263.47   28.90
   4  -3  -2  249.88    9.30
  -4  -3   2  267.17   12.60
  -4  -3   2  248.38   10.70
  -4   3   2  250.87   13.80
  -4   3   2  263.87    7.20
   4   3  -2  261.27   10.60
   4   3  -2  269.07   13.90
  -4   3   2  257.57    7.30
   4   3  -2  275.27   10.40
  -3  -3   2   33.60    4.00
  -3  -3   2   33.60    4.10
  -3  -3   2   35.30    5.50
   3  -3  -2   36.60    3.00
   3  -3  -2   34.70   12.60
  -3   3   2   29.80    6.40
   3   3  -2   29.60    6.00
   3   3  -2   27.60    4.00
   3   3  -2   36.10    4.50
  -2  -3   2  110.79    5.70
   2  -3  -2  101.29    3.40
  -2  -3   2  107.19    6.00
  -2  -3   2  119.19    8.10
   2  -3  -2  102.19   19.30
   2   3  -2  109.29    5.80
  -2   3   2  115.09    8.90
   2   3  -2  120.79   10.20
   2   3  -2   96.89    5.90
  -1  -3   2   21.00    2.90
  -1  -3   2   19.30    4.10
  -1  -3   2   23.80    3.40
  -1   3   2   17.70    5.70
   1   3  -2   24.60    5.40
   1   3  -2   28.60    3.50
   0  -3   2    9.70    2.30
   0  -3   2   10.00    3.50
   0  -3   2   10.50    2.60
   0   3   2   17.90    5.60
   0   3  -2   15.90    5.50
   0   3  -2   10.40    2.60
  -1  -3  -2    7.30    1.20
   1  -3   2    6.50    2.40
  -1  -3  -2    6.60    1.40
   1  -3   2    5.70    2.00
   1  -3   2   10.70    5.80
   1  -3   2    6.40    3.30
   1   3   2    2.90    4.00
  -1   3  -2    7.50    1.20
  -1   3  -2   13.30    2.80
  -1   3  -2    7.40    4.20
   2  -3   2    9.80    5.60
  -2  -3  -2   -0.30    1.70
   2  -3   2    4.20    2.10
  -2  -3  -2    2.30    1.40
   2  -3   2    2.20    2.00
  -2   3  -2    1.00    2.20
   2   3   2    2.60    1.20
  -2   3  -2    2.60    1.50
   2   3   2    2.20    4.70
  -2   3  -2    4.90    5.00
  -3  -3  -2    3.90    1.10
   3  -3   2    3.30    2.40
   3  -3   2    6.80    2.50
  -3  -3  -2    0.70    2.30
   3  -3   2   11.70    5.90
  -3  -3  -2    6.00    2.10
  -3   3  -2    4.60    2.00
   3   3   2    5.20    2.10
  -3   3  -2    7.80    3.00
  -4  -3  -2   19.80    4.00
   4  -3   2   14.80    8.90
   4  -3   2   23.00    3.80
  -4   3  -2   26.00    4.30
  -4   3  -2   18.90    3.00
  -5  -3  -2    4.70    3.80
  -5   3  -2   -1.00    3.10
  -6  -3  -2  109.59    9.60
  -6   3  -2   88.59    8.00
  -7  -3  -2   99.69    9.80
  -7   3  -2   97.59    9.00
   8  -3   2  -17.40   15.10
  -8  -3  -2    9.30    5.70
  -8   3  -2    5.60    4.50
  -9  -3  -2   42.30    8.80
  -9   3  -2   30.00    6.50
 -10  -3  -2    2.00    6.40
 -10   3  -2    1.30    5.20
 -11  -3  -2    7.20    6.90
 -11   3  -2   -9.80    5.00
 -12  -3  -2    3.80    7.80
 -12   3  -2    7.80    7.00
  -9  -4   2    1.40    5.60
  -9   4   2   -0.70    6.20
  -8  -4   2    0.80    5.70
  -8   4   2    4.40    6.30
  -7  -4   2    5.00    5.80
   7   4  -2    1.10    4.10
  -7   4   2   -2.50    6.00
  -6  -4   2    9.40    5.80
   6  -4  -2   20.20   13.90
   6   4  -2    7.90    4.40
  -6   4   2    5.00    6.30
  -5  -4   2    6.20    4.90
   5   4  -2    2.80    5.40
   5   4  -2    2.50    3.40
  -5   4   2   -0.80    6.10
  -4   4   2    4.90    4.80
   4   4  -2   -0.60    3.80
  -3   4   2   -4.20    5.30
  -2  -4   2   14.70    3.80
  -2   4   2   13.90    5.90
   2   4  -2   17.70    2.90
   2   4  -2   17.10    5.80
   1   4  -2    1.40    3.80
  -1   4   2    0.90    4.50
   0  -4   2   15.60    3.60
   0   4   2    1.50    6.90
   0   4  -2   13.70    2.40
   0   4  -2   16.70    5.80
   1  -4   2    3.90    2.80
  -1   4  -2    2.50    2.10
  -1   4  -2   -6.40    3.50
   1   4   2   10.30    7.00
   2  -4   2    3.80    2.90
  -2   4  -2    3.60    6.60
   2   4   2   -7.70    5.90
  -2   4  -2    1.10    2.10
   3  -4   2    2.50    3.20
  -3  -4  -2   -0.10    1.80
  -3   4  -2   -2.00    4.40
  -3   4  -2    6.10    2.60
  -4  -4  -2   25.00    4.00
  -4   4  -2   27.90    8.70
  -4   4  -2   16.80    3.60
  -5  -4  -2  100.99    7.90
  -5   4  -2   85.19   12.30
  -5   4  -2   90.29    7.10
  -6  -4  -2   14.10    5.00
  -6   4  -2    7.20    5.90
  -6   4  -2   10.60    4.30
  -7  -4  -2   13.50    5.70
  -7   4  -2   13.00    4.90
  -8  -4  -2   10.00    6.40
  -8   4  -2    0.30    4.50
 -16   0   3   14.90   10.40
 -16   0   3   -4.30    5.70
 -15   0   3    1.90    8.60
 -15   0   3   -1.20    7.00
  15   0  -3    8.60   16.80
 -14   0   3   -4.70    5.50
  14   0  -3   14.60   17.60
 -14   0   3    0.90    6.60
 -13   0   3   35.60    7.40
  13   0  -3   38.10   20.30
 -13   0   3   35.10    9.90
 -12   0   3    9.30    6.40
  12   0  -3    0.90    3.60
  12   0  -3   -3.70   11.80
 -12   0   3   10.00    7.50
  11   0  -3    6.60    5.00
 -11   0   3    4.90    4.30
  11   0  -3  -13.10   16.20
 -11   0   3   12.70    5.90
 -10   0   3    1.00    5.50
 -10   0   3    6.20    5.10
  10   0  -3   -9.20   12.70
  10   0  -3    3.70    3.30
  -9   0   3  147.29   10.80
  -9   0   3  134.69    9.20
   9   0  -3  160.38   25.70
   9   0  -3  146.19    8.90
  -8   0   3    1.50    3.80
   8   0  -3   -2.80    9.90
  -8   0   3    0.20    2.80
   8   0  -3   -3.10    3.30
  -7   0   3   47.10    5.60
   7   0  -3   48.60    4.90
  -7   0   3   46.30    6.40
  -6   0   3   -2.30    3.80
   6   0  -3    3.70    2.30
  -6   0   3    1.40    3.90
   6   0  -3    3.10   11.20
  -6   0   3   -1.20    3.10
  -6   0   3   -2.10    2.30
   6   0  -3    1.40    2.00
   6   0  -3    3.10    2.70
   6   0  -3   -1.00    2.00
  -6   0   3    2.40    2.70
  -5   0   3 2052.39   43.80
   5   0  -3 2065.49   47.10
   5   0  -3 2069.99   43.70
  -5   0   3 2210.68  104.09
   5   0  -3 1998.00   42.60
  -5   0   3 2045.40   45.20
  -5   0   3 2034.10   42.60
   5   0  -3 2017.70   45.50
  -5   0   3 1982.50   46.80
  -4   0   3   -2.80    1.90
  -4   0   3   -0.90    2.70
  -4   0   3    1.50    2.10
   4   0  -3    3.40    2.00
   4   0  -3    1.20    1.60
   4   0  -3    2.50    1.70
  -4   0   3    3.40    4.60
   4   0  -3    2.00    4.80
  -4   0   3    0.30    2.40
   4   0  -3    0.20    1.70
  -3   0   3    9.40    3.10
  -3   0   3    6.30    1.70
   3   0  -3    5.30    2.00
  -3   0   3    5.00    1.70
   3   0  -3    5.60    2.30
  -3   0   3    5.20    4.40
   3   0  -3    7.30    5.30
   3   0  -3    5.30    1.80
   3   0  -3    2.10    1.90
  -3   0   3    5.10    1.90
   2   0  -3   -0.90    1.20
   2   0  -3   -1.40    1.80
   2   0  -3    0.40    1.50
  -2   0   3    1.10    1.60
  -2   0   3   -0.20    1.30
  -2   0   3    0.80    2.40
   2   0  -3   -0.20    1.80
  -2   0   3   -0.20    1.50
   2   0  -3    0.40    3.60
  -2   0   3   -1.60    1.00
  -1   0   3 1549.84   32.70
  -1   0   3 1543.05   73.19
   1   0  -3 1532.15   73.19
  -1   0   3 1572.74   33.80
  -1   0   3 1574.44   31.10
   1   0  -3 1593.44   31.10
  -1   0   3 1596.54   31.70
   1   0  -3 1548.45   33.60
   1   0  -3 1561.24   32.90
   1   0  -3 1598.64   31.60
   0   0  -3   -0.50    1.10
   0   0   3   -1.30    0.90
   0   0  -3   -0.20    1.10
   0   0   3    0.50    1.60
   0   0   3   -0.90    1.30
   0   0  -3    0.80    1.10
   1   0   3 2270.57   44.70
  -1   0  -3 2219.68   47.10
  -1   0  -3 2289.67   44.90
  -1   0  -3 2355.46   44.90
   1   0   3 2305.97   47.20
   1   0   3 2283.67   45.00
   2   0   3   -0.60    1.30
  -2   0  -3   -0.10    1.60
  -2   0  -3    0.70    1.50
   2   0   3   -2.00    1.00
   3   0   3 2093.09   45.30
  -3   0  -3 2024.20   42.40
  -3   0  -3 2035.20   45.10
   3   0   3 2107.19   42.60
   4   0   3   -1.30    2.30
  -4   0  -3    1.50    4.10
   4   0   3    0.10    1.60
  -4   0  -3    1.50    2.60
  -4   0  -3   -0.40    2.30
  -5   0  -3 4625.34  205.98
  -5   0  -3 4424.46   89.09
  -5   0  -3 4428.16   94.29
   5   0   3 4480.95   89.09
   5   0   3 4586.44   94.69
  -6   0  -3   -0.40    3.20
  -6   0  -3   -2.00    2.60
  -7   0  -3   18.80    4.00
  -7   0  -3   26.00    5.20
  -8   0  -3   -3.00    2.40
  -8   0  -3   -2.00    4.40
  -9   0  -3    9.70    4.20
  -9   0  -3    2.80    4.10
 -10   0  -3    4.30    4.80
 -10   0  -3   -2.90    3.20
 -11   0  -3   25.40    8.60
 -11   0  -3   32.80    7.60
 -12   0  -3   -1.40    4.00
 -12   0  -3   -1.00    5.20
 -13   0  -3   14.10    7.10
 -13   0  -3    7.10    8.20
 -14   0  -3   -6.00    4.80
 -14   0  -3    0.00    4.50
 -15   0  -3   14.10    8.20
 -15   0  -3    9.00    8.00
 -15  -1   3    1.30    6.60
 -15  -1   3    0.30    6.30
  15  -1  -3   49.99   19.00
 -15   1   3    7.50    5.80
 -15   1   3    0.40    5.80
  14  -1  -3   -9.60   15.40
 -14  -1   3   12.70    6.20
 -14  -1   3    7.60    9.30
 -14   1   3    5.70    6.00
 -14   1   3   22.00    8.00
  13  -1  -3  -16.30   18.10
 -13  -1   3   -0.20    5.50
 -13  -1   3    3.50    4.70
 -13   1   3   10.80    5.90
 -13   1   3    7.40    6.80
  13   1  -3    2.30    6.30
 -12  -1   3  216.18   17.60
 -12  -1   3  217.48   14.50
  12  -1  -3  183.18   38.10
  12   1  -3  203.48   13.10
 -12   1   3  205.48   14.50
 -12   1   3  206.08   14.60
 -11  -1   3    5.70    4.00
 -11  -1   3    2.70    4.90
  11  -1  -3    4.90   25.00
  11   1  -3    8.50    5.60
 -11   1   3    3.20    5.30
 -11   1   3    5.50    6.00
 -10  -1   3   46.50    6.90
 -10  -1   3   33.90    7.50
  10  -1  -3   49.20   21.60
  10   1  -3   46.50   17.20
  10   1  -3   45.50    6.70
 -10   1   3   44.90    6.90
 -10   1   3   47.30    8.50
  -9  -1   3   19.70    6.90
   9  -1  -3    2.50    3.50
  -9  -1   3   18.40    5.40
   9   1  -3    7.70   11.70
  -9   1   3   11.90    5.10
  -9   1   3    3.70    5.20
   9   1  -3   11.50    4.20
  -8  -1   3   -0.70    3.40
  -8  -1   3    2.10    3.80
   8  -1  -3    0.80   15.90
   8  -1  -3   -2.20    3.40
   8  -1  -3   -4.60    2.60
   8   1  -3    1.40   10.80
  -8   1   3   -0.50    3.50
   8   1  -3    1.50    2.90
  -8   1   3   -2.40    2.60
  -8   1   3   -0.60    4.00
  -7  -1   3  102.89    7.40
  -7  -1   3  109.79    9.90
   7  -1  -3  112.49    8.40
   7  -1  -3  106.19    6.70
   7  -1  -3  100.79   23.00
  -7   1   3   98.69    8.80
  -7   1   3  110.89    7.70
  -7   1   3  111.69    6.90
   7   1  -3  107.79    7.70
   7   1  -3  111.89   18.90
   6  -1  -3  209.98    8.60
   6  -1  -3  262.77   27.50
  -6  -1   3  202.68   11.00
  -6  -1   3  190.28    9.70
  -6  -1   3  198.98    9.70
   6  -1  -3  217.58   10.40
   6   1  -3  197.38    9.80
   6   1  -3  197.58    8.90
  -6   1   3  202.18   10.00
  -6   1   3  203.68    8.80
   6   1  -3  197.08    9.30
   6   1  -3  208.58   25.00
  -6   1   3  204.88    8.40
   5  -1  -3   35.90    4.50
   5  -1  -3   32.20    3.60
  -5  -1   3   38.60    4.10
  -5  -1   3   80.59   20.10
  -5  -1   3   28.90    4.50
   5  -1  -3   22.20    9.60
   5  -1  -3   34.80    4.30
   5  -1  -3   31.60    3.80
  -5  -1   3   25.30    5.40
  -5  -1   3   31.00    4.10
  -5   1   3   27.60    3.50
   5   1  -3   37.60   10.30
   5   1  -3   28.80    4.30
  -5   1   3   31.70    3.80
   5   1  -3   32.60    4.30
  -5   1   3   35.50    4.30
   5   1  -3   33.20    4.70
  -5   1   3   35.00    4.60
   5   1  -3   32.30    4.70
  -5   1   3   40.40   10.20
  -4  -1   3  110.69    7.10
  -4  -1   3  108.49    5.90
   4  -1  -3  114.49    5.40
   4  -1  -3  113.39    5.10
   4  -1  -3  103.69    5.70
   4  -1  -3  105.09    6.10
  -4  -1   3  115.89    5.80
  -4  -1   3  106.89    6.40
   4  -1  -3  111.69   15.70
  -4  -1   3   82.59   16.30
  -4   1   3   98.99    5.20
  -4   1   3  100.59    5.50
   4   1  -3  105.79    5.40
  -4   1   3   94.49    6.10
   4   1  -3  109.79   14.00
   4   1  -3  114.39    6.60
  -4   1   3  106.09   15.40
  -4   1   3  104.29    5.10
   4   1  -3  106.89    6.70
   4   1  -3  111.49    6.20
   4   1  -3  110.79    6.90
   3  -1  -3  489.35   12.70
  -3  -1   3  480.45   15.40
  -3  -1   3  502.05   12.90
  -3  -1   3  490.85   13.70
   3  -1  -3  502.55   12.30
  -3  -1   3  408.66   30.40
   3  -1  -3  487.15   33.30
   3  -1  -3  486.75   13.50
   3  -1  -3  485.25   11.70
  -3  -1   3  492.65   14.00
   3   1  -3  494.75   15.40
  -3   1   3  490.25   11.80
   3   1  -3  500.25   14.30
  -3   1   3  499.55   33.80
  -3   1   3  484.85   12.20
   3   1  -3  495.15   13.10
   3   1  -3  491.05   13.60
   3   1  -3  526.05   30.90
  -3   1   3  464.05   12.80
  -3   1   3  495.15   12.40
   3   1  -3  483.65   13.10
   2  -1  -3   80.79    4.20
  -2  -1   3   88.49    4.70
   2  -1  -3   87.19    3.80
   2  -1  -3   80.39   12.90
  -2  -1   3   63.59   10.90
  -2  -1   3   90.79    6.00
   2  -1  -3   80.89    3.80
  -2  -1   3   88.19    4.20
   2  -1  -3   86.69    3.40
  -2  -1   3   93.59    5.10
  -2   1   3   85.59    3.50
   2   1  -3   86.69    5.20
  -2   1   3   88.39    3.60
  -2   1   3   82.99    3.90
   2   1  -3   93.09    5.10
   2   1  -3   92.39    5.70
  -2   1   3   93.79    4.40
   2   1  -3  102.49   10.60
   2   1  -3   81.99    4.30
   2   1  -3   92.39    4.80
  -1  -1   3  201.68    7.10
   1  -1  -3  201.98    5.80
   1  -1  -3  195.48    5.40
  -1  -1   3  197.68    8.30
   1  -1  -3  195.58    6.20
  -1  -1   3  201.68    6.70
   1  -1  -3  195.38    5.10
  -1  -1   3  228.88    7.40
  -1   1   3  189.38    5.50
  -1   1   3  207.38    5.70
  -1   1   3  205.88    5.30
   1   1  -3  203.28    7.00
   1   1  -3  192.58    7.20
   1   1  -3  195.98    7.40
  -1   1   3  202.28    6.80
   0  -1   3    1.90    1.80
   0  -1  -3    1.20    1.20
   0  -1  -3    1.70    1.10
   0  -1   3   -0.70    1.90
   0  -1   3   -0.80    1.60
   0  -1   3    2.40    1.00
   0   1   3    0.30    0.60
   0   1   3    0.60    1.10
   0   1   3    1.90    1.10
   0   1  -3    2.10    1.50
   0   1  -3    1.00    2.00
   0   1   3    2.40    1.40
   0   1  -3    0.10    2.00
   1  -1   3   42.30    3.30
   1  -1   3   41.60    3.40
   1  -1   3   33.10    3.60
  -1  -1  -3   34.60    2.50
  -1  -1  -3   38.40    3.00
  -1   1  -3   28.70    3.20
  -1   1  -3   34.60    3.60
   1   1   3   42.00    2.90
  -1   1  -3   34.70    3.30
   1   1   3   35.10    2.70
   1   1   3   36.20    2.90
  -2  -1  -3  611.64   15.70
  -2  -1  -3  582.74   14.10
   2  -1   3  605.24   16.40
   2  -1   3  601.34   15.50
   2  -1   3  584.14   15.10
  -2   1  -3  598.84   16.40
  -2   1  -3  616.74   29.10
   2   1   3  598.04   14.40
  -2   1  -3  588.54   15.20
   2   1   3  604.74   15.40
   3  -1   3  492.15   14.90
  -3  -1  -3  474.35   12.50
  -3  -1  -3  489.15   14.50
   3  -1   3  482.85   13.90
  -3  -1  -3  406.26   12.40
   3  -1   3  481.65   13.50
  -3   1  -3  481.35   13.70
   3   1   3  486.15   14.10
   3   1   3  462.15   12.80
  -3   1  -3  494.45   26.80
  -3   1  -3  473.25   14.60
   4  -1   3  117.89    6.90
  -4  -1  -3  110.99    7.30
   4  -1   3  107.39   12.70
  -4  -1  -3  116.49    5.60
  -4  -1  -3  121.49    6.30
   4  -1   3  117.69    7.20
   4   1   3  126.19    6.50
   4   1   3  123.09    7.00
  -4   1  -3  103.69   13.10
  -4   1  -3   98.89    7.20
  -4   1  -3  107.89    6.70
  -5  -1  -3  214.48    8.90
   5  -1   3  218.08   19.80
  -5  -1  -3  203.08   10.10
   5  -1   3  203.88   10.40
  -5   1  -3  201.88    9.90
  -5   1  -3  204.48    9.60
  -5   1  -3  206.18   19.30
   5   1   3  208.28    9.10
  -6  -1  -3  111.79    8.30
  -6  -1  -3  113.09    7.50
   6  -1   3  137.59   16.80
   6  -1   3  118.79    8.70
   6   1   3  131.79    7.90
  -6   1  -3  120.39    8.30
  -6   1  -3  129.29    9.60
  -6   1  -3  104.49   16.40
  -7  -1  -3  160.78    9.40
  -7  -1  -3  144.19   10.00
  -7   1  -3  168.88   10.10
  -7   1  -3  162.08   10.90
  -8  -1  -3    6.90    5.50
  -8  -1  -3    4.50    4.10
  -8   1  -3   19.00    5.20
  -8   1  -3    6.80    3.60
  -9  -1  -3    2.70    4.30
  -9  -1  -3   -0.70    5.60
  -9   1  -3    0.80    3.60
  -9   1  -3    0.00    5.40
 -10  -1  -3    0.80    3.00
 -10  -1  -3   -7.50    5.30
 -10   1  -3   -4.40    4.90
 -10   1  -3    2.30    4.10
 -11  -1  -3   -2.90    4.80
 -11  -1  -3    1.80    5.40
 -11   1  -3   -3.60    6.10
 -11   1  -3   -7.50    3.60
 -12  -1  -3   10.00    4.80
 -12  -1  -3    1.00    7.10
 -12   1  -3    0.30    6.80
 -12   1  -3   -2.50    5.70
 -13  -1  -3    9.30    6.60
 -13  -1  -3   11.50    8.80
 -13   1  -3    5.70    5.80
 -13   1  -3    6.70    7.00
 -14  -1  -3    0.50    4.70
 -14  -1  -3    7.70    6.70
 -14   1  -3    6.50    7.90
 -14   1  -3    4.30    5.50
 -14  -2   3  111.89   13.60
  14  -2  -3  171.38   34.80
 -14  -2   3  101.99   16.00
 -14   2   3  105.49   12.70
 -13  -2   3    6.20    6.50
 -13  -2   3   -3.40    4.00
  13  -2  -3  -29.80   30.30
  13   2  -3   -2.60    6.00
 -13   2   3    1.70    4.70
 -12  -2   3   71.89    9.60
 -12  -2   3   75.39   12.90
  12  -2  -3    5.60   29.20
  12   2  -3   52.59    8.40
 -12   2   3   48.60    8.70
 -11  -2   3   -4.60    6.40
  11  -2  -3  -16.60   27.80
 -11  -2   3   -0.30    3.30
 -11   2   3   -3.60    4.80
  11   2  -3    0.10    5.20
 -11   2   3   -7.20    4.90
  10  -2  -3   49.10   24.50
 -10  -2   3   33.30    7.00
 -10  -2   3   28.30    7.50
 -10   2   3   32.70    6.60
  10   2  -3   46.80    7.90
 -10   2   3   34.90    6.70
  -8  -2   3   90.39    7.60
   8  -2  -3   88.09    8.10
  -8  -2   3   88.49   10.70
   8  -2  -3   90.49   23.90
  -8   2   3   86.19    7.40
  -8   2   3   87.29    7.70
   8   2  -3   87.09    8.40
  -8   2   3  104.59    7.00
  -7  -2   3    0.60    3.30
  -7  -2   3    5.40    5.20
   7  -2  -3    8.20   11.30
  -7  -2   3    6.80    3.60
   7  -2  -3    4.30    3.00
   7   2  -3    5.60    3.90
   7   2  -3    4.70    3.80
  -7   2   3    5.00    3.40
  -7   2   3    3.70    3.40
  -7   2   3   10.90    3.40
  -6  -2   3   27.50    6.10
  -6  -2   3   20.20    4.40
   6  -2  -3   16.40   10.30
  -6  -2   3   24.10    4.50
   6  -2  -3   20.40    3.90
  -6   2   3   29.20    4.20
  -6   2   3   20.10    3.80
  -6   2   3   19.90    3.50
   6   2  -3   25.80    4.30
   6   2  -3   22.20    4.70
   5  -2  -3   40.90    4.50
  -5  -2   3   33.20    4.70
  -5  -2   3   33.40    5.50
   5  -2  -3   33.10   11.40
  -5  -2   3   33.60    4.70
  -5   2   3   36.60    3.40
   5   2  -3   37.10    5.70
   5   2  -3   40.10    4.90
  -5   2   3   35.20    3.90
   5   2  -3   34.70    5.00
   5   2  -3   33.80    4.30
  -5   2   3   28.60    3.40
   4  -2  -3 2152.88   46.00
   4  -2  -3 2121.59  111.79
   4  -2  -3 2108.59   42.40
  -4  -2   3 2126.29   47.60
  -4  -2   3 2148.89   45.80
  -4  -2   3 2218.48  107.09
  -4  -2   3 2024.90   49.60
   4   2  -3 2161.08   45.20
   4   2  -3 2162.38   47.50
  -4   2   3 2067.99   42.80
  -4   2   3 2232.68   42.90
   4   2  -3 2120.09   48.60
   4   2  -3 2118.09   46.00
  -4   2   3 2137.39   42.60
  -4   2   3 2119.69   47.70
  -3  -2   3   21.80    3.50
   3  -2  -3   16.10    9.00
   3  -2  -3   17.40    1.90
  -3  -2   3   20.80    6.50
  -3  -2   3   22.30    4.30
  -3  -2   3   18.50    3.50
   3  -2  -3   15.10    2.30
   3   2  -3   21.90    3.70
  -3   2   3   15.60    2.10
  -3   2   3   21.60    4.20
  -3   2   3   19.30    2.10
   3   2  -3   20.50    3.70
   3   2  -3   17.60    4.40
   3   2  -3   17.90    3.70
  -2  -2   3  239.48    8.90
  -2  -2   3  258.87    9.40
   2  -2  -3  241.38   25.60
   2  -2  -3  245.88    6.90
  -2  -2   3  268.77   11.00
  -2  -2   3  272.47   20.20
   2   2  -3  246.08    9.20
  -2   2   3  244.58   10.10
  -2   2   3  244.78    5.30
   2   2  -3  265.97    8.90
   2   2  -3  264.77    9.40
   2   2  -3  254.87   11.00
  -2   2   3  247.08    5.40
  -1  -2   3   15.60    2.70
   1  -2  -3   17.30    1.00
  -1  -2   3   26.10    3.50
  -1  -2   3   18.60    2.80
  -1  -2   3   14.90    3.60
   1   2  -3   16.30    2.90
   1   2  -3   15.00    4.20
   1   2  -3   13.60    2.90
  -1   2   3   14.60    3.90
   1   2  -3   19.70    3.00
   0  -2  -3  104.99    3.20
   0  -2   3  114.79    5.90
   0  -2   3  100.09    6.90
   0  -2   3  101.39    5.10
   0  -2   3  104.99    5.60
   0   2  -3  100.19    5.50
   0   2  -3  102.89    5.40
   0   2   3   88.29    6.40
   0   2  -3   99.09    5.30
   1  -2   3   12.10    2.70
  -1  -2  -3    9.60    0.90
  -1  -2  -3   11.70    1.70
   1  -2   3    5.90    2.20
  -1  -2  -3   11.00    1.00
   1  -2   3   11.90    3.60
   1   2   3    8.40    1.50
  -1   2  -3   10.30    2.60
   1   2   3   10.90    3.30
  -1   2  -3    9.80    3.00
  -1   2  -3   11.70    2.70
   1   2   3   10.10    1.60
  -2  -2  -3   13.40    1.70
  -2  -2  -3   13.60    1.70
   2  -2   3   12.40    2.70
   2  -2   3   10.70    3.60
  -2  -2  -3   12.30    2.20
   2  -2   3   13.60    2.90
   2   2   3   12.90    1.60
  -2   2  -3    8.70    2.80
  -2   2  -3   11.50    2.90
  -3  -2  -3  575.84   13.90
  -3  -2  -3  571.04   16.20
   3  -2   3  555.74   16.00
  -3  -2  -3  568.84   14.00
   3  -2   3  575.94   17.20
   3  -2   3  508.55   31.20
  -3   2  -3  559.94   16.00
   3   2   3  575.74   14.70
   3   2   3  603.74   15.20
  -3   2  -3  550.04   16.70
  -4  -2  -3    1.90    1.70
   4  -2   3    1.20    2.20
  -4  -2  -3    2.00    2.60
   4  -2   3    4.00    2.50
   4  -2   3   -7.20    6.10
  -4   2  -3    4.60    3.00
   4   2   3    4.80    2.70
  -4   2  -3    4.50    3.20
   5  -2   3    7.30    3.00
   5  -2   3    5.40    7.20
   5  -2   3    7.20    3.20
  -5  -2  -3   10.40    3.00
  -5  -2  -3    7.00    3.70
   5   2   3    9.30    2.90
  -5   2  -3    4.90    3.60
  -5   2  -3    9.40    3.70
   6  -2   3    1.70    3.10
   6  -2   3    6.30    3.40
  -6  -2  -3    0.60    3.50
  -6  -2  -3    1.20    2.50
   6  -2   3    5.10    8.60
  -6   2  -3   -3.60    3.10
   6   2   3   -0.80    2.70
  -6   2  -3    0.20    3.60
   7  -2   3    3.70    3.50
   7  -2   3   10.20    8.20
  -7  -2  -3    2.40    2.90
  -7  -2  -3   -0.50    4.30
  -7   2  -3    7.30    3.60
   7   2   3    2.60    3.40
  -7   2  -3   11.00    4.70
  -8  -2  -3   -1.80    2.20
  -8  -2  -3   -0.30    4.80
  -8   2  -3    3.10    3.40
  -8   2  -3   -2.80    4.10
  -9  -2  -3   10.60    6.70
   9  -2   3   28.80   10.40
  -9  -2  -3    9.20    4.30
  -9   2  -3    8.40    5.20
  -9   2  -3   11.30    5.60
  10  -2   3   25.80    9.70
 -10  -2  -3    1.90    4.00
 -10  -2  -3    6.40    6.60
 -10   2  -3   -3.90    5.30
 -10   2  -3    2.60    5.10
 -11  -2  -3    3.70    4.70
 -11  -2  -3    4.20    7.00
 -11   2  -3    1.60    5.90
 -11   2  -3   -1.50    4.10
 -12  -2  -3   21.30    9.20
 -12   2  -3   23.60    6.70
 -13  -2  -3   61.99   12.80
 -13   2  -3   70.19   11.10
 -12  -3   3   14.40    8.70
 -12   3   3   49.99    8.40
  12   3  -3   25.60    7.90
 -11  -3   3   10.70    7.80
  11  -3  -3   95.89   46.80
  11   3  -3    4.30    6.00
 -11   3   3   -4.10    4.30
  10  -3  -3  -45.60   23.70
 -10  -3   3   -4.00    6.30
 -10   3   3   16.80    5.20
  10   3  -3    4.40    5.80
   9  -3  -3  -27.50   18.00
  -9  -3   3   -0.20    5.80
  -9   3   3   -0.30    4.00
   9   3  -3   -3.90    4.50
   8  -3  -3   15.80   11.20
  -8  -3   3    1.00    5.30
  -8   3   3    2.10    3.60
   8   3  -3   -1.60    4.30
  -7  -3   3   -9.90    4.00
   7  -3  -3    1.30    9.10
   7   3  -3   -1.10    4.00
  -7   3   3   -5.20    4.10
  -7   3   3   -2.30    2.80
   6  -3  -3   21.40   13.50
  -6  -3   3   26.00    4.80
  -6  -3   3   24.10    6.60
   6   3  -3   27.10    5.10
  -6   3   3   26.90    6.40
  -6   3   3   26.90    3.80
   5  -3  -3   13.90   12.50
  -5  -3   3   28.20    4.60
  -5  -3   3   29.30    6.30
  -5   3   3   27.70    3.10
  -5   3   3   34.60    3.60
   5   3  -3   26.50    5.00
  -5   3   3   22.20    5.30
   5   3  -3   42.90    7.50
  -4  -3   3  242.88   13.00
  -4  -3   3  228.88    9.80
   4  -3  -3  215.08   27.50
   4  -3  -3  208.28    8.10
   4   3  -3  242.38   13.70
  -4   3   3  222.68    5.50
   4   3  -3  243.08   10.20
  -4   3   3  214.58    5.40
   4   3  -3  217.18   10.00
  -4   3   3  215.28   12.00
   3  -3  -3   38.80    2.70
  -3  -3   3   36.90    4.70
   3  -3  -3   51.19   15.20
  -3  -3   3   43.40    4.80
  -3  -3   3   52.09    6.80
  -3   3   3   32.50    5.70
   3   3  -3   38.80    4.90
   3   3  -3   38.90    4.60
   3   3  -3   46.30    7.60
  -2  -3   3    0.50    2.00
  -2  -3   3   11.60    4.70
  -2  -3   3   -2.00    2.90
   2  -3  -3   -6.50    6.30
  -2  -3   3   -0.30    2.10
   2   3  -3   -4.20    2.30
  -2   3   3   -3.00    2.60
   2   3  -3    0.00    3.20
   2   3  -3    2.70    2.00
   2   3  -3   -3.10    2.30
  -1  -3   3    3.70    2.10
  -1  -3   3    3.90    2.10
  -1  -3   3    3.40    3.40
   1   3  -3   -0.10    3.10
  -1   3   3   -1.30    4.50
   1   3  -3    1.10    2.60
   1   3  -3    2.80    2.60
   1   3  -3    1.20    2.00
   0  -3   3   -0.70    3.00
   0  -3   3    0.70    2.00
   0  -3   3    0.20    1.80
   0   3  -3   -1.70    1.80
   0   3  -3    4.90    3.90
   0   3   3   -2.20    3.50
   0   3  -3   -2.00    2.10
   0   3  -3    1.40    2.50
   1  -3   3    5.00    3.70
   1  -3   3   -0.10    2.10
  -1  -3  -3    0.20    0.60
  -1  -3  -3    0.30    0.70
   1  -3   3    1.40    1.90
   1  -3   3    0.10    3.00
  -1   3  -3    0.80    2.00
  -1   3  -3    1.10    5.10
   1   3   3   -1.90    3.30
  -1   3  -3   -0.70    2.60
   2  -3   3   10.20    4.00
   2  -3   3    4.40    2.50
  -2  -3  -3   -1.90    1.40
   2  -3   3   -1.20    2.00
  -2  -3  -3    0.50    1.20
  -2   3  -3    2.60    2.70
   2   3   3    0.10    0.80
  -2   3  -3   -0.30    1.80
   2   3   3    0.40    0.80
  -3  -3  -3   -1.20    2.40
   3  -3   3    4.90    4.60
  -3  -3  -3    1.00    1.70
   3  -3   3   -2.30    1.90
   3   3   3    0.10    1.80
  -3   3  -3    0.70    3.20
  -3   3  -3    0.80    1.20
  -5  -3  -3  138.59    9.10
   5  -3   3   91.29   21.80
  -5   3  -3  142.89    9.00
  -6  -3  -3   56.89    7.60
   6  -3   3   22.90   14.00
  -6   3  -3   55.09    6.70
  -7  -3  -3   18.40    6.20
  -7   3  -3   14.40    5.10
  -8  -3  -3    1.70    5.10
  -8   3  -3    2.10    4.60
  -9  -3  -3    5.00    6.40
  -9   3  -3    3.60    5.10
 -10  -3  -3   -6.90    5.40
 -10   3  -3    0.40    5.80
 -11  -3  -3   12.90    7.70
 -11   3  -3   16.60    6.80
  -9  -4   3    4.80    7.50
   9   4  -3   -1.40    4.40
  -9   4   3    6.10    6.40
  -8  -4   3    8.20    6.70
  -8   4   3    3.60    6.40
   8   4  -3   -3.70    4.90
  -7  -4   3    1.80    6.60
   7  -4  -3   25.10   12.00
  -7   4   3   -2.10    5.70
   7   4  -3   -5.60    4.00
  -6  -4   3  117.99   12.10
   6  -4  -3  117.69   24.10
  -6   4   3   99.99   10.70
   6   4  -3  106.89    8.90
  -5  -4   3   -5.00    4.40
   5   4  -3    5.80    5.30
  -5   4   3   -6.60    5.00
   5   4  -3   11.30    4.20
  -4  -4   3    8.40    5.40
   4   4  -3   10.80    4.00
  -4   4   3    7.30    6.70
   4   4  -3    3.60    5.10
  -2  -4   3    0.60    3.70
   2   4  -3    1.10    2.80
  -2   4   3   -2.00    5.50
   2   4  -3   -5.50    5.10
  -1  -4   3    1.50    3.20
   1   4  -3   -6.60    4.80
   1   4  -3    5.10    2.90
  -1   4   3   -3.90    6.00
   0  -4   3   -5.20    2.60
   0   4  -3   -1.20    2.60
   0   4   3   -3.20    4.00
   0   4  -3   -3.00    3.70
   1  -4   3   -1.70    3.40
   1   4   3    3.50    4.90
  -1   4  -3   -3.40    2.40
  -1   4  -3   -2.90    4.30
   2  -4   3    2.30    3.80
  -2   4  -3   -6.70    5.70
  -2   4  -3   -2.30    2.50
   3  -4   3   -5.60    3.70
  -3   4  -3   -4.20    4.20
  -3   4  -3   -1.70    3.00
  -4  -4  -3   45.00    4.80
  -4   4  -3   49.00   10.30
  -4   4  -3   49.80    5.80
  -5  -4  -3    7.40    3.50
  -5   4  -3   11.50    7.60
  -5   4  -3    8.00    4.20
  -6  -4  -3    2.30    3.90
  -6   4  -3    7.80    4.50
  -7  -4  -3   -0.40    4.70
  -7   4  -3    1.90    4.60
  -8  -4  -3    2.80    5.30
  -8   4  -3    1.10    4.90
 -16   0   4   12.70    7.90
 -16   0   4    5.10    8.60
  16   0  -4  -30.50   21.00
 -15   0   4    1.50    9.30
  15   0  -4    7.60   19.40
 -15   0   4    1.50    5.40
 -14   0   4   -3.20    6.40
 -14   0   4    1.60    8.40
  14   0  -4   -0.40   11.60
 -13   0   4   -6.80    4.50
 -13   0   4    7.00    5.00
  13   0  -4   -9.00    4.80
  13   0  -4    1.60   12.40
  12   0  -4  280.67   14.70
 -12   0   4  292.67   19.30
  12   0  -4  297.37   42.10
 -12   0   4  289.27   16.50
 -11   0   4    2.10    3.90
 -11   0   4   -4.30    3.90
  11   0  -4  -19.70   11.20
  11   0  -4    0.00    3.40
 -10   0   4   64.89    9.40
  10   0  -4   50.99   22.60
  10   0  -4   61.29    7.90
 -10   0   4   56.29    8.30
   9   0  -4    8.90   13.30
  -9   0   4    0.90    4.20
  -9   0   4   -3.90    4.60
   9   0  -4   -5.80    3.30
   8   0  -4    2.80   11.80
   8   0  -4    1.70    3.50
  -8   0   4    1.20    4.70
  -8   0   4    0.00    3.70
   7   0  -4   15.80   11.20
   7   0  -4   -1.20    1.90
  -7   0   4   -0.70    2.40
   7   0  -4   -1.30    3.60
  -7   0   4   -1.50    2.80
  -6   0   4  987.20   23.90
  -6   0   4 1003.00   27.60
   6   0  -4  988.90   27.50
   6   0  -4  984.90   26.20
  -6   0   4  921.61   24.60
   6   0  -4  877.21   59.49
   6   0  -4  960.00   23.90
  -5   0   4    3.80    3.00
   5   0  -4    0.20    2.30
  -5   0   4   -0.40    2.30
   5   0  -4    1.30    6.20
  -5   0   4   -1.60    2.20
   5   0  -4    0.30    1.80
  -5   0   4   -3.00    2.30
   5   0  -4    0.20    1.90
  -5   0   4   -1.30    2.90
   5   0  -4    0.00    2.00
   4   0  -4 2058.29   43.70
   4   0  -4 2113.69   47.20
  -4   0   4 2067.69   47.20
   4   0  -4 2090.29   43.00
  -4   0   4 2099.69   45.40
   4   0  -4 2053.49   45.60
  -4   0   4 2159.48  103.69
   4   0  -4 2144.59  104.09
  -4   0   4 2087.09   42.80
  -4   0   4 2077.19   43.90
  -3   0   4    0.50    1.90
   3   0  -4    1.30    3.60
  -3   0   4   -2.40    2.10
  -3   0   4    0.50    1.80
   3   0  -4   -1.50    2.20
  -3   0   4    1.00    2.90
   3   0  -4   -2.30    1.30
   3   0  -4    3.50    1.80
   3   0  -4   -0.10    2.30
  -3   0   4   -1.30    1.90
   2   0  -4   -2.80    2.60
   2   0  -4   -2.70    2.00
  -2   0   4    0.20    1.30
   2   0  -4   -0.30    1.50
   2   0  -4   -0.70    1.80
  -2   0   4   -1.40    1.50
  -2   0   4   -1.30    1.10
   2   0  -4    1.70    2.00
  -2   0   4   -0.70    2.20
  -2   0   4    3.60    2.60
   1   0  -4    0.80    2.10
  -1   0   4   -1.00    1.70
   1   0  -4   -1.60    3.20
  -1   0   4    0.00    1.20
  -1   0   4   -1.10    1.50
   1   0  -4   -0.40    1.90
  -1   0   4   -1.50    2.10
   1   0  -4   -0.60    1.50
   1   0  -4    0.10    1.30
   0   0  -4 1095.19   24.20
   0   0  -4 1119.89   23.80
   0   0  -4 1131.29   25.40
   0   0   4 1126.39   25.30
   0   0   4 1094.09   23.70
   0   0   4 1092.59   24.30
   1   0   4    0.10    1.80
   1   0   4   -0.40    1.60
  -1   0  -4   -2.60    1.80
  -1   0  -4   -0.70    1.60
   1   0   4   -0.20    1.30
  -1   0  -4    1.00    1.90
   2   0   4  213.78    8.20
   2   0   4  229.68    8.10
  -2   0  -4  212.78    8.60
  -2   0  -4  224.48    7.90
   2   0   4  217.78    8.70
   3   0   4   -0.40    1.60
  -3   0  -4   -0.50    2.10
   3   0   4   -3.20    1.80
  -3   0  -4   -1.60    1.50
   4   0   4   -1.10    2.30
  -4   0  -4    5.30    3.00
  -4   0  -4   -0.20    2.70
   4   0   4    1.40    2.50
  -5   0  -4   -2.00    2.90
   5   0   4    0.50    2.00
  -5   0  -4   -1.70    2.40
  -6   0  -4  112.89    8.00
  -6   0  -4  113.99    8.60
  -7   0  -4    5.30    4.90
  -7   0  -4   -3.30    2.40
  -8   0  -4    1.40    3.90
  -8   0  -4    4.30    4.50
  -9   0  -4   -5.10    4.20
  -9   0  -4   -1.60    4.00
 -10   0  -4   14.60    5.80
 -10   0  -4   23.10    6.70
 -11   0  -4    9.30    6.30
 -11   0  -4    0.80    7.20
 -12   0  -4   -1.60    3.90
 -12   0  -4    6.20    6.20
 -13   0  -4   -2.90    5.90
 -13   0  -4    7.30    8.30
 -14   0  -4   -4.30    6.20
 -14   0  -4   -1.90    5.40
  15  -1  -4   17.20   12.60
 -15  -1   4   -0.10    9.10
 -15  -1   4   -2.40    4.30
 -15   1   4    6.90    8.20
 -15   1   4   12.50    7.60
  14  -1  -4  145.59   37.20
 -14  -1   4  174.48   15.50
 -14  -1   4  183.78   17.00
 -14   1   4  191.68   14.40
 -14   1   4  177.28   16.50
  14   1  -4  184.08   15.40
 -13  -1   4   -2.70    7.30
  13  -1  -4  -45.90   23.30
 -13  -1   4    9.60    5.10
  13   1  -4   -1.90    6.00
 -13   1   4    7.70    7.50
 -13   1   4    8.00    5.40
 -12  -1   4   -0.80    4.80
  12  -1  -4  -13.10   17.80
 -12  -1   4    6.20    7.60
  12   1  -4   -1.80    3.90
 -12   1   4    0.30    4.60
  12   1  -4   -1.40   11.40
 -12   1   4    5.10    6.10
 -11  -1   4    0.40    4.60
 -11  -1   4   -8.20    4.50
  11  -1  -4   -0.70    2.70
 -11   1   4    1.90    5.10
 -11   1   4    0.00    3.70
  11   1  -4    3.90    5.50
  11   1  -4  -10.00   10.60
  10  -1  -4   48.00    6.90
  10  -1  -4   38.30   21.20
 -10  -1   4   30.00    6.20
 -10  -1   4   40.60    8.30
 -10   1   4   34.50    7.00
 -10   1   4   44.70    8.30
  10   1  -4   35.80    7.00
  10   1  -4   28.80   15.50
   9  -1  -4    5.60    3.00
  -9  -1   4    9.80    4.00
  -9  -1   4    6.70    5.10
  -9   1   4   -2.70    4.50
   9   1  -4  -11.60   12.90
  -9   1   4    3.50    3.30
   9   1  -4    2.70    4.40
   8  -1  -4    6.50   15.50
  -8  -1   4   21.10    5.30
  -8  -1   4   11.10    5.90
   8  -1  -4   20.40    4.40
   8  -1  -4   17.80    5.10
   8   1  -4   21.50   13.40
   8   1  -4   12.60    4.50
  -8   1   4   16.40    4.10
  -8   1   4   10.00    4.80
  -8   1   4   15.00    4.70
  -7  -1   4    0.70    3.40
   7  -1  -4    7.30   10.60
   7  -1  -4    3.90    2.90
   7  -1  -4    1.20    2.30
  -7  -1   4    7.10    3.40
  -7   1   4   10.90    4.50
  -7   1   4    8.20    3.90
   7   1  -4   14.30   11.30
   7   1  -4    2.10    4.60
   7   1  -4    2.70    2.90
  -7   1   4    5.40    3.00
   6  -1  -4   -1.50    2.10
   6  -1  -4    2.00    2.90
  -6  -1   4    3.20    3.30
  -6  -1   4   -0.30    2.00
   6  -1  -4   -0.80    2.30
   6  -1  -4    0.20    7.00
  -6  -1   4    0.20    2.80
   6   1  -4    0.20    6.40
   6   1  -4   -0.80    3.70
  -6   1   4    0.40    2.20
  -6   1   4   -2.20    3.00
   6   1  -4    0.20    2.20
  -6   1   4   -2.60    2.00
   6   1  -4    3.00    3.20
   5  -1  -4  901.71   24.50
   5  -1  -4  928.41   57.09
  -5  -1   4  909.91   26.30
   5  -1  -4  894.91   23.30
   5  -1  -4  900.31   21.30
   5  -1  -4  914.61   22.20
  -5  -1   4  902.91   24.10
  -5  -1   4  802.32   54.39
  -5  -1   4  887.51   23.50
   5   1  -4  963.90   54.79
  -5   1   4  909.01   23.90
  -5   1   4  910.21   22.40
  -5   1   4  911.51   22.70
  -5   1   4  914.41   21.40
   5   1  -4  923.51   24.70
   5   1  -4  924.81   23.80
   5   1  -4  907.61   22.90
  -4  -1   4  198.28    8.90
   4  -1  -4  203.98    8.70
  -4  -1   4  193.88   10.40
  -4  -1   4  185.68    7.80
   4  -1  -4  196.48    7.00
   4  -1  -4  204.18    8.00
  -4  -1   4  194.58    8.40
   4  -1  -4  190.18   21.40
   4  -1  -4  187.58    7.40
   4   1  -4  198.98    7.30
   4   1  -4  202.48   10.00
  -4   1   4  195.98    7.50
   4   1  -4  182.18    7.80
  -4   1   4  195.98    7.10
  -4   1   4  203.98    6.60
  -4   1   4  193.28    7.80
   4   1  -4  207.58   20.80
  -4   1   4  186.68   21.40
  -4   1   4  180.28    8.20
   4   1  -4  215.08    9.00
   4   1  -4  189.28    9.20
  -3  -1   4  735.13   21.20
  -3  -1   4  723.43   18.00
   3  -1  -4  704.33   45.90
   3  -1  -4  762.12   19.10
  -3  -1   4  745.43   19.50
   3  -1  -4  731.73   17.10
  -3  -1   4  704.63   41.90
   3  -1  -4  734.03   16.50
  -3  -1   4  732.93   19.00
   3  -1  -4  738.63   18.00
  -3   1   4  731.33   17.30
   3   1  -4  764.32   41.50
   3   1  -4  729.23   18.10
   3   1  -4  742.13   21.00
  -3   1   4  745.33   17.50
  -3   1   4  713.83   18.20
   3   1  -4  719.73   18.80
  -3   1   4  731.63   16.60
   3   1  -4  729.53   19.60
  -3   1   4  728.63   16.90
   3   1  -4  730.03   17.70
  -2  -1   4   60.99    4.60
   2  -1  -4   67.19    3.20
   2  -1  -4   55.09   12.60
   2  -1  -4   63.89    3.40
  -2  -1   4   57.09    4.00
  -2  -1   4   64.79    9.20
  -2  -1   4   60.09    4.70
  -2  -1   4   63.49    5.30
   2  -1  -4   62.29    3.80
   2  -1  -4   67.09    4.40
   2   1  -4   57.29    4.80
   2   1  -4   66.39    4.10
   2   1  -4   64.29    5.20
  -2   1   4   58.19    4.00
  -2   1   4   60.89    3.70
   2   1  -4   61.39    4.80
  -2   1   4   62.59    3.30
  -2   1   4   58.49    3.80
   2   1  -4   73.89   10.00
   2   1  -4   63.39    4.60
  -2   1   4   56.69    3.30
  -1  -1   4  604.24   14.80
  -1  -1   4  592.44   29.90
  -1  -1   4  595.04   15.80
  -1  -1   4  582.24   17.20
   1  -1  -4  593.04   14.10
  -1  -1   4  602.24   15.60
   1  -1  -4  572.14   13.00
   1  -1  -4  576.24   13.30
   1  -1  -4  576.34   14.80
   1   1  -4  596.64   15.40
  -1   1   4  608.14   13.80
   1   1  -4  559.24   15.70
   1   1  -4  620.54   29.80
  -1   1   4  597.34   13.20
   1   1  -4  552.94   14.60
  -1   1   4  567.54   13.50
   0  -1   4   25.30    2.70
   0  -1  -4   29.90    2.70
   0  -1   4   28.70    3.60
   0  -1   4   31.10    3.20
   0  -1  -4   29.20    2.50
   0   1  -4   25.80    3.10
   0   1   4   32.50    3.10
   0   1   4   33.60    2.70
   0   1   4   30.40    2.70
   0   1  -4   28.00    3.40
   0   1   4   30.00    3.00
   0   1  -4   29.30    3.70
  -1  -1  -4   83.19    4.70
   1  -1   4   80.39    4.50
   1  -1   4   75.89    5.20
   1  -1   4   76.99    4.90
  -1  -1  -4   73.79    3.80
   1   1   4   73.39    4.10
  -1   1  -4   80.49    5.70
  -1   1  -4   71.79    4.90
  -1   1  -4   75.79    4.70
   1   1   4   72.79    4.10
   1   1   4   73.89    4.00
   2  -1   4  248.38    9.00
  -2  -1  -4  239.78    8.90
   2  -1   4  258.57    9.80
  -2  -1  -4  251.07    8.00
   2  -1   4  254.27    9.20
   2   1   4  256.47    8.40
   2   1   4  246.08    9.00
  -2   1  -4  247.78    9.70
  -2   1  -4  228.18   14.10
  -2   1  -4  249.08    9.20
   3  -1   4  475.25   14.40
   3  -1   4  526.25   15.90
  -3  -1  -4  480.55   13.40
   3  -1   4  486.15   14.30
  -3  -1  -4  476.05   15.00
  -3   1  -4  484.75   15.40
   3   1   4  489.65   14.80
  -3   1  -4  478.15   14.50
   3   1   4  488.85   13.70
  -5  -1  -4  145.99    7.40
  -5  -1  -4  141.39    9.00
   5  -1   4  145.69    8.70
   5   1   4  152.28    7.70
  -5   1  -4  132.59    9.30
  -5   1  -4  133.29    8.30
  -5   1  -4   97.89   17.10
  -6  -1  -4  338.27   12.60
  -6  -1  -4  357.86   15.10
   6   1   4  342.87   12.60
  -6   1  -4  325.07   14.10
  -6   1  -4  260.37   26.90
  -6   1  -4  306.77   12.70
  -7  -1  -4    0.90    3.30
  -7  -1  -4   -4.70    2.60
  -7   1  -4    0.60    3.20
  -7   1  -4    0.60    2.80
  -8  -1  -4   61.39    8.30
  -8  -1  -4   64.29    7.40
  -8   1  -4   72.29    8.50
  -8   1  -4   60.79    8.10
  -9  -1  -4    5.80    6.00
  -9  -1  -4    2.90    3.60
  -9   1  -4   -2.10    3.40
  -9   1  -4   -0.40    5.50
 -10  -1  -4   35.40    8.90
 -10  -1  -4   47.60    7.70
 -10   1  -4   43.60    8.90
 -10   1  -4   36.20    7.10
 -11  -1  -4   12.80    6.10
 -11  -1  -4   13.90    5.90
 -11   1  -4    3.30    4.40
 -11   1  -4    7.70    7.10
 -12  -1  -4   -0.90    6.90
 -12  -1  -4   12.50    5.30
 -12   1  -4   20.00    8.50
 -12   1  -4    6.00    5.50
 -13  -1  -4    7.60    6.50
 -13  -1  -4   20.50    7.80
 -13   1  -4   15.70    7.70
 -13   1  -4   13.80    8.50
 -14  -1  -4    4.00    7.10
 -14  -1  -4    7.20    5.40
 -14   1  -4    9.80    8.10
 -14   1  -4    7.50    6.70
 -14  -2   4   34.10   10.00
  14  -2  -4   -4.10   28.80
 -14  -2   4   23.10    8.50
 -14   2   4   38.90    9.30
  14   2  -4   17.30    6.70
  13  -2  -4  -38.50   35.50
 -13  -2   4    6.40    5.70
 -13  -2   4   -2.90    7.20
  13   2  -4  -12.00    5.40
 -13   2   4    7.50    6.30
 -12  -2   4   -2.20    7.30
 -12  -2   4    7.90    5.70
  12  -2  -4  -45.20   28.70
 -12   2   4   17.70    6.60
  12   2  -4    2.80    4.70
 -11  -2   4    5.00    3.80
  11  -2  -4  -23.90   29.00
 -11  -2   4   -7.20    6.20
 -11   2   4    2.80    5.10
  11   2  -4    3.50    5.70
  10  -2  -4   21.00   28.10
 -10  -2   4    3.30    4.60
 -10  -2   4    2.80    5.40
 -10   2   4    2.80    4.60
 -10   2   4   -2.40    4.30
  10   2  -4    5.10    5.50
  -9  -2   4    7.10    4.60
  -9  -2   4    1.00    6.10
  -9   2   4   10.40    4.70
  -9   2   4    1.90    4.20
   9   2  -4    0.60    4.80
  -8  -2   4   78.09    8.30
   8  -2  -4   59.49    7.50
   8  -2  -4   54.69   17.50
  -8  -2   4   59.09    9.50
   8   2  -4   56.09    7.20
  -8   2   4   66.89    6.00
  -8   2   4   69.69    7.10
  -8   2   4   66.29    7.20
   7  -2  -4   18.30   12.10
  -7  -2   4   24.40    4.80
   7  -2  -4   24.30    4.70
  -7  -2   4    4.10    5.10
  -7   2   4   22.70    4.40
   7   2  -4   21.20    5.10
  -7   2   4   24.80    3.90
   7   2  -4   19.00    4.90
  -7   2   4   28.30    4.70
  -6  -2   4   -0.20    2.60
  -6  -2   4    0.10    2.90
  -6  -2   4    1.60    4.10
   6  -2  -4    0.50    2.30
   6  -2  -4    1.80    8.80
  -6   2   4    0.20    2.20
  -6   2   4    1.80    2.30
   6   2  -4    1.50    3.70
  -6   2   4    0.40    2.60
   6   2  -4   -1.00    2.40
   6   2  -4   -0.80    3.20
  -5  -2   4   37.70    5.10
  -5  -2   4   39.90    5.10
  -5  -2   4   35.00    6.20
   5  -2  -4   36.70    4.60
   5  -2  -4   33.60   11.40
  -5   2   4   39.00    5.10
  -5   2   4   36.40    3.80
  -5   2   4   37.40    4.10
   5   2  -4   40.50    5.70
  -5   2   4   43.70    3.60
   5   2  -4   38.90    5.20
   5   2  -4   33.40    5.20
   5   2  -4   37.00    4.90
  -4  -2   4  213.08    9.60
  -4  -2   4  203.28    9.40
  -4  -2   4  215.88   11.50
  -4  -2   4  148.59   22.40
   4  -2  -4  213.38   24.70
   4  -2  -4  216.28    7.00
   4  -2  -4  211.68    8.50
   4   2  -4  201.58    9.50
   4   2  -4  211.88    9.30
  -4   2   4  211.18    9.50
  -4   2   4  211.38    6.00
   4   2  -4  197.78   10.00
  -4   2   4  206.18    6.10
  -4   2   4  211.48    7.40
   4   2  -4  189.48    9.60
   3  -2  -4  189.48   23.60
  -3  -2   4  195.78    8.70
   3  -2  -4  195.98    5.60
   3  -2  -4  199.78    6.70
  -3  -2   4  210.38    9.10
  -3  -2   4  196.88   10.60
  -3  -2   4  170.38   19.90
   3  -2  -4  197.88    7.20
   3   2  -4  206.88    8.80
  -3   2   4  197.08    6.30
   3   2  -4  193.68    9.80
  -3   2   4  196.78    9.30
  -3   2   4  201.48    6.00
   3   2  -4  186.38    9.10
   3   2  -4  214.78    9.30
   2  -2  -4   11.70    8.30
  -2  -2   4   14.90    3.20
   2  -2  -4   11.20    1.80
  -2  -2   4   15.30    3.20
  -2  -2   4   15.10    4.00
   2  -2  -4   17.20    1.80
  -2  -2   4    9.00    5.60
   2   2  -4   15.60    3.70
   2   2  -4   11.90    3.20
   2   2  -4   13.50    3.50
  -2   2   4   14.70    1.40
  -2   2   4   14.50    1.50
  -2   2   4   18.30    4.00
   2   2  -4   14.80    3.60
  -1  -2   4   54.99    8.70
   1  -2  -4   53.59    2.50
  -1  -2   4   55.19    5.10
  -1  -2   4   56.19    4.60
  -1  -2   4   62.99    6.20
   1   2  -4   50.29    4.90
   1   2  -4   50.69    6.20
   1   2  -4   48.20    4.70
  -1   2   4   60.49    5.90
  -1   2   4   53.09    1.80
  -1   2   4   50.79    1.70
   1   2  -4   44.80    4.70
   0  -2   4   36.30    4.20
   0  -2   4   38.80    4.10
   0  -2   4   32.10    5.50
   0  -2   4   26.80    4.80
   0  -2  -4   39.20    2.40
   0   2  -4   36.70    4.10
   0   2   4   40.10    5.00
   0   2  -4   35.20    4.20
   0   2   4   34.10    2.00
   0   2  -4   29.80    4.40
   0   2   4   39.30    2.10
  -1  -2  -4   35.70    2.80
  -1  -2  -4   36.10    2.00
   1  -2   4   28.60    4.10
  -1  -2  -4   37.10    2.10
   1  -2   4   36.70    4.50
   1   2   4   38.40    2.90
  -1   2  -4   32.60    4.20
  -1   2  -4   34.20    4.70
   1   2   4   39.40    3.20
  -1   2  -4   38.90    4.60
   2  -2   4  141.39    7.30
  -2  -2  -4  131.79    4.80
  -2  -2  -4  117.29    5.80
   2  -2   4  114.89    6.80
  -2  -2  -4  122.69    4.70
  -2   2  -4  117.39    7.10
  -2   2  -4  128.49    7.50
   2   2   4  129.39    5.80
   2   2   4  127.29    4.90
  -3  -2  -4   51.59    4.70
   3  -2   4   40.90    5.30
  -3  -2  -4   46.40    3.60
   3  -2   4   54.29    5.30
   3   2   4   42.70    4.10
  -3   2  -4   44.20    5.20
  -3   2  -4   42.10    5.40
   3   2   4   50.89    4.30
   4  -2   4   -0.70    2.30
  -4  -2  -4    2.80    2.00
  -4  -2  -4   -3.90    1.80
   4  -2   4   -1.90    2.40
  -4   2  -4   -0.60    3.30
   4   2   4    2.80    2.70
  -4   2  -4    1.50    3.20
   5  -2   4   -4.70    4.60
   5  -2   4    2.00    3.00
  -5  -2  -4   -0.90    3.20
  -5  -2  -4    2.10    2.40
   5  -2   4    3.30    3.10
  -5   2  -4    6.20    3.80
  -5   2  -4    2.10    3.40
   5   2   4   -0.40    2.80
   6  -2   4    7.80    3.80
  -6  -2  -4    2.90    2.60
  -6  -2  -4   -3.40    3.60
  -6   2  -4   -0.90    3.70
   6   2   4   -4.10    2.70
  -6   2  -4   -4.40    3.40
   7  -2   4   73.19    8.20
  -7  -2  -4   82.49    7.00
  -7  -2  -4   81.89    9.50
  -7   2  -4   77.99    7.30
  -7   2  -4   71.69   13.90
  -7   2  -4   70.79    8.50
   7   2   4   66.09    6.90
   8  -2   4    6.10    3.20
  -8  -2  -4   -3.90    4.50
  -8  -2  -4    6.70    4.10
  -8   2  -4   -1.30    4.20
  -8   2  -4    2.80    3.60
  -9  -2  -4   34.80    6.30
   9  -2   4   48.10    7.50
  -9  -2  -4   36.20    7.40
  -9   2  -4   51.79    8.50
  -9   2  -4   26.10    6.80
 -10  -2  -4    4.70    6.80
 -10  -2  -4   10.90    5.30
 -10   2  -4    2.00    4.20
 -10   2  -4   -6.20    5.00
 -11  -2  -4    9.60    5.80
 -11   2  -4    4.10    6.50
 -11   2  -4    4.90    6.20
 -12  -2  -4   13.60    8.20
 -12   2  -4   -0.60    6.00
 -13  -2  -4   -2.00    8.20
 -13   2  -4    1.70    6.70
 -12  -3   4   10.40    6.20
  12   3  -4   13.10    7.10
 -12   3   4   -0.10    5.40
  11  -3  -4  129.09   47.20
 -11  -3   4    7.90    7.90
  11   3  -4    1.10    6.20
 -10  -3   4   14.20    8.00
  10  -3  -4  -35.00   23.20
  10   3  -4   -7.30    4.50
 -10   3   4    0.30    4.60
  -9  -3   4  -10.30    5.90
   9  -3  -4    2.60   15.80
  -9   3   4   -1.50    3.80
  -9   3   4   -1.60    4.10
   9   3  -4   10.20    5.70
  -8  -3   4    5.00    5.70
   8  -3  -4   28.70   11.00
  -8   3   4    9.50    4.10
   8   3  -4    1.60    4.60
  -8   3   4   -1.60    4.20
  -7  -3   4    7.10    6.00
   7  -3  -4   13.00   11.20
  -7   3   4    4.30    3.20
   7   3  -4   -0.90    3.90
  -7   3   4   -5.70    3.90
  -6  -3   4  168.08   12.60
  -6  -3   4  156.38    9.40
   6  -3  -4  172.48   27.60
  -6   3   4  174.58    7.40
  -6   3   4  149.88   10.80
   6   3  -4  160.68    9.70
   6   3  -4  155.98   11.70
   5  -3  -4   91.69   22.30
  -5  -3   4  110.39   10.30
  -5  -3   4  109.19    7.90
   5   3  -4  108.59    8.40
  -5   3   4  117.59    9.70
  -5   3   4  109.09    4.60
   5   3  -4  100.69    8.90
  -5   3   4  117.19    5.00
   4  -3  -4   59.59   16.70
  -4  -3   4   66.19    8.20
  -4  -3   4   67.39    6.20
   4  -3  -4   55.89    4.30
  -4   3   4   45.80    7.10
   4   3  -4   57.49    6.10
   4   3  -4   55.39    6.00
   4   3  -4   68.99    7.70
   4   3  -4   60.99    6.20
  -3  -3   4   20.90    4.00
   3  -3  -4   20.80   12.20
   3  -3  -4   14.50    1.70
  -3  -3   4   14.90    3.50
  -3  -3   4   16.50    5.00
   3   3  -4   12.70    3.80
   3   3  -4   14.50    4.60
   3   3  -4   20.10    3.90
  -3   3   4   14.60    5.30
   3   3  -4   14.00    4.10
  -2  -3   4    6.40    2.90
  -2  -3   4    7.70    4.50
   2  -3  -4    5.80    8.00
  -2  -3   4    6.10    2.60
   2   3  -4    5.10    3.30
   2   3  -4   13.40    5.70
   2   3  -4    7.00    3.00
  -2   3   4   10.20    4.90
   2   3  -4    5.00    3.40
  -1  -3   4   14.00    3.30
  -1  -3   4    9.40    4.40
  -1  -3   4    9.00    3.00
   1   3  -4    9.60    3.20
   1   3  -4    5.80    3.30
  -1   3   4    3.90    4.80
   1   3  -4    3.60    2.40
   1   3  -4   12.80    4.40
   0  -3   4    9.90    2.90
   0  -3   4   11.30    4.40
   0  -3   4    6.70    2.80
   0   3  -4    4.00    3.10
   0   3  -4    2.00    2.20
   0   3  -4    7.60    3.10
   0   3  -4    3.60    5.10
   0   3   4   17.00    5.00
  -1  -3  -4   76.39    3.20
   1  -3   4   68.99    5.40
   1  -3   4   78.29    7.60
   1  -3   4   76.09    6.00
  -1  -3  -4   70.09    3.00
   1  -3   4   97.19    9.50
  -1   3  -4   71.19    5.50
  -1   3  -4   73.29    8.00
  -1   3  -4   86.09    6.50
   1   3   4   71.39    7.90
  -2  -3  -4    5.30    2.00
   2  -3   4    4.50    3.50
  -2  -3  -4    5.20    1.70
   2  -3   4    8.20    3.10
  -2   3  -4    1.70    3.20
  -2   3  -4    7.00    3.10
   2   3   4    3.70    1.20
   2   3   4    5.90    1.30
   3  -3   4  130.19    7.60
  -3  -3  -4  142.59    7.30
   3   3   4  131.79    5.90
  -3   3  -4  140.79    8.60
   3   3   4  123.29    5.50
   4  -3   4    4.10    3.40
  -4  -3  -4    3.10    2.90
  -4   3  -4    0.30    3.20
  -4   3  -4    1.30    3.40
  -5  -3  -4   26.40    5.20
  -5   3  -4   17.60    5.30
  -6  -3  -4   -1.80    3.30
  -6   3  -4   -1.80    3.80
  -7  -3  -4   -3.60    4.00
  -7   3  -4   -1.70    4.30
  -8  -3  -4    1.20    5.00
  -8   3  -4    3.70    4.80
  -9  -3  -4   14.20    6.70
  -9   3  -4   15.50    6.10
 -10  -3  -4   -3.30    5.70
 -10   3  -4    2.20    5.80
 -11  -3  -4    8.60    7.50
 -11   3  -4    6.70    6.90
  -9  -4   4   -1.20    6.50
   9  -4  -4   17.00   18.00
   9   4  -4   -3.20    5.50
  -9   4   4    0.40    5.10
  -8   4   4    9.20    6.90
  -7  -4   4    8.10    6.30
   7   4  -4   27.00    6.10
  -7   4   4    6.90    6.40
   6  -4  -4   29.40   15.70
  -6  -4   4   14.10    7.00
   6   4  -4   21.40    5.50
  -6   4   4   31.50    8.00
  -5  -4   4   48.60    8.40
   5   4  -4   37.20    8.00
  -5   4   4   45.90    8.40
   5   4  -4   40.70    6.00
  -4  -4   4   17.10    6.00
   4   4  -4   14.80    4.40
  -4   4   4   19.50    7.40
   4   4  -4   10.80    5.60
  -3   4   4   -1.90    4.00
   3   4  -4    7.10    3.80
   3   4  -4    7.00    6.20
  -2  -4   4   -1.30    3.80
   2   4  -4    4.40    6.00
  -2   4   4   -4.00    5.40
  -1  -4   4   -3.90    4.00
  -1   4   4   -0.30    4.20
   1   4  -4    2.40    6.00
   1   4  -4    1.00    3.00
   0  -4   4   -9.70    3.70
   0   4  -4    2.30    3.00
   0   4   4    1.90    4.80
   0   4  -4    3.70    6.30
   1  -4   4   24.20    6.20
  -1   4  -4   17.70    6.20
  -1   4  -4   17.70    4.10
   2  -4   4    4.70    4.70
  -2   4  -4    4.40    3.60
  -2   4  -4    0.70    6.60
   3  -4   4   32.50    7.10
  -3   4  -4   26.90    5.00
  -3   4  -4   31.40    8.00
  -4   4  -4    2.00    3.90
  -4   4  -4    7.40    8.00
  -5  -4  -4   61.19    6.30
  -5   4  -4   78.49    8.10
  -6  -4  -4    4.80    4.40
  -6   4  -4   -2.00    3.90
  -7  -4  -4    1.40    4.90
  -7   4  -4    0.90    4.60
  -8  -4  -4    0.70    5.10
 -16   0   5   10.70    7.00
 -16   0   5    1.70    8.70
 -15   0   5   -6.20    7.80
  15   0  -5   20.40   19.40
 -15   0   5    2.90    7.20
  14   0  -5   10.70   13.80
 -14   0   5   13.10    7.50
 -14   0   5   -2.00    4.20
  14   0  -5   11.90    5.70
  13   0  -5    5.30   19.20
 -13   0   5    8.30    6.90
 -13   0   5    5.00    7.40
  13   0  -5   13.50    6.50
  12   0  -5   -0.30    3.90
  12   0  -5   -2.30   12.80
 -12   0   5   -2.50    5.00
 -12   0   5   -0.80    6.80
  11   0  -5   30.20    5.80
 -11   0   5   38.70    8.10
 -11   0   5   31.70    6.50
  10   0  -5    4.80   15.30
 -10   0   5   -1.80    3.30
  10   0  -5    3.20    4.60
 -10   0   5    0.30    4.10
   9   0  -5  130.49    9.40
   9   0  -5  179.48   30.00
  -9   0   5  144.29    9.80
  -9   0   5  142.89   11.00
   8   0  -5   -0.90    3.00
   8   0  -5    4.00   12.20
   8   0  -5   -1.50    2.20
  -8   0   5    3.50    4.30
  -8   0   5   -2.50    3.10
   7   0  -5  698.73   54.79
  -7   0   5  805.22   25.40
   7   0  -5  832.82   24.40
   7   0  -5  798.32   21.90
  -7   0   5  821.42   23.10
  -5   0   5    7.50    4.30
   5   0  -5    9.80    3.60
  -5   0   5   15.50    3.10
  -5   0   5   16.80    2.90
   5   0  -5   15.50    3.40
   5   0  -5   10.00    2.70
   5   0  -5   10.10    3.20
  -5   0   5   11.30    3.10
  -5   0   5   17.00    8.10
  -4   0   5    1.40    3.20
   4   0  -5   -1.40    1.70
  -4   0   5   -0.40    2.40
  -4   0   5   -3.40    2.00
   4   0  -5   -2.90    2.30
   4   0  -5    2.40    4.60
   4   0  -5   -1.50    1.90
  -4   0   5    0.20    2.90
   4   0  -5    0.80    2.10
  -4   0   5    2.90    1.80
   3   0  -5    8.60    2.70
  -3   0   5    8.10    2.30
   3   0  -5    6.70    2.60
  -3   0   5    9.00    2.20
   3   0  -5    7.20    2.50
  -3   0   5    9.20    3.70
  -3   0   5    7.40    4.40
   3   0  -5    6.00    5.80
   3   0  -5    8.30    2.40
  -3   0   5    8.80    2.60
  -2   0   5    0.70    2.20
  -2   0   5   -1.80    1.00
   2   0  -5   -0.40    1.40
   2   0  -5   -2.50    3.60
   2   0  -5   -2.10    2.10
  -2   0   5    1.20    2.40
   2   0  -5    0.00    2.30
  -2   0   5    1.50    1.90
   2   0  -5    3.20    1.90
  -2   0   5    1.30    3.40
  -1   0   5  393.56   11.70
   1   0  -5  393.16   10.90
  -1   0   5  397.86   11.00
  -1   0   5  370.56   12.70
  -1   0   5  387.36   11.50
   1   0  -5  353.56   25.60
   1   0  -5  395.56   12.00
   1   0  -5  375.46   11.20
   0   0   5   -0.50    1.30
   0   0   5   -0.90    1.70
   0   0  -5   -2.30    2.10
   0   0  -5   -1.00    2.00
   0   0   5    1.10    1.50
   0   0  -5   -1.70    1.90
  -1   0  -5   79.79    4.80
   1   0   5   77.39    5.30
  -1   0  -5   73.99    5.00
   1   0   5   86.79    5.20
   1   0   5   86.29    5.10
  -1   0  -5   84.49    5.90
  -2   0  -5   -1.90    2.80
   2   0   5   -3.40    1.50
  -2   0  -5   -4.80    2.20
   2   0   5   -2.60    1.60
   2   0   5   -2.90    2.50
  -3   0  -5   36.70    4.80
   3   0   5   36.10    4.80
  -3   0  -5   32.60    4.00
   3   0   5   29.20    3.70
   3   0   5   38.20    4.20
  -4   0  -5    3.30    3.80
  -4   0  -5   -1.30    2.80
   4   0   5    2.00    2.00
  -5   0  -5   92.99    7.50
  -5   0  -5  123.29   16.40
  -5   0  -5   98.09    7.30
  -6   0  -5   -2.30    2.70
  -6   0  -5    2.80    2.60
  -7   0  -5    1.40    4.00
  -7   0  -5   -0.40    3.20
  -8   0  -5    5.30    3.60
  -8   0  -5   -7.00    5.00
  -9   0  -5   -4.20    4.30
  -9   0  -5   -5.70    5.20
 -10   0  -5    0.80    6.30
 -10   0  -5   -3.30    4.70
 -11   0  -5  107.59   11.30
 -11   0  -5   99.49   13.00
 -12   0  -5  -11.20    7.00
 -12   0  -5   -3.00    3.90
 -13   0  -5    8.80    6.80
 -13   0  -5    3.50    4.80
 -14   0  -5   -0.70    7.40
 -14   0  -5    3.60    8.70
  15  -1  -5   37.10   21.40
 -15  -1   5   -3.00    6.30
 -15  -1   5    2.10    6.60
 -15   1   5    0.00    5.40
  15   1  -5    1.70    5.40
 -15   1   5   -9.30    5.80
 -14  -1   5   -0.50    8.00
 -14  -1   5   -1.20    4.60
  14   1  -5    3.10    6.90
 -14   1   5    4.30    6.90
 -14   1   5    7.90    7.40
 -13  -1   5    6.60    5.00
 -13  -1   5   -3.70    7.20
  13  -1  -5  -33.40   26.50
 -13   1   5    8.20    5.00
  13   1  -5    1.00   19.80
  13   1  -5    8.70    5.30
 -13   1   5   10.60    7.70
  12  -1  -5  -33.70   27.00
 -12  -1   5    5.40    6.40
 -12  -1   5   -0.60    5.50
  12  -1  -5   -0.50    4.60
 -12   1   5   -4.10    5.60
  12   1  -5   -2.40    5.50
  12   1  -5   -3.50   15.60
 -12   1   5    8.40    6.40
  10  -1  -5   44.30    6.60
 -10  -1   5   30.10    6.40
  10  -1  -5   69.69   30.40
 -10  -1   5   44.80    8.70
  10   1  -5   39.90    7.40
  10   1  -5   35.50   18.80
 -10   1   5   34.30    6.70
 -10   1   5   39.90    8.20
   9  -1  -5   12.00   15.50
  -9  -1   5    8.40    5.10
   9  -1  -5    4.00    3.50
  -9  -1   5   13.00    5.50
   9   1  -5   11.30    4.90
   9   1  -5    0.90   15.00
  -9   1   5   17.40    5.40
  -9   1   5    9.90    4.30
  -8  -1   5   38.00    6.00
   8  -1  -5   41.20    6.70
  -8  -1   5   41.30    8.10
   8  -1  -5   28.00    4.70
   8  -1  -5   33.80   17.40
   8   1  -5   29.10   14.80
   8   1  -5   31.50    5.20
  -8   1   5   33.90    4.60
   8   1  -5   35.80    6.10
  -8   1   5   33.40    6.30
  -8   1   5   29.30    5.60
   7  -1  -5  385.96   13.20
  -7  -1   5  362.36   14.90
  -7  -1   5  379.36   17.40
   7  -1  -5  373.66   15.70
   7  -1  -5  371.16   35.60
   7  -1  -5  353.86   14.20
  -7   1   5  372.46   14.10
   7   1  -5  366.56   13.80
  -7   1   5  369.46   12.90
   7   1  -5  411.36   36.50
   7   1  -5  399.06   16.10
  -7   1   5  391.76   15.60
  -6  -1   5  329.17   13.40
  -6  -1   5  327.27   15.00
   6  -1  -5  346.47   13.80
   6  -1  -5  318.87   12.40
   6  -1  -5  338.27   32.90
   6  -1  -5  370.46   11.70
  -6   1   5  318.47   12.20
  -6   1   5  336.27   11.30
   6   1  -5  337.87   13.80
   6   1  -5  335.77   12.40
  -6   1   5  324.87   13.10
   6   1  -5  358.46   31.90
   6   1  -5  324.87   14.00
  -5  -1   5  196.68    9.40
  -5  -1   5  206.08   11.70
   5  -1  -5  202.58    8.00
   5  -1  -5  210.28   10.00
  -5  -1   5  217.98    9.70
  -5  -1   5  235.28   24.40
   5  -1  -5  200.68   23.20
   5  -1  -5  202.58    9.10
  -5   1   5  209.38    9.80
   5   1  -5  216.48    9.70
   5   1  -5  204.28   25.10
  -5   1   5  201.68    6.70
   5   1  -5  209.38    9.40
   5   1  -5  205.08    9.80
  -5   1   5  206.18    8.10
  -5   1   5  213.68    9.10
  -4  -1   5   30.80    5.00
   4  -1  -5   21.80    3.40
  -4  -1   5   11.30    7.20
   4  -1  -5   23.90    3.40
   4  -1  -5   15.00    2.60
   4  -1  -5   17.40    8.00
  -4  -1   5   25.00    4.30
   4  -1  -5   25.30    4.00
  -4  -1   5   29.40    4.10
   4   1  -5   32.90   11.00
   4   1  -5   19.40    3.30
  -4   1   5   26.50    2.70
  -4   1   5   25.50    3.30
   4   1  -5   27.60    4.60
  -4   1   5   33.90    9.70
  -4   1   5   25.50    4.10
   4   1  -5   27.70    4.60
  -4   1   5   31.00    3.80
   4   1  -5   24.20    4.10
  -4   1   5   28.90    3.90
   4   1  -5   27.80    3.20
   2  -1  -5   23.40    2.80
   2  -1  -5   23.10    3.20
   2  -1  -5   18.20    7.80
  -2  -1   5   22.40    3.00
  -2  -1   5   28.40    4.20
  -2  -1   5   31.70    4.20
  -2  -1   5   31.60    5.40
  -2  -1   5   20.40    5.30
   2  -1  -5   28.90    3.20
   2  -1  -5   20.80    2.40
   2   1  -5   25.80    4.50
  -2   1   5   24.80    3.70
   2   1  -5   21.50    3.70
   2   1  -5   44.90   11.10
   2   1  -5   24.90    4.00
  -2   1   5   25.70    2.80
  -2   1   5   25.80    3.00
  -2   1   5   21.40    3.00
   2   1  -5   25.10    3.80
   1  -1  -5   21.80    2.50
  -1  -1   5   23.20    4.50
   1  -1  -5   20.30    2.80
   1  -1  -5   23.70    2.80
  -1  -1   5   24.70    3.90
  -1  -1   5   20.70    2.90
  -1  -1   5   32.30    4.10
  -1  -1   5   29.30    5.00
  -1   1   5   22.10    3.40
   1   1  -5   25.90    3.30
   1   1  -5   20.60    3.60
   1   1  -5   17.40    5.30
  -1   1   5   25.40    2.70
  -1   1   5   20.80    2.90
  -1   1   5   19.80    2.60
   1   1  -5   22.30    3.40
   0  -1  -5    7.20    2.20
   0  -1  -5    4.90    1.80
   0  -1   5    6.00    2.50
   0  -1   5    1.10    2.50
   0  -1  -5    3.50    1.60
   0  -1   5    2.90    2.40
   0   1  -5    6.00    3.20
   0   1  -5    3.10    2.10
   0   1   5    5.00    2.10
   0   1  -5    2.80    2.40
   0   1  -5    3.10    2.20
   0   1   5    6.70    2.80
   0   1   5    2.30    1.50
   0   1   5    5.20    1.90
   1  -1   5 1252.87   29.10
   1  -1   5 1258.67   28.30
  -1  -1  -5 1210.68   26.50
  -1  -1  -5 1248.48   28.60
   1  -1   5 1286.77   30.40
  -1   1  -5 1250.77   28.60
   1   1   5 1184.68   27.00
   1   1   5 1240.08   28.30
  -1   1  -5 1245.78   54.99
   1   1   5 1251.27   26.80
  -1   1  -5 1258.07   30.10
  -1   1  -5 1213.78   28.20
  -2  -1  -5   10.60    2.90
   2  -1   5   11.40    2.80
   2  -1   5    3.30    2.80
   2  -1   5    5.20    2.50
  -2  -1  -5    9.00    2.30
   2   1   5    9.60    2.70
   2   1   5    8.70    2.70
  -2   1  -5    3.50    3.90
  -2   1  -5    8.40    3.20
  -2   1  -5    8.10    3.80
   2   1   5   11.10    2.60
  -3  -1  -5  668.13   19.70
  -3  -1  -5  709.33   18.10
   3  -1   5  739.03   21.00
   3  -1   5  681.63   19.60
  -3   1  -5  691.73   19.30
   3   1   5  705.83   18.40
  -3   1  -5  714.93   20.70
   3   1   5  742.53   21.20
  -3   1  -5  674.03   37.00
   4  -1   5   72.59    6.20
  -4  -1  -5   62.39    6.30
   4  -1   5   75.49    6.50
  -4  -1  -5   68.89    5.30
  -4   1  -5   50.39   11.20
   4   1   5   66.79    5.60
  -4   1  -5   70.49    5.70
  -4   1  -5   63.99    6.20
  -5  -1  -5   76.19    7.60
   5  -1   5   82.79    7.20
  -5  -1  -5   82.19    6.30
  -5   1  -5   72.49    6.30
  -5   1  -5   70.29    8.10
   5   1   5   76.39    6.30
   6  -1   5    3.30    2.90
  -6  -1  -5   -3.50    3.80
  -6  -1  -5    1.60    2.30
   6   1   5    9.70    3.50
  -6   1  -5   -3.00    2.80
  -6   1  -5    3.30    4.00
  -6   1  -5  -17.70    9.80
  -7  -1  -5    0.70    3.50
  -7  -1  -5    8.20    4.00
  -7   1  -5    3.00    4.40
  -7   1  -5    2.00    3.70
  -8  -1  -5    8.00    4.60
  -8  -1  -5    7.30    5.90
  -8   1  -5   -1.00    4.00
  -8   1  -5   11.20    5.50
  -9  -1  -5   15.00    6.90
  -9  -1  -5   10.20    5.30
  -9   1  -5    6.90    6.30
  -9   1  -5   10.20    4.90
 -10  -1  -5   27.20    7.40
 -10  -1  -5   14.90    5.50
 -10   1  -5   18.20    7.60
 -10   1  -5   17.50    5.50
 -11  -1  -5   31.80    7.40
 -11  -1  -5   33.00    8.20
 -11   1  -5   41.40    8.00
 -11   1  -5   35.90    8.20
 -12  -1  -5   -9.80    6.80
 -12  -1  -5    4.70    4.20
 -12   1  -5    8.70    5.20
 -12   1  -5    4.30    5.90
 -13  -1  -5   -0.50    5.70
 -13  -1  -5    3.90    5.90
 -13   1  -5    9.20    5.90
 -13   1  -5    2.30    8.20
 -14  -1  -5    5.00    9.90
 -14   1  -5   10.40    8.70
 -14  -2   5   54.19   13.20
 -14  -2   5   57.29    9.80
  14  -2  -5   -1.40   35.50
 -14   2   5   58.19   10.40
  14   2  -5   47.20   10.30
 -13  -2   5   12.80    6.70
  13  -2  -5   -5.90   39.80
 -13  -2   5    8.40    8.30
 -13   2   5   -3.20    5.50
  13   2  -5    0.50    4.70
 -12  -2   5   11.40    6.50
 -12  -2   5   -2.90    5.10
  12  -2  -5  -58.59   31.50
 -12   2   5    0.50    5.30
  12   2  -5    4.00    5.10
 -11  -2   5   -0.50    3.40
  11  -2  -5  -25.40   20.30
 -11  -2   5   -5.60    4.50
 -11   2   5    2.10    5.00
  11   2  -5    2.70    6.00
  10  -2  -5  -21.20   22.80
 -10  -2   5   -5.70    3.80
 -10  -2   5   -3.20    4.30
  10   2  -5   -4.60    4.60
 -10   2   5    4.70    4.80
 -10   2   5   -6.80    3.40
  -9  -2   5   56.79   10.40
  -9  -2   5   42.10    6.90
   9  -2  -5   21.60   23.20
  -9   2   5   55.09    7.60
  -9   2   5   47.80    7.00
   9   2  -5   61.49    8.20
  -8  -2   5    2.80    3.10
   8  -2  -5   14.20   15.20
  -8  -2   5   -1.00    3.90
   8  -2  -5   -1.80    2.90
   8   2  -5   -1.90    3.00
  -8   2   5    8.20    3.60
   8   2  -5    4.30    3.80
  -8   2   5    2.50    3.20
  -8   2   5    4.90    3.70
  -7  -2   5   19.10    5.00
   7  -2  -5   21.90   13.80
   7  -2  -5   26.90    3.80
  -7  -2   5    9.70    6.00
   7  -2  -5   19.60    4.50
  -7   2   5   30.00    4.70
  -7   2   5   16.30    3.40
   7   2  -5   30.60    5.70
  -7   2   5   31.80    4.70
  -7   2   5   21.90    4.50
   7   2  -5   21.00    5.60
  -6  -2   5    0.00    4.30
   6  -2  -5   -0.90    9.70
   6  -2  -5    3.30    2.10
  -6  -2   5    0.60    3.40
   6  -2  -5    4.60    3.00
  -6  -2   5    4.70    3.30
  -6   2   5    1.30    2.20
  -6   2   5    0.40    2.30
   6   2  -5    1.50    3.20
  -6   2   5    2.10    2.50
  -6   2   5    2.60    2.80
   6   2  -5    2.90    3.70
   6   2  -5    1.60    2.90
   6   2  -5    0.50    3.80
  -5  -2   5    9.60    4.80
   5  -2  -5    5.30    2.00
  -5  -2   5    8.30    3.30
   5  -2  -5    4.90    8.30
   5  -2  -5    9.80    2.90
  -5  -2   5    5.70    3.40
   5  -2  -5    7.90    2.40
   5   2  -5    5.80    3.40
  -5   2   5    6.40    2.30
  -5   2   5    3.40    1.70
   5   2  -5    5.00    3.50
  -5   2   5    8.90    3.10
   5   2  -5   12.70    4.20
  -5   2   5    7.90    2.90
   5   2  -5   12.90    4.40
  -4  -2   5    2.30    2.40
   4  -2  -5   -0.90    2.00
   4  -2  -5    1.30    1.30
  -4  -2   5   -0.90    2.60
   4  -2  -5   -0.80    1.70
  -4  -2   5   -3.20    3.60
   4  -2  -5   -2.10    4.60
   4  -2  -5   -0.50    1.60
  -4   2   5   -0.50    1.90
  -4   2   5   -1.60    2.50
   4   2  -5    0.90    3.00
  -4   2   5   -0.40    1.30
  -4   2   5   -0.90    1.20
   4   2  -5   -1.60    2.00
  -4   2   5   -2.00    1.30
   4   2  -5    1.80    3.00
   4   2  -5    3.60    3.40
  -3  -2   5   11.00    3.40
  -3  -2   5   -6.50    6.70
  -3  -2   5    8.30    4.50
   3  -2  -5    6.70    1.60
  -3  -2   5   14.60    3.30
   3  -2  -5   10.50    2.00
   3  -2  -5    0.30    4.80
   3  -2  -5   12.90    1.60
   3  -2  -5   11.40    2.40
  -3   2   5   10.90    2.40
  -3   2   5   11.10    3.40
   3   2  -5    9.80    3.50
   3   2  -5    4.60    3.40
  -3   2   5    8.60    1.90
   3   2  -5    5.70    3.50
   3   2  -5   11.40    3.70
   2  -2  -5    3.40    1.50
  -2  -2   5    0.60    1.90
   2  -2  -5    2.70    1.40
   2  -2  -5   -0.40    5.20
   2  -2  -5    3.20    0.80
  -2  -2   5    3.80    4.00
  -2  -2   5   -2.20    5.70
  -2  -2   5    1.00    2.40
  -2   2   5    3.00    1.50
   2   2  -5    1.00    3.00
  -2   2   5    2.20    1.80
   2   2  -5   -1.10    3.40
   2   2  -5    0.40    3.50
  -2   2   5   -1.50    2.20
   2   2  -5    1.40    2.90
   1  -2  -5    1.90    1.20
  -1  -2   5   -1.40    2.40
  -1  -2   5   -2.40    3.30
  -1  -2   5   -3.90    3.10
  -1  -2   5    2.20    2.30
   1  -2  -5    1.30    0.70
   1   2  -5   -0.40    2.80
  -1   2   5    0.70    1.30
   1   2  -5   -0.80    3.00
   1   2  -5    5.20    3.70
  -1   2   5    2.30    2.70
  -1   2   5   -1.30    1.70
   0  -2   5  377.96   13.40
   0  -2   5  382.66   13.10
   0  -2  -5  382.26   10.50
   0  -2   5  374.16   15.30
   0  -2  -5  379.16    8.70
   0   2  -5  379.96   12.70
   0   2  -5  382.26   13.50
   0   2   5  388.96    9.80
   0   2  -5  412.16   13.40
   0   2   5  382.66    9.50
  -1  -2  -5  431.06   10.60
  -1  -2  -5  441.76   12.30
   1  -2   5  453.45   15.20
  -1  -2  -5  439.06   10.70
   1  -2   5  477.35   14.90
  -1   2  -5  434.06   14.80
   1   2   5  443.96   11.70
  -1   2  -5  454.55   14.40
   1   2   5  452.15   10.00
  -1   2  -5  456.55   14.10
   1   2   5  426.06    9.80
   2  -2   5   53.39    5.50
  -2  -2  -5   54.19    3.40
  -2  -2  -5   59.59    4.40
   2  -2   5   58.89    5.60
   2   2   5   59.39    4.60
   2   2   5   54.99    4.20
  -2   2  -5   63.99    6.10
   2   2   5   53.79    3.90
  -2   2  -5   50.19    5.50
   3  -2   5  438.46   15.00
  -3  -2  -5  414.96   13.80
   3  -2   5  408.96   15.20
  -3  -2  -5  400.36   11.70
  -3   2  -5  426.86   14.60
   3   2   5  422.86   12.50
   3   2   5  421.36   12.70
  -3   2  -5  417.66   15.20
   4  -2   5  189.88    9.90
  -4  -2  -5  185.38    7.90
   4  -2   5  174.38   10.20
  -4  -2  -5  174.78    9.70
  -4   2  -5  180.98    9.70
  -4   2  -5  171.68   10.10
   4   2   5  176.58    8.10
  -5  -2  -5    4.60    2.60
  -5  -2  -5    2.30    3.40
   5  -2   5   -0.20    3.00
   5   2   5    1.00    2.40
  -5   2  -5    8.10    4.30
  -5   2  -5   -0.80    3.70
  -6  -2  -5    8.90    3.30
  -6  -2  -5    5.50    4.10
   6  -2   5    8.20    4.00
  -6   2  -5   11.20    4.80
   6   2   5    2.50    3.00
  -6   2  -5    5.70    3.70
  -7  -2  -5    1.70    4.80
   7  -2   5   -5.90    2.10
  -7  -2  -5   -0.10    2.90
  -7   2  -5   -0.50    3.30
  -7   2  -5    6.40    5.20
  -8  -2  -5    7.90    4.20
   8  -2   5    3.00    4.20
  -8  -2  -5   10.60    6.10
  -8   2  -5    9.80    4.40
  -8   2  -5    6.60    5.50
  -9  -2  -5   12.40    4.90
  -9  -2  -5    8.80    6.80
   9  -2   5    8.10    4.10
  -9   2  -5    5.30    5.70
  -9   2  -5   10.30    5.90
 -10  -2  -5    0.60    4.50
  10  -2   5    3.90    5.30
 -10   2  -5   -1.90    5.60
 -10   2  -5    8.50    6.20
  11  -2   5   13.60    6.00
 -11  -2  -5   11.10    7.60
 -11   2  -5   20.50    7.50
 -11   2  -5    9.10    6.70
  12  -2   5    4.60    5.10
 -12  -2  -5    4.70    7.80
 -12   2  -5   -1.40    6.70
 -12  -3   5    7.30    8.60
  12   3  -5    9.00    7.30
 -12   3   5    1.80    4.60
  11  -3  -5   37.50   39.00
 -11  -3   5   -1.80    8.00
 -11   3   5    7.90    5.50
  11   3  -5    3.30    5.90
 -11   3   5    1.10    4.20
 -10  -3   5    3.40    6.90
  10  -3  -5  -32.10   20.40
 -10   3   5    1.70    4.40
  10   3  -5   -1.70    4.10
 -10   3   5    0.70    3.90
  -9  -3   5   -2.10    6.30
   9  -3  -5   32.70   14.80
   9   3  -5    1.10    4.70
  -9   3   5    0.20    3.30
  -9   3   5    3.20    4.70
   8  -3  -5   44.70   15.50
  -8  -3   5   16.20    6.10
   8   3  -5   25.00    6.00
  -8   3   5   14.60    4.50
  -8   3   5   13.90    5.00
   7  -3  -5   44.20   16.10
  -7  -3   5   26.30    7.90
   7   3  -5   35.10    6.60
  -7   3   5   26.00    4.20
  -7   3   5   27.20    6.10
   6  -3  -5   94.19   22.70
  -6  -3   5   88.99   10.80
  -6  -3   5   94.19    8.00
  -6   3   5   97.49    8.10
   6   3  -5  103.19    9.20
   6   3  -5   87.09    9.60
  -6   3   5  102.79    5.70
  -5  -3   5   45.70    8.20
   5  -3  -5   45.60   18.00
  -5  -3   5   49.20    6.30
   5   3  -5   66.49    7.10
  -5   3   5   56.99    3.60
  -5   3   5   55.39    3.30
  -5   3   5   53.79    7.50
   5   3  -5   57.19    8.60
   5   3  -5   54.79    6.70
  -4  -3   5    1.20    4.90
  -4  -3   5    2.50    3.30
   4  -3  -5    6.30    2.10
   4   3  -5    1.50    3.60
   4   3  -5    9.20    4.20
   4   3  -5   10.90    5.10
  -4   3   5   11.60    5.00
  -2  -3   5    9.70    4.90
   2  -3  -5   -2.70    8.40
  -2  -3   5   -5.80    7.80
  -2  -3   5   11.40    3.60
   2   3  -5    4.40    3.30
  -2   3   5    8.70    4.00
   2   3  -5   12.90    4.00
   2   3  -5    4.80    3.80
   2   3  -5    8.80    3.50
  -1  -3   5   12.70    3.50
  -1  -3   5    6.30    2.90
  -1  -3   5   -3.20    6.50
  -1  -3   5   11.20    4.70
   1   3  -5   12.80    3.80
   1   3  -5    8.30    3.40
   1   3  -5   10.60    3.60
   1   3  -5   20.10    6.30
  -1   3   5   11.30    4.40
   0  -3   5    5.10    2.70
   0  -3   5    5.00    4.20
   0  -3   5   -5.10    5.10
   0  -3  -5    7.30    0.90
   0   3  -5    5.90    4.20
   0   3  -5    8.20    3.60
   0   3   5    7.20    4.10
   0   3  -5    9.70    4.00
   0   3  -5    2.30    3.10
   1  -3   5   57.99    5.90
  -1  -3  -5   56.29    3.40
   1  -3   5   56.99    7.70
  -1   3  -5   57.29    6.30
  -1   3  -5   59.09    6.00
  -2  -3  -5    7.20    2.20
   2  -3   5    5.40    3.30
  -2   3  -5    9.90    4.10
   2   3   5    4.50    1.60
  -2   3  -5    0.70    3.20
   2   3   5    4.20    1.70
   3  -3   5   30.90    5.00
  -3  -3  -5   30.50    4.10
  -3   3  -5   30.40    5.20
   3   3   5   32.20    3.50
   3   3   5   25.70    3.30
  -3   3  -5   27.60    5.10
   4  -3   5    1.10    3.10
  -4  -3  -5    1.50    3.00
  -4   3  -5   -2.10    3.00
   4   3   5   -0.50    2.50
  -4   3  -5    1.00    3.80
  -5  -3  -5   11.50    4.60
  -5   3  -5   11.60    5.30
  -6  -3  -5    3.60    4.60
  -6   3  -5   -2.00    4.30
  -7  -3  -5   -1.30    4.40
  -7   3  -5   -3.20    4.00
  -8  -3  -5    1.90    5.00
  -8   3  -5   -2.90    4.70
  -9  -3  -5   23.90    7.30
  -9   3  -5   22.80    6.90
 -10  -3  -5   38.50    9.30
 -10   3  -5   43.70    8.70
 -11  -3  -5   26.80   10.00
  -9  -4   5    3.20    6.80
  -9   4   5    2.70    5.40
   9   4  -5   -2.60    5.00
  -8  -4   5   26.70    8.60
   8   4  -5    6.10    5.80
  -8   4   5   32.20    8.00
  -7   4   5   12.10    6.30
   7   4  -5   11.00    5.60
  -6  -4   5   39.40    9.30
   6  -4  -5   49.20   20.00
  -6   4   5   54.89    9.50
   6   4  -5   38.90    9.10
   6   4  -5   58.99    7.60
  -5  -4   5    0.20    6.10
   5  -4  -5  -13.00   11.50
  -5   4   5    3.30    5.30
   5   4  -5    5.80    4.30
   5   4  -5   -2.90    3.80
  -4  -4   5   -5.00    4.80
   4   4  -5    1.90    4.00
   4   4  -5    4.60    5.10
  -4   4   5   -2.40    5.50
  -3  -4   5   -2.30    5.10
   3   4  -5    3.90    6.10
  -3   4   5   -4.00    5.60
  -2  -4   5    0.80    4.10
   2   4  -5   -0.20    3.60
   2   4  -5   -0.60    5.60
  -2   4   5   -6.20    5.20
  -1  -4   5   -3.20    4.60
  -1   4   5    3.80    4.50
   1   4  -5    2.20    5.60
   0  -4   5    1.80    5.20
   0   4  -5    2.80    3.60
   0   4  -5    9.30    5.70
   1  -4   5    0.80    4.80
  -1   4  -5    2.20    3.80
  -1   4  -5    1.90    5.00
   2  -4   5    3.80    5.10
  -2   4  -5    6.70    7.20
  -2   4  -5    6.80    4.20
   3  -4   5    1.80    4.90
  -3   4  -5   11.20    6.40
  -3   4  -5    1.40    4.10
  -4   4  -5   -2.40    4.00
  -5  -4  -5    0.60    2.90
  -5   4  -5    1.60    4.50
  -6  -4  -5    5.80    4.00
  -6   4  -5    4.40    5.30
  -7  -4  -5   -1.10    4.50
  -7   4  -5   -0.40    5.00
 -16   0   6   46.60   12.80
 -16   0   6   57.39   12.10
 -15   0   6    2.50    5.90
  15   0  -6    2.70   14.10
 -15   0   6   -1.20    5.20
  15   0  -6   -4.20    3.90
  14   0  -6    0.40   19.50
 -14   0   6   10.30    8.80
  14   0  -6    1.90    6.10
 -14   0   6    2.00    6.50
  13   0  -6  -14.30   15.50
  13   0  -6   -5.20    3.20
 -13   0   6   -4.10    7.30
 -13   0   6    5.90    6.20
  12   0  -6   50.89    7.70
  12   0  -6   36.90   26.10
 -12   0   6   49.40    9.50
 -12   0   6   60.09    8.90
  11   0  -6    0.30    4.70
 -11   0   6   -4.70    4.20
 -11   0   6   -5.70    3.40
  10   0  -6   -2.00   22.40
 -10   0   6   -4.50    3.30
  10   0  -6    1.60    4.40
 -10   0   6   -6.10    3.20
   8   0  -6   58.89   22.70
   8   0  -6   74.49    7.20
  -8   0   6   80.59    8.30
  -8   0   6   92.79    9.90
   8   0  -6   73.09    7.40
  -7   0   6   -4.60    3.70
   7   0  -6    3.20    3.40
  -7   0   6    2.60    3.80
   7   0  -6    0.70   13.70
   7   0  -6   -1.10    2.00
  -6   0   6    1.90    4.20
  -6   0   6   -1.30    1.80
   6   0  -6   -1.60    2.70
  -6   0   6   -1.00    2.40
   6   0  -6    3.10    2.80
   6   0  -6   -1.40    3.20
   6   0  -6    9.10   10.60
  -5   0   6   -1.00    2.70
   5   0  -6   -2.90    3.10
  -5   0   6    2.70    2.60
  -5   0   6    3.20    5.20
   5   0  -6   -0.10    7.40
  -5   0   6   -0.20    3.10
   5   0  -6   -3.00    2.90
   5   0  -6   -3.50    2.40
   4   0  -6  107.19    6.70
  -4   0   6  103.19    6.50
  -4   0   6   90.29   15.00
   4   0  -6   93.19    6.90
  -4   0   6   99.29    5.60
   4   0  -6  100.49    5.80
   4   0  -6   94.79   15.60
  -4   0   6   88.59    6.10
  -4   0   6   92.99    8.00
   4   0  -6   95.89    6.40
   3   0  -6    2.50    3.00
   3   0  -6    0.00    2.90
   3   0  -6    0.40    1.70
   3   0  -6   -0.60    5.50
  -3   0   6   -1.40    1.60
   3   0  -6   -0.30    1.90
  -3   0   6   -1.80    2.20
  -3   0   6   -0.10    2.80
  -3   0   6   -1.70    2.30
  -3   0   6    0.80    3.90
  -2   0   6  751.52   19.70
  -2   0   6  764.02   22.10
   2   0  -6  753.32   20.30
   2   0  -6  777.82   21.90
  -2   0   6  779.32   20.10
   2   0  -6  762.62   45.60
   2   0  -6  765.32   19.10
   2   0  -6  774.12   19.60
  -2   0   6  761.72   18.90
  -1   0   6   -1.20    2.00
   1   0  -6   -2.10    2.00
  -1   0   6    2.80    3.40
  -1   0   6   -0.50    1.80
   1   0  -6   -1.20    4.70
   1   0  -6    1.40    1.80
  -1   0   6   -2.00    1.20
   1   0  -6    2.60    2.00
   0   0   6    0.90    2.00
   0   0  -6    0.80    2.40
   0   0  -6   -2.40    1.50
   0   0  -6   -1.20    2.00
   0   0   6   -2.50    1.20
   0   0   6   -0.70    2.20
  -1   0  -6    4.10    2.70
  -1   0  -6   -4.50    2.20
   1   0   6    4.00    2.30
   1   0   6    0.40    1.80
  -1   0  -6    1.30    2.40
   1   0   6   -0.20    2.30
  -2   0  -6  284.27   10.20
   2   0   6  277.47   10.90
  -2   0  -6  262.37   11.00
   2   0   6  278.97   10.10
   2   0   6  271.37   11.00
  -3   0  -6    0.70    2.80
   3   0   6    6.90    3.30
   3   0   6   -0.70    2.40
  -3   0  -6   -1.30    2.30
  -4   0  -6  341.07   12.50
  -4   0  -6  346.57   14.40
   4   0   6  340.27   12.90
  -5   0  -6   -2.20    2.30
   5   0   6   -0.10    2.60
  -5   0  -6   -5.20    3.90
  -6   0  -6  108.59    7.80
  -6   0  -6  114.89    9.10
  -7   0  -6   -0.10    2.80
  -7   0  -6    3.70    5.30
  -8   0  -6  166.78   12.20
  -8   0  -6  165.68   10.70
  -9   0  -6   -4.10    5.80
  -9   0  -6    4.30    4.00
 -10   0  -6   18.60    6.90
 -10   0  -6   16.20    7.80
 -11   0  -6    7.50    7.30
 -11   0  -6    4.80    5.80
 -12   0  -6   -0.60    5.80
 -12   0  -6    4.00    8.30
 -13   0  -6   -0.30    4.40
 -13   0  -6    5.60    8.40
  15  -1  -6   24.60   25.60
 -15  -1   6   10.60    9.50
 -15  -1   6    7.80    6.00
  15   1  -6  -11.50    6.70
 -15   1   6    5.00    7.60
 -14  -1   6   15.40    7.30
  14  -1  -6   19.90   34.70
 -14  -1   6   19.00    8.50
 -14   1   6   21.10    7.30
  14   1  -6   35.90    8.00
 -14   1   6   10.00    8.10
  14   1  -6  -23.40   23.20
 -13  -1   6    3.60    6.20
 -13  -1   6    5.50    6.70
  13  -1  -6   -3.90    3.20
  13  -1  -6  -20.30   22.20
 -13   1   6   -9.30    5.90
  13   1  -6    8.90   18.00
 -13   1   6    1.00    4.80
  13   1  -6   -8.00    5.30
 -12  -1   6   -1.60    7.50
 -12  -1   6    2.30    5.70
  12  -1  -6    5.40    5.00
  12  -1  -6  -27.40   19.90
 -12   1   6    5.80    5.80
  12   1  -6    9.50    6.50
  12   1  -6    2.20   17.00
 -12   1   6    3.50    6.70
  11  -1  -6   72.09   27.20
  11  -1  -6    6.30    3.60
 -11  -1   6   -0.70    3.70
 -11  -1   6    3.90    7.40
 -11   1   6    1.60    3.70
  11   1  -6   -3.50   16.20
  11   1  -6   -5.10    4.90
 -11   1   6    0.50    4.10
  10  -1  -6    6.50    4.00
 -10  -1   6    1.80    4.90
 -10  -1   6    1.60    5.00
  10   1  -6  -21.00   15.80
 -10   1   6    1.10    4.90
 -10   1   6   -6.10    4.30
  10   1  -6    1.60    4.90
   9  -1  -6    8.40   19.30
  -9  -1   6   16.20    6.00
   9  -1  -6   10.40    4.30
  -9  -1   6   10.50    5.50
  -9   1   6   14.90    5.80
   9   1  -6   16.20    5.50
   9   1  -6   11.30   13.00
  -9   1   6    9.40    5.30
   9   1  -6   15.90    4.60
  -8  -1   6   20.70    5.60
   8  -1  -6   19.90    5.50
  -8  -1   6   32.60    5.70
   8  -1  -6   23.90   13.00
   8  -1  -6   24.40    4.20
   8  -1  -6   23.50    4.80
   8   1  -6   21.80    5.20
   8   1  -6   14.40   12.60
   8   1  -6   14.10    5.10
  -8   1   6   25.70    6.20
  -8   1   6   29.80    5.10
  -8   1   6   26.70    4.80
   7  -1  -6  103.09    6.90
   7  -1  -6  125.79   23.40
  -7  -1   6  114.19   10.60
   7  -1  -6  106.49    8.20
  -7  -1   6  111.69    8.20
   7  -1  -6  122.89    9.30
  -7   1   6  109.89    8.20
   7   1  -6   95.19    7.20
  -7   1   6  119.69    9.20
  -7   1   6  105.39    7.00
   7   1  -6  114.59   19.90
   7   1  -6  111.69    8.60
   6  -1  -6  259.47    9.90
   6  -1  -6  241.18   27.40
  -6  -1   6  233.98   13.10
   6  -1  -6  228.08   11.40
   6  -1  -6  238.18   11.10
  -6  -1   6  236.28   11.20
  -6   1   6  243.68   11.00
  -6   1   6  239.78    9.40
  -6   1   6  250.77    7.40
   6   1  -6  253.27   29.70
  -6   1   6  233.08   12.00
   6   1  -6  233.78   11.70
   6   1  -6  255.47   11.30
  -5  -1   6    3.00    4.30
  -5  -1   6    6.80    4.30
   5  -1  -6    4.50    2.20
  -5  -1   6    4.10    2.50
   5  -1  -6   -1.30    2.30
   5  -1  -6    1.40    2.80
  -5  -1   6    1.90    3.40
   5  -1  -6   -3.00    6.00
  -5   1   6   -0.90    2.90
  -5   1   6    2.30    1.60
   5   1  -6    0.30    3.70
  -5   1   6    0.80    3.00
   5   1  -6    2.40    1.90
   5   1  -6    3.10    2.80
  -5   1   6    3.90    2.30
   5   1  -6   -0.30    9.40
   5   1  -6    2.00    2.50
   4  -1  -6   69.79    4.70
  -4  -1   6   74.69    6.50
   4  -1  -6   61.29   13.80
  -4  -1   6   71.39   13.20
   4  -1  -6   71.19    5.50
  -4  -1   6   56.39    5.60
   4  -1  -6   79.09    6.20
  -4  -1   6   79.49    7.30
   4   1  -6   60.59    5.90
  -4   1   6   64.59    4.80
  -4   1   6   73.39    6.10
   4   1  -6   76.39    5.60
  -4   1   6   73.09    5.60
  -4   1   6   71.99    3.70
   4   1  -6   74.39    7.00
   4   1  -6   70.59    4.30
  -4   1   6   66.19    4.60
  -3  -1   6   25.40    3.90
   3  -1  -6   20.00    9.20
  -3  -1   6   23.30    4.00
   3  -1  -6   20.90    2.90
  -3  -1   6   19.60    6.10
  -3  -1   6   21.80    5.40
   3  -1  -6   23.80    3.50
   3  -1  -6   23.70    3.30
   3  -1  -6   19.80    3.70
  -3   1   6   24.60    3.10
   3   1  -6   21.60    4.00
   3   1  -6   19.70    3.80
  -3   1   6   26.70    4.20
  -3   1   6   17.20    3.30
   3   1  -6   27.60    4.60
  -3   1   6   19.20    3.00
   3   1  -6   27.40    9.70
   3   1  -6   24.80    3.20
   2  -1  -6  511.85   14.40
  -2  -1   6  514.15   15.60
   2  -1  -6  512.45   13.60
   2  -1  -6  511.05   13.10
  -2  -1   6  498.45   14.60
  -2  -1   6  493.65   30.10
   2  -1  -6  467.25   37.50
  -2  -1   6  513.95   18.20
  -2  -1   6  486.25   15.60
   2  -1  -6  512.35   15.40
  -2   1   6  489.05   13.80
   2   1  -6  498.15   15.30
   2   1  -6  506.25   15.00
  -2   1   6  504.15   15.00
  -2   1   6  502.95   13.20
   2   1  -6  495.55   15.80
  -2   1   6  500.05   13.80
  -1  -1   6  149.29    6.90
  -1  -1   6  151.78    7.60
   1  -1  -6  153.18    6.50
  -1  -1   6  162.78    9.80
  -1  -1   6  149.59    7.80
   1  -1  -6  149.09    6.00
   1  -1  -6  135.89    6.60
  -1   1   6  144.59    7.60
  -1   1   6  143.59    6.20
   1   1  -6  157.68    7.70
  -1   1   6  146.69    6.70
  -1   1   6  155.28    6.50
   1   1  -6  153.08    8.00
   1   1  -6  158.48    7.70
   0  -1   6   11.80    2.90
   0  -1   6    7.40    2.90
   0  -1   6    5.50    2.60
   0  -1  -6    6.40    2.10
   0  -1  -6   11.50    2.50
   0  -1  -6    5.10    2.50
   0   1  -6    9.40    2.80
   0   1  -6    4.20    2.70
   0   1  -6    9.10    3.30
   0   1   6   10.10    2.40
   0   1   6    8.60    2.80
   0   1  -6    6.00    3.20
   0   1   6    9.80    2.50
   0   1   6   11.40    3.10
   1  -1   6  497.95   15.80
   1  -1   6  525.85   16.60
  -1  -1  -6  509.85   13.70
  -1  -1  -6  485.95   15.00
  -1   1  -6  522.35   15.50
  -1   1  -6  490.85   16.40
   1   1   6  498.55   14.70
  -1   1  -6  498.85   26.10
  -1   1  -6  495.15   15.00
   1   1   6  511.45   13.90
   1   1   6  512.35   14.40
   2  -1   6    1.00    2.40
  -2  -1  -6    0.90    2.50
   2  -1   6    0.50    3.00
  -2  -1  -6   -0.60    1.90
  -2   1  -6    2.00    2.40
   2   1   6    0.40    2.10
  -2   1  -6    3.40    3.80
  -2   1  -6   -4.40    2.60
   2   1   6   -2.70    2.40
   3  -1   6    3.80    2.60
  -3  -1  -6    5.10    2.60
   3  -1   6    1.50    2.80
  -3  -1  -6    1.70    1.80
  -3   1  -6    4.50    3.30
  -3   1  -6    6.50    4.70
   3   1   6    2.00    2.70
  -3   1  -6    5.10    3.90
   3   1   6    2.80    2.70
   4  -1   6    3.40    3.70
  -4  -1  -6    8.80    3.00
  -4  -1  -6   11.40    4.20
  -4   1  -6    1.10    4.50
  -4   1  -6    6.00    3.20
   4   1   6    7.20    3.00
   4   1   6    9.80    3.20
  -4   1  -6    1.50    7.40
  -5  -1  -6   79.19    6.50
  -5  -1  -6   84.09    8.10
   5  -1   6   88.89    7.90
  -5   1  -6   88.09    8.60
  -5   1  -6   77.69    6.80
  -5   1  -6   65.09   14.70
   5   1   6   82.49    6.60
  -7  -1  -6   91.39    7.50
   7  -1   6   85.79    7.90
  -7  -1  -6   81.19   10.00
  -7   1  -6   84.99    8.80
  -7   1  -6   85.09    9.20
  -8  -1  -6   41.80    7.60
  -8  -1  -6   47.40    7.20
   8  -1   6   60.79    8.10
  -8   1  -6   49.90    8.00
  -8   1  -6   61.79    8.30
  -9  -1  -6   71.39    7.70
  -9  -1  -6   81.69   10.30
  -9   1  -6   66.19   10.40
  -9   1  -6   62.69    8.50
 -10  -1  -6    4.30    5.00
 -10  -1  -6   -2.50    4.20
 -10   1  -6   -4.00    4.30
 -10   1  -6    0.40    4.20
 -11  -1  -6    6.30    5.40
 -11  -1  -6    2.30    5.20
 -11   1  -6   -2.80    5.40
 -11   1  -6    3.20    5.80
 -12  -1  -6    4.00    7.30
 -12  -1  -6    2.10    4.40
 -12   1  -6   -4.70    6.00
 -12   1  -6    1.10    7.70
 -13  -1  -6   -1.90    6.50
 -13  -1  -6    7.80    6.80
 -13   1  -6    8.60    7.20
 -13   1  -6    2.30    6.20
 -14  -2   6   -2.20    6.60
 -14  -2   6    0.80    6.10
 -14   2   6    1.50    6.40
  14   2  -6   12.90    6.60
 -13  -2   6   -5.60    4.80
  13  -2  -6   45.30   37.20
 -13  -2   6   -8.90    4.80
 -13   2   6   -5.70    5.60
  13   2  -6    3.80    6.70
 -12  -2   6    4.90    4.50
 -12  -2   6   -4.80    7.50
  12  -2  -6  -31.80   24.20
 -12   2   6    1.60    5.60
  12   2  -6    0.60    6.40
  11  -2  -6  -38.00   26.60
 -11  -2   6    5.10    5.70
 -11  -2   6   -3.60    7.20
 -11   2   6    9.70    5.70
  11   2  -6   -3.20    5.60
 -10  -2   6   29.00    8.00
 -10  -2   6   18.90    6.60
  10  -2  -6   -9.40   23.00
 -10   2   6   18.20    5.60
  10   2  -6   22.60    6.90
   9  -2  -6    5.90    3.00
   9  -2  -6    6.70   14.40
  -9  -2   6    7.30    6.70
  -9  -2   6   14.80    4.70
   9   2  -6    1.90    4.80
  -9   2   6    4.80    4.30
   9   2  -6    1.90    3.80
  -9   2   6    7.10    4.60
  -8  -2   6   34.20    6.60
   8  -2  -6   28.70    4.60
   8  -2  -6   17.20   16.80
  -8  -2   6   44.90    9.00
  -8   2   6   33.10    5.00
   8   2  -6   28.30    6.60
  -8   2   6   34.40    5.50
  -8   2   6   33.40    4.80
  -8   2   6   38.80    6.10
   8   2  -6   31.90    5.70
   7  -2  -6   38.00    5.90
  -7  -2   6   26.20    5.20
   7  -2  -6   40.00   17.10
   7  -2  -6   33.50    4.10
  -7  -2   6   27.70    7.50
  -7   2   6   27.50    4.60
  -7   2   6   34.10    4.50
   7   2  -6   32.00    6.00
  -7   2   6   37.60    5.60
   7   2  -6   37.70    6.80
  -7   2   6   42.30    5.60
   6  -2  -6   -0.30    2.50
   6  -2  -6    1.50    3.10
  -6  -2   6   -0.50    3.40
   6  -2  -6   -2.70    9.80
  -6  -2   6   -0.60    4.70
   6  -2  -6    1.20    1.90
  -6   2   6    1.00    2.40
  -6   2   6    3.10    2.60
  -6   2   6    5.00    3.40
  -6   2   6    0.50    2.70
   6   2  -6    3.90    4.60
   6   2  -6   -0.40    2.90
   6   2  -6   -2.50    3.70
   5  -2  -6  102.59    5.30
   5  -2  -6  107.09   20.20
   5  -2  -6  108.79    6.70
  -5  -2   6  103.29    9.80
  -5  -2   6   94.59    7.10
  -5  -2   6   96.99    7.20
   5  -2  -6  102.39    7.10
   5   2  -6   99.79    7.20
   5   2  -6  104.19    7.20
   5   2  -6   99.19    8.40
  -5   2   6  108.99    6.50
   5   2  -6   99.89    8.00
  -5   2   6  104.49    5.70
  -5   2   6  105.89    6.50
   4  -2  -6   -3.20    8.00
   4  -2  -6    0.10    1.40
   4  -2  -6    1.20    1.90
  -4  -2   6   -4.40    6.40
  -4  -2   6    3.70    3.00
  -4  -2   6    5.00    3.50
  -4  -2   6    3.40    3.30
   4  -2  -6   -1.70    2.00
   4   2  -6   -4.40    2.90
   4   2  -6    1.40    2.90
   4   2  -6    2.00    3.20
  -4   2   6   -1.10    1.70
  -4   2   6    0.50    2.20
  -4   2   6   -1.50    1.30
  -4   2   6   -0.10    2.40
   4   2  -6   -2.10    3.50
  -4   2   6    3.20    1.80
   3  -2  -6  161.68    5.60
   3  -2  -6  177.28    6.20
  -3  -2   6  182.08    9.40
   3  -2  -6  171.68   24.20
  -3  -2   6  162.68   10.40
   3  -2  -6  166.08    7.00
  -3  -2   6  187.38   17.80
   3  -2  -6  169.08    7.80
  -3  -2   6  187.58    9.60
  -3   2   6  177.18    8.60
   3   2  -6  172.68    9.00
  -3   2   6  177.18    6.90
  -3   2   6  178.98    5.00
   3   2  -6  193.48   10.00
   3   2  -6  186.88    9.70
   3   2  -6  169.98    9.20
  -3   2   6  166.98    5.00
  -2  -2   6    0.10    4.00
   2  -2  -6   -2.40    1.30
   2  -2  -6   -0.80    5.70
   2  -2  -6    0.30    1.20
  -2  -2   6    0.90    2.80
  -2  -2   6    1.40    2.30
   2  -2  -6    0.50    1.10
  -2  -2   6    5.40    2.50
  -2   2   6    2.70    1.50
  -2   2   6    2.20    2.90
   2   2  -6   -3.30    2.80
  -2   2   6    0.70    1.90
   2   2  -6   -0.20    2.20
   2   2  -6    4.90    3.50
   2   2  -6   -0.90    2.20
  -1  -2   6   49.90    5.00
  -1  -2   6   70.19    6.00
   1  -2  -6   60.29    3.00
  -1  -2   6   59.29    5.60
   1  -2  -6   64.59    4.00
  -1  -2   6   60.69    7.80
   1   2  -6   54.09    5.90
  -1   2   6   59.59    4.00
   1   2  -6   55.89    5.90
  -1   2   6   59.99    3.60
   1   2  -6   61.09    6.30
   0  -2   6   16.60    5.00
   0  -2  -6   28.20    3.20
   0  -2  -6   23.30    2.30
   0  -2   6   28.50    4.70
   0  -2   6   19.80    3.90
   0   2  -6   20.20    4.60
   0   2   6   24.80    3.10
   0   2   6   24.30    1.90
   0   2   6   25.60    1.80
   0   2  -6   22.10    4.20
   0   2  -6   27.90    4.70
  -1  -2  -6    2.20    2.00
  -1  -2  -6    3.10    1.40
   1  -2   6    4.30    3.20
   1  -2   6    0.80    2.50
  -1   2  -6    3.80    2.50
   1   2   6    2.90    1.60
   1   2   6    2.20    1.90
  -1   2  -6    3.30    3.40
  -1   2  -6    2.70    3.40
   1   2   6    0.70    1.70
   1   2   6    3.90    2.30
  -2  -2  -6   32.20    3.30
   2  -2   6   24.70    4.80
  -2  -2  -6   28.00    3.80
   2  -2   6   28.50    4.60
   2   2   6   38.20    4.10
  -2   2  -6   26.00    5.10
   2   2   6   26.30    3.70
  -2   2  -6   32.70    5.10
  -3  -2  -6    1.00    2.70
  -3  -2  -6    2.30    2.00
   3  -2   6    3.00    3.10
   3  -2   6    0.30    2.70
   3   2   6    1.00    2.40
   3   2   6   -0.30    2.70
  -3   2  -6   -2.00    3.50
  -3   2  -6    0.00    3.30
  -4  -2  -6   31.70    4.00
   4  -2   6   39.90    5.70
  -4  -2  -6   29.40    5.10
   4   2   6   45.70    5.20
  -4   2  -6   37.20    6.50
   4   2   6   45.30    5.50
  -4   2  -6   46.30    6.00
  -5  -2  -6    2.60    2.50
  -5  -2  -6    6.10    4.00
   5  -2   6    6.70    4.10
  -5   2  -6    8.90    4.70
  -5   2  -6    4.30    4.40
   5   2   6    5.40    3.10
   6  -2   6    9.70    3.90
  -6  -2  -6    8.30    4.50
  -6  -2  -6   14.00    3.60
   6   2   6    8.60    3.60
  -6   2  -6    3.40    5.10
  -6   2  -6    6.40    3.90
  -7  -2  -6   42.10    8.00
   7  -2   6   48.40    7.60
  -7  -2  -6   41.10    6.20
  -7   2  -6   36.80    7.30
  -7   2  -6   41.20    7.30
  -8  -2  -6   48.40    7.10
  -8  -2  -6   51.69    9.00
   8  -2   6   55.19    8.20
  -8   2  -6   43.10    8.00
  -8   2  -6   27.60    7.40
  -9  -2  -6   29.80    6.20
  -9  -2  -6   16.30    6.00
   9  -2   6   14.50    5.80
  -9   2  -6   11.30    5.50
  -9   2  -6    7.50    6.50
  10  -2   6    4.60    4.60
 -10  -2  -6    1.30    5.80
 -10   2  -6    8.20    5.70
 -10   2  -6    0.60    6.20
 -11  -2  -6    3.50    7.50
  11  -2   6   -4.00    5.40
 -11   2  -6   -4.00    4.00
 -11   2  -6   -3.20    5.70
 -12  -2  -6   15.70    8.70
 -12   2  -6    4.20    5.60
 -12  -3   6   -8.40    7.60
  12   3  -6   12.30    8.00
 -12   3   6    0.40    5.30
 -11  -3   6   15.70    9.30
  11  -3  -6   -0.10   28.80
 -11   3   6    6.90    5.60
  11   3  -6    1.60    4.60
 -11   3   6    8.40    5.20
  10  -3  -6  -27.20   25.20
 -10  -3   6    9.80    8.50
 -10   3   6   16.70    5.00
  10   3  -6   12.00    6.00
 -10   3   6   11.30    5.30
  -9  -3   6   43.50   10.40
   9  -3  -6   59.79   19.40
   9   3  -6   46.10    7.70
  -9   3   6   55.99    6.70
  -9   3   6   40.00    7.00
   8  -3  -6   37.60   15.90
  -8  -3   6    1.20    6.50
  -8   3   6    7.40    4.40
   8   3  -6    7.10    5.10
  -8   3   6    9.60    4.00
  -7  -3   6    5.90    6.40
  -7  -3   6    3.60    4.10
   7  -3  -6   15.30   12.40
   7   3  -6    0.10    4.50
  -7   3   6    9.90    3.30
  -7   3   6    6.30    4.50
  -6  -3   6   -5.00    4.90
   6  -3  -6    1.10   10.60
  -6  -3   6   -0.60    3.40
   6   3  -6   -3.90    3.90
   6   3  -6   -3.30    4.20
  -6   3   6    2.30    2.40
  -6   3   6   -0.90    3.80
   6   3  -6    0.40    3.90
  -5  -3   6   22.90    6.60
  -5  -3   6   14.20    4.20
   5  -3  -6   15.60   13.10
   5   3  -6   19.40    6.10
   5   3  -6   12.20    5.00
  -5   3   6   18.70    2.50
  -5   3   6   20.50    5.30
   5   3  -6   17.20    5.00
  -5   3   6   13.90    2.10
  -4  -3   6    3.00    5.00
   4  -3  -6   -0.30    9.20
  -4  -3   6   -1.00    2.90
   4   3  -6   -2.90    3.70
  -4   3   6   -0.40    3.80
   4   3  -6   -3.70    4.10
   4   3  -6   -3.60    3.30
  -3  -3   6    3.40    4.60
  -3  -3   6   -3.40    2.40
   3   3  -6   -1.40    3.30
   3   3  -6   -1.20    3.40
  -3   3   6   -2.30    4.10
   3   3  -6    0.80    4.40
   2  -3  -6   11.90    1.50
   2  -3  -6   -2.00   12.50
  -2  -3   6    7.10    4.80
  -2  -3   6    7.50    3.40
   2   3  -6   13.60    4.80
   2   3  -6   15.20    4.10
  -2   3   6    3.90    4.60
   2   3  -6   11.80    4.10
  -1  -3   6   31.10    5.20
   1  -3  -6   27.80    1.90
  -1  -3   6   29.70    7.00
   1   3  -6   25.50    6.70
   1   3  -6   33.80    5.50
   1   3  -6   29.90    5.30
   0  -3  -6   -0.10    1.10
   0  -3   6   -0.40    3.90
   0  -3   6    1.80    3.20
   0   3  -6    7.20    3.90
   0   3  -6    2.10    3.70
   0   3  -6    3.40    3.50
   1  -3   6   98.79    9.90
  -1  -3  -6  108.29    5.20
   1  -3   6  106.89    7.70
  -1   3  -6  118.59    8.30
  -1   3  -6  103.79    7.70
  -2  -3  -6    0.90    2.10
   2  -3   6   -6.00    2.70
  -2   3  -6    3.40    4.10
   2   3   6   -1.30    1.60
  -2   3  -6   -2.80    3.00
   2   3   6   -2.00    1.80
   3  -3   6   22.80    4.80
  -3  -3  -6   28.10    4.50
   3   3   6   24.90    3.60
  -3   3  -6   24.70    5.50
  -3   3  -6   35.00    5.60
  -4  -3  -6    1.50    2.80
  -4   3  -6    1.10    4.00
   4   3   6    2.10    2.80
  -5  -3  -6    9.80    3.90
   5   3   6    6.40    3.50
  -5   3  -6   -2.50    4.00
  -6  -3  -6   11.80    4.80
   6   3   6    8.50    4.30
  -6   3  -6    5.40    4.80
  -7  -3  -6   -4.90    4.10
  -7   3  -6   -3.00    4.70
  -8  -3  -6   14.40    6.50
  -8   3  -6    3.20    5.30
  -9  -3  -6   33.90    8.10
  -9   3  -6   39.50    8.20
 -10  -3  -6   51.79   10.10
 -10   3  -6   57.79   10.00
  -8  -4   6   10.40    7.50
  -7  -4   6   83.19   12.10
  -7   4   6   71.09   10.20
   7   4  -6   62.29    8.30
  -6  -4   6    5.20    7.10
   6  -4  -6   38.60   13.60
   6   4  -6    7.80    6.60
   6   4  -6    5.20    4.30
  -6   4   6    3.10    5.70
  -5  -4   6    3.50    6.30
   5  -4  -6   -7.90   13.00
   5   4  -6    5.00    6.40
  -5   4   6   -5.50    4.70
   5   4  -6    5.20    4.80
  -4  -4   6   -3.80    4.90
   4  -4  -6   -9.10   10.40
  -4   4   6    9.30    6.30
   4   4  -6    0.50    4.30
   4   4  -6   -4.20    4.00
  -3  -4   6   -6.20    5.00
  -3   4   6   -0.40    5.70
   3   4  -6   -1.80    4.10
   3   4  -6    5.40    6.40
  -2  -4   6    0.00    5.60
  -2   4   6  -11.30    5.00
   2   4  -6    7.00    6.60
   2   4  -6   -2.00    4.00
  -1  -4   6  119.69   11.50
   1   4  -6  131.49    9.50
   1   4  -6  123.09   13.00
   0  -4   6    5.80    6.10
   0   4  -6    6.10    5.30
   0   4  -6    7.50    4.50
   1  -4   6   43.40    8.80
  -1   4  -6   45.10    6.60
  -1   4  -6   38.70    8.70
   2  -4   6    0.70    5.20
  -2   4  -6   10.40    7.70
  -2   4  -6   -7.40    3.90
   3  -4   6    9.20    6.40
  -3   4  -6   12.40    8.30
  -3   4  -6    9.60    5.20
  -4   4  -6   -1.70    4.40
  -5   4  -6   -7.00    3.80
  -6  -4  -6    0.20    4.00
  -6   4  -6    1.30    4.20
  15   0  -7    7.40    6.80
 -15   0   7    8.00    9.10
  15   0  -7   12.80   14.80
 -15   0   7    0.90    7.00
  14   0  -7   -0.70    4.50
 -14   0   7   -2.00    5.40
 -14   0   7    5.30    5.20
 -13   0   7    5.30    4.80
  13   0  -7    4.30    6.30
  13   0  -7  -22.00   18.90
 -13   0   7    4.30    5.90
  12   0  -7    0.30    5.50
 -12   0   7    6.30    7.60
 -12   0   7   -1.80    5.60
  12   0  -7  -23.70   23.50
  11   0  -7   46.50   26.70
 -11   0   7   59.39   11.10
 -11   0   7   51.29    9.30
  11   0  -7   54.19    8.30
  10   0  -7   -0.80    4.20
 -10   0   7    4.40    5.80
  10   0  -7   -9.30    4.90
 -10   0   7    1.00    3.80
  10   0  -7    7.30   18.70
   9   0  -7   31.50   19.90
  -9   0   7   22.60    6.50
   9   0  -7   17.40    4.40
   9   0  -7   17.30    5.30
  -9   0   7   24.30    6.60
  -8   0   7    0.00    2.90
  -8   0   7   -6.30    4.20
   8   0  -7    0.00    3.50
   8   0  -7    0.80    4.40
   8   0  -7    7.80   14.00
   7   0  -7  180.08   11.10
  -7   0   7  166.38    9.90
   7   0  -7  185.88    9.80
   7   0  -7  165.28   26.90
  -7   0   7  232.58   13.40
   6   0  -7   -4.20    2.80
   6   0  -7   -1.20    2.50
   6   0  -7    0.40    7.00
  -6   0   7    2.00    2.90
  -6   0   7   -3.20    4.60
   5   0  -7   -5.20    5.00
   5   0  -7    4.30    2.90
  -5   0   7    6.40    2.50
  -5   0   7    6.20    3.10
   5   0  -7    4.50    3.00
   5   0  -7    7.00    3.30
  -5   0   7    3.60    4.20
  -4   0   7   -2.00    2.90
  -4   0   7   -3.10    3.60
   4   0  -7   -3.70    2.00
   4   0  -7   -2.30    1.60
   4   0  -7   -2.40    6.70
  -4   0   7    0.10    1.70
   4   0  -7   -3.00    2.00
  -4   0   7    1.20    4.90
   3   0  -7    8.30    7.30
  -3   0   7    8.00    5.80
  -3   0   7   16.80    3.30
  -3   0   7   12.90    3.00
   3   0  -7   10.70    3.20
   3   0  -7    6.80    3.00
  -3   0   7   13.20    4.60
   3   0  -7    7.30    2.90
   3   0  -7    6.90    2.50
  -3   0   7   13.40    3.20
   2   0  -7   -1.00    2.20
  -2   0   7    0.20    2.40
   2   0  -7    4.70    3.00
   2   0  -7    1.40    2.20
   2   0  -7   -3.70    5.40
  -2   0   7    0.50    1.70
  -2   0   7   -0.10    2.20
   2   0  -7    0.90    2.50
  -2   0   7   -1.10    3.60
  -1   0   7 4078.89   79.49
   1   0  -7 3998.30   83.79
  -1   0   7 4133.09   83.89
   1   0  -7 4039.10   79.49
   1   0  -7 4047.40   80.29
  -1   0   7 4017.50   80.69
  -1   0   7 4043.00   85.99
   1   0  -7 3922.21  186.08
   0   0   7   -1.60    3.60
   0   0  -7    2.20    2.20
   0   0  -7    0.10    1.80
   0   0  -7    2.00    2.50
   0   0   7    1.50    2.90
   0   0   7    2.60    2.50
   0   0   7    0.80    2.30
  -1   0  -7  117.39    6.60
   1   0   7  122.69    6.60
   1   0   7  109.49    7.40
  -1   0  -7  106.59    7.80
  -2   0  -7   -2.50    1.80
  -2   0  -7   -0.60    2.50
   2   0   7   -2.10    3.00
   2   0   7   -0.90    2.30
  -3   0  -7  375.66   14.70
   3   0   7  375.96   14.20
  -3   0  -7  375.16   13.30
   3   0   7  388.06   15.10
  -4   0  -7   -1.30    4.30
   4   0   7   -0.20    2.50
  -4   0  -7   -3.70    3.10
   5   0   7   55.29    6.70
  -5   0  -7   51.49    6.80
  -5   0  -7   49.20    6.60
  -6   0  -7    6.30    5.10
  -6   0  -7   -1.50    2.60
   6   0   7   -2.30    2.80
   7   0   7    1.50    4.00
  -7   0  -7    1.70    3.80
  -7   0  -7   -3.50    5.50
  -8   0  -7    0.40    4.50
  -8   0  -7   -3.10    3.90
  -9   0  -7  148.49   14.10
  -9   0  -7  154.68   11.20
 -10   0  -7   -0.20    4.70
 -10   0  -7   -8.80    3.90
 -11   0  -7   -3.30    4.50
 -11   0  -7   -2.20    5.70
 -12   0  -7   -1.50    6.10
 -12   0  -7   -5.10    6.90
 -13   0  -7   14.80    8.00
 -13   0  -7    7.70    8.90
  15  -1  -7   -6.90   28.00
 -15  -1   7    9.20    7.30
 -15  -1   7    2.30    8.40
  15   1  -7   21.60   21.10
  15   1  -7   -6.80    6.30
 -15   1   7    2.70    5.90
  14  -1  -7   -1.70    3.80
 -14  -1   7   14.50    9.50
 -14  -1   7    5.50    7.10
  14  -1  -7   21.00   39.70
  14   1  -7   10.50    7.60
 -14   1   7    2.00    5.50
 -14   1   7    4.20    7.30
  13  -1  -7   -1.70    4.90
 -13  -1   7    0.00    8.40
  13  -1  -7  -20.80   23.80
 -13  -1   7   -3.00    4.30
  13   1  -7    1.70    4.50
 -13   1   7   -8.10    5.00
  13   1  -7    9.50   19.60
 -13   1   7    9.80    7.60
  12  -1  -7    2.80    3.70
  12  -1  -7  -25.10   22.00
 -12  -1   7    4.90    4.80
 -12  -1   7    0.90    6.00
 -12   1   7    2.50    4.30
  12   1  -7   -0.80    4.30
 -12   1   7   -0.80    5.70
  12   1  -7   -5.60   16.30
  11  -1  -7   41.70   26.30
 -11  -1   7   65.69    9.10
  11  -1  -7   49.99    6.90
 -11  -1   7   45.90   10.80
 -11   1   7   63.99   10.20
  11   1  -7   44.70   18.50
  11   1  -7   58.79    8.10
 -11   1   7   54.79    8.80
   9  -1  -7   39.80   22.10
  -9  -1   7   42.60    7.70
  -9  -1   7   39.10    8.10
   9  -1  -7   52.79    7.80
   9  -1  -7   41.70    5.70
   9   1  -7   33.60   19.90
   9   1  -7   37.60    7.10
   9   1  -7   47.10    7.30
  -9   1   7   44.40    6.60
  -9   1   7   42.80    7.80
  -8  -1   7   17.20    4.80
   8  -1  -7   16.20    4.00
   8  -1  -7    4.40   11.80
   8  -1  -7   17.20    5.40
  -8  -1   7    6.50    6.30
   8   1  -7   13.30   17.20
   8   1  -7    8.80    5.50
   8   1  -7   21.90    4.80
  -8   1   7   19.40    2.30
  -8   1   7   16.30    5.80
  -8   1   7   21.40    5.50
  -8   1   7   17.10    4.10
   7  -1  -7    3.50    8.40
   7  -1  -7    0.20    3.70
  -7  -1   7    1.80    3.30
   7  -1  -7    2.20    3.60
   7  -1  -7    4.20    2.40
  -7  -1   7   -0.30    5.30
   7   1  -7   -0.30    3.10
  -7   1   7    2.70    1.20
   7   1  -7   -7.80   12.70
  -7   1   7   -0.40    3.40
  -7   1   7    2.60    4.00
   7   1  -7    0.20    2.90
  -7   1   7    2.80    2.90
  -6  -1   7    0.80    3.40
   6  -1  -7    2.40    2.70
   6  -1  -7   -0.50    1.80
   6  -1  -7    4.30    6.50
   6  -1  -7   -2.30    2.90
  -6  -1   7    1.90    3.00
  -6   1   7    5.50    3.70
   6   1  -7   -0.70    4.00
  -6   1   7    0.20    2.50
  -6   1   7    2.40    2.90
   6   1  -7   -2.90   12.50
  -6   1   7    2.80    1.20
   6   1  -7   -1.00    3.50
  -5  -1   7    5.20    3.80
   5  -1  -7    8.10    3.60
  -5  -1   7    5.80    5.40
   5  -1  -7    5.30    6.70
   5  -1  -7    5.10    2.60
  -5  -1   7   17.80    6.00
   5  -1  -7    6.60    2.70
   5   1  -7    7.70    4.10
   5   1  -7    4.00    2.80
  -5   1   7    7.90    4.40
  -5   1   7    3.80    2.70
  -5   1   7    5.10    3.60
   5   1  -7    6.20    2.20
   5   1  -7    4.30   12.20
  -4  -1   7   36.20    8.90
   4  -1  -7   26.10    4.60
   4  -1  -7   20.60    9.20
  -4  -1   7   26.80    5.10
   4  -1  -7   25.40    4.10
   4  -1  -7   32.90    3.80
  -4  -1   7   32.00    6.40
   4   1  -7   31.60    3.30
   4   1  -7   32.70    5.10
  -4   1   7   27.90    3.80
  -4   1   7   32.00    5.10
   4   1  -7   31.20    5.50
   4   1  -7   32.70   12.40
   4   1  -7   28.80    4.20
  -4   1   7   29.50    4.50
   3  -1  -7  119.79    7.00
  -3  -1   7  125.99   14.10
  -3  -1   7  124.89    7.30
  -3  -1   7  121.69    8.00
   3  -1  -7  113.79    7.10
  -3  -1   7  120.49    9.70
   3  -1  -7  127.39    6.10
   3  -1  -7  114.19   18.80
   3   1  -7  134.89    9.10
   3   1  -7  116.59    7.80
  -3   1   7  127.69    6.10
  -3   1   7  120.19    7.50
  -3   1   7  111.89    6.70
   3   1  -7  113.99    6.90
   3   1  -7  108.09   18.40
   2  -1  -7  131.89    7.10
   2  -1  -7  128.89    6.10
  -2  -1   7  115.39    8.70
  -2  -1   7  118.89   13.20
   2  -1  -7  128.59    7.60
  -2  -1   7  127.49    7.40
  -2  -1   7  132.39    7.70
   2  -1  -7  131.99   19.60
   2   1  -7  137.79    8.30
  -2   1   7  124.29    6.90
   2   1  -7  116.69    7.50
  -2   1   7  126.19    6.10
  -2   1   7  126.19    6.60
   2   1  -7  146.99   16.40
   2   1  -7  133.19    7.50
  -2   1   7  123.99    7.80
  -1  -1   7   79.49    6.00
  -1  -1   7   84.89    8.40
  -1  -1   7   94.29    7.20
   1  -1  -7   85.29    5.90
   1  -1  -7   87.19    5.10
   1  -1  -7   79.79    5.50
   1   1  -7   68.79   11.10
   1   1  -7   85.29    7.60
   1   1  -7   84.49    5.90
  -1   1   7   86.39    5.90
  -1   1   7   86.19    6.50
   1   1  -7   80.89    6.00
  -1   1   7   93.19    5.70
  -1   1   7   85.39    5.10
   0  -1  -7   -2.50    2.30
   0  -1  -7   -0.90    1.70
   0  -1   7    0.30    2.20
   0  -1   7   -2.50    2.60
   0  -1   7    0.70    1.90
   0   1   7   -2.50    1.80
   0   1   7   -5.30    2.10
   0   1  -7    1.30    3.10
   0   1   7    1.50    1.90
   0   1  -7    0.80    3.00
   0   1   7    4.60    2.90
   0   1  -7    2.90    2.50
   0   1  -7   -1.00    2.70
  -1  -1  -7  268.47    9.70
   1  -1   7  262.77   11.50
  -1  -1  -7  260.77   10.90
   1  -1   7  280.47   11.40
   1   1   7  267.57    9.70
  -1   1  -7  267.47   10.80
  -1   1  -7  273.67   17.90
  -1   1  -7  289.37   11.30
  -1   1  -7  280.57   11.90
   1   1   7  270.17   10.40
   2  -1   7  262.77   11.40
  -2  -1  -7  264.57    9.90
  -2  -1  -7  250.87   11.00
  -2   1  -7  243.08   11.10
   2   1   7  264.07   10.70
   2   1   7  266.37   10.10
  -2   1  -7  270.77   12.10
  -3  -1  -7   15.90    4.30
   3  -1   7   23.40    4.50
  -3  -1  -7   26.40    4.10
  -3   1  -7   24.80    5.10
  -3   1  -7   33.50    8.20
  -3   1  -7   25.50    5.20
   3   1   7   31.60    4.90
   3   1   7   26.30    3.90
  -4  -1  -7   70.69    5.60
   4  -1   7   73.79    7.60
  -4  -1  -7   84.39    8.00
  -4   1  -7   97.29   13.70
   4   1   7   73.49    6.30
  -4   1  -7   60.99    7.90
  -4   1  -7   63.89    6.30
   4   1   7   79.59    7.20
  -5  -1  -7    4.30    3.40
  -5  -1  -7    0.70    2.30
   5  -1   7    4.30    4.30
   5   1   7    5.40    3.40
  -5   1  -7   12.50    5.50
  -5   1  -7    7.20    3.40
   5   1   7    8.70    3.50
  -6  -1  -7   17.30    5.80
  -6  -1  -7   11.60    4.50
   6  -1   7   13.60    4.30
  -6   1  -7    6.70    4.40
  -6   1  -7    9.50    5.30
  -6   1  -7  -14.10   11.80
  -7  -1  -7   45.80    7.70
   7  -1   7   49.60    7.40
  -7  -1  -7   48.90    7.10
  -7   1  -7   71.69    9.80
  -7   1  -7   56.29    8.10
  -8  -1  -7   15.30    5.30
   8  -1   7    5.40    4.30
  -8  -1  -7    0.20    5.40
  -8   1  -7    4.00    6.10
  -8   1  -7   15.20    6.40
  -9  -1  -7   15.50    5.40
  -9  -1  -7   13.30    5.80
   9  -1   7   18.40    6.70
  -9   1  -7   24.80    7.10
  -9   1  -7   18.00    5.80
  10  -1   7    0.20    4.10
 -10  -1  -7    8.30    4.60
 -10  -1  -7   -0.10    4.70
 -10   1  -7    5.50    6.50
 -10   1  -7   -1.10    6.60
 -11  -1  -7    1.40    5.10
  11  -1   7   27.00    7.80
 -11  -1  -7    5.30    4.40
 -11   1  -7   10.90    6.90
 -11   1  -7    9.90    8.30
 -12  -1  -7    5.60    7.50
 -12  -1  -7   -0.80    4.20
  12  -1   7   -3.70    6.00
 -12   1  -7    3.30    7.90
 -12   1  -7   -0.20    6.60
 -13  -1  -7    5.50    5.10
  13  -1   7   -1.80    6.40
 -13  -1  -7   -0.60    9.60
 -13   1  -7    8.40    8.90
 -13   1  -7   10.30    8.80
 -14  -2   7   -1.00    5.10
 -14  -2   7   -3.60    9.80
  14  -2  -7  -51.99   28.80
  14   2  -7   -1.50    7.30
 -14   2   7    2.80    7.10
  13  -2  -7   33.80   35.00
 -13  -2   7    7.80    8.80
 -13  -2   7    5.20    6.50
 -13   2   7   -2.80    5.80
  13   2  -7   -2.80    6.60
  12  -2  -7  -19.00   26.70
 -12  -2   7    1.50    8.60
 -12  -2   7   17.80    7.40
 -12   2   7   10.10    6.20
  12   2  -7    2.30    4.60
 -11  -2   7   10.70    8.40
 -11  -2   7   -0.30    5.80
  11  -2  -7  -32.70   32.50
 -11   2   7    9.90    5.50
  11   2  -7    4.20    4.50
  10  -2  -7  -25.20   19.50
 -10  -2   7   -0.70    5.30
 -10  -2   7   -7.40    6.40
  10   2  -7   10.10    5.20
 -10   2   7    0.90    2.90
 -10   2   7   -0.40    4.40
  10   2  -7    2.30    5.60
  -9  -2   7  207.78   15.20
   9  -2  -7  196.28   10.20
   9  -2  -7  157.48   30.80
  -9  -2   7  171.88   11.70
  -9   2   7  176.98   11.10
   9   2  -7  195.48   12.90
   9   2  -7  201.28   13.00
  -9   2   7  216.68   11.70
  -8  -2   7   51.79   10.10
   8  -2  -7   32.60   20.60
  -8  -2   7   53.69    7.90
   8  -2  -7   50.79    5.40
  -8   2   7   55.89    7.00
   8   2  -7   51.99    8.40
  -8   2   7   53.69    5.30
  -8   2   7   57.19    7.20
   8   2  -7   43.70    6.70
   7  -2  -7    0.50    3.00
   7  -2  -7    3.40    3.30
   7  -2  -7    1.60    2.20
  -7  -2   7    0.90    3.20
  -7  -2   7   -5.90    4.90
   7  -2  -7    8.70   13.70
  -7   2   7    1.10    3.10
  -7   2   7   -5.30    3.20
   7   2  -7    1.20    3.40
   7   2  -7   -3.20    4.20
  -7   2   7    0.80    2.80
  -7   2   7   -0.30    2.20
   6  -2  -7    0.20    2.10
  -6  -2   7    8.10    5.80
   6  -2  -7    1.30    3.00
  -6  -2   7   -8.00    2.50
   6  -2  -7   -2.50    2.60
   6  -2  -7   -0.20   11.30
   6   2  -7   -2.20    4.00
   6   2  -7   -2.60    2.70
  -6   2   7   -1.30    2.90
  -6   2   7   -3.80    2.10
  -6   2   7    0.30    2.40
   6   2  -7   -2.90    4.20
  -6   2   7    1.70    2.50
   5  -2  -7   -8.30   10.90
  -5  -2   7    2.70    5.10
  -5  -2   7    8.10    3.50
   5  -2  -7    5.80    3.10
   5  -2  -7    3.40    2.10
   5  -2  -7    9.10    3.00
   5   2  -7    8.90    4.70
  -5   2   7    2.30    2.80
  -5   2   7   10.10    2.90
   5   2  -7   -0.70    3.00
   5   2  -7    9.10    3.50
  -5   2   7    0.40    0.90
  -5   2   7    8.90    3.40
   4  -2  -7    2.40    2.50
   4  -2  -7    5.00    2.70
   4  -2  -7    1.60    1.70
  -4  -2   7   -2.00    4.30
   4  -2  -7   -6.20    5.30
  -4  -2   7   -6.50    4.20
  -4  -2   7    4.60    3.70
   4   2  -7   -0.10    3.70
  -4   2   7    1.00    2.10
  -4   2   7    0.70    2.90
   4   2  -7   12.00    4.10
   4   2  -7    2.50    3.10
  -4   2   7    1.40    2.10
   4   2  -7    3.40    3.10
  -4   2   7    0.10    2.50
  -3  -2   7    9.50    3.80
   3  -2  -7    3.30    1.60
   3  -2  -7    2.00    2.20
  -3  -2   7   -0.10    2.80
   3  -2  -7    6.00    2.60
  -3  -2   7    2.50    3.60
  -3  -2   7    4.90    2.80
   3  -2  -7    6.30   10.60
   3   2  -7    2.60    2.30
   3   2  -7    1.90    3.90
  -3   2   7    6.00    1.70
  -3   2   7    5.40    2.10
   3   2  -7    3.60    3.60
  -3   2   7    6.60    2.60
  -3   2   7    2.20    1.70
   3   2  -7    2.80    2.60
   2  -2  -7    3.50   10.30
   2  -2  -7    0.90    1.40
   2  -2  -7    2.10    2.00
  -2  -2   7    1.70    3.30
  -2  -2   7    0.70    1.80
  -2  -2   7   -1.50    3.00
  -2   2   7   -0.50    1.10
  -2   2   7    3.40    1.60
  -2   2   7    4.60    1.50
   2   2  -7    2.20    3.80
  -2   2   7    1.30    2.50
   2   2  -7    2.40    2.70
   2   2  -7    3.70    3.60
   1  -2  -7   30.10    3.60
  -1  -2   7   28.40    5.20
  -1  -2   7   35.70    5.10
   1  -2  -7   33.40    2.90
  -1  -2   7   31.60    5.80
   1   2  -7   26.60    4.90
   1   2  -7   28.10    4.90
   1   2  -7   34.60    5.70
  -1   2   7   29.20    2.60
  -1   2   7   24.60    3.50
  -1   2   7   28.30    2.80
   0  -2  -7   18.60    2.50
   0  -2   7   24.00    4.80
   0  -2   7   21.20    4.60
   0  -2   7   22.10    5.90
   0  -2  -7   19.00    3.30
   0   2  -7   17.80    4.30
   0   2  -7   12.80    4.00
   0   2   7   25.10    2.80
   0   2  -7   20.30    4.30
   0   2   7   21.30    3.50
   0   2   7   23.60    3.00
   0   2   7   26.60    3.30
  -1  -2  -7  302.47   11.20
  -1  -2  -7  306.47    9.50
   1  -2   7  322.57   13.70
   1  -2   7  310.47   13.10
   1   2   7  331.27   10.80
  -1   2  -7  333.27   13.20
  -1   2  -7  309.67   12.80
  -1   2  -7  304.87   13.50
   1   2   7  265.67   10.00
   1   2   7  335.87   10.40
  -2  -2  -7    2.40    2.00
   2  -2   7    3.50    3.40
  -2  -2  -7    1.90    2.50
  -2   2  -7   -2.10    3.40
   2   2   7    0.90    2.30
   2   2   7    0.60    2.80
   2   2   7    1.00    2.20
  -2   2  -7   -1.60    3.60
   3  -2   7    5.30    4.00
  -3  -2  -7    1.50    3.30
  -3  -2  -7    4.00    2.20
  -3   2  -7    7.90    4.40
  -3   2  -7    2.70    4.10
   3   2   7    2.00    3.20
   3   2   7    4.50    2.90
  -4  -2  -7   14.80    3.50
   4  -2   7   20.20    5.20
  -4  -2  -7    9.80    4.10
  -4   2  -7   10.90    5.00
   4   2   7   13.80    3.60
   4   2   7   12.30    4.20
  -4   2  -7   17.60    5.70
  -5  -2  -7    0.90    3.70
   5  -2   7   -3.40    3.30
  -5  -2  -7   -2.00    2.30
   5   2   7    0.50    3.40
  -5   2  -7   -2.10    4.10
  -5   2  -7    2.40    4.60
   5   2   7   -3.10    2.50
  -6  -2  -7   69.59    8.50
  -6  -2  -7   51.79    6.20
   6  -2   7   48.60    7.70
  -6   2  -7   51.29    8.20
  -6   2  -7   53.99    7.90
   6   2   7   46.80    6.90
  -7  -2  -7    9.30    5.60
  -7  -2  -7   20.00    5.00
   7  -2   7   23.60    5.50
  -7   2  -7   19.90    6.30
  -7   2  -7   21.50    7.10
   8  -2   7  194.68   12.60
  -8  -2  -7  198.78   14.60
  -8   2  -7  191.98   13.50
  -8   2  -7  202.68   14.00
   9  -2   7   -0.90    4.90
  -9  -2  -7    4.60    6.50
  -9   2  -7    7.30    6.50
  -9   2  -7    0.70    6.30
  10  -2   7    2.60    5.80
 -10  -2  -7   -1.10    6.30
 -10   2  -7    1.80    4.60
 -10   2  -7    0.90    6.50
  11  -2   7    5.80    6.20
 -11  -2  -7    3.60    6.80
 -11   2  -7    4.50    6.90
 -11   2  -7   -0.30    4.90
 -12  -2  -7    7.10    8.10
 -12  -3   7    0.30    9.30
  12   3  -7   -6.20    6.60
 -12   3   7    7.10    5.70
 -11  -3   7    6.00    8.70
  11  -3  -7   12.80   20.40
  11   3  -7   10.80    6.90
 -11   3   7    5.30    5.20
 -10  -3   7    6.50    7.80
 -10   3   7    1.50    3.90
  10   3  -7   -1.70    5.50
 -10   3   7    7.20    4.60
  -9  -3   7    1.10    7.00
   9  -3  -7   18.30   13.70
  -9   3   7    1.20    4.00
  -9   3   7    4.40    4.00
   9   3  -7    1.80    5.70
  -8  -3   7    6.10    7.80
   8  -3  -7   11.20   15.60
  -8   3   7    8.80    4.30
  -8   3   7    5.70    4.00
   8   3  -7    4.90    3.70
   7  -3  -7   25.30   13.80
  -7  -3   7   33.20    6.70
  -7  -3   7   21.60    8.10
  -7   3   7   28.60    6.00
  -7   3   7   26.70    4.30
   7   3  -7   32.70    7.10
   7   3  -7   15.60    5.80
   6  -3  -7   -5.90   11.90
  -6  -3   7   -9.00    4.20
  -6  -3   7   -2.40    3.70
  -6   3   7   -0.40    2.40
   6   3  -7    0.70    4.50
   6   3  -7    0.50    4.60
  -6   3   7    7.20    4.00
   6   3  -7    1.90    4.80
   5  -3  -7   16.30   16.00
  -5  -3   7   13.10    4.40
  -5  -3   7   12.70    5.70
   5   3  -7    9.80    4.70
   5   3  -7   21.30    6.10
  -5   3   7   15.50    4.80
  -5   3   7   10.70    2.50
   5   3  -7   27.20    5.70
   4  -3  -7   -7.00   14.10
  -4  -3   7   10.30    6.10
  -4  -3   7   -1.10    3.30
  -4   3   7    3.60    1.10
  -4   3   7    7.70    4.10
   4   3  -7    5.60    5.10
   4   3  -7    9.10    4.50
   4   3  -7    2.20    4.60
  -4   3   7    4.30    1.30
   3  -3  -7   28.40    3.10
  -3  -3   7   33.40    5.50
   3  -3  -7    7.80   16.60
  -3  -3   7   32.00    7.20
   3   3  -7   27.20    6.60
   3   3  -7   28.20    5.60
  -3   3   7   30.10    5.50
   3   3  -7   23.30    5.20
   2  -3  -7   35.60   16.80
  -2  -3   7   41.80    8.10
   2  -3  -7   38.10    3.10
  -2  -3   7   47.90    6.30
   2   3  -7   36.80    6.00
   2   3  -7   41.80    6.20
   2   3  -7   52.19    7.70
  -1  -3   7  177.38   10.10
   1  -3  -7  178.18    6.40
  -1  -3   7  195.48   13.80
   1   3  -7  185.48   10.90
   1   3  -7  190.38   12.90
   1   3  -7  177.18   10.40
   0  -3  -7   -2.80    1.40
   0  -3   7    0.80    4.50
   0  -3   7   -0.40    3.10
   0   3  -7   -5.30    3.40
   0   3  -7    6.60    4.30
   1  -3   7    2.70    4.90
  -1  -3  -7    9.60    2.60
   1  -3   7    7.30    3.80
   1   3   7    7.20    1.80
  -1   3  -7    6.80    4.20
  -1   3  -7    8.10    4.40
   1   3   7    7.90    2.00
  -2  -3  -7    4.00    2.50
   2  -3   7    2.00    3.40
  -2   3  -7   -2.20    4.20
  -2   3  -7    7.30    4.40
   2   3   7    3.70    2.40
   3  -3   7   -2.60    3.60
  -3  -3  -7   -1.60    2.50
  -3   3  -7   -9.10    3.30
   3   3   7   -3.40    2.40
  -3   3  -7    4.40    4.80
  -4  -3  -7    6.10    3.60
   4   3   7    3.10    3.00
  -4   3  -7    4.80    4.30
  -5  -3  -7   -3.30    3.60
  -5   3  -7    1.00    4.70
   5   3   7   -1.10    3.30
  -6  -3  -7   -0.60    4.20
  -6   3  -7   -5.00    4.70
   6   3   7   -5.80    2.90
  -7  -3  -7   30.50    6.80
  -7   3  -7   38.00    8.20
   7   3   7   28.20    6.40
  -8  -3  -7   38.30    7.90
   8   3   7   36.60    7.20
  -8   3  -7   24.60    7.60
  -9  -3  -7   10.50    6.70
  -9   3  -7   26.20    7.90
  -8  -4   7    6.50    8.50
   8   4  -7    9.70    5.70
  -6  -4   7    5.10    6.30
  -6   4   7    1.00    5.80
   6   4  -7    8.70    6.70
   5  -4  -7   15.90   12.20
  -5  -4   7    5.00    6.00
   5   4  -7   -0.40    4.60
  -5   4   7   -1.70    3.70
   5   4  -7   -8.80    5.30
   4  -4  -7    5.80   12.80
  -4  -4   7    1.00    6.20
   4   4  -7   -1.60    4.00
   4   4  -7    4.30    5.10
  -4   4   7    3.40    5.70
  -3  -4   7   10.60    6.10
   3  -4  -7  -12.60   13.60
   3   4  -7    1.50    4.00
   3   4  -7   -4.70    4.00
  -3   4   7    2.20    6.00
   2  -4  -7   -2.90   11.50
  -2  -4   7    1.30    5.20
   2   4  -7    1.60    4.20
   2   4  -7   -1.60    4.20
  -1  -4   7   20.80    6.60
   1  -4  -7    3.10   12.80
   1   4  -7   10.60    4.90
   1   4  -7   10.50    6.10
   0  -4   7   26.90    7.90
   0   4  -7    7.10    5.60
   0   4  -7   16.50    5.40
   1  -4   7    1.70    5.20
  -1   4  -7    3.10    4.70
  -1   4  -7   -5.50    6.40
   2  -4   7   -7.10    4.90
  -2   4  -7    1.10    4.70
  -2   4  -7    1.90    5.20
   3  -4   7   -8.00    5.90
  -3   4  -7    4.90    4.70
   4  -4   7   -6.10    5.60
  -4   4  -7   14.00    5.80
  -5   4  -7    1.90    5.00
  -6   4  -7   12.00    6.60
  15   0  -8   -3.20    6.40
  15   0  -8   14.40   15.90
 -15   0   8    6.50    8.30
 -15   0   8    1.60    5.30
 -14   0   8   -5.90    7.20
  14   0  -8    4.10    6.90
 -14   0   8   -4.40    6.50
 -13   0   8   -0.90    6.20
  13   0  -8  -20.20   18.30
 -13   0   8   -0.90    7.40
  13   0  -8   -3.30    3.90
 -12   0   8   32.30    8.30
 -12   0   8    7.10    5.90
  12   0  -8   -3.00   28.90
  12   0  -8   15.90    5.20
 -11   0   8  -11.10    5.10
 -11   0   8    2.10    4.80
  11   0  -8   -3.70    4.00
  11   0  -8    3.50   28.10
  11   0  -8   -0.20    3.50
  -9   0   8   -3.00    3.40
   9   0  -8   -3.90    4.90
   9   0  -8    1.70    4.10
   9   0  -8   16.90   18.20
  -9   0   8   -4.50    5.10
  -8   0   8   86.89   10.80
   8   0  -8   90.19    8.00
   8   0  -8   68.09    8.70
  -8   0   8   74.59    7.80
  -7   0   8   -8.00    3.50
   7   0  -8   -0.70   12.80
   7   0  -8   -1.50    3.40
  -7   0   8   -4.20    3.10
   7   0  -8   -2.80    3.70
  -6   0   8   51.79    6.30
   6   0  -8   60.49    6.60
   6   0  -8   61.49    6.60
  -6   0   8   65.29    8.80
   6   0  -8   43.80   13.70
  -5   0   8   -6.80    3.00
  -5   0   8   -1.10    2.30
   5   0  -8   -3.50    3.50
   5   0  -8   -3.80    3.00
   5   0  -8   -3.20    5.60
   4   0  -8  403.56   13.90
  -4   0   8  408.16   14.70
   4   0  -8  438.36   16.90
   4   0  -8  434.16   15.80
  -4   0   8  392.16   16.40
   4   0  -8  437.46   35.80
  -4   0   8  427.56   13.70
   3   0  -8    3.80    3.50
  -3   0   8    3.90    4.10
   3   0  -8   -1.20    6.50
   3   0  -8   -2.60    2.30
  -3   0   8   -0.10    2.30
   3   0  -8   -2.10    2.30
  -3   0   8    1.50    1.90
  -2   0   8   23.60    4.70
  -2   0   8   21.70    3.50
   2   0  -8   24.50    3.80
  -2   0   8   24.80    5.20
   2   0  -8   10.40    8.70
   2   0  -8   16.70    4.50
  -1   0   8   -0.20    2.40
  -1   0   8   -1.20    2.30
   1   0  -8   -2.10    2.20
   1   0  -8   -6.90    6.60
   1   0  -8    4.90    3.00
  -1   0   8    5.60    4.10
   0   0   8  349.07   13.50
   0   0  -8  356.86   14.10
   0   0   8  363.86   15.10
   0   0  -8  365.26   12.60
   0   0   8  379.86   12.60
   1   0   8    1.50    2.90
   1   0   8   -5.30    2.90
  -1   0  -8   -0.80    2.50
  -1   0  -8   -0.80    1.90
   2   0   8  103.09    7.40
  -2   0  -8  102.79    8.60
  -2   0  -8  112.79    7.60
  -3   0  -8    0.30    3.10
   3   0   8   -0.90    3.60
  -3   0  -8    3.30    2.70
  -4   0  -8  145.69    9.40
   4   0   8  144.69    9.30
  -4   0  -8  157.18   10.90
  -5   0  -8   -0.40    3.30
  -5   0  -8   -1.60    3.70
   5   0   8   10.20    4.70
  -6   0  -8  521.45   21.80
   6   0   8  521.15   19.70
  -6   0  -8  521.35   19.50
   7   0   8   -2.80    3.30
  -7   0  -8   -4.20    5.60
  -7   0  -8   -1.20    3.20
  -8   0  -8   14.20    5.90
  -8   0  -8   15.10    5.90
   8   0   8   14.70    5.10
   9   0   8   -0.10    5.30
  -9   0  -8   -6.80    6.30
  -9   0  -8   -3.00    3.60
  10   0   8    2.80    5.60
 -10   0  -8    5.60    6.10
 -10   0  -8    5.40    5.70
  11   0   8   -5.00    3.50
 -11   0  -8    1.20    5.80
 -11   0  -8    2.30    6.10
 -12   0  -8    6.80    6.30
 -12   0  -8    5.40    6.40
  12   0   8    1.90    5.20
  15  -1  -8  -51.29   33.50
 -15  -1   8    1.00    6.00
 -15  -1   8    8.70    7.50
  15   1  -8   21.30   21.40
 -15   1   8   -7.00    7.30
  15   1  -8   -5.50    4.80
 -14  -1   8    8.30    7.40
 -14  -1   8    5.50    7.20
  14  -1  -8   46.20   45.80
  14  -1  -8    6.60    6.00
 -14   1   8    9.40    5.70
 -14   1   8   -0.30    7.30
  14   1  -8   11.00    7.50
 -13  -1   8   30.10   10.90
 -13  -1   8   23.30    8.80
  13  -1  -8   -9.90   27.50
  13  -1  -8   28.90    6.40
 -13   1   8   22.50    7.30
  13   1  -8   20.50   22.40
  13   1  -8   28.00    8.30
 -13   1   8   42.70    9.20
 -12  -1   8    3.40    6.70
  12  -1  -8   -4.60   26.00
 -12  -1   8   -0.10    8.20
  12  -1  -8    5.50    5.20
 -12   1   8    3.30    6.20
 -12   1   8   -1.50    5.80
  12   1  -8   -2.00    5.80
  11  -1  -8   19.10   24.30
 -11  -1   8   37.30    8.50
 -11  -1   8   41.70    9.50
  11  -1  -8   35.50    6.70
 -11   1   8   20.80    7.40
 -11   1   8   36.60    8.80
  11   1  -8   48.40   19.50
  11   1  -8   22.50    7.10
  11   1  -8   26.70    7.50
 -10  -1   8    7.00    4.70
 -10  -1   8    3.80    5.20
  10  -1  -8    2.10    5.40
 -10   1   8    4.70    5.70
 -10   1   8    1.80    5.20
   9  -1  -8   -2.60   18.40
  -9  -1   8   20.40    8.10
  -9  -1   8    9.60    4.50
   9  -1  -8    5.20    5.30
   9  -1  -8   12.60    4.30
  -9   1   8   13.90    6.10
   9   1  -8   14.20   20.20
   9   1  -8   13.20    5.70
   9   1  -8    1.20    5.80
  -9   1   8   10.20    4.50
   8  -1  -8    0.30    3.30
   8  -1  -8    4.10   10.30
   8  -1  -8   -2.10    3.90
  -8  -1   8   -3.70    3.40
  -8  -1   8   -0.80    4.00
   8   1  -8    2.60    4.00
   8   1  -8   -4.70    2.70
  -8   1   8    2.00    4.30
   8   1  -8    3.80   14.10
  -8   1   8   -1.50    4.10
  -6  -1   8    0.30    5.00
   6  -1  -8    1.20    3.50
   6  -1  -8   -4.40    2.80
  -6  -1   8    2.90    3.10
   6  -1  -8    3.00   10.40
   6  -1  -8    1.40    2.80
   6   1  -8    2.40   13.70
   6   1  -8   -2.50    2.60
   6   1  -8   -0.90    3.10
  -6   1   8   -0.80    3.60
  -6   1   8   -1.50    2.30
  -6   1   8   -5.90    3.20
   5  -1  -8   66.89    6.50
  -5  -1   8   61.39    8.10
   5  -1  -8   83.39   17.90
   5  -1  -8   72.89    5.60
  -5  -1   8   64.29    6.50
   5  -1  -8   73.99    6.90
   5   1  -8   66.69    7.10
   5   1  -8   67.69    4.50
   5   1  -8   71.99   18.50
  -5   1   8   50.99    6.10
   5   1  -8   58.19    7.60
  -5   1   8   85.79    7.80
  -5   1   8   72.09    5.20
   4  -1  -8  146.89   24.30
  -4  -1   8  133.19    8.60
  -4  -1   8  174.98   17.40
  -4  -1   8  123.79   11.10
   4  -1  -8  135.99    8.90
   4  -1  -8  137.79    7.20
   4  -1  -8  139.09    8.50
  -4   1   8  137.69    7.10
   4   1  -8  128.99   22.50
   4   1  -8  144.89    9.50
  -4   1   8  145.79    9.30
   4   1  -8  129.29    7.90
   4   1  -8  142.39    6.30
  -4   1   8  147.59    8.60
  -3  -1   8  169.88   12.00
  -3  -1   8  192.18   17.30
   3  -1  -8  164.88    8.70
  -3  -1   8  167.38    9.80
   3  -1  -8  162.88    9.00
   3  -1  -8  163.98    7.50
   3  -1  -8  169.78   23.20
   3   1  -8  179.08   10.00
   3   1  -8  162.08   21.60
   3   1  -8  166.28    8.80
  -3   1   8  152.78    9.60
  -3   1   8  162.68    8.60
  -3   1   8  159.38    7.60
   2  -1  -8   98.19   19.80
   2  -1  -8   97.49    5.90
  -2  -1   8   87.89    9.30
   2  -1  -8   88.19    6.10
  -2  -1   8   93.89    7.70
   2   1  -8   94.09    6.70
   2   1  -8   93.19   14.50
  -2   1   8   94.49    6.00
   2   1  -8   89.09    7.30
  -2   1   8   91.79    6.60
  -2   1   8   94.49    7.60
   1  -1  -8  334.67   11.10
  -1  -1   8  301.77   13.00
   1  -1  -8  330.87   12.40
  -1  -1   8  359.16   16.10
   1   1  -8  345.87   24.10
   1   1  -8  309.57   13.30
  -1   1   8  324.77   11.10
   1   1  -8  326.37   12.30
  -1   1   8  322.67   11.90
  -1   1   8  314.67   13.30
   0  -1  -8   -0.30    2.20
   0  -1   8    1.70    3.30
   0  -1  -8    0.30    2.60
   0  -1   8   -0.30    3.10
   0   1   8   -2.80    2.80
   0   1  -8    5.40    2.90
   0   1  -8   -3.10    4.10
   0   1   8    1.50    3.70
   0   1   8    2.90    2.60
   0   1  -8   -1.90    4.20
  -1  -1  -8   -7.30    2.60
   1  -1   8    1.10    2.90
  -1  -1  -8    1.00    2.40
   1   1   8    5.50    2.70
   1   1   8    5.00    3.80
   1   1   8    0.80    3.50
  -1   1  -8    6.80    4.60
  -1   1  -8    2.40    2.80
  -1   1  -8   -2.20    3.10
  -2  -1  -8  134.19    7.10
  -2  -1  -8  142.19    9.00
   2  -1   8  146.29    9.00
   2   1   8  154.48    8.90
  -2   1  -8  136.89    8.40
   2   1   8  133.99    7.60
  -2   1  -8  142.49    9.40
  -3  -1  -8   18.90    4.70
  -3  -1  -8   10.80    3.30
   3  -1   8   13.90    5.10
   3   1   8   20.40    3.70
  -3   1  -8   15.50    4.70
  -3   1  -8   12.40    3.80
   3   1   8   25.20    5.10
  -3   1  -8   34.60    8.30
  -4  -1  -8   38.20    5.90
  -4  -1  -8   52.99    6.00
   4  -1   8   49.50    6.70
   4   1   8   59.09    6.90
  -4   1  -8   41.90    6.00
  -4   1  -8   32.90   10.80
   4   1   8   57.69    6.10
  -4   1  -8   50.19    7.00
   5  -1   8  123.39    9.30
  -5  -1  -8  111.59   10.30
  -5  -1  -8  123.09    8.80
  -5   1  -8  128.99   10.30
   5   1   8  131.59    9.90
  -5   1  -8  130.99    9.30
  -5   1  -8  111.59   19.80
  -6  -1  -8  409.96   18.20
   6  -1   8  411.96   17.50
  -6  -1  -8  403.96   16.30
  -6   1  -8  423.46   17.90
   6   1   8  402.56   16.60
  -6   1  -8  405.96   19.20
   7  -1   8    0.30    4.80
  -7  -1  -8    0.60    5.90
  -7  -1  -8    0.00    4.20
  -7   1  -8    9.10    5.70
  -7   1  -8   -1.80    5.50
   7   1   8   18.80    6.00
   8  -1   8   38.10    8.10
  -8  -1  -8   33.00    8.40
  -8  -1  -8   38.90    6.60
   8   1   8   40.00    7.00
  -8   1  -8   38.30    8.90
  -8   1  -8   35.60    7.90
   9  -1   8   -0.50    3.90
  -9  -1  -8    4.40    5.10
  -9  -1  -8   -5.20    5.80
  -9   1  -8    1.30    4.70
  -9   1  -8   -4.30    3.50
 -10  -1  -8    1.40    5.00
  10  -1   8    4.70    5.90
 -10  -1  -8    3.90    3.90
 -10   1  -8   13.30    8.10
 -10   1  -8   -4.00    5.70
 -11  -1  -8    2.80    5.20
  11  -1   8    3.00    6.60
 -11  -1  -8    1.80    5.60
 -11   1  -8    3.20    4.80
 -11   1  -8    5.00    5.50
 -12  -1  -8    8.40    6.90
  12  -1   8   -2.40    6.80
 -12  -1  -8    2.30    6.20
 -12   1  -8    4.10    5.30
 -12   1  -8   -9.90    4.60
 -14  -2   8    7.70   10.80
 -13  -2   8    5.80    6.60
  13  -2  -8  -48.90   28.70
 -13  -2   8   -6.40   10.00
 -13   2   8   -4.90    5.70
  13   2  -8    3.90    7.50
 -12  -2   8    4.80    8.90
 -12  -2   8    2.30    4.60
  12  -2  -8   86.49   35.90
 -12   2   8   -4.50    5.10
  12   2  -8   -9.30    5.40
 -11  -2   8   -5.10    7.60
  11  -2  -8  -28.30   25.90
 -11  -2   8   -3.10    3.30
  11   2  -8   -6.70    5.00
 -11   2   8   -5.90    4.50
 -10  -2   8   12.40    6.00
 -10  -2   8    7.80    6.00
  10  -2  -8   -8.70   19.40
 -10   2   8    8.10    5.40
  10   2  -8    3.30    6.30
  10   2  -8    7.30    4.70
   9  -2  -8    8.10   12.60
  -9  -2   8   -4.80    4.90
  -9  -2   8    0.10    7.30
   9   2  -8    2.40    4.20
  -9   2   8   -0.40    4.10
   9   2  -8    3.80    4.70
   8  -2  -8   -2.00    2.70
  -8  -2   8    1.00    3.80
  -8  -2   8    0.40    4.60
   8  -2  -8   -2.10    3.40
   8  -2  -8  -21.60   14.50
  -8   2   8   -6.90    3.50
   8   2  -8   -8.60    4.30
   8   2  -8   -5.50    4.60
  -8   2   8    0.60    2.20
  -8   2   8   -0.90    3.60
   7  -2  -8    8.70    3.00
  -7  -2   8    1.50    6.40
   7  -2  -8    3.90    4.10
  -7  -2   8    7.10    5.20
   7  -2  -8    8.70   14.80
  -7   2   8   11.00    4.10
  -7   2   8    5.60    4.00
  -7   2   8    9.30    2.90
   7   2  -8    6.20    5.00
   7   2  -8   15.50    6.10
   6  -2  -8   -1.00    2.80
   6  -2  -8    1.10    2.40
  -6  -2   8   -4.50    5.20
   6  -2  -8    5.20    9.60
   6  -2  -8    0.90    3.00
  -6  -2   8   -2.00    4.10
  -6   2   8   -0.10    2.60
   6   2  -8   -5.80    7.60
   6   2  -8   -3.90    4.50
  -6   2   8    0.30    2.40
   6   2  -8    4.40    3.10
  -6   2   8    2.90    3.10
   6   2  -8   -4.60    4.00
  -6   2   8   -2.90    3.00
  -5  -2   8   30.90    6.30
   5  -2  -8   24.80   13.20
   5  -2  -8   36.10    4.10
   5  -2  -8   30.10    5.30
   5  -2  -8   29.40    4.70
  -5  -2   8   35.10    7.40
  -5   2   8   30.10    4.20
  -5   2   8   38.70    5.30
   5   2  -8   30.20    6.00
  -5   2   8   32.40    4.10
   5   2  -8   28.80    4.80
   5   2  -8   35.60    6.60
  -4  -2   8   10.60    5.00
  -4  -2   8    6.70    5.50
   4  -2  -8    4.30    3.20
   4  -2  -8    5.30    2.70
   4  -2  -8    1.90    9.30
  -4  -2   8   -2.10    3.40
   4  -2  -8    4.80    2.20
   4   2  -8    2.30    4.50
   4   2  -8    1.60    3.10
  -4   2   8    2.40    2.40
   4   2  -8   11.90    4.70
  -4   2   8   -0.10    1.40
  -4   2   8    5.20    3.40
  -3  -2   8  400.36   27.50
   3  -2  -8  355.06   41.60
  -3  -2   8  384.26   15.20
  -3  -2   8  388.86   18.10
   3  -2  -8  389.36   13.10
   3  -2  -8  417.76   11.60
  -3   2   8  412.56   12.30
   3   2  -8  391.26   15.80
  -3   2   8  403.26   11.90
   3   2  -8  401.76   14.80
   3   2  -8  403.16   14.90
  -3   2   8  404.86   12.80
  -2  -2   8   25.20    6.80
   2  -2  -8   31.80    3.40
   2  -2  -8   17.80   14.50
   2  -2  -8   30.80    4.20
  -2  -2   8   37.20    6.20
  -2  -2   8   25.90    6.50
  -2   2   8   39.60    4.40
  -2   2   8   28.50    3.70
   2   2  -8   36.20    6.00
  -2   2   8   39.90    4.00
   2   2  -8   35.30    5.80
   1  -2  -8    6.00    2.00
  -1  -2   8    0.20    3.30
   1  -2  -8    5.40    2.80
  -1  -2   8    4.40    3.90
  -1   2   8    4.90    2.30
  -1   2   8    0.10    2.20
   1   2  -8    4.80    3.10
   1   2  -8    2.20    3.10
  -1   2   8    0.80    2.70
   0  -2  -8   24.50    3.30
   0  -2   8   17.50    4.90
   0  -2  -8   14.60    3.40
   0  -2   8   31.40    7.00
   0   2  -8   22.20    5.50
   0   2   8   19.60    3.80
   0   2  -8   26.60    5.20
   0   2   8   19.30    3.40
   0   2   8   10.50    2.70
  -1  -2  -8   -0.30    2.70
   1  -2   8   -1.60    3.20
  -1  -2  -8    0.20    1.70
   1   2   8    2.40    3.00
  -1   2  -8    6.50    4.30
   1   2   8    0.70    2.10
   1   2   8    1.00    2.00
  -1   2  -8   -1.10    4.10
   2  -2   8    2.30    3.90
  -2  -2  -8   -4.50    2.80
  -2  -2  -8   -0.10    2.00
   2   2   8   -1.50    2.50
   2   2   8    2.20    2.20
  -2   2  -8   -1.80    4.10
  -2   2  -8   -0.70    4.10
   2   2   8    0.60    3.20
  -3  -2  -8   19.50    4.80
  -3  -2  -8   15.50    3.30
   3  -2   8   11.10    4.60
  -3   2  -8   13.20    4.30
  -3   2  -8    3.00    4.80
   3   2   8   14.60    3.60
   3   2   8    9.90    3.80
  -4  -2  -8   -1.30    3.70
   4  -2   8   -3.00    3.70
  -4  -2  -8    0.80    2.40
  -4   2  -8   -3.60    4.20
   4   2   8    0.00    2.80
  -4   2  -8   -0.40    4.80
   4   2   8    1.10    3.30
  -5  -2  -8    3.30    2.80
  -5  -2  -8   -0.20    4.00
   5  -2   8   -5.10    4.00
   5   2   8   -2.50    3.60
  -5   2  -8    1.20    4.90
  -5   2  -8    1.70    4.70
  -6  -2  -8    3.60    3.30
  -6  -2  -8   10.50    5.50
   6  -2   8    3.90    3.90
  -6   2  -8    7.50    4.60
  -6   2  -8    3.30    5.70
   6   2   8    8.80    4.90
   7  -2   8  197.18   13.70
  -7  -2  -8  194.28   13.90
  -7   2  -8  190.38   12.60
   7   2   8  171.88   12.10
  -7   2  -8  208.58   15.00
   8  -2   8   42.70    8.20
  -8  -2  -8   54.19    8.90
   8   2   8   50.69    8.30
  -8   2  -8   42.30    7.80
  -8   2  -8   38.50    8.80
  -9  -2  -8   -4.70    5.70
   9  -2   8   -1.50    5.30
  -9   2  -8  -10.50    6.40
  -9   2  -8    7.70    5.50
   9   2   8    1.00    4.00
 -10  -2  -8    2.00    6.50
  10  -2   8    1.00    4.40
 -10   2  -8   -4.00    4.60
 -10   2  -8   -0.80    6.30
 -11  -2  -8    1.00    7.60
  11  -2   8   -0.50    6.40
 -11   2  -8    8.80    6.00
 -12  -3   8    4.50    6.90
  12   3  -8    8.60    8.00
 -12   3   8    5.20    5.10
  11  -3  -8   13.30   18.90
 -11  -3   8    8.90    8.70
  11   3  -8    0.90    6.60
 -11   3   8   10.40    5.00
 -10  -3   8    6.20    8.50
  10  -3  -8  -19.80   17.90
  10   3  -8    2.20    5.60
 -10   3   8   -0.60    4.30
  -9  -3   8   16.10    9.10
   9  -3  -8   35.90   20.40
  -9   3   8   31.20    6.00
   9   3  -8   29.80    7.50
  -8  -3   8   -2.20    4.70
   8  -3  -8   14.00   11.30
   8   3  -8   -4.90    4.90
  -8   3   8    6.60    3.80
  -8   3   8   -0.60    3.90
   7  -3  -8   -0.10   14.00
  -7  -3   8    4.20    6.90
  -7   3   8    3.00    3.20
  -7   3   8   -4.60    3.50
   7   3  -8    0.80    4.90
   7   3  -8    0.20    4.20
  -6  -3   8   -2.10    3.40
  -6  -3   8   -6.50    5.70
   6  -3  -8   10.60   13.30
  -6   3   8    0.10    2.60
  -6   3   8    0.50    3.40
   6   3  -8   -1.90    4.70
   6   3  -8   -1.60    4.00
   6   3  -8   -4.70    3.80
   5  -3  -8   22.40    4.10
  -5  -3   8   21.80    7.80
   5  -3  -8   20.20   14.50
  -5  -3   8   16.60    5.40
  -5   3   8   23.40    5.30
   5   3  -8    8.70    5.20
  -5   3   8   10.90    2.70
   5   3  -8   19.10    5.80
   5   3  -8   11.40    5.70
   4  -3  -8    2.30    2.50
  -4  -3   8   -4.40    3.20
  -4  -3   8   10.90    6.40
   4  -3  -8   14.10   15.90
  -4   3   8    3.70    1.90
   4   3  -8   -2.60    3.90
   4   3  -8    4.30    4.60
   4   3  -8   -4.60    3.80
   3  -3  -8  138.39    6.50
  -3  -3   8  139.29    9.80
  -3  -3   8  143.09   13.00
   3  -3  -8  144.99   30.00
   3   3  -8  143.59   11.10
  -3   3   8  128.29    4.10
   3   3  -8  134.79   10.20
   3   3  -8  150.88   10.40
  -3   3   8  137.79    4.20
   2  -3  -8   35.70   17.10
  -2  -3   8   61.49    9.90
   2  -3  -8   45.40    4.00
  -2  -3   8   40.30    6.10
  -2   3   8   37.80    1.30
   2   3  -8   54.19    7.30
   2   3  -8   44.10    7.20
   2   3  -8   50.59    7.00
  -2   3   8   41.00    1.50
   1  -3  -8    2.50    2.20
  -1  -3   8    1.10    5.30
  -1  -3   8    2.90    3.40
   1   3  -8   -0.10    3.90
  -1   3   8    2.00    1.00
  -1   3   8    5.30    1.40
   1   3  -8    1.00    5.00
   1   3  -8   -4.90    3.80
   0  -3   8   30.20    7.80
   0  -3  -8   31.40    3.80
   0  -3   8   22.90    5.40
   0   3  -8   40.00    6.60
   0   3   8   33.90    3.30
   0   3  -8   37.80    6.60
  -1  -3  -8    2.40    2.50
   1  -3   8   -3.90    4.80
   1  -3   8    0.00    3.80
  -1   3  -8   -1.60    4.10
   1   3   8   -3.50    2.20
  -1   3  -8    1.90    4.40
  -2  -3  -8    4.40    3.20
   2  -3   8   -3.30    3.40
   2  -3   8    1.00    5.90
  -2   3  -8    1.40    4.80
   2   3   8   -1.00    2.60
  -2   3  -8    4.40    4.40
  -3  -3  -8    1.80    2.90
   3  -3   8    0.10    4.00
   3   3   8    1.70    3.00
  -3   3  -8   -3.00    4.30
  -4  -3  -8    5.50    3.50
   4   3   8    3.50    3.70
  -4   3  -8   -3.30    4.80
  -5  -3  -8    1.40    3.70
   5   3   8   -0.70    3.70
  -5   3  -8    5.30    5.50
  -6  -3  -8    9.00    5.50
  -6   3  -8    0.90    5.60
   6   3   8    7.70    4.90
  -7  -3  -8   15.20    6.70
   7   3   8   19.80    5.50
  -7   3  -8    9.10    6.60
  -8  -3  -8   21.80    7.40
   8   3   8   20.10    6.30
  -8   3  -8   22.50    7.90
  -9  -3  -8   -1.50    5.70
  -9   3  -8  -14.80    6.40
   9   3   8   -2.50    5.00
  -7  -4   8    9.20    7.60
   7   4  -8   12.90    6.80
  -6  -4   8    8.60    7.60
   6   4  -8    4.50    5.00
  -5  -4   8    5.60    6.60
   5   4  -8   -3.90    5.10
   5   4  -8    0.90    6.20
  -5   4   8   -5.10    5.00
  -4  -4   8   -2.30    6.50
   4   4  -8    7.80    6.30
   4   4  -8    3.80    4.60
   3  -4  -8   40.40   17.00
  -3  -4   8   18.60    7.60
   3   4  -8   14.60    6.10
   3   4  -8   21.30    7.80
   2  -4  -8    9.30   10.90
  -2  -4   8   -1.40    6.20
   2   4  -8   -2.90    4.50
   2   4  -8    4.70    5.90
   1  -4  -8   78.39   24.60
  -1  -4   8  117.79   14.20
   1   4  -8   64.29   11.30
   1   4  -8  102.79    9.90
   0  -4   8   23.90    8.60
   0   4  -8    8.60    7.50
   0   4  -8    6.30    4.60
   1  -4   8   -6.40    5.60
  -1   4  -8    0.50    5.30
  -1   4  -8    3.90    4.70
   2  -4   8    4.40    6.30
  -2   4  -8   -2.40    5.30
  -2   4  -8    2.30    7.30
   3  -4   8    0.20    6.50
  -3   4  -8   -1.00    4.90
   4  -4   8    2.70    7.30
  -4   4  -8   11.80    5.20
  -5   4  -8   -6.00    5.30
 -15   0   9    6.00    6.50
  15   0  -9    3.70    5.50
 -15   0   9    0.10    5.50
  15   0  -9   10.80   16.80
  14   0  -9    6.70    6.50
 -14   0   9   16.30    9.30
  14   0  -9   20.80   39.30
 -14   0   9    3.40    5.60
  13   0  -9   97.99   33.60
 -13   0   9  117.39   15.60
 -13   0   9  111.69   12.00
  13   0  -9  121.79   12.70
  12   0  -9   -5.20    6.60
 -12   0   9   -3.60    3.80
 -12   0   9   -0.10    7.60
  12   0  -9   12.00    6.00
  11   0  -9   18.70    6.20
  11   0  -9  -15.70   29.00
 -11   0   9   -6.80    6.40
 -11   0   9    5.10    4.50
  11   0  -9    6.80    7.00
  10   0  -9   -2.30    3.20
 -10   0   9   -0.20    4.60
 -10   0   9    1.60    4.20
  10   0  -9    0.40    4.30
  10   0  -9   42.30   23.90
  -9   0   9   12.70    6.20
   9   0  -9   14.30    6.80
  -9   0   9   15.50    5.90
   9   0  -9   11.20    4.90
   9   0  -9   12.00   18.80
   8   0  -9   -3.50    2.60
  -8   0   9    2.70    4.40
   8   0  -9   -8.20   16.80
   8   0  -9   -1.80    3.40
  -8   0   9  -12.80    4.10
  -7   0   9   46.30    7.30
  -7   0   9   62.09    8.80
   7   0  -9   47.70    6.00
   7   0  -9   58.99    7.40
   6   0  -9   -2.70    2.20
  -6   0   9   -3.30    4.00
   6   0  -9    1.60    7.70
  -6   0   9   -4.70    2.70
   6   0  -9   -0.30    4.30
   5   0  -9  207.28   25.30
   5   0  -9  181.58    9.80
  -5   0   9  187.98   12.50
   5   0  -9  180.08   10.50
  -5   0   9  171.68    9.90
   4   0  -9   -6.70    2.80
  -4   0   9    2.40    3.80
  -4   0   9    1.50    2.80
   4   0  -9    3.10    8.70
   4   0  -9   -0.30    3.20
  -3   0   9  533.35   20.30
   3   0  -9  571.44   17.60
  -3   0   9  527.85   17.90
   3   0  -9  588.14   43.00
   3   0  -9  545.65   18.70
  -2   0   9   -2.20    2.50
   2   0  -9   -1.40    2.60
   2   0  -9   -1.20    6.90
  -2   0   9    3.80    3.70
   2   0  -9   -1.90    2.90
  -2   0   9   -0.30    2.40
   1   0  -9  146.99    8.90
  -1   0   9  146.89    8.70
  -1   0   9  163.48   11.40
  -1   0   9  150.38    7.90
   1   0  -9  152.98    8.50
   1   0  -9  134.79   19.90
   0   0   9    0.00    2.50
   0   0   9    3.50    3.90
   0   0  -9   -1.10    3.00
   0   0  -9    2.10    4.20
  -1   0  -9    0.40    3.20
  -1   0  -9    0.20    3.10
   1   0   9   -4.50    2.20
   2   0   9   -0.50    2.60
  -2   0  -9    4.90    3.60
  -2   0  -9   -4.70    2.90
   3   0   9   20.40    4.70
  -3   0  -9   22.70    5.90
  -3   0  -9   16.10    4.70
  -4   0  -9    5.40    4.20
  -4   0  -9   -6.70    4.30
   4   0   9    2.00    3.30
  -5   0  -9  119.09   10.30
  -5   0  -9  113.59    9.70
   5   0   9  128.69   10.90
  -6   0  -9   -8.30    5.00
   6   0   9    3.00    4.00
  -6   0  -9   -4.00    4.60
   7   0   9    4.50    4.20
  -7   0  -9   -2.80    5.70
  -7   0  -9   -2.60    3.20
   8   0   9   -0.40    4.10
  -8   0  -9   -2.00    4.80
  -8   0  -9   -6.40    5.90
  -9   0  -9    4.30    5.40
  -9   0  -9   -1.60    5.30
   9   0   9    1.40    6.20
 -10   0  -9    0.70    5.90
  10   0   9    0.20    4.30
 -10   0  -9    0.50    5.90
 -11   0  -9    6.60    8.20
 -11   0  -9    3.20    4.90
  11   0   9    9.70    6.30
  12   0   9   -5.50    4.60
 -12   0  -9   -5.80    8.20
 -12   0  -9   -3.50    4.90
 -15  -1   9    9.60    6.20
 -15  -1   9   15.60    8.80
  15   1  -9    0.10   26.10
  15   1  -9   18.50    8.90
 -15   1   9    8.70    7.80
 -14  -1   9    1.80    5.60
 -14  -1   9    8.30    7.20
  14  -1  -9  -37.30   39.60
  14   1  -9   -9.10   19.20
  14   1  -9   -1.00    5.20
 -14   1   9   10.00    7.30
 -13  -1   9    7.50    7.20
  13  -1  -9   -8.60   31.00
 -13  -1   9    2.90    5.00
  13  -1  -9    0.00    5.00
  13   1  -9    1.40    4.70
 -13   1   9  -10.00    5.80
  13   1  -9  -34.00   22.20
 -13   1   9    3.50    7.60
 -12  -1   9   12.80    7.00
  12  -1  -9   -2.10    4.20
  12  -1  -9   -5.00   28.20
 -12  -1   9    0.10    4.60
 -12   1   9   -1.40    4.40
  12   1  -9    6.20    8.00
  12   1  -9    4.40    4.30
 -12   1   9    1.20    6.10
  11  -1  -9   57.99    7.90
  11  -1  -9   55.09    9.50
 -11  -1   9   70.29    9.80
 -11  -1   9   60.49   11.20
  11  -1  -9   38.80   26.90
  11   1  -9   62.89   21.90
 -11   1   9   54.69    8.70
  11   1  -9   46.20    7.50
  11   1  -9   65.59   11.10
 -11   1   9   62.29    9.50
 -10  -1   9   22.80    8.80
  10  -1  -9   23.50    6.20
  10  -1  -9   10.30   18.40
 -10  -1   9   19.80    6.00
  10  -1  -9   22.40    5.50
  10   1  -9   -4.80   20.50
 -10   1   9   26.00    7.00
  10   1  -9   28.40    7.10
 -10   1   9   21.10    6.20
  10   1  -9   16.90    6.20
   9  -1  -9   27.40    7.10
  -9  -1   9   26.00    7.60
  -9  -1   9   30.00    7.30
   9  -1  -9   17.10    4.70
  -9   1   9   25.60    6.70
   9   1  -9   16.50    5.20
  -9   1   9   17.90    6.60
   9   1  -9   23.30    6.30
   8  -1  -9    1.50   10.30
  -8  -1   9    4.00    5.10
  -8  -1   9    7.90    7.40
   8  -1  -9   11.10    5.60
   8  -1  -9   10.00    3.90
   8   1  -9   24.20   17.20
   8   1  -9   11.00    5.60
   8   1  -9    5.80    4.60
  -8   1   9   16.70    5.80
  -8   1   9    8.60    5.50
   7  -1  -9   19.00    3.90
   7  -1  -9   21.40   15.70
   7  -1  -9   21.00    5.70
  -7  -1   9   22.20    7.50
  -7  -1   9   26.40    5.70
  -7   1   9   19.60    5.80
  -7   1   9   16.40    4.30
   7   1  -9   28.30   20.90
   7   1  -9   11.90    4.30
   7   1  -9    6.20    5.70
  -7   1   9   19.00    5.90
  -5  -1   9  209.98   11.90
   5  -1  -9  214.28   11.10
   5  -1  -9  187.88    9.10
  -5  -1   9  209.58   13.20
   5  -1  -9  207.68   11.60
   5  -1  -9  214.08   29.70
   5   1  -9  146.59   28.10
   5   1  -9  203.48    7.50
   5   1  -9  204.28   11.60
  -5   1   9  194.98   10.60
  -5   1   9  185.58   11.20
   5   1  -9  205.68   11.10
  -5   1   9  206.28    9.00
   4  -1  -9   90.89    7.80
   4  -1  -9   83.59    7.30
   4  -1  -9   57.39   17.10
   4  -1  -9   75.59    5.40
  -4  -1   9   72.59    7.00
  -4  -1   9   64.99    9.30
   4   1  -9   74.49    6.60
   4   1  -9   69.29    7.30
  -4   1   9   69.59    7.60
  -4   1   9   76.29    5.90
   4   1  -9   48.60   14.50
  -4   1   9   66.29    6.80
   4   1  -9   76.29    4.90
  -3  -1   9  544.05   21.40
   3  -1  -9  519.35   44.50
  -3  -1   9  544.35   36.00
   3  -1  -9  521.45   19.00
  -3  -1   9  521.15   18.80
   3  -1  -9  516.35   17.70
   3  -1  -9  538.55   16.00
   3   1  -9  555.94   38.80
  -3   1   9  548.45   16.10
   3   1  -9  555.44   19.40
  -3   1   9  542.55   17.30
   3   1  -9  547.25   18.20
  -3   1   9  539.45   18.80
   2  -1  -9   26.90    4.10
   2  -1  -9   19.10   12.10
  -2  -1   9   30.10    7.10
   2  -1  -9   22.20    4.50
  -2  -1   9   28.70    5.10
  -2   1   9   28.60    5.40
   2   1  -9   25.40    8.30
   2   1  -9   23.60    4.40
  -2   1   9   29.60    4.00
   2   1  -9   24.20    5.90
  -2   1   9   27.20    4.90
   1  -1  -9  117.69    6.90
  -1  -1   9  123.19   10.00
  -1  -1   9  138.19    9.50
   1  -1  -9  136.79    8.50
   1   1  -9  135.99    8.20
  -1   1   9  124.99    9.10
   1   1  -9  132.09    9.10
   1   1  -9  148.99   15.90
  -1   1   9  132.99    7.30
  -1   1   9  120.79    7.50
   0  -1   9   13.80    5.80
   0  -1  -9    7.90    3.20
   0  -1  -9    8.70    3.00
   0  -1   9    5.60    3.50
   0   1  -9   -0.40    4.10
   0   1  -9    5.20    4.90
   0   1   9    4.40    3.90
   0   1   9   12.70    4.00
   0   1  -9    4.40    3.10
   0   1   9    5.80    2.40
  -1  -1  -9  252.87   12.10
   1  -1   9  242.18   12.00
  -1  -1  -9  244.48   10.40
  -1   1  -9  268.77   13.60
  -1   1  -9  240.58   11.90
   1   1   9  278.07   10.90
   1   1   9  245.18   11.40
  -1   1  -9  257.77   20.40
   1   1   9  252.57   12.70
  -2  -1  -9   50.99    5.50
   2  -1   9   50.79    6.80
  -2  -1  -9   46.90    6.10
   2   1   9   42.80    6.20
  -2   1  -9   53.69    7.20
   2   1   9   50.79    5.00
  -2   1  -9   60.39    6.40
  -3  -1  -9   78.79    6.70
   3  -1   9   67.89    8.40
  -3  -1  -9   65.29    7.90
  -3   1  -9   61.09    8.40
   3   1   9   71.99    7.70
   3   1   9   68.79    6.60
  -3   1  -9   50.99    7.20
   4  -1   9  243.98   14.20
  -4  -1  -9  280.07   12.60
  -4  -1  -9  286.77   14.60
   4   1   9  306.67   14.10
  -4   1  -9  282.77   14.20
  -4   1  -9  322.27   24.50
  -4   1  -9  245.28   15.00
   5  -1   9  132.09   10.30
  -5  -1  -9  112.19    9.00
  -5  -1  -9  131.39   11.40
  -5   1  -9  119.29   12.00
  -5   1  -9  133.69   10.90
   5   1   9  122.59   10.40
  -5   1  -9  118.49   20.60
   6  -1   9  255.87   15.20
  -6  -1  -9  278.37   16.30
  -6  -1  -9  256.47   12.80
   6   1   9  269.57   13.90
  -6   1  -9  272.17   14.20
  -6   1  -9  290.67   16.00
  -7  -1  -9   16.20    7.20
  -7  -1  -9   23.50    6.20
   7  -1   9   10.40    6.00
  -7   1  -9   23.40    6.20
  -7   1  -9   15.50    6.20
   7   1   9   15.10    5.20
  -8  -1  -9   -4.40    5.70
   8  -1   9    2.50    5.90
  -8  -1  -9    1.10    3.40
  -8   1  -9    6.90    5.60
  -8   1  -9    4.40    4.60
   8   1   9   -1.20    3.90
  -9  -1  -9   17.30    6.40
  -9  -1  -9   15.20    7.80
   9  -1   9    8.00    6.50
  -9   1  -9    0.80    6.10
   9   1   9    1.70    6.10
  -9   1  -9   -0.70    7.60
  10  -1   9   20.10    7.80
 -10  -1  -9    7.90    4.70
 -10  -1  -9   10.80    6.50
  10   1   9   12.40    7.00
 -10   1  -9   21.70    7.40
 -10   1  -9   12.20    6.00
 -11  -1  -9   -6.00    5.40
 -11  -1  -9   -2.30    5.90
  11  -1   9   -6.80    3.70
 -11   1  -9   -5.90    7.10
 -11   1  -9   -1.90    6.40
  11   1   9   -0.70    4.20
 -12  -1  -9   -4.20    6.80
 -12   1  -9   19.10    9.80
  14  -2  -9  338.17   67.89
 -13  -2   9    3.10    6.90
 -13  -2   9   -4.70    6.30
 -13   2   9    5.00    6.00
  13   2  -9    9.30    5.90
  12  -2  -9   16.60   28.30
 -12  -2   9   -0.50    6.30
 -12  -2   9   -7.10    6.20
  12   2  -9    4.40    5.10
 -12   2   9    1.80    5.90
 -11  -2   9   27.40    8.80
 -11  -2   9   26.70    8.40
  11  -2  -9   18.40   22.00
  11   2  -9   20.20    6.90
 -11   2   9   38.50    7.80
  11   2  -9   22.10    6.60
 -10  -2   9    2.50    7.80
  10  -2  -9  -16.80   19.10
 -10  -2   9    1.70    5.60
  10   2  -9    2.40    5.80
  10   2  -9    2.40    6.80
 -10   2   9    3.90    5.00
   9  -2  -9   -3.40   14.30
  -9  -2   9   -2.20    3.70
  -9  -2   9   10.50    8.30
   9  -2  -9   -1.70    4.70
   9   2  -9    3.20   12.50
   9   2  -9   -5.50    5.50
   9   2  -9    8.10    6.20
  -9   2   9    6.30    4.90
  -8  -2   9   -1.50    4.60
  -8  -2   9   -0.70    5.00
   8  -2  -9  -14.10   13.60
   8  -2  -9    4.80    4.10
   8   2  -9   -0.60    5.60
  -8   2   9   -0.20    4.10
   8   2  -9   -2.90   10.40
   8   2  -9   -0.10    4.00
   7  -2  -9   -2.20   10.90
   7  -2  -9    1.80    3.60
  -7  -2   9    0.90    3.60
  -7  -2   9    1.20    5.00
   7  -2  -9    2.90    2.80
  -7   2   9   -0.30    4.20
   7   2  -9   -2.30    5.00
   7   2  -9   -7.40    2.80
  -7   2   9    1.50    3.60
   7   2  -9   -2.40    5.30
  -6  -2   9   39.90    7.30
   6  -2  -9   13.80   16.40
   6  -2  -9   25.70    3.90
   6  -2  -9   27.30    5.00
  -6  -2   9   24.50    6.90
   6   2  -9   28.50    6.50
   6   2  -9   38.40    5.50
   6   2  -9   18.80   12.90
   6   2  -9   37.60    6.80
  -6   2   9   34.00    5.20
  -6   2   9   36.00    6.00
   5  -2  -9   -0.90   12.30
  -5  -2   9    5.30    4.60
   5  -2  -9   -0.90    2.20
  -5  -2   9    0.10    3.80
   5  -2  -9    5.00    3.40
   5  -2  -9    1.50    3.00
   5   2  -9   -1.30    7.50
  -5   2   9   -5.20    2.90
  -5   2   9    2.40    2.80
   5   2  -9    4.40    3.20
   5   2  -9   -3.00    3.30
   5   2  -9   -4.20    4.30
  -5   2   9    0.50    2.80
   4  -2  -9  238.58   11.60
   4  -2  -9  243.98    9.20
   4  -2  -9  236.88   33.20
   4  -2  -9  237.88   11.10
  -4  -2   9  259.77   13.40
  -4  -2   9  271.47   15.70
   4   2  -9  281.87   24.00
  -4   2   9  250.47    9.60
  -4   2   9  202.28    9.50
   4   2  -9  284.57   13.50
   4   2  -9  255.27   11.50
   4   2  -9  235.78   12.80
  -4   2   9  234.98   10.50
  -3  -2   9   57.29    7.10
  -3  -2   9   53.69    9.30
   3  -2  -9   41.40   16.20
   3  -2  -9   58.29    4.60
   3  -2  -9   44.80    5.40
   3   2  -9   52.29    6.40
  -3   2   9   54.29    4.90
  -3   2   9   49.00    5.50
   3   2  -9   44.90    6.10
   3   2  -9   44.80    6.60
  -2  -2   9   46.90    8.90
   2  -2  -9   47.60   16.50
   2  -2  -9   48.00    4.40
   2  -2  -9   49.10    5.30
  -2  -2   9   67.09    8.10
   2   2  -9   51.29    6.40
  -2   2   9   49.99    5.50
  -2   2   9   49.70    4.70
   2   2  -9   52.29    7.50
   1  -2  -9   -1.80    2.60
   1  -2  -9   -1.30    1.90
  -1  -2   9   -0.70    3.90
  -1  -2   9    2.60    5.00
  -1   2   9   -0.20    1.20
  -1   2   9   -0.80    3.00
   1   2  -9   -8.90    3.50
   1   2  -9    1.90    4.50
  -1   2   9   -1.00    2.30
   0  -2   9   20.60    5.60
   0  -2   9   18.90    5.90
   0  -2  -9   24.20    3.40
   0  -2  -9   23.90    4.40
   0   2   9   22.00    4.10
   0   2   9   24.30    4.60
   0   2   9   25.60    4.10
   0   2  -9   20.30    5.40
   0   2  -9   20.40    6.10
  -1  -2  -9    8.50    2.60
   1  -2   9    9.00    6.10
  -1  -2  -9    7.20    3.80
   1  -2   9   12.80    5.40
  -1   2  -9    4.00    4.40
  -1   2  -9    4.00    5.10
   1   2   9    3.60    3.40
   1   2   9    7.00    3.70
   1   2   9   11.80    3.30
   2  -2   9   22.60    5.30
  -2  -2  -9   30.80    5.20
  -2  -2  -9   30.10    4.20
   2   2   9   34.90    5.00
   2   2   9   26.80    5.20
  -2   2  -9   12.80    4.30
  -2   2  -9   18.90    5.70
   2   2   9   22.90    4.90
  -3  -2  -9    3.60    2.70
  -3  -2  -9    1.20    3.50
   3  -2   9   -3.00    4.40
  -3   2  -9    1.50    5.30
   3   2   9   -1.00    3.40
  -3   2  -9    3.90    3.70
  -4  -2  -9   10.80    5.00
   4  -2   9    8.00    4.90
  -4  -2  -9    4.30    3.00
   4   2   9   -2.20    3.60
  -4   2  -9   13.40    4.90
  -4   2  -9   10.80    6.00
  -5  -2  -9   11.60    4.00
  -5  -2  -9    9.30    4.80
   5  -2   9   13.10    5.70
  -5   2  -9   18.20    5.60
   5   2   9   12.60    5.00
  -5   2  -9   17.00    6.90
   6  -2   9  114.59   11.60
  -6  -2  -9  142.69   12.00
   6   2   9  129.89   10.50
  -6   2  -9  125.39   11.30
  -6   2  -9  136.79   12.50
  -7  -2  -9   11.50    6.50
   7  -2   9    0.50    3.70
  -7   2  -9    1.70    5.90
  -7   2  -9    4.50    6.70
   7   2   9   -0.10    5.00
  -8  -2  -9    7.60    6.70
   8  -2   9    3.40    4.80
   8   2   9    5.60    5.70
  -8   2  -9    0.00    6.20
  -8   2  -9    7.30    7.60
   9  -2   9   -2.80    5.50
  -9  -2  -9   -2.00    6.90
  -9   2  -9   -2.40    6.30
  -9   2  -9    8.70    7.00
   9   2   9    2.20    5.20
 -10  -2  -9   -5.20    6.40
  10  -2   9   -3.30    5.90
  10   2   9   -1.70    5.90
 -10   2  -9    8.10    6.00
 -10   2  -9   -0.80    7.40
  11  -3  -9   56.19   26.40
 -11  -3   9    9.50   10.30
  11   3  -9   31.40    9.30
 -11   3   9   17.70    6.40
 -10  -3   9   -7.20    8.10
  10  -3  -9   24.50   12.10
  10   3  -9    5.70    6.20
 -10   3   9   12.40    5.40
  -9  -3   9   -3.90    6.90
  -9   3   9   -1.20    4.00
   9   3  -9    2.30    6.00
  -8  -3   9    6.90    7.80
   8  -3  -9    1.10   14.00
  -8   3   9    0.10    3.80
   8   3  -9    4.80    4.50
   7  -3  -9   11.70   12.40
  -7  -3   9   10.80    7.40
  -7   3   9   11.20    3.90
   7   3  -9    3.70    5.80
   7   3  -9   10.50    5.00
  -7   3   9   11.90    4.30
  -6  -3   9   -0.40    6.50
   6  -3  -9    8.20   16.80
   6  -3  -9    2.50    3.10
  -6  -3   9   -3.00    3.80
   6   3  -9   -1.10    3.70
  -6   3   9    2.80    3.10
   6   3  -9   -3.20    3.50
   5  -3  -9   16.10    3.90
  -5  -3   9   35.40    9.30
   5  -3  -9   27.30   15.50
  -5  -3   9   19.40    6.00
   5   3  -9   17.60    5.60
   5   3  -9   23.10    6.60
  -5   3   9   20.70    3.60
   5   3  -9   20.40    6.30
   4  -3  -9   17.60   14.60
   4  -3  -9   -0.60    2.50
  -4  -3   9   -2.10    4.30
  -4  -3   9   -4.40    3.20
   4   3  -9    7.20    4.80
   4   3  -9    2.90    5.20
   4   3  -9   -1.90    4.40
  -4   3   9    1.30    2.10
  -3  -3   9   86.49   11.20
  -3  -3   9  102.39    9.10
   3  -3  -9  101.19   23.90
   3  -3  -9  113.89    6.40
  -3   3   9   97.79    5.00
   3   3  -9   93.99    9.70
   3   3  -9  106.79    9.20
   3   3  -9   92.89    9.60
  -2  -3   9   52.89    9.40
   2  -3  -9   73.09   22.40
  -2  -3   9   48.10    7.20
   2  -3  -9   53.09    4.80
   2   3  -9   38.30    7.10
   2   3  -9   52.99    7.50
  -2   3   9   49.70    3.80
   2   3  -9   49.80    8.20
  -1  -3   9    6.40    4.50
  -1  -3   9    9.80    6.90
   1  -3  -9    6.00    2.70
   1   3  -9   11.20    5.40
  -1   3   9    3.30    2.20
   1   3  -9    6.50    4.30
   1   3  -9   12.00    5.40
   0  -3  -9    6.50    3.00
   0  -3   9    5.00    4.20
   0  -3   9   12.50    7.20
   0   3   9    5.70    2.60
   0   3  -9    2.50    4.80
   0   3  -9   12.20    4.50
   1  -3   9    6.70    4.50
  -1  -3  -9    5.70    3.00
   1  -3   9   -0.30    5.80
  -1   3  -9   -1.60    4.60
  -1   3  -9    2.10    5.20
   1   3   9    4.70    3.00
   2  -3   9   -5.70    3.30
  -2  -3  -9    3.20    2.80
   2  -3   9    7.80    7.10
  -2   3  -9  -12.70    3.90
   2   3   9   -0.80    3.00
  -3  -3  -9    3.00    3.40
  -3   3  -9    1.50    5.10
   3   3   9    1.90    3.40
  -4  -3  -9   55.09    7.20
   4   3   9   40.10    6.00
  -4   3  -9   58.09    9.00
  -5  -3  -9   18.10    5.60
   5   3   9   24.00    5.60
  -5   3  -9   32.90    7.70
  -6  -3  -9    2.70    4.40
   6   3   9    9.80    4.90
  -6   3  -9    8.30    6.10
  -7  -3  -9   -4.80    4.40
   7   3   9   -0.10    4.90
  -7   3  -9   -0.90    5.60
  -8  -3  -9    9.30    6.30
   8   3   9    4.80    5.40
  -8   3  -9    6.40    7.60
  -7  -4   9   12.10    9.40
   7  -4  -9   53.29   17.80
  -7   4   9    7.40    5.50
   7   4  -9    5.10    6.00
   7   4  -9   -5.30    5.20
  -6  -4   9   -2.30    6.70
   6   4  -9    7.90    6.10
   6   4  -9   -6.20    5.50
  -5  -4   9   -2.70    7.10
  -3  -4   9    9.30    7.30
   3   4  -9    5.70    6.20
  -2  -4   9   25.20    8.10
   2   4  -9   18.40    6.60
   2   4  -9   22.30    8.30
  -1  -4   9   -3.80    6.00
   1   4  -9   -0.10    4.70
   1   4  -9    9.60    7.10
   0  -4   9   10.10    8.20
   0   4  -9   -6.90    4.30
   0   4  -9   -9.30    3.60
   1  -4   9   -5.40    6.20
  -1   4  -9   -4.80    4.60
  -1   4  -9   -6.00    6.80
   2  -4   9   -0.30    6.10
  -2   4  -9   -2.90    4.90
  -2   4  -9   -2.40    4.80
   3  -4   9    7.30    8.10
  -3   4  -9   -3.40    5.00
   4  -4   9   -2.00    8.40
 -15   0  10    2.40    6.20
  15   0 -10  -45.30   28.40
 -15   0  10    4.60    8.60
  15   0 -10   -6.20    4.10
 -14   0  10    7.30    7.00
  14   0 -10   -4.90    4.00
 -14   0  10    3.30    5.30
  14   0 -10  -44.60   31.20
  13   0 -10    3.50    6.10
  13   0 -10  107.49   41.80
 -13   0  10   -4.40    7.50
  11   0 -10    0.20   23.60
  11   0 -10    2.90    5.10
 -11   0  10    7.60    5.60
  11   0 -10    3.00    3.90
 -11   0  10   -7.20    5.60
  10   0 -10    2.90   21.10
 -10   0  10   12.80    6.10
 -10   0  10   18.80    7.50
  10   0 -10    0.60    6.70
  10   0 -10   10.20    4.60
   8   0 -10    3.30    5.60
  -8   0  10    7.10    5.10
   8   0 -10    8.30    5.00
   8   0 -10    7.40   14.80
  -8   0  10    6.70    4.30
   7   0 -10   -6.00   14.00
   7   0 -10   -1.90    2.90
   7   0 -10    1.00    5.00
  -7   0  10    3.30    5.20
  -7   0  10    3.00    4.30
  -6   0  10  609.54   23.50
  -6   0  10  599.24   20.90
   6   0 -10  588.74   49.10
   6   0 -10  611.04   22.10
   6   0 -10  621.34   20.10
   5   0 -10    3.10    3.40
  -5   0  10    0.20    4.50
   5   0 -10    1.80    9.50
  -5   0  10    0.10    2.90
   5   0 -10   -0.20    3.00
   4   0 -10   56.09    7.40
  -4   0  10   73.39    8.30
  -4   0  10   55.39    8.10
   4   0 -10   59.09   15.50
   4   0 -10   52.39    6.00
  -3   0  10    4.90    5.00
   3   0 -10   -5.10    6.20
   3   0 -10   -2.30    2.30
  -3   0  10   -1.60    4.10
   3   0 -10   -7.30    3.40
  -2   0  10   23.90    5.00
  -2   0  10    6.10    5.20
   2   0 -10   22.10    4.80
   2   0 -10   15.60    9.60
   2   0 -10   15.10    4.30
  -1   0  10    0.80    4.10
   1   0 -10    0.40    7.20
   1   0 -10    1.20    4.00
   1   0 -10    2.90    2.60
  -1   0  10    2.60    3.40
   0   0  10  313.37   15.80
   0   0 -10  294.87   13.60
   0   0  10  290.47   13.20
   0   0 -10  286.77   28.90
   0   0 -10  304.27   12.80
  -1   0 -10    1.20    3.50
  -1   0 -10    0.10    3.30
   1   0  10   -1.30    2.60
  -2   0 -10   24.50    5.10
   2   0  10   18.20    4.80
  -2   0 -10   13.10    5.50
   3   0  10    4.50    3.60
  -3   0 -10    1.20    4.20
  -3   0 -10   -3.80    3.30
  -4   0 -10 2235.88   51.69
   4   0  10 2137.89   52.69
  -4   0 -10 2220.08   55.59
   5   0  10   -1.20    3.60
  -5   0 -10    5.20    6.10
  -5   0 -10   10.00    5.30
  -6   0 -10    1.30    5.80
  -6   0 -10    2.00    3.80
   6   0  10    2.60    4.20
   7   0  10    8.40    6.00
  -7   0 -10    1.00    3.80
  -7   0 -10    3.70    6.50
   8   0  10   10.00    5.30
  -8   0 -10   10.20    4.80
  -8   0 -10   20.30    8.30
   9   0  10   -2.40    6.10
  -9   0 -10   -2.00    5.10
  -9   0 -10    4.20    6.00
 -10   0 -10   14.90    9.10
  10   0  10   13.00    6.30
 -10   0 -10    7.80    5.10
 -11   0 -10    7.60    5.60
 -11   0 -10    5.10    8.90
  11   0  10   -3.50    7.40
  14  -1 -10  -40.50   29.30
 -14  -1  10   -4.00    6.20
 -14  -1  10    1.60    5.30
  14   1 -10    8.40   19.90
  14   1 -10    5.10    5.50
 -14   1  10   -7.50    6.70
 -13  -1  10   10.50    6.60
  13  -1 -10   22.00    6.60
 -13  -1  10    4.00    6.90
  13  -1 -10    0.90   33.70
  13   1 -10   13.10    5.80
 -13   1  10    5.20    7.30
  12  -1 -10    6.50    5.80
  12  -1 -10  -18.90   25.00
 -12  -1  10    0.20    4.80
  12  -1 -10    2.20    5.10
 -12  -1  10    7.20    6.80
  12   1 -10   -8.80   19.30
  12   1 -10    4.00    5.70
  12   1 -10    4.80    5.00
 -12   1  10   14.30    7.70
 -12   1  10    2.50    6.40
 -11  -1  10    3.80    6.50
  11  -1 -10   19.90    5.70
  11  -1 -10    0.00   21.70
  11  -1 -10   28.00    8.40
 -11  -1  10   12.80    9.10
 -11   1  10   -5.30    5.60
 -11   1  10   11.30    6.40
  11   1 -10    6.20    5.60
  11   1 -10   -7.20   16.70
  11   1 -10   10.30    6.70
  10  -1 -10   -3.90   16.10
  10  -1 -10    3.60    6.00
  10  -1 -10   -0.60    3.80
 -10  -1  10   -7.10    7.10
 -10  -1  10    0.70    5.70
  10   1 -10   -5.20    5.30
  10   1 -10  -38.60   21.00
 -10   1  10   -2.20    4.00
  10   1 -10   -7.90    4.20
 -10   1  10    2.30    5.60
  -9  -1  10    3.00    4.60
  -9  -1  10    7.80    6.10
   9  -1 -10   14.00   18.50
   9  -1 -10   12.20    4.50
   9  -1 -10    8.80    5.80
  -9   1  10    1.60    5.20
   9   1 -10    1.40    6.10
  -9   1  10    6.30    5.50
   9   1 -10   23.10   25.20
   9   1 -10   -2.00    3.50
   7  -1 -10   78.59    7.30
  -7  -1  10   62.09    9.00
  -7  -1  10   71.59   11.10
   7  -1 -10   64.69   18.80
   7  -1 -10   62.79    7.70
  -7   1  10   78.79    8.30
  -7   1  10   76.59    7.70
   7   1 -10   62.79    8.30
   7   1 -10   82.29    9.00
   7   1 -10   80.29   25.60
  -6  -1  10   77.19    9.60
   6  -1 -10   60.49   17.60
   6  -1 -10   75.79    6.70
  -6  -1  10   61.49   10.30
   6  -1 -10   98.09    9.20
  -6   1  10   60.49    7.70
   6   1 -10   76.29    8.60
   6   1 -10   64.29    8.10
  -6   1  10   68.49    8.50
   6   1 -10   65.59   22.80
  -6   1  10   67.79    6.40
  -5  -1  10  115.29   11.90
   5  -1 -10  110.89   25.70
   5  -1 -10  112.69    9.10
   5  -1 -10  105.19    9.50
   5  -1 -10  104.69    7.40
  -5  -1  10  104.39    9.80
   5   1 -10   98.29    9.10
  -5   1  10  115.79    9.90
  -5   1  10  115.19    9.00
   5   1 -10  104.29    9.10
   5   1 -10  103.29    5.50
  -5   1  10  114.09    7.50
   4  -1 -10  212.68   11.90
   4  -1 -10  195.38    9.40
  -4  -1  10  184.58   11.70
  -4  -1  10  196.78   13.10
   4  -1 -10  172.48   28.70
   4  -1 -10  174.88   10.10
  -4   1  10  185.18   10.90
   4   1 -10  199.68   11.30
  -4   1  10  205.58   10.90
  -4   1  10  192.78    9.40
   4   1 -10  186.18   11.50
  -3  -1  10   65.29    7.70
   3  -1 -10   52.99   17.10
   3  -1 -10   74.69    7.50
   3  -1 -10   66.39    5.80
  -3  -1  10   56.79    8.50
   3   1 -10   51.69    7.70
   3   1 -10   46.50    6.10
  -3   1  10   70.49    6.00
  -3   1  10   78.09    7.40
  -3   1  10   70.39    7.70
   3   1 -10   52.89   13.20
   2  -1 -10   -3.20    6.90
  -2  -1  10   -3.50    2.70
  -2  -1  10   -3.00    4.80
   2  -1 -10   -3.90    3.30
   2  -1 -10    5.40    3.00
   2   1 -10   -3.20    3.60
   2   1 -10    6.30    5.00
  -2   1  10    1.10    3.50
  -2   1  10   -3.30    2.20
   2   1 -10   -1.70    5.20
  -2   1  10   -0.80    3.20
  -1  -1  10   15.10    6.20
   1  -1 -10   10.10    9.50
   1  -1 -10   16.50    3.80
   1  -1 -10   21.30    5.00
  -1  -1  10   26.00    6.10
   1   1 -10   19.30    7.60
  -1   1  10   17.70    3.90
  -1   1  10   24.60    5.10
  -1   1  10   30.70    6.00
   1   1 -10   18.70    4.90
   1   1 -10   19.90    5.10
   0  -1 -10    0.40    2.50
   0  -1  10   -6.20    3.50
   0  -1  10    0.30    3.40
   0  -1 -10    1.00    2.60
   0   1  10    0.70    3.40
   0   1 -10   -3.40    4.60
   0   1  10   -1.30    2.80
   0   1 -10    3.00    4.00
   0   1 -10    4.60    3.70
   0   1  10    0.70    3.60
  -1  -1 -10    1.00    2.90
   1  -1  10    1.50    3.30
  -1  -1 -10   -1.80    3.50
  -1   1 -10   -6.00    4.70
   1   1  10    3.20    3.00
  -1   1 -10    1.90    4.40
  -1   1 -10   -0.70    4.70
   1   1  10    4.60    3.20
   1   1  10    2.60    4.00
  -2  -1 -10  208.58   10.40
   2  -1  10  208.98   12.00
  -2  -1 -10  217.08   12.40
   2   1  10  190.78   10.70
  -2   1 -10  205.28   11.30
  -2   1 -10  196.48   19.20
   2   1  10  226.28   10.70
  -2   1 -10  212.98   12.70
   3  -1  10   71.69    8.70
  -3  -1 -10   82.09    7.50
  -3  -1 -10   62.49    8.30
  -3   1 -10   88.69   10.50
  -3   1 -10   80.89    8.00
   3   1  10   90.09    8.90
  -4  -1 -10   35.40    6.00
   4  -1  10   40.90    7.10
  -4  -1 -10   35.20    7.50
   4   1  10   39.10    7.20
  -4   1 -10   38.10    6.50
  -4   1 -10   32.70    8.00
   5  -1  10   12.00    6.30
  -5  -1 -10   12.80    6.50
  -5  -1 -10   15.00    5.00
  -5   1 -10   16.40    5.10
   5   1  10   27.80    6.90
  -5   1 -10   18.00    6.10
   6  -1  10   70.59    9.40
  -6  -1 -10   75.99    7.50
  -6  -1 -10   57.89    9.60
   6   1  10   80.69    9.40
  -6   1 -10   69.69    8.90
  -6   1 -10   62.69   10.50
   7  -1  10   -4.10    3.60
  -7  -1 -10   -4.00    5.90
  -7  -1 -10    4.50    4.80
  -7   1 -10    0.00    6.80
  -7   1 -10    4.30    4.30
   7   1  10    2.60    4.20
  -8  -1 -10    9.20    4.40
  -8  -1 -10   10.20    7.20
   8  -1  10    1.90    4.60
  -8   1 -10   17.10    5.90
   8   1  10    6.10    4.90
  -8   1 -10   14.10    7.90
   9  -1  10   -2.80    6.10
  -9  -1 -10    0.00    4.90
  -9  -1 -10    7.40    6.90
  -9   1 -10    0.60    4.70
   9   1  10    6.30    6.50
  -9   1 -10    6.80    6.00
  10  -1  10   -1.90    4.70
 -10  -1 -10    3.80    5.90
 -10  -1 -10   -2.80    5.20
  10   1  10    1.30    5.20
 -10   1 -10   -0.40    7.90
 -10   1 -10   -2.70    6.50
 -11  -1 -10    8.40    9.50
  11  -1  10   -2.30    6.80
 -11   1 -10    6.30    8.00
 -11   1 -10    3.40    6.60
  11   1  10   14.40    8.40
 -13  -2  10    6.80    8.00
 -13  -2  10    5.60    7.60
  13  -2 -10  -55.29   40.40
 -13   2  10    4.10    6.20
  13   2 -10    4.20    5.50
  12  -2 -10  -29.40   34.00
 -12  -2  10    8.90    7.40
 -12  -2  10    2.70    6.70
  12   2 -10   -1.50    7.30
  12   2 -10   -2.70    4.80
 -12   2  10    6.30    5.40
 -11  -2  10   -2.10    5.70
  11  -2 -10   -0.30   18.10
 -11  -2  10    0.80    6.20
  11   2 -10    4.70    6.80
  11   2 -10   -4.10    7.00
 -11   2  10    6.10    6.10
  10  -2 -10    9.10    5.80
 -10  -2  10    4.20    4.70
 -10  -2  10   13.80    9.20
  10  -2 -10   12.90   14.40
 -10   2  10    8.00    5.40
  10   2 -10    8.70    6.60
  10   2 -10   13.70    7.90
  10   2 -10    9.10   14.60
  -9  -2  10   -6.00    4.90
   9  -2 -10   -3.80    4.10
   9  -2 -10   12.70   17.30
  -9  -2  10    5.10    7.60
   9   2 -10    9.50   13.60
  -9   2  10   -7.50    4.90
   9   2 -10   -7.50    4.00
   9   2 -10    6.20    6.00
  -8  -2  10   18.70    8.80
  -8  -2  10   13.70    6.50
   8  -2 -10    4.50    4.70
   8  -2 -10   10.90   16.90
   8   2 -10    0.90   11.10
   8   2 -10    7.50    4.90
  -8   2  10    6.00    4.80
   8   2 -10   13.50    6.40
   7  -2 -10   -2.20    3.60
   7  -2 -10   -5.10   13.40
  -7  -2  10    7.30    5.70
  -7  -2  10   10.10    5.80
  -7   2  10    8.70    5.00
   7   2 -10    7.00    6.20
   7   2 -10    1.10    4.10
   7   2 -10    1.00    3.50
   7   2 -10   -1.20   10.20
   6  -2 -10   -0.90   10.70
   6  -2 -10    0.60    3.70
  -6  -2  10    1.90    6.50
  -6  -2  10    3.70    4.10
   6   2 -10    4.60    5.40
  -6   2  10   -0.20    4.10
   6   2 -10   11.50    3.80
   6   2 -10    5.80    6.10
   5  -2 -10  452.85   14.50
   5  -2 -10  433.76   49.20
  -5  -2  10  467.35   19.30
   5  -2 -10  473.75   17.10
  -5  -2  10  452.75   22.80
  -5   2  10  479.75   16.40
   5   2 -10  470.45   19.50
   5   2 -10  452.35   16.00
   5   2 -10  439.86   36.20
  -5   2  10  459.05   16.30
   5   2 -10  460.45   18.50
   4  -2 -10   57.79    5.30
  -4  -2  10   80.29   11.10
   4  -2 -10   41.50   17.60
  -4  -2  10   67.19    8.70
   4  -2 -10   59.59    6.70
   4   2 -10   69.09    8.30
   4   2 -10   76.59    8.50
   4   2 -10   35.90   12.80
  -4   2  10   73.49    5.80
   4   2 -10   62.09    7.10
  -4   2  10   60.29    6.50
  -4   2  10   63.59    6.60
  -3  -2  10    9.60    6.90
   3  -2 -10    8.70    4.10
   3  -2 -10   10.50   11.90
  -3  -2  10    9.70    5.10
   3  -2 -10    7.80    2.90
  -3   2  10    7.60    4.10
   3   2 -10    7.40    4.40
  -3   2  10   12.40    3.90
  -3   2  10   17.90    3.60
   3   2 -10   17.10    5.70
  -2  -2  10    1.90    4.30
   2  -2 -10   -3.60    2.10
  -2  -2  10    1.30    6.20
   2  -2 -10    1.60    3.40
   2  -2 -10   -8.60   12.00
   2   2 -10    1.20    5.10
  -2   2  10    0.10    2.10
  -2   2  10    0.10    3.00
   2   2 -10   -3.40    4.40
  -2   2  10    1.80    2.90
  -1  -2  10   54.79    7.90
  -1  -2  10   46.40    9.30
   1  -2 -10   39.30    4.50
   1  -2 -10   38.70    5.50
  -1   2  10   40.10    5.70
   1   2 -10   43.40    6.40
  -1   2  10   44.50    5.10
   1   2 -10   41.60    7.60
  -1   2  10   41.30    5.50
   0  -2  10   -0.30    4.10
   0  -2 -10   -0.80    2.80
   0  -2  10    3.60    6.10
   0  -2 -10   -4.30    2.10
   0   2  10    0.40    2.80
   0   2  10    3.40    3.70
   0   2 -10   -3.80    2.90
   0   2 -10   -6.30    4.70
   0   2  10   -1.10    3.10
   1  -2  10    9.40    5.50
   1  -2  10    5.10    3.70
  -1  -2 -10    7.60    2.80
  -1  -2 -10    6.10    3.80
   1   2  10    4.30    3.90
  -1   2 -10    0.70    4.80
  -1   2 -10    7.60    4.60
   1   2  10    4.90    4.10
  -2  -2 -10   47.80    6.50
  -2  -2 -10   46.50    5.00
   2  -2  10   44.20    7.60
  -2   2 -10   51.79    8.30
   2   2  10   39.50    6.30
  -2   2 -10   38.60    6.50
   2   2  10   44.40    6.00
  -3  -2 -10   -6.10    2.10
   3  -2  10    1.50    4.90
  -3  -2 -10   -5.10    3.50
   3   2  10    6.20    4.20
   3   2  10    3.20    4.20
  -3   2 -10    2.70    4.00
  -3   2 -10    5.70    5.50
   4  -2  10    5.00    5.50
  -4  -2 -10    6.30    4.70
  -4   2 -10   -1.40    3.60
  -4   2 -10    7.20    6.30
   4   2  10   12.20    5.10
  -5  -2 -10   32.40    7.10
   5  -2  10   35.60    7.20
  -5   2 -10   22.40    7.80
   5   2  10   26.10    6.30
  -5   2 -10   24.60    7.60
  -6  -2 -10   26.40    6.80
   6  -2  10    6.10    5.90
  -6   2 -10   19.30    6.30
   6   2  10    5.00    5.00
  -6   2 -10   23.50    6.30
   7  -2  10   -1.90    5.20
  -7  -2 -10   -1.80    5.20
   7   2  10   -6.10    4.60
  -7   2 -10   -3.80    4.70
  -7   2 -10    7.90    6.60
  -8  -2 -10    1.50    5.90
   8  -2  10   -1.80    5.70
   8   2  10   -6.10    4.70
  -8   2 -10    3.80    6.40
  -8   2 -10   -1.70    5.00
  -9  -2 -10    9.20    7.30
   9  -2  10    5.90    7.70
  -9   2 -10    2.30    4.70
  -9   2 -10   -0.80    5.40
   9   2  10   -4.70    5.70
  10  -2  10   -0.30    4.80
 -10  -2 -10    0.50    7.60
  10   2  10    2.70    7.30
 -10   2 -10    9.80    8.10
 -10   2 -10   -8.20    6.70
 -11  -3  10   -2.80    9.30
  11  -3 -10   -9.40   24.50
  11   3 -10   -0.90    7.20
 -11   3  10    3.80    5.20
  10   3 -10    3.00    6.20
  -9  -3  10    3.70    6.30
   9  -3 -10   39.20   22.20
   9   3 -10    2.80    4.60
  -9   3  10   -3.70    3.80
   8  -3 -10  -10.50   12.80
  -8  -3  10   -5.00    7.10
   8   3 -10    0.20    5.80
  -8   3  10   -4.50    3.60
  -7  -3  10    3.00    7.40
   7  -3 -10   38.60   18.10
   7  -3 -10    8.90    4.80
   7   3 -10    6.00    6.10
  -7   3  10   17.30    4.50
   7   3 -10   13.10    5.40
   6  -3 -10   37.60   18.70
  -6  -3  10   -3.70    7.00
  -6  -3  10    5.10    4.00
   6  -3 -10   -0.10    3.60
   6   3 -10    3.60    4.30
  -6   3  10    1.20    3.30
   6   3 -10   -2.40    5.40
   5  -3 -10   -1.30    3.10
  -5  -3  10    6.80    5.90
   5  -3 -10    5.00   13.90
  -5  -3  10   -6.30    3.90
   5   3 -10   -3.90    5.30
   5   3 -10    5.60    5.80
   5   3 -10    4.20    4.20
  -5   3  10   -0.20    2.90
  -4  -3  10   28.00    8.90
  -4  -3  10   20.50    6.30
   4  -3 -10   36.40   18.10
   4  -3 -10   19.40    4.20
   4   3 -10    9.00    5.80
   4   3 -10   21.20    6.30
  -4   3  10   19.10    3.60
   4   3 -10   25.30    5.80
   3  -3 -10    8.80    3.40
  -3  -3  10   14.00    8.00
   3  -3 -10   29.60   14.30
  -3  -3  10   12.00    4.90
   3   3 -10   18.00    5.30
   3   3 -10   18.30    6.20
   3   3 -10   14.10    5.50
  -3   3  10   16.10    3.40
   2  -3 -10   45.50    5.10
  -2  -3  10   37.90    9.60
   2  -3 -10   54.49   18.50
  -2  -3  10   37.30    7.00
   2   3 -10   29.60    7.10
  -2   3  10   33.70    4.10
   2   3 -10   35.00    7.20
   2   3 -10   56.89    8.90
  -1  -3  10    2.50    4.50
   1  -3 -10    2.00    2.90
  -1  -3  10   -2.60    6.30
   1   3 -10    7.40    5.60
  -1   3  10   -0.60    2.60
   1   3 -10   -4.40    4.60
   0  -3 -10   10.00    3.70
   0  -3  10   11.70    5.10
   0  -3  10    8.40    7.30
   0   3 -10   12.60    4.90
   0   3 -10    8.40    5.70
   0   3  10    9.50    3.50
  -1  -3 -10    3.70    3.40
   1  -3  10   -2.90    4.00
   1  -3  10   -2.50    6.50
  -1   3 -10    1.20    5.30
   1   3  10    5.30    3.50
  -1   3 -10    8.60    5.60
  -2  -3 -10   15.80    4.60
   2  -3  10   22.10    7.80
  -2   3 -10   10.10    5.90
   2   3  10   11.30    3.90
  -3  -3 -10    6.30    4.30
   3  -3  10    3.20    5.70
  -3   3 -10   -1.90    5.20
   3   3  10    0.70    3.70
  -4  -3 -10    1.10    3.70
  -4   3 -10    8.30    6.20
   4   3  10    8.20    4.60
  -5  -3 -10    7.50    4.90
  -5   3 -10    2.80    6.10
   5   3  10   -2.10    4.10
  -6  -3 -10    3.00    5.30
  -6   3 -10   -3.30    6.20
   6   3  10    2.50    4.50
  -7  -3 -10    2.60    5.00
  -7   3 -10   -2.10    4.80
   7   3  10   -5.10    4.80
  -6  -4  10    3.80    8.40
   6   4 -10   17.60    6.80
   6   4 -10    9.40    6.60
  -5  -4  10  -10.00    6.70
   5   4 -10    3.60    5.90
   3   4 -10   15.50    6.00
   0  -4  10   -0.20    6.70
   0   4 -10   -0.60    5.30
   0   4 -10    9.30    7.60
   1  -4  10   -8.60    6.90
  -1   4 -10   -4.40    5.90
  -1   4 -10    1.20    5.20
   2  -4  10    8.40    8.30
  -2   4 -10    4.60    5.90
  14   0 -11  -18.80   26.80
  14   0 -11   -5.80    4.10
 -14   0  11   -8.60    6.80
 -14   0  11    5.40    6.80
 -12   0  11   -2.40    6.40
 -12   0  11    3.00    6.20
  12   0 -11   -8.90   26.80
  12   0 -11    3.70    4.40
  12   0 -11    5.60    6.00
  11   0 -11    0.60    3.90
 -11   0  11    3.60    6.60
  11   0 -11   22.50   27.10
  11   0 -11   12.10    6.40
 -11   0  11   -1.00    5.20
  10   0 -11   -0.90    4.80
 -10   0  11    1.00    4.70
  10   0 -11  -20.40   28.30
  10   0 -11    3.60    6.90
 -10   0  11   -3.70    6.60
   9   0 -11   -1.80    3.30
   9   0 -11   10.80   24.90
  -9   0  11    0.50    6.40
   9   0 -11    1.20    4.50
  -9   0  11   -2.90    5.70
  -7   0  11  491.65   21.90
   7   0 -11  491.85   47.10
   7   0 -11  505.85   18.90
  -7   0  11  458.15   19.00
   7   0 -11  519.95   21.60
   6   0 -11   10.60    5.90
   6   0 -11   -0.80   12.80
  -6   0  11   -8.50    2.80
  -6   0  11    4.70    4.00
   6   0 -11    5.60    4.40
   5   0 -11   18.10   14.10
  -5   0  11   31.30    5.90
   5   0 -11   24.50    5.50
  -5   0  11   26.90    6.50
   5   0 -11   20.70    5.40
   4   0 -11   -2.20    2.90
  -4   0  11    2.00    4.60
  -4   0  11   -7.90    4.50
   4   0 -11    1.00    6.90
   4   0 -11   -2.40    3.50
   3   0 -11   -4.80    4.10
  -3   0  11    4.20    3.90
  -3   0  11   -3.10    3.90
   3   0 -11   -2.10    8.30
   3   0 -11   -1.00    2.70
  -2   0  11    1.00    3.10
  -2   0  11   -1.90    3.10
   2   0 -11   -4.10    3.40
   2   0 -11   -2.50    8.60
   2   0 -11   -0.10    3.10
   1   0 -11   97.29   19.60
  -1   0  11   91.39   10.70
   1   0 -11   88.19    8.10
   1   0 -11  104.39    8.30
  -1   0  11  104.09    8.40
   0   0 -11   -0.30    3.50
   0   0  11   -2.80    4.70
   0   0  11    0.30    3.20
   0   0 -11   -4.90    7.80
   0   0 -11    1.40    3.20
  -1   0 -11   -3.00    3.70
   1   0  11    8.10    4.00
  -1   0 -11    5.80    4.10
   1   0  11    0.40    5.10
  -2   0 -11   -0.90    3.00
  -2   0 -11    9.40    5.80
   2   0  11   -4.20    4.60
   3   0  11  198.98   13.10
  -3   0 -11  187.18   13.80
  -3   0 -11  167.78   10.70
  -4   0 -11   -1.10    3.20
   4   0  11   14.90    6.50
  -4   0 -11   -0.40    4.10
   5   0  11    6.00    4.60
  -5   0 -11   10.00    4.40
  -5   0 -11    1.50    6.10
   6   0  11   -4.90    5.10
  -6   0 -11   -5.50    4.30
  -6   0 -11   -6.50    2.70
   7   0  11   48.20    9.40
  -7   0 -11   46.80    9.00
  -7   0 -11   35.00    6.80
  -8   0 -11   -4.70    3.00
  -8   0 -11   -4.10    4.90
   8   0  11   -6.10    5.60
  -9   0 -11    6.40    6.40
  -9   0 -11   -5.90    7.40
   9   0  11    6.60    5.80
 -10   0 -11    9.00    6.90
  10   0  11    3.30    7.60
 -10   0 -11   -0.10    4.70
 -14  -1  11  -12.60    6.90
 -14  -1  11   -1.60    6.10
  14   1 -11    3.30    7.10
 -14   1  11    6.10    6.10
  14   1 -11   14.30   16.90
 -13  -1  11    9.20    7.90
 -13  -1  11   -7.10    5.70
  13  -1 -11  -30.80   44.00
  13   1 -11   -3.70    6.20
  13   1 -11    4.90    6.50
 -13   1  11   -3.70    6.30
  12  -1 -11   10.80    8.20
 -12  -1  11   -1.50    6.00
  12  -1 -11    1.20    3.70
 -12  -1  11   -6.20    5.50
  12   1 -11  -11.70    4.30
 -12   1  11   -4.60    6.00
  12   1 -11  -35.70   23.00
  12   1 -11  -12.00    5.40
 -12   1  11    3.60    6.60
  11  -1 -11    2.40    3.30
 -11  -1  11    0.00    6.40
 -11  -1  11   10.40    9.10
  11  -1 -11  -30.30   27.40
  11  -1 -11    5.30    6.70
  11   1 -11  -42.40   23.00
  11   1 -11   -2.10    5.00
  11   1 -11    2.70    6.40
 -11   1  11    0.70    4.30
 -11   1  11   -1.70    5.70
 -10  -1  11   -0.50    5.90
  10  -1 -11    9.80    4.90
  10  -1 -11  -10.50   22.10
 -10  -1  11   -3.70    7.70
  10  -1 -11    0.60    4.50
 -10   1  11    1.20    5.70
  10   1 -11  -17.20   16.80
 -10   1  11    0.80    5.60
  10   1 -11    4.70    5.80
  10   1 -11    2.60    7.10
   9  -1 -11   35.10   21.20
  -9  -1  11   42.20    7.90
   9  -1 -11   37.30    6.80
   9  -1 -11   38.50    8.10
  -9  -1  11   48.70   10.10
   9   1 -11   28.30   28.30
   9   1 -11   46.10    8.40
  -9   1  11   44.10    8.30
  -9   1  11   48.60    9.00
   9   1 -11   35.50    7.00
  -8  -1  11  104.19   11.60
   8  -1 -11   81.29    8.00
   8  -1 -11  101.39   10.90
  -8  -1  11   80.09   12.80
   8  -1 -11   51.59   21.70
   8   1 -11   75.09    9.50
  -8   1  11   94.19   10.50
   8   1 -11   87.79   11.30
  -8   1  11   77.39   10.90
   8   1 -11  162.58   33.00
   6  -1 -11  386.36   17.20
  -6  -1  11  392.16   20.00
   6  -1 -11  366.36   14.60
   6  -1 -11  376.96   41.30
  -6  -1  11  356.06   16.80
   6   1 -11  385.86   16.30
   6   1 -11  327.17   42.90
  -6   1  11  378.86   18.00
   6   1 -11  383.06   17.80
  -6   1  11  379.36   16.40
   5  -1 -11   58.49    7.40
   5  -1 -11   86.59   20.90
  -5  -1  11   78.99    8.40
   5  -1 -11   79.19    7.20
  -5  -1  11   77.29   10.60
  -5   1  11   89.09    7.10
  -5   1  11   86.99    9.50
   5   1 -11   82.49    8.00
   5   1 -11   83.29    5.10
  -5   1  11   86.49    8.70
   5   1 -11   78.79    9.90
   5   1 -11   64.99   20.20
  -4  -1  11   -2.50    3.20
  -4  -1  11    3.10    4.70
   4  -1 -11    0.60    2.30
   4  -1 -11    3.00    4.40
   4  -1 -11    6.90   12.50
  -4   1  11    7.20    3.90
  -4   1  11    0.40    2.90
   4   1 -11    9.40    6.00
  -4   1  11   -1.40    3.90
   4   1 -11   -0.50   10.20
   4   1 -11    0.90    3.40
  -3  -1  11    9.00    5.50
  -3  -1  11    5.80    4.10
   3  -1 -11    5.20    3.40
   3  -1 -11    9.30    4.80
   3  -1 -11    3.80   11.60
  -3   1  11    0.70    2.90
   3   1 -11    5.50    9.10
   3   1 -11    2.40    3.60
  -3   1  11    9.50    4.70
   3   1 -11    9.20    5.60
  -3   1  11    6.10    4.30
   2  -1 -11   32.70   16.40
  -2  -1  11   47.30    7.20
   2  -1 -11   41.30    6.50
   2  -1 -11   49.20    5.80
  -2  -1  11   39.70    8.90
  -2   1  11   50.59    7.00
   2   1 -11   32.70   10.70
   2   1 -11   42.50    7.10
  -2   1  11   45.80    7.30
  -2   1  11   49.40    6.00
   2   1 -11   28.00    5.50
   1  -1 -11   15.60    5.10
   1  -1 -11   -2.40   11.80
   1  -1 -11   16.90    3.70
  -1  -1  11   16.60    5.80
  -1  -1  11   13.00    4.70
   1   1 -11   17.40    8.20
   1   1 -11   19.20    4.90
  -1   1  11   12.60    4.80
   1   1 -11    7.10    5.80
  -1   1  11   18.80    4.20
  -1   1  11   18.10    4.90
   0  -1 -11   10.60    4.00
   0  -1 -11   19.50    4.70
   0  -1  11   14.40    4.90
   0  -1  11   16.50    5.70
   0   1  11   13.10    3.60
   0   1  11    6.70    4.60
   0   1 -11   10.00    6.10
   0   1 -11    9.00    4.20
   0   1 -11   10.70    7.40
   0   1  11   12.50    5.30
   1  -1  11   39.40    7.70
  -1  -1 -11   24.70    5.60
   1  -1  11   32.40    8.60
  -1  -1 -11   28.30    5.30
   1   1  11   26.80    6.30
   1   1  11   31.40    6.20
  -1   1 -11   26.40    8.40
  -1   1 -11   20.50    6.30
  -1   1 -11   23.60    5.80
  -2  -1 -11  113.99   10.40
   2  -1  11  121.09   10.00
  -2  -1 -11  131.79    8.90
   2   1  11  127.59   11.30
  -2   1 -11  118.39    9.40
   2   1  11  112.19   10.00
  -2   1 -11  121.19   11.80
  -2   1 -11  121.19   16.70
   3  -1  11   44.00    7.50
  -3  -1 -11   31.40    6.20
  -3  -1 -11   43.40    6.40
   3   1  11   33.60    6.20
  -3   1 -11   52.69    9.10
  -3   1 -11   31.30    6.30
   4  -1  11  202.58   14.00
  -4  -1 -11  198.88   11.00
  -4  -1 -11  191.78   12.80
  -4   1 -11  210.28   13.90
   4   1  11  191.18   12.00
  -4   1 -11  195.28   13.20
  -5  -1 -11   29.30    6.50
  -5  -1 -11   41.60    8.70
   5  -1  11   30.60    7.00
  -5   1 -11   22.70    7.30
  -5   1 -11   25.20    8.20
   5   1  11   41.10    7.90
   6  -1  11   -1.40    5.40
  -6  -1 -11    8.60    4.70
  -6  -1 -11    5.50    6.40
   6   1  11    3.70    4.40
  -6   1 -11    1.20    4.80
  -6   1 -11   -1.60    5.40
  -7  -1 -11   20.50    7.80
   7  -1  11    5.60    6.80
  -7  -1 -11   16.30    5.80
  -7   1 -11   18.80    7.10
  -7   1 -11   12.60    6.50
   7   1  11   19.10    7.40
  -8  -1 -11   -2.30    5.00
   8  -1  11    0.70    6.40
  -8  -1 -11    9.10    7.10
  -8   1 -11    9.80    7.10
   8   1  11   -4.90    3.90
  -8   1 -11   -5.60    4.80
  -9  -1 -11   17.00    7.00
  -9  -1 -11   15.30    5.80
   9  -1  11   27.40    7.70
  -9   1 -11   28.40    7.20
   9   1  11   20.90    7.80
  -9   1 -11   25.20    9.90
 -10  -1 -11   14.70    9.50
  10  -1  11   18.90    9.20
  10   1  11   27.00    7.70
 -10   1 -11   29.80    9.40
 -10   1 -11   34.80    9.10
  13  -2 -11  179.98   63.49
 -13  -2  11   -9.20    6.80
 -13  -2  11    1.50    5.70
 -13   2  11   15.20    8.20
  13   2 -11   -4.00    7.40
 -12  -2  11   -1.60    5.10
 -12  -2  11   -3.10    6.20
  12  -2 -11  -18.70   29.80
  12   2 -11   22.50   17.70
  12   2 -11    7.40    7.50
  12   2 -11   -4.80    7.30
 -12   2  11   16.60    7.40
 -11  -2  11   -5.30    4.20
 -11  -2  11   -3.20    6.30
  11  -2 -11    0.00    6.00
  11  -2 -11   -8.90   24.80
 -11   2  11   -1.00    5.40
  11   2 -11   -5.00    7.30
  11   2 -11    4.50    7.00
 -10  -2  11    0.80    4.30
  10  -2 -11   11.90    6.60
  10  -2 -11   21.70   19.10
 -10  -2  11   11.00    9.40
  10   2 -11    9.90    7.50
  10   2 -11   10.90    7.00
  10   2 -11   13.90   16.00
 -10   2  11    4.90    5.80
   9  -2 -11   24.50   20.50
  -9  -2  11    3.40    6.30
   9  -2 -11   21.40    6.50
  -9  -2  11    9.40    8.80
   9   2 -11   18.40   16.10
  -9   2  11   30.90    7.00
   9   2 -11   16.50    6.10
   9   2 -11   15.50    6.30
  -8  -2  11   26.10    7.50
   8  -2 -11   31.00   16.90
  -8  -2  11   17.60    7.40
   8  -2 -11   10.90    5.70
   8   2 -11   18.00    5.90
   8   2 -11    7.50    6.60
  -8   2  11   23.50    6.60
   8   2 -11   15.20   14.30
  -7  -2  11   -7.90    2.50
   7  -2 -11   -6.10    3.60
   7  -2 -11   -8.10   14.40
  -7  -2  11   -6.70    6.60
   7   2 -11    3.20    5.90
   7   2 -11   -3.70    5.80
  -7   2  11   -4.70    3.80
   7   2 -11   -1.80    2.90
   7   2 -11    0.60   10.10
   6  -2 -11   13.00    5.10
  -6  -2  11    5.00    7.60
  -6  -2  11   23.50    6.00
   6  -2 -11   17.80   14.20
   6   2 -11   13.20    4.10
  -6   2  11   16.00    5.70
   6   2 -11   15.70   11.80
   6   2 -11    9.10    6.70
   6   2 -11   15.60    6.40
  -5  -2  11   -0.20    4.90
   5  -2 -11    4.10    4.00
   5  -2 -11  -10.20   14.40
  -5  -2  11   10.10    5.70
   5   2 -11    4.00    4.50
   5   2 -11   10.00    4.50
  -5   2  11    3.00    3.80
   5   2 -11    1.60    3.40
   5   2 -11    0.70    9.10
  -4  -2  11  117.59    9.80
  -4  -2  11  129.49   12.40
   4  -2 -11  103.99   26.30
   4  -2 -11  110.79    8.90
   4   2 -11  100.29   18.60
   4   2 -11  143.39   12.50
   4   2 -11  121.29    8.60
   4   2 -11  118.69    9.60
  -4   2  11  107.19    9.00
  -3  -2  11    2.10    3.60
   3  -2 -11  -18.90   14.70
   3  -2 -11    2.40    2.60
   3  -2 -11   -2.20    3.40
  -3  -2  11   -2.80    6.10
  -3   2  11   -2.50    3.70
   3   2 -11   -4.20    5.00
   3   2 -11   -4.00    5.50
   2  -2 -11   23.40    5.40
  -2  -2  11   25.50    6.60
   2  -2 -11   24.70    4.20
   2  -2 -11   21.20   16.00
  -2  -2  11   33.90    9.30
  -2   2  11   22.10    5.30
   2   2 -11   28.80    6.90
   2   2 -11   23.50    6.10
  -1  -2  11   -6.20    4.00
   1  -2 -11    0.30    3.90
  -1  -2  11    2.20    5.20
   1  -2 -11    2.70    2.80
  -1   2  11   -3.60    3.00
  -1   2  11   -3.10    3.30
   1   2 -11    3.80    4.40
   1   2 -11   -1.80    3.50
   0  -2  11   15.60    7.50
   0  -2 -11   29.10    5.40
   0  -2  11   22.50    5.70
   0   2  11   22.00    5.10
   0   2 -11   20.70    6.20
   0   2 -11   15.20    6.70
   1  -2  11    8.50    5.40
   1  -2  11    3.00    4.90
  -1  -2 -11    4.00    4.00
  -1   2 -11    5.70    4.40
  -1   2 -11   10.60    6.20
   1   2  11    7.90    4.80
  -2  -2 -11  460.25   18.20
   2  -2  11  448.76   20.00
  -2   2 -11  437.36   18.60
  -2   2 -11  471.15   20.20
   2   2  11  461.45   17.20
   3  -2  11   -4.20    4.60
  -3  -2 -11   -3.40    3.50
  -3   2 -11    1.50    4.40
   3   2  11   -4.20    4.40
  -3   2 -11    3.00    4.60
  -4  -2 -11    2.30    4.60
   4  -2  11   -7.90    4.90
  -4   2 -11   -0.90    4.20
  -4   2 -11    9.90    5.20
   4   2  11    2.00    4.70
   5  -2  11    0.70    4.10
  -5  -2 -11    0.00    5.10
   5   2  11    1.80    4.80
  -5   2 -11    0.10    6.60
  -5   2 -11   -1.60    5.70
  -6  -2 -11    0.60    5.50
   6  -2  11   -3.50    5.20
   6   2  11   -8.40    4.30
  -6   2 -11    2.20    6.60
  -6   2 -11   -9.20    5.30
  -7  -2 -11    3.90    5.80
   7  -2  11   -2.10    5.60
  -7   2 -11    2.40    5.10
  -7   2 -11    4.50    5.10
   7   2  11   -0.20    5.30
  -8  -2 -11   17.40    8.10
   8  -2  11   -0.90    6.80
   8   2  11   12.10    6.80
  -8   2 -11    0.30    4.90
  -8   2 -11    1.50    5.00
   9  -2  11   -4.90    3.80
  -9  -2 -11   -5.30    6.70
   9   2  11    4.60    7.10
  -9   2 -11    9.80    8.40
  -9   2 -11    1.00    7.20
 -10  -3  11   -1.90    8.70
  10  -3 -11   45.50   15.20
  10   3 -11    9.20    5.80
 -10   3  11   -1.50    4.80
   9  -3 -11   42.50   17.40
  -9  -3  11  -13.40    6.50
   9   3 -11   -2.00    4.80
  -9   3  11   -7.40    3.80
   8  -3 -11   31.70   21.60
  -8  -3  11    0.90    6.30
   8  -3 -11   11.20    5.60
  -8   3  11   13.50    5.00
   8   3 -11    7.00    7.00
  -7  -3  11   13.30    8.80
   7  -3 -11    5.10    4.60
   7  -3 -11   -1.60   18.10
   7   3 -11   -0.70    5.70
  -7   3  11    4.20    4.20
   7   3 -11    5.60    4.80
  -6  -3  11   57.19   11.10
   6  -3 -11   46.00    6.80
   6  -3 -11   82.99   23.10
   6   3 -11   54.39    8.10
   6   3 -11   53.59    8.30
  -6   3  11   48.00    6.10
  -5  -3  11   12.90    8.40
   5  -3 -11   30.60   16.50
  -5  -3  11    2.00    5.30
   5  -3 -11    5.10    3.60
  -5   3  11   13.50    4.20
   5   3 -11   18.00    5.70
   5   3 -11   10.50    6.20
   4  -3 -11    9.60    3.90
  -4  -3  11   21.70    7.90
  -4  -3  11    9.80    4.70
   4  -3 -11   62.49   21.40
   4   3 -11   14.10    5.00
   4   3 -11   -0.50    5.90
  -4   3  11   14.80    3.80
   4   3 -11   10.20    5.20
  -3  -3  11    8.60    7.40
  -3  -3  11   -3.60    4.20
   3  -3 -11   -4.30    3.10
   3  -3 -11   23.20   17.30
  -3   3  11    1.90    3.00
   3   3 -11    3.40    5.80
   3   3 -11   -6.90    3.80
   3   3 -11    1.60    5.50
   2  -3 -11   37.00   18.20
  -2  -3  11   -5.10    6.60
  -2  -3  11    3.50    4.00
   2  -3 -11   -3.30    3.10
   2   3 -11    6.70    4.80
   2   3 -11    5.10    5.20
  -2   3  11    1.60    3.10
   2   3 -11    2.10    5.60
   1  -3 -11    3.70    3.60
   1  -3 -11   11.30   10.80
  -1  -3  11    2.70    5.20
  -1  -3  11  -18.50    5.40
  -1   3  11    3.60    3.40
   1   3 -11   -4.60    5.40
   0  -3 -11   40.80    5.70
   0  -3  11   46.00    9.80
   0  -3  11   33.20    7.60
   0   3  11   39.50    5.30
   0   3 -11   45.30    8.20
  -1  -3 -11    2.90    3.50
   1  -3  11    3.30    7.20
  -1   3 -11    4.40    5.50
   1   3  11    8.10    4.20
  -2  -3 -11    7.30    4.60
   2  -3  11   -5.90    6.30
  -2   3 -11   -2.40    5.50
   2   3  11    0.20    3.70
  -3  -3 -11   -1.10    4.10
   3  -3  11   -5.00    7.30
   3   3  11   -4.60    3.80
  -3   3 -11   -0.30    5.80
  -4  -3 -11   14.20    5.00
  -4   3 -11   23.60    6.70
   4   3  11   20.50    5.80
  -5  -3 -11   -2.40    4.50
  -5   3 -11   -9.40    5.60
   5   3  11    1.10    4.60
  -6  -3 -11    0.40    5.70
  -6   3 -11    5.30    7.00
   6   3  11    0.20    4.70
   4  -4 -11   51.09   18.60
  -4  -4  11    6.70    8.40
   4   4 -11    7.50    6.40
   3  -4 -11   21.40   16.20
  -3  -4  11    1.00    8.10
   3   4 -11   -2.40    5.80
   3   4 -11    0.40    5.90
   2  -4 -11   38.90   16.00
  -2  -4  11   -3.70    7.50
   2   4 -11    5.00    5.90
   2   4 -11  -12.60    5.30
  -1  -4  11    3.40    8.50
   1  -4 -11   12.40   13.60
   1   4 -11   -4.40    5.30
   1   4 -11    0.10    6.10
   0  -4  11    5.40    8.40
   0  -4 -11   44.70   16.30
   0   4 -11    5.60    7.50
   0   4 -11   25.90    8.20
  14   0 -12   -2.90    6.50
 -14   0  12    2.60    6.60
 -14   0  12    4.10    8.80
  14   0 -12    2.40    5.20
  14   0 -12  -44.20   40.90
  13   0 -12    0.70    4.60
  13   0 -12   -3.10   30.90
 -13   0  12    2.70    8.20
  13   0 -12    7.40    6.50
 -13   0  12   -6.50    6.80
 -11   0  12    1.90    6.40
 -11   0  12   -5.50    4.70
  11   0 -12   -0.90    3.70
  11   0 -12    6.70    7.70
  11   0 -12  -14.30   36.50
 -10   0  12    8.80    7.90
  10   0 -12    5.60    6.70
 -10   0  12   -6.50    3.80
  10   0 -12  -35.80   27.40
  10   0 -12   -1.30    5.10
  -9   0  12   -4.70    5.90
  -9   0  12   -7.40    6.00
   9   0 -12   -1.80    3.40
   9   0 -12    3.90   23.30
   9   0 -12    1.20    4.60
   8   0 -12  532.15   56.69
   8   0 -12  547.85   23.30
  -8   0  12  530.25   24.70
   8   0 -12  515.15   20.10
  -8   0  12  442.96   20.10
   7   0 -12   -3.80    5.80
  -7   0  12    1.10    4.20
   7   0 -12  -18.10   15.30
   7   0 -12    5.10    4.10
  -7   0  12    8.30    6.00
   6   0 -12  286.97   35.10
  -6   0  12  278.07   15.60
  -6   0  12  285.37   17.60
   6   0 -12  264.67   13.30
   6   0 -12  289.97   16.60
   5   0 -12    6.80    6.00
  -5   0  12   -0.60    5.30
  -5   0  12    0.40    5.00
   5   0 -12    0.30    3.20
   5   0 -12    2.30   12.10
  -4   0  12  -10.20    4.40
   4   0 -12   -8.70    4.70
   4   0 -12   -1.60   10.00
  -4   0  12   -1.70    5.10
   4   0 -12   -2.10    2.90
  -3   0  12   -0.90    5.00
  -3   0  12   -4.80    3.30
   3   0 -12    2.30    3.40
   3   0 -12    3.20    5.30
   3   0 -12    1.50    9.20
   2   0 -12   -0.90    3.00
   2   0 -12    2.90    8.90
   2   0 -12    8.60    5.80
  -2   0  12    6.60    4.90
  -2   0  12    0.90    4.80
  -1   0  12   -1.50    3.90
  -1   0  12    5.10    5.20
   1   0 -12   -4.60    4.70
   1   0 -12   -0.30    8.90
   1   0 -12    4.00    3.40
   0   0 -12  325.87   33.80
   0   0 -12  310.67   13.90
   0   0 -12  329.77   16.60
   0   0  12  330.17   16.20
   0   0  12  328.97   18.10
  -1   0 -12   -0.50    4.20
  -1   0 -12    1.40    4.50
   1   0  12   -0.70    3.70
   1   0  12    2.90    5.80
  -2   0 -12  183.28   11.10
   2   0  12  187.18   13.30
  -2   0 -12  185.18   12.80
  -3   0 -12   -4.50    3.90
   3   0  12    1.70    5.40
  -3   0 -12    6.20    3.80
   4   0  12   15.80    5.80
  -4   0 -12   11.20    5.90
  -4   0 -12    8.00    7.20
   5   0  12    4.40    5.70
  -5   0 -12   -1.50    3.50
  -5   0 -12    0.70    4.70
  -6   0 -12   -3.00    5.20
   6   0  12    3.40    4.60
  -6   0 -12    2.00    6.90
  -7   0 -12    5.50    6.10
  -7   0 -12   -3.00    7.40
   7   0  12   14.10    6.40
  -8   0 -12   52.39    9.50
  -8   0 -12   25.20    8.50
   8   0  12   50.09   10.60
  -9   0 -12    5.80    4.90
  -9   0 -12    0.60    8.30
   9   0  12   -3.40    7.30
 -10   0 -12   38.20   10.90
  10   0  12   26.40    8.70
 -10   0 -12   43.50   10.00
  14  -1 -12   73.39   63.79
 -14  -1  12    2.50    7.70
  14   1 -12   -3.40   23.30
  14   1 -12    1.30    7.30
 -13  -1  12   -2.30    7.20
 -13  -1  12   -1.80    6.40
  13  -1 -12    1.50    7.20
  13  -1 -12  -46.80   30.30
  13   1 -12    3.10    5.10
  13   1 -12    5.10    6.50
  13   1 -12   -3.60   18.80
 -13   1  12   -1.10    5.20
 -12  -1  12    8.10    7.30
  12  -1 -12  -15.50   32.10
  12  -1 -12    0.70    7.20
 -12  -1  12    8.20    7.70
  12   1 -12    4.80    6.60
  12   1 -12  -25.90   22.40
  12   1 -12   -7.30    5.90
 -12   1  12    9.50    6.00
  11  -1 -12  -15.60   19.20
  11  -1 -12   -0.70    4.50
  11  -1 -12   -3.50    4.40
 -11  -1  12   -6.50    8.10
 -11  -1  12   14.10    7.50
 -11   1  12    7.00    6.50
 -11   1  12    0.80    6.50
  11   1 -12    2.70    6.60
  11   1 -12    4.70    6.00
  11   1 -12  -19.30   27.90
  10  -1 -12    7.70    5.00
 -10  -1  12    9.00    7.50
  10  -1 -12    5.60   22.30
  10  -1 -12    7.80    6.50
 -10  -1  12   28.20   10.30
  10   1 -12   16.90    7.20
 -10   1  12   21.80    7.70
  10   1 -12  -26.20   31.30
  10   1 -12   12.50    8.10
 -10   1  12   14.50    6.10
  -9  -1  12   27.70    7.00
  -9  -1  12   15.70    7.40
   9  -1 -12   16.50    7.20
   9  -1 -12   12.80   14.80
   9  -1 -12   28.20    6.10
   9   1 -12   23.50    7.20
   9   1 -12    9.00   28.60
  -9   1  12   18.70    7.40
  -9   1  12   12.60    6.40
   9   1 -12   30.00    6.90
   8  -1 -12  167.08   11.00
   8  -1 -12  196.28   14.30
  -8  -1  12  191.78   17.30
   8  -1 -12  188.28   34.80
  -8  -1  12  196.88   14.50
   8   1 -12  139.59   35.70
   8   1 -12  173.18   13.30
  -8   1  12  193.68   13.70
  -8   1  12  177.48   13.80
   8   1 -12  194.38   15.60
  -7  -1  12  103.29   10.10
   7  -1 -12  105.29    8.70
  -7  -1  12  133.29   13.10
   7  -1 -12  106.29   27.60
   7  -1 -12   99.99   10.90
  -7   1  12  123.19   11.10
  -7   1  12  116.29   11.60
   7   1 -12  117.59   10.00
   7   1 -12   95.89   10.80
   7   1 -12  106.39   30.70
   6  -1 -12   88.59   25.10
  -6  -1  12   82.39    9.90
  -6  -1  12   92.29   13.10
   6  -1 -12  122.19    8.90
   6  -1 -12   85.09    9.90
   6   1 -12   94.09    9.00
   6   1 -12   87.29   11.10
   6   1 -12  196.48   38.30
  -6   1  12  100.59   10.30
  -6   1  12  107.79   10.90
   4  -1 -12   15.80   15.60
  -4  -1  12    9.00    7.10
   4  -1 -12   18.10    5.20
   4  -1 -12   15.50    4.70
  -4  -1  12   19.10    6.60
   4   1 -12   24.60    6.60
   4   1 -12    8.60    5.20
  -4   1  12   18.90    7.00
  -4   1  12   22.60    6.00
   4   1 -12   10.00   12.20
   3  -1 -12   50.99    6.50
  -3  -1  12   43.90    7.50
  -3  -1  12   49.80    9.20
   3  -1 -12   65.89   19.20
   3  -1 -12   55.59    8.00
   3   1 -12   35.40   13.30
   3   1 -12   51.99    7.80
  -3   1  12   42.00    7.10
  -3   1  12   56.89    7.90
   3   1 -12   43.40    6.90
   2  -1 -12   -2.00    4.40
   2  -1 -12   -1.60    3.30
  -2  -1  12   -1.30    4.40
   2  -1 -12   -0.70   12.20
  -2  -1  12   -4.90    3.20
  -2   1  12    5.50    5.00
   2   1 -12   -6.90    5.00
   2   1 -12   -5.10    6.90
   2   1 -12   -3.40    3.20
  -2   1  12   -0.10    4.30
   1  -1 -12    6.00    3.90
  -1  -1  12    9.80    5.70
   1  -1 -12    5.50    3.80
   1  -1 -12    3.40   12.90
  -1  -1  12    9.70    6.90
  -1   1  12    5.80    5.40
  -1   1  12    2.50    4.70
   1   1 -12    0.80    6.90
   1   1 -12    7.50    6.00
   1   1 -12    0.50    5.00
   0  -1  12   54.49    8.20
   0  -1 -12   39.30    6.50
   0  -1  12   48.20    9.10
   0  -1 -12   50.39    6.50
   0   1 -12   38.90   11.20
   0   1  12   49.60    7.40
   0   1 -12   39.60    7.30
   0   1 -12   42.20    7.20
   0   1  12   44.00    8.80
  -1  -1 -12   72.99    9.10
   1  -1  12   79.89   10.40
  -1  -1 -12   79.39    7.70
   1  -1  12   76.89   11.80
  -1   1 -12   66.09   14.60
  -1   1 -12   74.49    9.60
   1   1  12   70.09    8.80
   1   1  12   74.69    9.80
  -1   1 -12   70.89    9.00
  -2  -1 -12  443.36   19.60
  -2  -1 -12  434.66   16.50
   2  -1  12  427.76   19.10
  -2   1 -12  471.75   21.20
   2   1  12  444.36   18.50
   2   1  12  430.96   20.00
  -2   1 -12  466.65   18.80
  -2   1 -12  412.16   33.50
  -3  -1 -12   18.80    5.50
  -3  -1 -12   14.30    6.10
   3  -1  12   19.70    7.10
   3   1  12    8.80    5.40
  -3   1 -12   17.70    6.70
  -3   1 -12   11.30    7.30
  -4  -1 -12   19.40    7.00
  -4  -1 -12   10.00    5.10
   4  -1  12   12.20    6.60
  -4   1 -12    7.70    6.50
   4   1  12   17.70    6.80
  -4   1 -12    5.90    5.40
  -5  -1 -12    5.00    3.90
  -5  -1 -12    2.60    6.60
   5  -1  12    2.20    4.50
   5   1  12    2.40    4.20
  -5   1 -12   14.40    7.70
  -5   1 -12   -0.50    4.10
  -6  -1 -12   32.30    7.70
  -6  -1 -12   31.50    7.00
   6  -1  12   26.50    7.40
  -6   1 -12   40.90   10.20
   6   1  12   31.00    8.40
  -6   1 -12   20.30    6.30
  -7  -1 -12   12.00    6.20
   7  -1  12    2.80    5.00
  -7  -1 -12   -3.00    4.80
  -7   1 -12    7.60    7.80
   7   1  12    0.70    5.90
  -7   1 -12   -1.70    4.70
  -8  -1 -12   24.30    7.00
   8  -1  12    8.80    6.20
  -8  -1 -12    2.50    7.30
   8   1  12   18.50    8.40
  -8   1 -12   10.60    8.60
  -8   1 -12    7.60    5.50
  -9  -1 -12    1.50    7.50
   9  -1  12   22.40    9.10
   9   1  12    4.60    5.70
  -9   1 -12   14.60    7.70
  -9   1 -12    5.20    6.80
  12  -2 -12   -5.70   31.30
 -12  -2  12   -2.90    7.40
 -12  -2  12    6.50    5.80
 -12   2  12    9.90    7.20
  12   2 -12   -1.40    5.60
  12   2 -12   -6.60    7.60
  12   2 -12   36.20   16.50
  11  -2 -12   15.90    7.10
 -11  -2  12    5.40    7.10
 -11  -2  12    0.50    5.40
  11  -2 -12   22.10   17.90
  11   2 -12   21.90   16.40
  11   2 -12   21.00    8.10
  11   2 -12    6.30    7.80
 -11   2  12   -8.10    5.20
 -10  -2  12   14.60    7.70
 -10  -2  12   18.80    6.60
  10  -2 -12    8.80    6.20
  10  -2 -12   10.10   17.90
  10   2 -12   12.20    6.60
 -10   2  12   10.20    6.60
  10   2 -12   15.30    7.90
   9  -2 -12   32.80   18.40
   9  -2 -12   22.30    6.80
  -9  -2  12   18.20   10.00
  -9  -2  12   20.40    7.80
   9   2 -12   18.40    7.90
   9   2 -12   21.50   16.60
  -9   2  12   15.50    7.00
   9   2 -12   14.50    7.00
   8  -2 -12   18.30   19.30
  -8  -2  12   -8.40    5.20
  -8  -2  12   -6.20    5.30
   8  -2 -12    0.70    5.10
   8   2 -12   -4.00   11.20
   8   2 -12    0.40    4.40
   8   2 -12   -5.50    6.80
  -8   2  12    2.70    5.00
  -7  -2  12    2.90    8.00
   7  -2 -12    7.30   17.20
   7  -2 -12    2.20    4.50
  -7  -2  12    4.60    4.50
   7   2 -12   -2.10    6.70
   7   2 -12    0.40   10.70
   7   2 -12    7.50    6.00
  -7   2  12    1.70    4.70
   6  -2 -12    1.80    4.30
   6  -2 -12    1.20   10.20
  -6  -2  12   -1.80    5.20
  -6  -2  12    5.70    5.80
   6   2 -12   14.20   10.80
   6   2 -12    1.60    4.80
   6   2 -12   -3.30    4.00
   6   2 -12    3.70    3.30
  -6   2  12    7.70    4.90
   5  -2 -12   -6.90    3.60
  -5  -2  12    2.00    3.80
  -5  -2  12    1.90    7.90
   5  -2 -12    0.20   15.70
   5   2 -12    0.80    6.50
  -5   2  12   -0.60    4.20
   5   2 -12   -0.50    3.40
   5   2 -12    6.90    8.40
   5   2 -12   -8.50    5.10
  -4  -2  12    9.70    5.60
   4  -2 -12    3.00   14.90
  -4  -2  12    5.20    5.30
   4  -2 -12   -3.30    3.50
   4   2 -12    2.10    6.90
   4   2 -12    1.70    3.70
   4   2 -12   -3.20    6.10
  -4   2  12    9.80    5.20
   4   2 -12    1.50    4.00
  -3  -2  12    5.60    7.40
   3  -2 -12    0.50    9.70
  -3  -2  12    1.60    3.60
   3  -2 -12    0.00    4.30
   3   2 -12   -6.00    5.00
   3   2 -12   -2.30    6.00
  -3   2  12    3.50    4.00
   3   2 -12    7.70    6.90
  -2  -2  12  -10.60    5.90
   2  -2 -12   -2.00    3.40
   2  -2 -12    6.50   14.50
  -2  -2  12    6.70    5.40
   2   2 -12   -1.10    5.30
  -2   2  12    6.50    4.30
   2   2 -12   -2.90    6.00
  -1  -2  12   30.20    9.40
  -1  -2  12   26.60    7.00
   1  -2 -12   16.80   15.80
   1  -2 -12   42.30    6.50
  -1   2  12   27.20    6.10
   1   2 -12   20.60    7.40
   1   2 -12   30.60    7.30
   0  -2  12   47.70   10.00
   0  -2 -12   35.70    6.30
   0  -2  12   35.20    7.90
   0   2 -12   37.40    6.90
   0   2  12   43.10    6.80
   0   2 -12   26.40    7.10
   1  -2  12   19.30    8.50
  -1  -2 -12    7.60    4.50
   1  -2  12    6.10    4.50
   1   2  12    7.00    5.30
  -1   2 -12   10.10    6.10
  -1   2 -12    5.90    6.10
  -2  -2 -12   14.00    5.40
   2  -2  12    9.90    5.20
   2  -2  12    7.00    7.70
  -2   2 -12   11.20    6.80
   2   2  12    8.40    5.50
  -2   2 -12   15.00    6.80
  -3  -2 -12   -2.30    4.70
   3  -2  12   -5.40    4.60
   3   2  12   -0.60    4.60
  -3   2 -12   -1.10    6.00
  -3   2 -12    4.90    6.60
   4  -2  12    3.00    6.20
  -4  -2 -12    0.40    4.90
   4   2  12    1.10    4.50
  -4   2 -12   -4.00    4.40
  -4   2 -12   -5.90    3.60
   5  -2  12   -1.50    4.70
  -5  -2 -12    7.40    6.20
  -5   2 -12    3.20    6.20
  -5   2 -12    6.80    7.50
   5   2  12   10.00    5.90
  -6  -2 -12   -1.40    5.40
   6  -2  12   -4.20    4.50
  -6   2 -12   -2.50    6.90
  -6   2 -12    2.30    7.00
   6   2  12    2.00    5.60
  -7  -2 -12    3.00    4.80
   7  -2  12   -4.30    4.00
  -7   2 -12    3.20    7.40
  -7   2 -12   -5.50    4.40
   7   2  12    5.00    6.50
   8  -2  12    8.00    5.50
  -8  -2 -12    4.60    7.30
  -8   2 -12   12.40    9.00
  -8   2 -12    6.00    7.70
   8   2  12    9.00    7.60
  -9  -3  12    8.40    9.90
   9   3 -12    2.30    5.40
  -8  -3  12   12.70    9.00
   8  -3 -12   15.00    5.80
  -8   3  12    5.10    4.90
   8   3 -12    4.50    6.90
  -7  -3  12   20.60    8.20
   7  -3 -12   39.00   21.00
   7  -3 -12   21.70    5.80
   7   3 -12    7.80    4.70
  -7   3  12    8.60    4.50
   7   3 -12   10.70    7.10
   6  -3 -12    3.00   17.40
   6  -3 -12    3.00    4.20
  -6  -3  12  -10.50    7.50
  -6   3  12    0.80    3.90
   6   3 -12   -1.70    4.80
   6   3 -12   10.50    6.80
  -5  -3  12   -0.10    5.90
   5  -3 -12   -4.10   12.50
   5  -3 -12    2.60    4.10
  -5   3  12   -1.50    3.60
   5   3 -12   -2.50    4.10
   5   3 -12   -3.60    3.60
  -4  -3  12    4.10    8.30
   4  -3 -12   17.30   12.90
   4  -3 -12   -9.90    3.10
  -4   3  12    0.70    3.60
   4   3 -12   -3.40    3.80
   4   3 -12   -0.40    5.30
   3  -3 -12   31.20   14.50
   3  -3 -12    5.50    4.10
  -3  -3  12   17.30    8.70
   3   3 -12    1.40    5.60
  -3   3  12   -1.90    3.40
   3   3 -12    1.10    4.50
   2  -3 -12   57.89   19.10
  -2  -3  12   14.90    7.10
   2  -3 -12   12.80    4.50
  -2  -3  12   22.00    7.50
  -2   3  12   18.00    4.80
   2   3 -12   20.80    6.60
   2   3 -12   27.60    7.70
  -1  -3  12   -1.50    7.20
   1  -3 -12    4.90    4.30
   1  -3 -12   23.30   12.70
  -1   3  12   -1.10    3.60
   1   3 -12    1.80    6.00
   0  -3 -12   92.99    8.80
   0  -3  12   69.89   13.10
   0   3 -12   79.69   10.50
   0   3  12   96.99    8.30
  -1  -3 -12    4.80    4.20
   1  -3  12   11.80    8.30
  -1   3 -12    7.20    6.30
   1   3  12    9.60    4.70
  -2  -3 -12   30.10    6.20
   2  -3  12   41.60   11.00
   2   3  12   32.40    5.70
  -2   3 -12   15.90    7.00
  -3  -3 -12    2.60    4.60
   3  -3  12    1.90    7.50
   3   3  12    0.90    4.60
  -3   3 -12   -2.70    5.80
  -4  -3 -12    0.40    4.00
   4  -3  12   -3.60    5.60
  -4   3 -12    4.50    6.40
   4   3  12    0.60    4.40
  -5  -3 -12    1.20    5.30
  -5   3 -12   -3.20    6.90
   5   3  12    2.50    5.20
  13   0 -13   10.70    7.30
  13   0 -13    7.10    6.70
 -13   0  13   -8.90    6.20
 -13   0  13   -6.00    7.90
  13   0 -13  -59.39   41.50
 -11   0  13    0.60    6.10
 -11   0  13    6.40    7.10
  11   0 -13    4.50    4.60
  11   0 -13    8.30    7.60
  11   0 -13   12.80   29.20
  10   0 -13   -9.20   30.70
 -10   0  13    6.60    6.10
  10   0 -13   -9.30    4.80
 -10   0  13   -1.80    4.70
  10   0 -13   12.80    8.00
  -9   0  13   91.29   11.20
   9   0 -13  107.29   11.20
   9   0 -13  108.39   11.80
   9   0 -13   74.89   32.40
  -9   0  13  110.89   14.60
   8   0 -13    0.80    6.90
   8   0 -13  -20.90   17.60
  -8   0  13   -0.40    5.70
   8   0 -13    3.20    3.70
  -8   0  13    7.10    5.40
  -7   0  13   11.40    6.70
   7   0 -13   -3.10    4.30
  -7   0  13   -7.50    5.80
   7   0 -13    0.50   15.50
   7   0 -13    3.30    3.90
   6   0 -13  -11.30   12.90
   6   0 -13   -2.70    3.80
  -6   0  13   -1.80    3.90
  -6   0  13  -10.70    5.00
   6   0 -13   10.10    5.40
  -5   0  13   53.19    8.20
   5   0 -13   55.69   20.70
  -5   0  13   59.19    9.90
   5   0 -13   54.19    8.60
   5   0 -13   54.99    8.00
   4   0 -13   -7.40    4.10
   4   0 -13   -2.50   11.20
  -4   0  13   -0.10    4.10
  -4   0  13   -5.80    5.00
   4   0 -13   -9.00    5.40
  -3   0  13   18.70    7.50
   3   0 -13    9.10   12.20
   3   0 -13   13.60    6.80
   3   0 -13   18.30    5.10
  -3   0  13   14.10    6.50
  -2   0  13   -6.20    5.30
   2   0 -13   -1.20    3.20
   2   0 -13   -4.80    5.30
   2   0 -13   -5.70   10.70
  -2   0  13   -3.90    5.10
  -1   0  13   33.60    8.60
  -1   0  13   41.10    7.20
   1   0 -13   39.00    7.00
   1   0 -13   30.80   14.80
   1   0 -13   31.30    6.80
   0   0  13    4.30    4.40
   0   0 -13   -8.60    9.30
   0   0 -13   -1.10    5.70
   0   0  13    5.90    5.90
   0   0 -13    0.70    3.30
   1   0  13   18.60    7.40
   1   0  13   15.20    5.40
  -1   0 -13    5.50   11.50
  -1   0 -13   16.80    5.70
  -1   0 -13   15.30    5.80
   2   0  13   -1.40    3.80
  -2   0 -13   -2.30    4.60
  -2   0 -13   11.80    5.50
   2   0  13    1.40    6.20
  -3   0 -13   63.99   10.60
   3   0  13   82.49   10.30
  -3   0 -13   69.29    9.20
  -4   0 -13    1.20    4.90
  -4   0 -13    2.50    6.50
   4   0  13    8.80    6.40
   5   0  13   63.89    9.90
  -5   0 -13   45.00   10.10
  -5   0 -13   53.09    8.90
  -6   0 -13   -2.40    3.90
   6   0  13    5.80    7.70
  -6   0 -13    1.50    5.60
  -7   0 -13   53.79    8.70
  -7   0 -13   75.59   11.60
   7   0  13   65.39   11.70
  -8   0 -13    5.90    6.90
  -8   0 -13   -9.60    7.50
   8   0  13    4.00    5.90
  -9   0 -13   62.49   11.20
  -9   0 -13   72.49   12.40
   9   0  13   62.99   12.40
  13  -1 -13   -0.20    7.70
 -13  -1  13    1.50    7.10
 -13  -1  13    3.10    6.40
  13   1 -13    0.10   23.90
  13   1 -13   -0.50    5.10
  13   1 -13   -4.80    5.50
 -13   1  13    3.80    6.10
  12  -1 -13    9.50    8.20
 -12  -1  13    2.40    6.80
 -12  -1  13   -5.00    4.90
  12   1 -13  -18.70   27.90
 -12   1  13    0.40    5.00
  12   1 -13    3.20    5.00
  12   1 -13    7.50    6.70
 -11  -1  13    5.60    6.80
  11  -1 -13    5.80    5.40
 -11  -1  13    7.80    8.00
  11   1 -13    2.30    6.60
  11   1 -13   13.70   27.50
  11   1 -13    0.50    5.80
 -11   1  13   -4.90    5.80
  10  -1 -13   14.70    7.80
  10  -1 -13   -4.50   21.90
 -10  -1  13    4.40    7.40
 -10  -1  13   -2.00    8.40
  10  -1 -13    4.70    5.10
 -10   1  13    1.60    4.50
 -10   1  13    1.60    6.20
  10   1 -13  -50.69   29.70
  10   1 -13    0.40    6.20
  10   1 -13    5.90    7.70
   9  -1 -13   13.00    7.20
   9  -1 -13  -34.00   21.80
  -9  -1  13   20.60    9.70
   9  -1 -13    6.50    4.50
  -9  -1  13   24.50    6.90
  -9   1  13   22.00    7.40
   9   1 -13    7.70   33.80
  -9   1  13   26.90    8.10
   9   1 -13   12.10    7.80
   9   1 -13   11.30    5.50
  -8  -1  13   98.89   14.10
   8  -1 -13   85.29   11.10
  -8  -1  13  139.59   13.20
   8  -1 -13  104.59    9.60
   8  -1 -13  105.79   29.30
   8   1 -13  104.89   11.80
  -8   1  13  113.29   13.30
   8   1 -13   80.19   33.60
  -8   1  13  112.39   12.20
   8   1 -13  106.19   10.40
  -7  -1  13    2.00    7.70
   7  -1 -13    0.90    5.60
   7  -1 -13    8.10   12.70
  -7  -1  13   -5.00    4.70
   7  -1 -13    0.20    2.70
   7   1 -13   -1.80    5.30
   7   1 -13   -5.60    6.70
  -7   1  13   -2.10    5.00
  -7   1  13    0.20    5.20
   7   1 -13  -19.10   23.70
   6  -1 -13   17.90    5.30
   6  -1 -13   17.00    6.70
  -6  -1  13   30.40    8.00
  -6  -1  13   16.20    7.30
   6  -1 -13   23.00   18.10
  -6   1  13   15.00    5.30
  -6   1  13   22.20    7.30
   6   1 -13    7.40   20.20
   6   1 -13   30.20    7.50
   6   1 -13    8.30    5.90
   5  -1 -13    4.10    5.30
  -5  -1  13    2.60    4.20
   5  -1 -13   13.50   16.20
  -5  -1  13    9.50    7.70
   5  -1 -13    6.80    4.30
  -5   1  13    6.30    5.30
   5   1 -13   -2.80    6.20
   5   1 -13   -2.70   14.10
   5   1 -13    0.10    4.10
  -5   1  13    3.50    4.10
   4  -1 -13    3.00    4.00
  -4  -1  13    2.00    5.50
   4  -1 -13   -7.60    4.70
   4  -1 -13   -6.90    9.30
  -4  -1  13    2.50    6.60
  -4   1  13   -1.20    5.10
   4   1 -13   -0.10    5.20
  -4   1  13    0.30    3.50
   4   1 -13  -19.10   10.80
   4   1 -13   -0.60    6.30
  -3  -1  13   -0.10    4.90
  -3  -1  13   12.60    5.30
   3  -1 -13    3.30    5.50
   3  -1 -13   -3.50   14.40
   3  -1 -13    9.00    3.40
   3   1 -13    1.60    4.90
  -3   1  13    4.70    5.20
  -3   1  13    9.90    5.70
   3   1 -13    5.70    4.50
  -2  -1  13   41.20   10.30
   2  -1 -13   41.60    7.70
   2  -1 -13   41.00   16.90
   2  -1 -13   49.10    6.20
  -2  -1  13   55.49    8.60
  -2   1  13   50.29    8.90
  -2   1  13   64.29    8.80
   2   1 -13   37.90    8.90
   2   1 -13   46.40    7.30
   2   1 -13   30.10   13.30
   1  -1 -13   24.40    6.70
  -1  -1  13   20.30    7.10
   1  -1 -13   17.10   16.90
   1  -1 -13   26.70    5.00
  -1  -1  13   20.50    6.10
   1   1 -13   31.30    7.30
  -1   1  13   30.20    7.10
   1   1 -13   22.00   11.60
   1   1 -13   27.80    6.10
  -1   1  13   31.50    7.70
   0  -1  13   38.10    8.30
   0  -1 -13   30.50   15.00
   0  -1 -13   32.80    5.70
   0  -1 -13   33.80    7.40
   0  -1  13   29.50    9.20
   0   1  13   30.80    6.20
   0   1  13   38.60    8.20
   0   1 -13   36.60    8.60
   0   1 -13   30.60    7.00
   0   1 -13   33.50   10.90
   1  -1  13   15.80    6.00
   1  -1  13   14.00    8.20
  -1  -1 -13    9.00    4.60
  -1  -1 -13    4.20    5.40
   1   1  13    6.00    5.70
  -1   1 -13   21.70    7.70
  -1   1 -13   19.50    8.10
   1   1  13   10.00    5.60
  -1   1 -13   16.20    5.20
  -2  -1 -13    7.30    4.40
   2  -1  13   10.10    5.30
  -2  -1 -13   15.10    5.40
   2  -1  13   11.30    8.30
   2   1  13   17.60    5.50
  -2   1 -13   11.70    5.00
  -2   1 -13    9.40    7.40
   2   1  13    6.40    5.80
  -3  -1 -13   14.10    5.50
   3  -1  13    9.80    6.70
  -3  -1 -13    8.40    4.10
  -3   1 -13    1.90    5.40
   3   1  13    5.30    5.70
  -3   1 -13    2.70    5.10
   3   1  13   13.00    5.30
  -4  -1 -13   11.90    7.30
   4  -1  13   -2.60    4.00
  -4  -1 -13   -0.30    4.20
  -4   1 -13    8.60    5.10
  -4   1 -13    8.30    5.90
   4   1  13    8.70    6.10
  -5  -1 -13    3.30    5.10
  -5  -1 -13   -3.50    4.50
   5  -1  13    1.40    6.30
   5   1  13   -0.10    6.00
  -5   1 -13   -9.00    4.50
  -5   1 -13   -4.40    5.90
  -6  -1 -13   24.40    8.60
  -6  -1 -13    5.00    5.40
   6  -1  13   -0.60    6.20
   6   1  13   16.30    7.50
  -6   1 -13    0.10    6.40
  -6   1 -13   25.40    9.70
  -7  -1 -13    0.70    4.90
   7  -1  13   -5.60    6.60
   7   1  13    1.10    6.30
  -7   1 -13    9.10    8.50
  -7   1 -13    0.50    6.90
  -8  -1 -13   19.20    7.60
   8  -1  13   19.70    9.30
  -8   1 -13    5.00    8.00
  -8   1 -13   22.40    7.80
   8   1  13   33.00    9.80
  12  -2 -13    4.40    7.80
 -12  -2  13   -3.20   11.10
  12   2 -13   44.90   18.30
  12   2 -13    6.80    9.00
 -11  -2  13    8.70    7.30
  11  -2 -13    6.40    6.60
  11  -2 -13   24.70   19.60
 -11  -2  13   10.30   10.90
  11   2 -13   10.60    9.20
  11   2 -13   16.40    6.90
  11   2 -13   36.20   16.20
 -11   2  13    7.90    6.40
 -10  -2  13  126.69   16.70
  10  -2 -13  129.09   13.20
  10  -2 -13  136.29   31.00
 -10  -2  13  138.59   13.40
  10   2 -13  101.69   13.80
 -10   2  13  126.59   13.30
  10   2 -13  191.48   34.30
  10   2 -13  143.19   14.80
  -9  -2  13   -3.50    4.70
   9  -2 -13  -17.00   17.70
  -9  -2  13   -5.10    5.80
   9  -2 -13    7.60    5.80
   9   2 -13    2.70    6.50
  -9   2  13   -1.30    5.40
   9   2 -13   -1.60    5.20
  -8  -2  13   70.29   11.30
   8  -2 -13   53.69    8.80
   8  -2 -13   79.79   26.90
  -8  -2  13   73.19   14.40
   8   2 -13   68.69   21.40
  -8   2  13   66.59    9.50
   8   2 -13   58.49    9.90
   8   2 -13   54.59   10.00
  -7  -2  13   -5.20    7.40
  -7  -2  13  -12.60    4.70
   7  -2 -13    5.50   18.50
   7  -2 -13   -8.90    3.80
   7   2 -13    3.70   11.70
   7   2 -13    6.60    4.90
   7   2 -13    4.30    7.00
  -7   2  13   -1.80    5.00
  -6  -2  13    2.60    4.80
   6  -2 -13    7.80    5.40
   6  -2 -13    0.40   12.90
  -6  -2  13   -5.10    5.00
   6   2 -13    4.20    9.90
  -6   2  13    7.50    5.40
   6   2 -13    2.50    6.20
   6   2 -13   -3.40    4.90
  -5  -2  13    9.80    8.60
   5  -2 -13   10.70   13.70
   5  -2 -13    0.90    4.60
  -5  -2  13    5.00    6.00
   5   2 -13    9.60    6.10
   5   2 -13    0.80    4.20
   5   2 -13    7.20   12.10
  -5   2  13    0.70    4.50
   5   2 -13   11.70    3.70
   4  -2 -13   11.50    5.20
  -4  -2  13   12.90    5.60
   4  -2 -13   47.80   21.40
  -4  -2  13   23.60    8.20
  -4   2  13   18.40    5.70
   4   2 -13   21.60    7.80
   4   2 -13   15.40    4.70
   4   2 -13   19.20    7.00
  -3  -2  13   10.70    8.10
  -3  -2  13   -2.30    5.40
   3  -2 -13    3.70    4.60
   3  -2 -13   13.80   16.50
  -3   2  13    4.50    5.00
   3   2 -13    2.60    5.20
   3   2 -13   -1.10    5.40
   2  -2 -13   22.40   17.30
   2  -2 -13    6.70    4.90
  -2  -2  13    5.30    6.50
  -2  -2  13    6.00    6.30
   2   2 -13    3.50    4.40
  -2   2  13    5.20    4.70
   2   2 -13    1.10    6.70
   1  -2 -13    5.70   10.30
  -1  -2  13    4.40    7.90
  -1  -2  13   -0.90    4.10
   1  -2 -13   -6.20    3.50
   1   2 -13    4.50    5.80
   1   2 -13    5.60    6.70
  -1   2  13    2.30    5.00
   0  -2 -13  274.87   14.50
   0  -2  13  261.47   15.50
   0  -2  13  268.87   20.00
   0   2  13  262.67   14.30
   0   2 -13  294.97   16.60
   0   2 -13  266.07   16.40
  -1  -2 -13    1.30    4.70
   1  -2  13    2.10    5.50
   1  -2  13    6.50    7.70
  -1   2 -13    6.40    6.30
   1   2  13    9.10    5.80
  -1   2 -13    4.90    5.40
   2  -2  13   10.60    8.70
   2  -2  13   14.50    5.70
  -2  -2 -13   20.10    6.00
  -2   2 -13   11.00    6.80
   2   2  13   10.20    5.40
  -2   2 -13    7.40    5.40
  -3  -2 -13    0.90    4.80
   3  -2  13   -5.90    3.70
   3  -2  13    0.00    5.80
  -3   2 -13    2.30    6.90
  -3   2 -13    3.20    6.60
   3   2  13    6.30    5.50
   4  -2  13    5.00    6.40
  -4  -2 -13    6.80    5.90
   4   2  13   -1.40    5.20
  -4   2 -13    4.90    5.00
  -4   2 -13    8.30    6.30
  -5  -2 -13    2.50    5.80
   5  -2  13    1.50    6.00
   5   2  13  -10.40    3.90
  -5   2 -13   -6.30    4.10
  -5   2 -13   -1.50    7.00
  -6  -2 -13    6.90    6.40
   6  -2  13   -6.40    4.10
  -6   2 -13   -6.30    6.50
  -6   2 -13    1.20    6.90
   6   2  13    1.80    6.20
  -7  -2 -13   13.80    8.30
   7  -2  13   22.90    7.70
   7   2  13   28.70    8.90
  -7   2 -13   30.30   10.00
  -7   2 -13   21.20    9.30
   8  -3 -13    9.40    6.10
  -8  -3  13    6.00    9.90
   8   3 -13    1.60    7.20
  -8   3  13    4.70    5.40
  -7  -3  13   -3.10    8.40
   6  -3 -13    2.70    4.70
  -6  -3  13    0.60    6.00
  -6   3  13    6.00    4.40
   6   3 -13    4.70    7.00
   6   3 -13   10.90    4.90
   5  -3 -13   -4.50    4.20
  -5  -3  13   -6.50    7.70
  -5   3  13   -2.80    4.00
   5   3 -13  -11.10    5.40
   5   3 -13    0.10    4.20
   4  -3 -13   16.70   17.70
  -4  -3  13  -11.70    6.70
   4  -3 -13   -5.00    4.30
   4   3 -13   -1.50    4.40
   4   3 -13    3.80    6.10
  -4   3  13   -2.10    4.00
   3  -3 -13   10.00   19.10
  -3  -3  13    7.40    8.50
   3  -3 -13    2.40    4.70
   3   3 -13   -5.50    4.10
   3   3 -13   -1.10    4.20
  -3   3  13    3.80    4.20
   2  -3 -13   22.80   20.80
  -2  -3  13    2.60    6.50
   2  -3 -13    9.70    5.00
  -2   3  13    5.30    4.40
   2   3 -13   12.20    5.90
   2   3 -13    8.40    6.70
   1  -3 -13   11.90   17.80
   1  -3 -13    7.10    4.40
  -1  -3  13   -9.00    5.30
   1   3 -13    8.10    6.80
  -1   3  13    0.70    4.00
   0  -3  13   49.40   11.10
   0  -3 -13   47.40    7.30
   0   3 -13   49.20    9.50
   0   3  13   44.90    6.50
  -1  -3 -13    6.40    4.80
   1  -3  13    7.60    6.60
  -1   3 -13    1.20    6.50
   1   3  13    8.00    4.60
   2  -3  13   -4.30    5.80
  -2  -3 -13    7.60    5.20
  -2   3 -13    2.90    6.10
   2   3  13    7.00    4.50
   3  -3  13    1.30    9.10
  -3  -3 -13    0.50    4.20
  -3   3 -13   -6.80    5.90
   3   3  13   -2.00    4.70
  -4  -3 -13    4.60    5.20
   4  -3  13   -2.30    6.60
   4   3  13    0.00    4.90
  -4   3 -13    4.00    7.30
 -13   0  14   -2.40    5.90
  13   0 -14    6.60    7.10
  13   0 -14    1.10    6.70
 -13   0  14    4.40    8.80
  13   0 -14  -17.70   38.00
 -12   0  14   30.80   10.50
 -12   0  14   39.40    9.40
  12   0 -14  -37.50   42.30
  12   0 -14   32.80    8.60
  12   0 -14   26.40    8.70
  10   0 -14   -2.50    6.90
  10   0 -14    5.80   32.00
 -10   0  14   10.20    8.10
  10   0 -14   -2.00    4.10
 -10   0  14    2.00    7.40
   9   0 -14   -5.00    6.90
  -9   0  14    4.30    6.30
   9   0 -14   -5.40    5.10
  -9   0  14   -2.10    4.40
   9   0 -14  -25.20   16.40
   8   0 -14   81.59   26.70
  -8   0  14  124.99   13.30
   8   0 -14  114.19   10.20
   8   0 -14  119.09   12.30
  -8   0  14  126.29   15.80
   7   0 -14    2.10   11.50
  -7   0  14   -6.80    3.80
   7   0 -14   -0.20    6.40
   7   0 -14    4.10    5.30
  -7   0  14    5.80    5.00
  -6   0  14   27.10    9.30
   6   0 -14   40.20   19.60
   6   0 -14   24.80    5.80
  -6   0  14   17.90    7.50
   6   0 -14   28.40    8.50
  -5   0  14    5.30    7.30
   5   0 -14   -2.80    4.50
   5   0 -14    4.00   14.50
  -5   0  14    1.80    4.50
   5   0 -14    0.30    4.50
   4   0 -14    7.70   12.80
  -4   0  14   -7.40    5.10
   4   0 -14   -1.70    4.80
  -4   0  14   -6.90    3.60
   4   0 -14   -6.20    5.70
   3   0 -14   -4.50   10.90
   3   0 -14    3.60    6.00
   3   0 -14    3.90    4.10
  -3   0  14    8.90    7.00
  -3   0  14  -10.10    5.50
   2   0 -14  253.07   15.40
   2   0 -14  262.67   34.00
  -2   0  14  213.38   15.60
   2   0 -14  265.97   14.60
  -2   0  14  245.48   14.60
   1   0 -14    6.20    4.10
  -1   0  14   -5.60    5.80
   1   0 -14    0.40    5.90
  -1   0  14   -4.30    5.20
   1   0 -14    1.00   10.60
   0   0 -14   36.50    7.10
   0   0 -14   29.10    7.70
   0   0  14   43.20    8.80
   0   0 -14   53.49   17.00
   0   0  14   29.60    7.00
  -1   0 -14    7.50    5.50
  -1   0 -14    1.40    4.80
   1   0  14   -0.10    4.50
  -1   0 -14   23.20   11.20
   1   0  14    5.60    6.80
  -2   0 -14    6.80    6.70
   2   0  14   -0.50    4.40
  -2   0 -14   -1.10    5.40
   2   0  14    1.30    6.40
  -3   0 -14    1.40    6.80
   3   0  14    6.00    5.80
   3   0  14    1.50    4.60
  -3   0 -14    1.60    4.90
  -4   0 -14    5.70    4.50
  -4   0 -14    6.50    5.60
   4   0  14   14.90    7.30
  -5   0 -14   -0.30    7.30
  -5   0 -14    5.50    5.90
   5   0  14   -3.30    6.00
   6   0  14    5.20    5.70
  -6   0 -14    0.80    6.10
  -6   0 -14    4.80    7.90
   7   0  14    2.80    5.90
  -7   0 -14    8.20    9.00
  -7   0 -14    7.60    7.30
  -8   0 -14    5.50    7.00
  -8   0 -14   22.80    9.10
   8   0  14   11.90    9.30
  12  -1 -14   -0.30    8.00
  12  -1 -14  -58.09   34.50
 -12  -1  14   11.20    6.60
 -12  -1  14   -0.60    9.30
  12   1 -14   -5.10    5.70
 -12   1  14    1.30    6.00
  12   1 -14  -46.10   28.50
  12   1 -14   -0.50    4.70
 -11  -1  14    1.60    5.30
 -11  -1  14   14.30   10.20
  11  -1 -14  -29.70   26.10
  11  -1 -14    4.00    8.00
  11   1 -14   -0.50    4.80
  11   1 -14   -6.60    5.10
  11   1 -14  -24.80   34.70
 -11   1  14   10.20    5.80
  10  -1 -14   84.69   39.70
 -10  -1  14  166.48   16.60
  10  -1 -14  124.09   12.60
 -10  -1  14  160.98   15.70
  10   1 -14  131.19   12.40
 -10   1  14  140.09   14.20
  10   1 -14  150.98   14.70
   9  -1 -14    5.90    6.70
  -9  -1  14    4.20    6.50
   9  -1 -14    3.00   18.10
  -9  -1  14   14.10    8.20
   9  -1 -14    5.50    4.90
  -9   1  14   11.20    7.10
   9   1 -14  -44.40   30.80
   9   1 -14    1.90    6.60
   9   1 -14   -5.00    7.50
  -8  -1  14   -0.80    4.40
  -8  -1  14   -1.80    8.40
   8  -1 -14    5.90    6.40
   8  -1 -14   20.20   21.40
   8  -1 -14    3.70    3.70
   8   1 -14    3.10    6.30
   8   1 -14  -18.90   27.10
  -8   1  14   -0.80    6.00
   8   1 -14   11.40    8.10
  -8   1  14    4.40    6.20
  -7  -1  14   -8.10    4.60
  -7  -1  14   -1.30    4.80
   7  -1 -14    0.20    4.10
   7  -1 -14    4.80    6.50
   7  -1 -14   -4.00   11.70
   7   1 -14    0.70    5.40
   7   1 -14    8.50   26.20
  -7   1  14   -1.40    5.30
   7   1 -14   -1.60    4.30
  -7   1  14  -10.40    4.40
   6  -1 -14   13.10   14.00
  -6  -1  14   27.90    9.60
   6  -1 -14   25.40    6.10
   6  -1 -14   19.10    7.30
  -6  -1  14    6.10    6.70
  -6   1  14   19.00    7.00
  -6   1  14   10.70    6.90
   6   1 -14    7.80    8.00
   6   1 -14   11.30    6.70
   6   1 -14   -0.70   22.90
  -5  -1  14   12.70    7.10
   5  -1 -14   -4.50   14.40
   5  -1 -14    1.90    5.70
   5  -1 -14   -1.30    3.60
  -5  -1  14    0.40    4.30
  -5   1  14    1.50    5.80
   5   1 -14   -1.80    4.20
   5   1 -14  -17.40   15.30
   5   1 -14    5.20    5.70
  -5   1  14   -2.50    5.00
  -4  -1  14   10.70    8.50
  -4  -1  14   12.40    6.90
   4  -1 -14    4.00    6.50
   4  -1 -14   13.30   17.20
   4  -1 -14    9.30    4.10
   4   1 -14    6.20    5.90
   4   1 -14   21.20    8.40
  -4   1  14   13.90    6.30
   4   1 -14   -4.70   12.30
  -4   1  14    7.90    5.90
  -3  -1  14    5.40    6.40
   3  -1 -14    6.80    3.50
   3  -1 -14    2.30   11.00
   3  -1 -14   10.10    6.40
  -3  -1  14   13.60    5.70
   3   1 -14    7.50   10.30
   3   1 -14    8.00    4.90
  -3   1  14    2.40    4.10
   3   1 -14    8.20    5.80
  -3   1  14    4.70    5.30
  -2  -1  14    3.80    6.10
   2  -1 -14    0.90    4.20
  -2  -1  14   12.10    7.10
   2  -1 -14    5.00   14.10
   2  -1 -14   -6.30    3.40
   2   1 -14   -8.00    6.10
  -2   1  14   -0.20    3.70
   2   1 -14   11.10    8.20
   2   1 -14    3.30    5.80
  -2   1  14    5.20    4.40
   1  -1 -14   33.70    6.50
  -1  -1  14   43.50    8.80
   1  -1 -14   53.59   20.10
   1  -1 -14   38.60    8.20
  -1  -1  14   49.20   11.50
  -1   1  14   56.69    8.90
   1   1 -14   38.40    9.60
   1   1 -14   84.59   16.80
   1   1 -14   51.09    8.90
  -1   1  14   63.89    9.90
   0  -1  14   20.30    8.90
   0  -1 -14   24.80    7.30
   0  -1 -14   20.50   13.10
   0  -1 -14   13.90    4.40
   0  -1  14   18.20    6.10
   0   1 -14   51.39   12.50
   0   1  14   14.00    6.90
   0   1  14   18.00    7.30
   0   1 -14   21.70    5.90
   0   1 -14   23.90    8.40
  -1  -1 -14   27.80    6.10
   1  -1  14   25.10    6.80
   1  -1  14   20.40    8.70
  -1  -1 -14   33.20    8.20
  -1   1 -14   32.40    6.80
   1   1  14   38.10    8.20
  -1   1 -14   17.00    8.00
   1   1  14   38.40    7.70
  -2  -1 -14    2.20    4.40
   2  -1  14   -0.90    7.30
   2  -1  14    1.30    4.30
  -2  -1 -14   -1.90    5.80
   2   1  14    1.00    5.60
  -2   1 -14    2.80    4.30
  -2   1 -14   -3.60    6.70
   2   1  14   -6.70    4.10
  -3  -1 -14    9.00    6.70
  -3  -1 -14   10.80    5.30
   3  -1  14    4.00    6.90
  -3   1 -14   -0.90    6.10
  -3   1 -14    1.60    5.50
   3   1  14    9.30    6.50
   3   1  14   11.70    6.40
  -4  -1 -14    2.00    4.70
   4  -1  14   -4.90    3.80
  -4  -1 -14   -0.10    4.80
  -4   1 -14   -7.00    6.60
  -4   1 -14   -4.50    3.70
   4   1  14    2.10    6.10
  -5  -1 -14    3.50    7.20
   5  -1  14    0.60    7.20
  -5  -1 -14    4.50    5.00
  -5   1 -14   -2.10    5.40
  -5   1 -14   -8.50    5.70
   5   1  14    6.80    6.30
   6  -1  14   22.10    9.10
  -6  -1 -14   23.10    9.30
  -6   1 -14   16.00    7.40
  -6   1 -14    6.80    7.20
   6   1  14   21.00    7.10
   7  -1  14    8.20    8.20
  -7  -1 -14    3.90    8.30
  -7   1 -14    8.30    6.70
  -7   1 -14    7.80    7.80
   7   1  14    5.70    6.10
  11  -2 -14    9.70    7.90
 -11  -2  14   -6.60   10.50
 -11  -2  14    7.80    8.90
  11   2 -14   11.40    8.50
  11   2 -14   11.80    9.30
  11   2 -14   31.40   18.20
 -11   2  14    8.60    7.50
 -10  -2  14   15.50    8.70
  10  -2 -14    7.00    6.80
 -10  -2  14   29.20   12.00
 -10   2  14    8.90    7.10
  10   2 -14   17.00    6.70
  10   2 -14   15.20    9.30
  10   2 -14   40.40   17.40
   9  -2 -14   -7.80    5.50
  -9  -2  14   -2.50    6.90
   9  -2 -14   34.60   19.30
  -9  -2  14    1.70    9.20
   9   2 -14   23.10   14.50
  -9   2  14    0.90    5.60
   9   2 -14    4.70    7.40
   9   2 -14   12.90    6.50
   8  -2 -14    4.10    5.90
  -8  -2  14   -0.60    4.90
  -8  -2  14   -6.50    5.30
   8  -2 -14   -7.20   18.30
   8   2 -14    6.00    7.20
   8   2 -14    2.20    6.10
  -8   2  14   -1.50    5.50
  -7  -2  14   -6.80    5.70
  -7  -2  14   -5.10    4.50
   7  -2 -14   13.80   20.40
   7  -2 -14   -4.90    5.70
   7   2 -14    2.30    7.00
  -7   2  14    3.80    5.80
   7   2 -14    0.00    5.30
   6  -2 -14   -4.90   15.00
  -6  -2  14   -6.00    8.10
   6  -2 -14   -5.60    4.70
  -6  -2  14   -1.60    6.30
   6   2 -14   -7.40    6.50
  -6   2  14   -2.10    4.80
   6   2 -14  -14.80    3.30
  -5  -2  14   -4.50    7.50
   5  -2 -14   15.30   14.40
  -5  -2  14    6.50    7.00
   5  -2 -14    4.00    5.30
  -5   2  14    2.90    5.50
   5   2 -14    3.50    7.20
   5   2 -14   -0.60    4.50
   4  -2 -14   28.30    7.20
  -4  -2  14   31.90    7.50
   4  -2 -14   45.80   19.40
  -4  -2  14   37.80    9.80
   4   2 -14   32.20    7.80
  -4   2  14   21.90    6.40
   4   2 -14   34.70    8.10
   4   2 -14   16.70    5.00
   3  -2 -14   18.20   14.00
  -3  -2  14   -1.00    5.90
   3  -2 -14   -2.80    4.70
  -3  -2  14    1.10    8.00
   3   2 -14    8.10    6.60
   3   2 -14   10.80    6.40
  -3   2  14    4.60    4.90
  -2  -2  14  -13.30    6.20
  -2  -2  14    1.50    6.20
   2  -2 -14    1.10   11.60
   2  -2 -14   -3.20    4.60
   2   2 -14   -0.40    7.40
  -2   2  14   -2.90    4.60
   2   2 -14    3.80    4.50
   1  -2 -14   14.80   11.90
  -1  -2  14   -7.60    5.30
  -1  -2  14   -3.70    7.40
   1  -2 -14    0.90    4.60
   1   2 -14   -5.40    6.60
  -1   2  14    0.30    4.70
   1   2 -14    2.80    4.40
   0  -2  14   17.50    9.30
   0  -2 -14   23.50   13.90
   0  -2 -14   14.50    6.20
   0  -2  14   10.70    7.20
   0   2 -14   37.00    9.40
   0   2 -14   12.10    5.50
   0   2  14   19.10    6.10
  -1  -2 -14   13.80    6.10
   1  -2  14   22.10    9.90
   1  -2  14   10.80    7.00
  -1   2 -14   18.90    6.70
   1   2  14   27.40    7.30
  -1   2 -14   30.90    9.50
   2  -2  14   -5.30    5.80
   2  -2  14   -7.80    7.30
  -2  -2 -14    0.30    5.10
  -2   2 -14   -2.80    5.00
   2   2  14   -1.80    4.80
  -2   2 -14    4.00    6.50
   3  -2  14    7.20    5.80
   3  -2  14    7.20    7.40
  -3  -2 -14   -3.30    4.70
  -3   2 -14   10.20    7.10
   3   2  14    2.60    5.50
  -3   2 -14   -0.40    7.40
   4  -2  14   -8.20    5.70
  -4  -2 -14   10.70    6.40
   4   2  14   -2.50    5.10
  -4   2 -14    6.00    7.70
  -4   2 -14    2.00    4.70
   5  -2  14    6.70    7.60
  -5  -2 -14    2.70    6.10
  -5   2 -14    4.90    5.70
  -5   2 -14    7.20    7.60
   5   2  14   13.30    6.80
  -6  -2 -14    9.20    8.20
   6  -2  14   15.40    7.30
   6   2  14    9.30    7.50
  -6   2 -14   -7.10    7.00
  -6   2 -14    4.70    6.00
   7  -3 -14  -16.20   20.20
   7  -3 -14   -4.70    5.30
  -7  -3  14    2.60    7.40
  -7   3  14    3.10    4.70
   7   3 -14   -2.20    7.40
  -6  -3  14   -0.90    6.80
   6  -3 -14   -5.90    4.80
   6   3 -14    4.10    7.60
  -6   3  14   -0.60    4.20
  -5  -3  14  -20.90    7.60
   5  -3 -14   -1.40    4.60
   5   3 -14   -4.50    6.20
   5   3 -14   13.00    5.20
  -5   3  14    4.30    4.50
  -4  -3  14    2.70    8.50
  -4   3  14   -2.00    4.30
   4   3 -14   -1.00    4.60
  -3  -3  14    2.60    8.50
   3  -3 -14   15.70    6.20
   3   3 -14    8.40    5.30
   3   3 -14    1.30    5.00
  -3   3  14   -1.50    4.50
  -2  -3  14   47.80   12.60
   2  -3 -14   27.50    6.70
  -2   3  14   34.30    6.40
   2   3 -14   31.10    7.80
   2   3 -14   48.70    9.80
   1  -3 -14    4.40    4.80
  -1  -3  14   11.70    9.70
   1   3 -14    1.80    6.70
  -1   3  14   -2.10    4.50
   0  -3  14    1.00    9.10
   0   3  14   12.10    5.20
   0   3 -14   15.40    6.80
   1  -3  14   -4.00    9.00
  -1  -3 -14    8.80    5.40
  -1   3 -14    5.40    5.70
   1   3  14   -0.50    4.50
  -2  -3 -14   -4.10    4.80
   2  -3  14   -6.70    6.00
   2   3  14   10.30    5.20
  -2   3 -14   -1.10    7.10
 -12   0  15    9.90    6.80
  12   0 -15   -9.80    5.50
  12   0 -15  -28.90   32.90
  12   0 -15   -6.20    9.40
 -12   0  15    6.20    7.10
 -11   0  15    2.80    8.10
  11   0 -15   13.40    7.10
 -11   0  15   13.50    6.90
  11   0 -15   -2.80    7.50
  11   0 -15  -43.20   38.70
  -9   0  15   23.40   10.00
  -9   0  15    3.40    7.70
   9   0 -15   12.10    8.60
   9   0 -15   24.30   30.40
   9   0 -15   10.70    5.30
   8   0 -15   10.60    7.90
  -8   0  15    5.90    5.30
   8   0 -15  -16.30   16.50
  -8   0  15   -3.90    5.20
   8   0 -15  -13.00    4.50
  -7   0  15    1.30    7.40
   7   0 -15   -8.90    4.60
   7   0 -15   -1.00    5.20
   7   0 -15  -20.80   15.70
  -7   0  15    6.20    6.80
   6   0 -15  -18.90   16.10
   6   0 -15  -11.50    6.40
   6   0 -15    2.50    4.10
  -6   0  15    0.60    6.40
  -6   0  15   -5.70    4.30
   5   0 -15   32.50    7.90
   5   0 -15   35.50   19.00
   5   0 -15   24.80    6.80
  -5   0  15   29.40    7.40
  -5   0  15   45.30   10.50
  -4   0  15    2.30    4.90
  -4   0  15   -7.60    5.40
   4   0 -15    0.60    3.50
   4   0 -15   -3.70    6.30
   4   0 -15   -6.00   12.50
  -3   0  15   14.50    6.20
   3   0 -15    8.60    5.50
   3   0 -15   16.50    6.30
   3   0 -15   25.50   14.10
  -3   0  15   25.70    8.80
  -2   0  15   -4.60    5.90
  -2   0  15  -11.80    5.10
   2   0 -15   14.60   11.00
   2   0 -15    8.30    4.30
   2   0 -15    9.40    7.00
   1   0 -15    5.60    5.10
  -1   0  15   -2.10    4.70
   1   0 -15   24.30   12.30
  -1   0  15   -0.90    4.30
   1   0 -15   17.50    7.50
   0   0 -15   19.00   11.70
   0   0  15    3.10    4.70
   0   0  15    2.00    6.70
   0   0 -15    2.00    5.10
   0   0 -15    6.40    5.50
  -1   0 -15   19.20    6.50
   1   0  15    8.10    7.40
   1   0  15    7.40    5.30
  -1   0 -15   11.40    5.70
  -1   0 -15    2.10   11.50
  -2   0 -15   -6.50    5.80
   2   0  15  -11.40    5.70
  -2   0 -15   27.30   11.00
  -2   0 -15   -2.00    5.10
   2   0  15   -4.10    3.90
  -3   0 -15   34.60    7.30
  -3   0 -15   28.90    9.20
   3   0  15   31.50    8.90
   3   0  15   28.10    9.30
  -4   0 -15   -2.60    7.60
   4   0  15   -4.40    4.20
  -4   0 -15   -5.30    5.90
  -5   0 -15   -0.70    5.20
   5   0  15   -0.40    7.40
  -5   0 -15    0.90    4.80
  -6   0 -15   -0.70    4.60
   6   0  15   -3.40    7.00
  -6   0 -15    1.70    6.00
  -7   0 -15   14.80    8.80
   7   0  15   21.30   10.30
  -7   0 -15    6.80    5.80
  11  -1 -15  -14.10   21.00
 -11  -1  15    2.40    6.80
  11  -1 -15    6.20    8.30
 -11  -1  15   -8.30    6.80
 -11   1  15    8.00    8.10
  11   1 -15  -35.70   33.60
  11   1 -15    4.10    7.40
  11   1 -15    1.10    8.70
  10  -1 -15    2.00    7.20
 -10  -1  15    2.40    5.80
  10  -1 -15  -10.00   23.30
 -10  -1  15    6.90    9.60
  10   1 -15    5.60    7.80
 -10   1  15    1.00    5.20
  10   1 -15  -49.50   33.80
  10   1 -15   -3.00    7.70
   8  -1 -15   -8.90    6.00
  -8  -1  15    6.40    7.00
  -8  -1  15   -2.60    6.90
   8  -1 -15  -10.60   18.90
  -8   1  15   -5.70    6.00
   8   1 -15    4.50    5.40
   8   1 -15   80.99   40.20
   8   1 -15   11.70    6.80
  -7  -1  15    0.90    6.50
   7  -1 -15    4.40    5.10
  -7  -1  15   11.20    8.00
   7  -1 -15    1.20    6.60
   7  -1 -15    8.40   17.90
  -7   1  15    6.90    6.60
   7   1 -15   -0.50    6.30
   7   1 -15   -1.10    7.70
   7   1 -15   -8.20   27.10
   6  -1 -15   12.30    5.70
  -6  -1  15   20.80    6.60
   6  -1 -15   17.20    5.50
  -6  -1  15    3.50    8.40
   6  -1 -15    9.20   14.20
  -6   1  15   11.00    6.90
   6   1 -15    7.50    6.10
   6   1 -15   -5.90   21.50
  -6   1  15   10.40    6.60
   6   1 -15    9.30    5.50
   5  -1 -15   13.50    5.20
   5  -1 -15   -3.10   13.60
  -5  -1  15   20.90    8.40
   5  -1 -15   17.60    7.40
  -5  -1  15   10.30    5.80
   5   1 -15   25.20    7.50
  -5   1  15   -0.10    5.80
  -5   1  15   12.20    7.00
   5   1 -15    7.10   20.00
   5   1 -15   10.50    5.50
   4  -1 -15    9.70   18.70
  -4  -1  15   19.20    8.20
   4  -1 -15   11.80    7.10
  -4  -1  15   16.20    7.80
   4  -1 -15   12.30    5.20
  -4   1  15   26.10    8.30
  -4   1  15   12.60    6.80
   4   1 -15   25.10    9.40
   4   1 -15   10.60    6.50
   4   1 -15   30.70   18.50
  -3  -1  15   36.90    8.20
   3  -1 -15   23.60   19.80
   3  -1 -15   22.40    6.00
  -3  -1  15   33.10   10.70
   3  -1 -15   44.80    7.90
   3   1 -15   53.59    9.10
   3   1 -15   21.90   14.80
   3   1 -15   36.80    9.80
  -3   1  15   42.10    8.90
  -3   1  15   38.00    8.50
   2  -1 -15   52.39    8.00
  -2  -1  15   42.90    8.70
   2  -1 -15   35.50   21.30
  -2  -1  15   36.40   10.90
   2  -1 -15   29.60    7.90
  -2   1  15   36.60    8.60
   2   1 -15   37.90    7.30
   2   1 -15   52.69    9.60
  -2   1  15   54.69    9.90
   2   1 -15   42.40   14.90
   1  -1 -15   10.60    4.70
   1  -1 -15   25.40    6.90
  -1  -1  15   24.40    8.60
  -1  -1  15   19.30    6.90
   1   1 -15   21.80    7.20
  -1   1  15   19.90    7.40
  -1   1  15   16.80    5.70
   1   1 -15   31.20   12.50
   1   1 -15   17.80    5.90
   0  -1 -15    6.20    6.10
   0  -1  15    4.90    5.20
   0  -1  15   -7.10    4.70
   0  -1 -15   -1.40    4.10
   0  -1 -15    6.00   17.80
   0   1 -15   -0.60    4.90
   0   1  15    0.20    5.60
   0   1 -15    2.10    4.50
   0   1  15   -1.70    5.60
   1  -1  15   -2.50    4.20
  -1  -1 -15   11.10    4.50
  -1  -1 -15    0.30    6.20
  -1  -1 -15   40.30   17.50
   1  -1  15    2.40    5.90
   1   1  15    4.70    6.00
  -1   1 -15   -0.50    4.20
  -1   1 -15    0.70    5.60
   1   1  15    0.10    4.30
  -2  -1 -15    4.60    4.90
   2  -1  15   11.00    8.70
  -2  -1 -15    5.20    6.60
   2  -1  15   17.30    6.90
   2   1  15   13.90    7.20
  -2   1 -15   14.00    5.80
   2   1  15   15.20    6.90
  -2   1 -15    5.20    7.90
   3  -1  15    1.40    7.10
   3  -1  15    6.90    7.10
  -3  -1 -15   -3.20    4.50
  -3   1 -15   -3.00    4.90
   3   1  15   11.00    7.00
  -3   1 -15  -12.00    5.40
   4  -1  15   -6.30    4.50
  -4  -1 -15   -3.70    5.90
  -4   1 -15   -3.50    7.50
   4   1  15   -4.00    4.10
  -4   1 -15   -3.80    6.40
   5  -1  15   38.90    9.30
  -5  -1 -15   17.90    6.90
  -5   1 -15   22.90    7.20
   5   1  15   24.70    8.80
  -5   1 -15   22.30    8.40
  -6  -1 -15    6.00    6.60
   6  -1  15   -7.20    4.60
  -6   1 -15    7.10    5.80
  -6   1 -15   11.90    6.90
   6   1  15   18.90    9.30
 -10  -2  15   56.79   13.70
 -10  -2  15   12.00    7.00
  10  -2 -15   35.10    9.20
  10   2 -15   27.50   10.00
  10   2 -15   53.49   11.90
 -10   2  15   38.70    9.20
   9  -2 -15   49.80   21.40
  -9  -2  15  -10.10    5.90
  -9  -2  15   -0.90    5.30
   9  -2 -15   -6.90    5.70
   9   2 -15   -1.10    8.20
  -9   2  15    6.90    6.20
   9   2 -15   11.00    7.90
  -8  -2  15    8.40    7.90
   8  -2 -15   -5.70    5.60
   8  -2 -15   35.00   21.00
  -8  -2  15    6.80    7.30
   8   2 -15   -5.00    7.10
   8   2 -15   -2.40    8.10
  -8   2  15  -11.40    5.10
  -7  -2  15   -2.70    8.60
   7  -2 -15   -6.80    5.40
   7  -2 -15   -4.60   18.00
  -7  -2  15   -0.40    7.00
  -7   2  15   -5.80    5.20
   7   2 -15    5.80    5.70
   7   2 -15   -0.10    7.90
   6  -2 -15  -11.10    4.80
   6  -2 -15   -2.60   19.10
  -6  -2  15   -1.10    6.70
  -6  -2  15   -0.60    9.00
   6   2 -15   -8.90    7.30
  -6   2  15   -4.70    5.00
   6   2 -15    0.30    4.90
  -5  -2  15    9.90    6.30
   5  -2 -15   -5.60    5.20
   5  -2 -15   -2.60   19.30
  -5  -2  15    7.60    9.20
   5   2 -15   12.60    6.20
  -5   2  15   15.80    6.80
   5   2 -15    5.40    6.20
  -4  -2  15    0.30    6.50
   4  -2 -15   -5.30   19.30
  -4  -2  15   14.90    6.50
   4  -2 -15    8.20    5.90
  -4   2  15   11.20    6.00
   4   2 -15   19.50    7.60
   4   2 -15    9.10    7.40
   3  -2 -15   24.90   22.00
  -3  -2  15   18.70    8.90
   3  -2 -15    5.60    6.40
  -3  -2  15   10.20    6.00
  -3   2  15    5.80    5.80
   3   2 -15   20.30    7.60
   3   2 -15   10.10    7.60
   2  -2 -15    2.50    5.30
  -2  -2  15    0.20    6.70
  -2  -2  15    1.60    6.80
   2  -2 -15    9.80   18.90
   2   2 -15    0.00    5.60
  -2   2  15   -5.60    4.70
   2   2 -15  -10.80    6.00
  -1  -2  15    0.90    6.60
   1  -2 -15   -0.70   19.80
   1  -2 -15    6.40    5.80
  -1  -2  15   -6.50    5.10
  -1   2  15  -10.60    5.20
   1   2 -15    4.50    7.30
   1   2 -15    1.70    5.50
   0  -2  15   -1.80    5.70
   0  -2 -15   -1.90   14.30
   0  -2  15   -3.10    4.90
   0  -2 -15    5.10    5.00
   0   2 -15    4.40    5.60
   0   2  15   -3.00    5.20
   0   2 -15   -6.40    6.60
   1  -2  15    0.30    5.10
  -1  -2 -15   -1.00    4.90
   1  -2  15    4.00    6.70
  -1   2 -15    9.40    7.20
  -1   2 -15    1.70    5.40
   1   2  15   -7.50    4.30
  -2  -2 -15   -7.20    5.00
   2  -2  15   -0.30    6.80
   2  -2  15   11.80    9.40
  -2   2 -15   12.00    8.20
   2   2  15    3.50    5.80
  -2   2 -15    4.10    5.20
   3  -2  15   -4.00    4.70
   3  -2  15   -1.40    6.40
  -3  -2 -15   -3.60    6.00
  -3   2 -15    1.30    5.10
   3   2  15    0.60    5.50
  -3   2 -15   -6.90    6.30
   4  -2  15    7.10   11.10
  -4  -2 -15    7.30    6.40
   4  -2  15    6.90    8.30
   4   2  15    3.50    6.30
  -4   2 -15    7.10    7.90
  -4   2 -15   -0.40    7.80
  -5  -3  15  -21.80    9.10
   5  -3 -15   -5.40    5.60
   4  -3 -15  -10.40   16.90
   4  -3 -15   -8.10    5.30
  -4  -3  15   -5.60    9.40
  -4   3  15   -1.90    4.60
   4   3 -15    8.30    6.20
   4   3 -15    4.70    4.70
   3  -3 -15    1.30    5.60
   3  -3 -15    0.80   22.70
  -3  -3  15    7.80   10.30
   3   3 -15    9.00    6.00
   3   3 -15    5.10    5.70
  -3   3  15   -0.80    4.60
   2  -3 -15    0.70    5.40
  -2  -3  15   22.50   11.50
   2  -3 -15   -5.80   21.40
  -2   3  15    4.60    4.60
   2   3 -15    8.50    6.20
   2   3 -15    2.30    5.80
   1  -3 -15    3.20   17.70
   1  -3 -15    1.40    5.00
  -1  -3  15    3.10   10.30
   1   3 -15   20.40    8.70
  -1   3  15   -0.50    5.00
 -11   0  16   -6.50    8.30
  11   0 -16  -63.09   40.80
 -11   0  16   18.70    9.10
  11   0 -16   -1.90    9.10
  11   0 -16   -4.90    4.40
  10   0 -16  -40.60   33.10
  10   0 -16   15.90    9.90
 -10   0  16   -2.10    7.30
 -10   0  16    3.50    8.00
  10   0 -16   -6.50    4.20
   9   0 -16   -9.80   29.70
   9   0 -16   -7.60    5.60
  -9   0  16   -4.70    5.10
  -9   0  16    7.00    6.00
   9   0 -16   -1.40    7.90
   8   0 -16  -28.70   26.30
  -8   0  16   39.90    8.70
   8   0 -16   17.40    7.50
  -8   0  16   40.80   11.30
   8   0 -16   35.70    8.80
   7   0 -16   -5.80    7.30
   7   0 -16   -4.70    3.90
  -7   0  16    5.40    8.20
   7   0 -16  -17.80   11.80
  -7   0  16   -5.90    6.90
   6   0 -16   10.00   12.60
   6   0 -16    2.40    7.70
   6   0 -16    4.50    6.00
  -6   0  16   -2.90    5.20
  -6   0  16   -2.80    4.80
  -5   0  16   -7.40    6.20
   5   0 -16   -3.00    5.40
  -5   0  16   -0.10    4.90
   5   0 -16   -1.70    4.90
   5   0 -16    4.10   12.50
  -4   0  16   14.60    9.00
   4   0 -16   32.80    6.80
   4   0 -16   47.60   18.90
   4   0 -16   31.10    9.80
  -4   0  16   32.40    9.20
   3   0 -16   -6.60    5.00
   3   0 -16   -1.50    6.90
   3   0 -16   15.10   13.40
  -3   0  16   -5.30    4.70
  -3   0  16   -2.80    4.20
  -2   0  16    2.10    5.00
  -2   0  16   -0.20    6.70
   2   0 -16    6.80    5.90
   2   0 -16   23.20   13.30
   2   0 -16    8.40    6.50
  -1   0  16    5.90    6.80
   1   0 -16   -2.80    5.20
  -1   0  16   -1.30    6.80
   1   0 -16   29.90   13.10
   1   0 -16   -7.70    4.90
   0   0 -16   12.10    6.30
   0   0  16   10.70    7.10
   0   0 -16   12.70    6.30
   0   0  16   12.00    8.90
  -1   0 -16   -1.90    5.60
   1   0  16   -7.20    6.40
  -1   0 -16   -1.70    4.90
   1   0  16    5.30    5.20
  -2   0 -16   18.00   14.10
  -2   0 -16    9.80    8.30
   2   0  16    9.90    6.30
   2   0  16    4.00    6.40
  -2   0 -16   14.70    6.60
   3   0  16   -0.30    6.90
   3   0  16    8.90    8.40
  -3   0 -16   -0.70    5.20
  -3   0 -16    0.20    4.50
  -4   0 -16   -3.60    7.40
   4   0  16    0.80    7.20
   4   0  16   -5.30    4.70
  -4   0 -16    0.60    6.10
  -5   0 -16   -2.10    6.20
  -5   0 -16   -3.40    9.10
   5   0  16   -1.70    6.40
 -10  -1  16    7.50    8.00
  10  -1 -16   29.60   25.50
  10  -1 -16    7.10    8.70
 -10  -1  16    8.30    9.90
  10   1 -16    2.20    5.40
  10   1 -16   13.70    9.50
  10   1 -16  -68.19   36.50
 -10   1  16   11.70    9.00
   9  -1 -16   -5.60    6.80
   9  -1 -16   40.20   20.00
  -9  -1  16   13.10    7.50
  -9  -1  16  -10.60    6.70
   9   1 -16   -9.10    6.20
   9   1 -16  -33.10   33.70
   9   1 -16    2.30    8.20
  -9   1  16   -0.70    7.00
   8  -1 -16    6.60    7.70
  -8  -1  16   -3.80    7.30
  -8  -1  16   -0.20    6.00
   8  -1 -16  -20.00   20.60
   8   1 -16   69.89   37.60
   8   1 -16   -4.80    8.40
  -8   1  16  -12.50    5.60
   8   1 -16  -11.10    6.00
  -7  -1  16   11.10    9.10
  -7  -1  16   -7.90    6.60
   7  -1 -16   -0.30    6.60
   7  -1 -16  -19.10   19.50
  -7   1  16    2.10    6.50
   7   1 -16   -1.20    7.30
   7   1 -16   -4.10    8.10
   6  -1 -16    5.90    5.70
  -6  -1  16   -2.10    4.90
  -6  -1  16   -2.40    8.30
   6  -1 -16   -4.30   19.80
  -6   1  16    8.70    7.00
   6   1 -16   -2.70    4.00
   6   1 -16   -4.40    5.70
  -5  -1  16   -1.40    8.20
   5  -1 -16   12.60   17.70
  -5  -1  16    0.90    5.00
   5  -1 -16   -4.30    5.70
   5   1 -16    4.60    5.40
  -5   1  16   -6.70    5.80
   5   1 -16    6.20    6.20
   5   1 -16   -6.60   20.70
   4  -1 -16   29.70   17.90
   4  -1 -16    3.40    6.30
  -4  -1  16   17.10    8.00
  -4  -1  16    8.50    7.40
   4   1 -16    0.20   15.40
   4   1 -16    4.50    6.70
   4   1 -16    3.00    8.30
  -4   1  16    9.70    5.30
   3  -1 -16   22.30    7.40
   3  -1 -16   38.40   19.50
  -3  -1  16   21.40    8.60
  -3  -1  16   26.40    9.00
   3   1 -16   36.70   12.70
   3   1 -16    9.10    7.20
  -3   1  16    6.90    6.80
   3   1 -16    8.30    8.90
   2  -1 -16   39.20   18.20
  -2  -1  16    8.80    7.20
   2  -1 -16   16.10    6.00
  -2  -1  16    7.30    7.30
   2   1 -16   -1.90    7.70
   2   1 -16    8.80    7.00
  -2   1  16    2.70    4.80
  -1  -1  16   -5.00    5.50
   1  -1 -16   13.50    6.90
   1  -1 -16   30.90   15.80
  -1  -1  16   -1.80    6.70
  -1   1  16   -8.10    5.80
   1   1 -16    5.20    8.40
   1   1 -16   -5.60    6.00
   0  -1 -16   -0.90    6.50
   0  -1 -16   -5.50   16.90
   0  -1  16    0.00    7.30
   0  -1  16    4.00    6.80
   0   1 -16    7.00    8.20
   0   1 -16    2.80    6.70
   0   1  16    3.70    6.20
  -1  -1 -16   10.70    7.20
   1  -1  16   -9.60    4.30
  -1  -1 -16  -31.20   16.20
   1  -1  16   -2.20    7.00
  -1   1 -16    7.90    6.60
   1   1  16   -0.70    6.30
  -1   1 -16    3.00    4.80
   2  -1  16    4.40    8.40
   2  -1  16    0.20    5.40
  -2  -1 -16   -0.70    6.10
  -2   1 -16   -2.10    4.40
   2   1  16   -9.10    5.50
  -2   1 -16    0.10    7.40
  -3  -1 -16    1.60    5.60
   3  -1  16    6.30    6.90
   3  -1  16   -1.60    7.40
  -3   1 -16    8.30    8.10
   3   1  16    3.90    6.90
  -3   1 -16    1.50    6.90
   4  -1  16   -1.40    7.90
   4  -1  16    4.30    8.40
  -4  -1 -16    4.10    7.60
  -4   1 -16    4.30    7.20
  -4   1 -16   -4.20    7.70
   4   1  16   -5.70    6.70
   5  -1  16    1.60    5.80
  -5  -1 -16   12.60    8.90
  -5   1 -16    9.10    9.30
   5   1  16   10.30    6.90
  -5   1 -16    0.50    7.10
  -8  -2  16   -9.60   10.40
   8  -2 -16  -11.70    6.00
  -8  -2  16    0.50    8.00
   8  -2 -16   34.40   21.80
   8   2 -16   13.60    7.30
  -8   2  16    1.50    6.50
   8   2 -16    6.40    9.40
   7  -2 -16   46.70   18.90
  -7  -2  16    7.60   10.70
  -7  -2  16    6.10    8.00
   7  -2 -16   -8.00    6.40
  -7   2  16   -1.70    5.70
   7   2 -16   -1.50    4.90
   7   2 -16  -17.30    7.10
   6  -2 -16   40.60   16.10
  -6  -2  16   17.50   11.00
  -6  -2  16   33.40    9.20
   6  -2 -16    6.40    6.80
   6   2 -16    9.40    6.40
   6   2 -16   21.90    8.40
  -6   2  16   14.80    6.70
   5  -2 -16  -14.20    5.40
  -5  -2  16   -1.80    5.20
   5  -2 -16   27.80   14.50
  -5  -2  16   -6.80    8.40
   5   2 -16   -0.30    6.00
   5   2 -16   10.60    6.00
  -5   2  16   -3.90    5.50
  -4  -2  16   17.20    7.10
   4  -2 -16    6.10    7.00
  -4  -2  16   11.70   10.10
   4  -2 -16   32.60   16.30
   4   2 -16   12.80    7.60
  -4   2  16    3.80    5.70
   4   2 -16    8.80    6.50
   3  -2 -16   41.00   17.60
   3  -2 -16    2.60    5.90
  -3  -2  16   10.70   10.00
  -3  -2  16   -7.30    4.50
   3   2 -16    2.90    7.20
  -3   2  16   -5.60    4.70
   3   2 -16   -8.80    4.90
  -2  -2  16  -13.00    7.40
   2  -2 -16   -3.70    5.10
   2  -2 -16   36.10   16.90
  -2  -2  16    1.80    5.70
  -2   2  16   -2.70    4.70
   2   2 -16   -0.20    6.00
   2   2 -16    1.40    5.40
  -1  -2  16    9.30    9.70
   1  -2 -16   10.00    6.70
  -1  -2  16    7.30    8.10
   1   2 -16    0.20    5.20
  -1   2  16   14.50    6.90
   1   2 -16   -2.90    7.10
   0  -2 -16   -3.00    5.50
   0  -2  16   -1.40    7.40
   0  -2  16   -1.30    9.10
   0   2 -16   -2.20    7.30
   0   2  16    5.60    5.90
   0   2 -16   -1.10    5.20
   1  -2  16   -2.40    6.90
  -1  -2 -16    9.50    6.90
   1  -2  16   31.90   10.50
   1   2  16    0.30    5.40
  -1   2 -16    6.20    7.30
  -1   2 -16    3.60    8.20
  -2  -2 -16    0.00    6.00
   2  -2  16    6.50   10.70
   2  -2  16    3.20    7.20
  -2   2 -16    4.40    5.60
   2   2  16    4.80    6.30
  -2   2 -16    0.20    8.00
  -3  -2 -16   27.00    8.60
   3  -2  16    1.80    8.20
  -3   2 -16    6.80    8.10
  10   0 -17   -6.40    6.00
 -10   0  17   -3.90    6.10
 -10   0  17   -1.80    6.20
  10   0 -17  -60.99   38.80
  10   0 -17    2.20    7.80
  -9   0  17  -12.60    6.40
   9   0 -17  -25.20   23.90
   9   0 -17   -3.70    6.10
   9   0 -17   -6.00    6.00
  -9   0  17   11.60    9.00
  -8   0  17    2.80    8.50
   8   0 -17   -8.90   14.10
   8   0 -17   -7.90    8.30
  -8   0  17    1.40    7.80
   8   0 -17   -7.30    5.70
   7   0 -17    4.10    8.50
   7   0 -17   13.50   19.00
   7   0 -17    8.80    5.40
  -7   0  17   16.00    9.20
  -7   0  17    5.90    8.10
  -6   0  17   -3.00    5.30
   6   0 -17    2.90    6.10
   6   0 -17    1.70    7.50
  -6   0  17  -10.50    4.00
  -5   0  17    0.40    4.70
   5   0 -17  -25.00   16.50
  -5   0  17   -5.80    4.90
   5   0 -17    1.10    6.30
   5   0 -17   -9.50    4.30
   4   0 -17    0.80   16.90
   4   0 -17    0.50    5.80
  -4   0  17   -3.50    7.00
  -4   0  17   -2.70    7.60
   4   0 -17   -3.40    5.30
   3   0 -17    0.90   15.50
   3   0 -17   27.10    6.80
  -3   0  17    7.40    8.20
   3   0 -17    0.20    7.90
  -3   0  17   21.50    9.60
   2   0 -17   -3.70   13.80
   2   0 -17    0.20    7.70
  -2   0  17   -9.70    6.70
   2   0 -17    6.00    4.90
  -2   0  17    1.30    8.00
  -1   0  17  -12.90    6.00
   1   0 -17  -22.60   11.60
  -1   0  17   -5.00    6.70
   1   0 -17    9.00    8.10
   1   0 -17   -9.90    2.70
   0   0  17   -2.90    7.00
   0   0 -17  -15.20   15.60
   0   0 -17   -3.40    7.00
   0   0 -17   -0.90    4.50
   0   0  17    0.20    7.30
   1   0  17    5.00    8.10
  -1   0 -17   12.50    6.50
  -1   0 -17   12.10    6.50
  -2   0 -17   -4.50    5.40
   2   0  17   -5.60    4.60
   2   0  17    5.90    5.90
  -2   0 -17   -4.70    7.40
   3   0  17   51.89   11.70
  -3   0 -17   44.60   10.80
   3   0  17   35.80   10.60
  -3   0 -17   32.00    8.40
   4   0  17   -4.20    7.80
  -4   0 -17   -6.30    9.10
   4   0  17   -3.10    5.90
  -4   0 -17   -6.30    4.20
   9  -1 -17    3.80   22.40
  -9  -1  17    6.80    7.20
  -9  -1  17    0.80    8.60
   9  -1 -17  -17.10    6.40
   9   1 -17   -3.90    7.80
   9   1 -17    2.50    9.60
  -9   1  17   -3.10    8.20
   9   1 -17   25.50   45.70
  -8  -1  17    1.40    6.90
  -8  -1  17   -4.20    6.90
   8  -1 -17   -2.10    7.70
  -8   1  17    1.60    7.90
   8   1 -17  -63.09   31.90
   8   1 -17   -4.00    7.00
   8   1 -17  -15.40    7.30
  -7  -1  17   15.20    7.60
   7  -1 -17    7.50    8.10
  -7  -1  17   13.30   10.40
   7   1 -17   20.60    8.50
   7   1 -17   11.30    7.90
  -7   1  17    9.10    7.70
   7   1 -17  -33.20   29.70
  -6  -1  17   -3.70    5.20
  -6  -1  17   -7.70    7.80
   6  -1 -17    3.20    7.00
   6  -1 -17   39.90   20.00
   6   1 -17   10.70    5.90
  -6   1  17    7.80    7.30
   6   1 -17    6.60    6.80
  -5  -1  17    0.60    5.40
  -5  -1  17   -8.70    7.80
   5  -1 -17    5.00   18.30
   5  -1 -17   -2.60    7.00
   5   1 -17    6.90    6.90
  -5   1  17    4.10    6.80
   5   1 -17    0.40    4.90
  -4  -1  17   10.60    9.50
   4  -1 -17    3.00    5.60
   4  -1 -17  -26.70   16.40
  -4  -1  17    4.50    6.00
   4   1 -17    0.30    4.80
   4   1 -17    1.90    6.50
  -4   1  17   -0.40    5.70
   3  -1 -17   -6.20   14.80
  -3  -1  17    1.70    8.30
   3  -1 -17    4.50    7.50
  -3  -1  17   -6.80    4.30
   3   1 -17   -0.10    5.90
  -3   1  17    1.60    6.00
   3   1 -17    1.50    4.90
  -2  -1  17   -8.70    4.50
   2  -1 -17  -12.10   13.70
   2  -1 -17   -7.30    6.80
  -2  -1  17    3.10    8.50
   2   1 -17    6.30    6.40
   2   1 -17   -1.00    5.00
  -2   1  17    6.60    6.60
   1  -1 -17   10.30    7.90
   1  -1 -17   28.20   15.80
  -1  -1  17   -2.10    8.00
  -1  -1  17    4.60    6.00
  -1   1  17   -6.70    5.90
   1   1 -17    7.40    6.50
   1   1 -17    5.50    5.50
   0  -1  17    4.60    7.40
   0  -1 -17   -6.70    6.10
   0  -1  17   -0.90    8.20
   0   1 -17   -1.40    6.60
   0   1 -17    3.20    8.30
   0   1  17   -4.10    5.80
  -1  -1 -17    3.50    6.80
   1  -1  17    5.00    7.90
   1  -1  17    8.70    7.70
  -1   1 -17   -5.70    6.40
   1   1  17   -5.80    6.30
  -1   1 -17    4.80    8.20
  -2  -1 -17    8.50    6.10
   2  -1  17   -3.00    8.60
  -2   1 -17    2.30    6.00
  -2   1 -17    6.70    5.20
   2   1  17    5.10    7.60
   3  -1  17    2.30    6.90
   3  -1  17   -3.60    7.70
  -3  -1 -17    1.90    8.10
  -3   1 -17    2.40    8.60
   3   1  17    3.10    5.70
  -3   1 -17   -0.20    6.70
   6  -2 -17    7.20   21.70
  -6  -2  17    2.50    6.20
  -6  -2  17   18.40   12.90
   6  -2 -17    2.30    7.40
  -6   2  17   -5.00    5.90
   6   2 -17    5.20    7.40
   6   2 -17   -4.50    5.70
   5  -2 -17   33.70    8.90
  -5  -2  17   24.60   10.10
  -5  -2  17   15.20   12.40
   5  -2 -17   75.09   25.40
  -5   2  17   32.40    9.40
   5   2 -17   34.20    8.90
   5   2 -17   26.10    9.20
  -4  -2  17    3.00    7.70
   4  -2 -17   -5.00    5.40
  -4  -2  17   -5.60   10.00
  -4   2  17   -5.10    5.50
   4   2 -17    6.70    5.90
   4   2 -17   18.60    8.20
  -3  -2  17    5.90    7.60
   3  -2 -17   -7.80    5.70
  -3  -2  17    9.90   11.30
   3   2 -17  -18.20    6.90
  -3   2  17    1.30    6.40
   3   2 -17   -4.30    4.70
  -2  -2  17   10.30    8.20
   2  -2 -17   -5.70    5.30
  -2  -2  17   -3.40    7.40
  -2   2  17   -9.80    5.20
   2   2 -17   -8.40    8.50
   2   2 -17   -3.60    7.50
   1  -2 -17   -2.30    5.60
  -1  -2  17   -5.70    7.40
  -1  -2  17   -3.30    7.80
  -1   2  17   -0.10    5.90
   1   2 -17   -9.70    7.00
   1   2 -17    4.20    9.00
   0  -2  17   -7.80    5.00
   0  -2 -17    7.30    7.10
   0  -2  17  -14.10    9.90
   0   2 -17    6.80    6.50
   0   2 -17   -9.70    7.20
   0   2  17    0.20    7.20
  -8   0  18    8.80    8.40
   8   0 -18  -42.20   25.10
  -8   0  18   -1.20    8.80
   8   0 -18   -9.20    9.10
   8   0 -18    6.40    6.10
  -7   0  18    0.80    7.70
   7   0 -18   -7.10    9.30
  -7   0  18    9.40    8.50
   7   0 -18    2.20    5.20
  -6   0  18  -10.40    6.90
   6   0 -18   -0.80    9.10
   6   0 -18    5.10    6.80
  -6   0  18   -5.40    6.70
   5   0 -18    3.60    8.60
   5   0 -18   -2.90    6.00
  -5   0  18   -4.90    5.00
  -5   0  18   -3.10    5.70
  -4   0  18    9.10    6.50
   4   0 -18   21.20    7.50
  -4   0  18    4.60    6.30
   4   0 -18   -5.90    5.60
  -3   0  18    3.90    6.00
   3   0 -18    0.60    5.90
  -2   0  18   12.70    7.50
   2   0 -18    4.90    6.60
   1   0 -18   -3.00    8.30
  -1   0  18   -1.60    4.90
   0   0 -18   -1.10    8.10
   0   0  18   -6.20    6.80
   0   0  18    7.50    8.20
   0   0 -18    6.60    5.10
   1   0  18   -6.40    7.40
   1   0  18   -4.70    7.30
  -1   0 -18   -3.30    6.40
  -1   0 -18    1.90    6.80
  -2   0 -18   12.20   10.20
   2   0  18    7.70    6.70
   2   0  18    0.90    8.50
  -2   0 -18    6.70    6.50
  -7  -1  18   -0.30    6.80
   7  -1 -18   32.80   18.10
  -7  -1  18    8.50    7.70
   7  -1 -18   -1.10    8.50
   7   1 -18    4.60    7.00
  -7   1  18   15.60    8.60
   7   1 -18    5.20    8.30
   6  -1 -18   -3.90    5.80
  -6  -1  18   -1.60    5.90
  -6  -1  18  -15.90    7.30
   6   1 -18  -10.60    5.90
  -6   1  18   -0.60    7.60
   6   1 -18  -12.40    6.00
   5  -1 -18    8.80    8.20
  -5  -1  18    0.30    5.30
  -5  -1  18   -1.20    8.90
   5   1 -18    8.00    7.30
  -5   1  18   11.20    7.90
   5   1 -18   -0.50    7.00
  -4  -1  18    2.20    6.00
  -4  -1  18    2.80    7.00
   4  -1 -18   -6.10    6.90
   4   1 -18   -2.80    5.90
  -4   1  18   -5.50    6.40
   4   1 -18   -3.30    6.70
   3  -1 -18    3.00    7.60
  -3  -1  18  -13.20    6.70
  -3  -1  18   -6.20    5.30
  -3   1  18    4.80    7.40
   3   1 -18   -6.80    8.10
   3   1 -18    4.10    7.70
  -2  -1  18  -11.80    6.30
   2  -1 -18   -2.60    7.00
  -2  -1  18   -6.30    5.90
   2   1 -18    2.90    8.70
   2   1 -18    4.60    7.40
  -2   1  18   -6.10    6.80
  -1  -1  18   -3.40    8.10
   1  -1 -18   10.80    8.20
  -1  -1  18    6.30    8.30
   1   1 -18    3.40    5.40
  -1   1  18    9.80    8.10
   1   1 -18    5.20    8.90
   0  -1  18   -0.40    6.10
   0  -1 -18    5.00    8.00
   0  -1  18    3.10    9.20
   0   1 -18    8.40    7.70
   0   1  18    6.90    8.00
   0   1 -18    6.40    6.00
  -1  -1 -18    3.40    7.90
   4   0 -19  -16.70    8.50
   4   0 -19    5.80    5.20
  -4   0  19   -6.00    7.90
   3   0 -19   -9.40    9.00
   3   0 -19   20.00    6.60
  -3   0  19   10.20    9.40
  -3   0  19   18.10    9.80
   2   0 -19   -0.80    6.30
   2   0 -19    6.60    9.40
  -2   0  19    4.90    8.30
  -2   0  19   -1.70    7.90
;
_shelx_hkl_checksum              21042
_shelx_res_file
;
    8.res created by SHELXL-2014/7
TITL 8 in P2(1)/n
CELL  0.71073  12.1967   3.7559  14.4539   90.000  102.143   90.000
ZERR     4.00   0.0009   0.0002   0.0010    0.000    0.003    0.000
LATT   1
SYMM  1/2 - X, 1/2 + Y, 1/2 - Z
SFAC  C    H    N    O    F
UNIT  24   20   8    8    4
MERG   2
OMIT    -1   0   1
EQIV $1 -x+1, -y+3, -z+2
HTAB C6 O2_$1
EQIV $2 x-1/2, -y+5/2, z-1/2
HTAB N2 O1_$2
FMAP   2
PLAN   20
ACTA
BOND
OMIT -3 50
SIZE 0.25 0.15 0.2
BOND   $H
CONF
L.S.  10
TEMP    23.00
WGHT    0.045300    0.128700
FVAR       0.93146
C1    1    0.245137    1.076703    0.944485    11.00000    0.03761    0.03704 =
         0.03526   -0.00036    0.00550    0.01030
C2    1    0.163703    0.907596    0.983281    11.00000    0.02955    0.03891 =
         0.05516   -0.00961    0.00152    0.00488
C3    1    0.176262    0.826794    1.077279    11.00000    0.03910    0.03576 =
         0.05971   -0.00127    0.02314   -0.00105
AFIX  43
H3    2    0.118734    0.715677    1.099533    11.00000   -1.20000
AFIX   0
C4    1    0.275529    0.912702    1.138462    11.00000    0.04990    0.03582 =
         0.03801    0.00062    0.01636    0.00436
AFIX  43
H4    2    0.286864    0.860029    1.202644    11.00000   -1.20000
AFIX   0
C5    1    0.357208    1.078749    1.101510    11.00000    0.03414    0.02937 =
         0.03447   -0.00243    0.00672    0.00404
C6    1    0.344639    1.159296    1.006922    11.00000    0.03434    0.03414 =
         0.03642   -0.00006    0.01174    0.00399
AFIX  43
H6    2    0.402680    1.268707    0.984991    11.00000   -1.20000
AFIX   0
N1    3    0.461587    1.183579    1.166065    11.00000    0.04328    0.04752 =
         0.03867   -0.00306    0.00353    0.00412
N2    3    0.227844    1.142625    0.848633    11.00000    0.04908    0.07496 =
         0.03996    0.00382   -0.00156    0.00345
O1    4    0.473617    1.106367    1.249209    11.00000    0.08317    0.12297 =
         0.03404    0.00899   -0.00531   -0.02180
O2    4    0.532007    1.347238    1.135045    11.00000    0.04141    0.08480 =
         0.05954    0.00218    0.00561   -0.01437
F1    5    0.065985    0.823279    0.923108    11.00000    0.03752    0.07959 =
         0.07551   -0.01349   -0.00008   -0.00465
H2B   2    0.158254    1.154944    0.823041    11.00000    0.07359
H2A   2    0.270873    1.292938    0.830228    11.00000    0.08327
HKLF 4
REM  8 in P2(1)/n
REM R1 =  0.0380 for     731 Fo > 4sig(Fo)  and  0.0695 for all    1124 data
REM    108 parameters refined using      0 restraints
END
WGHT      0.0340      0.2522
REM Highest difference peak  0.146,  deepest hole -0.186,  1-sigma level  0.037
Q1    1   0.4970  1.1141  1.2764  11.00000  0.05    0.15
Q2    1   0.5229  1.0134  1.2188  11.00000  0.05    0.13
Q3    1   0.4076  0.9354  1.2507  11.00000  0.05    0.12
Q4    1   0.0931  0.8029  0.8616  11.00000  0.05    0.12
Q5    1   0.3257  0.9684  1.1116  11.00000  0.05    0.12
Q6    1   0.3265  1.2158  1.0649  11.00000  0.05    0.12
Q7    1   0.1233  0.9163  0.9594  11.00000  0.05    0.12
Q8    1   0.3898  1.3822  0.9701  11.00000  0.05    0.11
Q9    1   0.2853  1.2239  0.9787  11.00000  0.05    0.11
Q10   1   0.4315  0.6669  1.2583  11.00000  0.05    0.11
Q11   1   0.3014  1.1374  1.1214  11.00000  0.05    0.11
Q12   1   0.5207  1.1764  1.2983  11.00000  0.05    0.11
Q13   1   0.5825  1.6605  1.1768  11.00000  0.05    0.11
Q14   1   0.1861  0.7837  1.0193  11.00000  0.05    0.11
Q15   1   0.4646  1.3636  1.2351  11.00000  0.05    0.11
Q16   1   0.3948  1.1187  1.1225  11.00000  0.05    0.10
Q17   1   0.1988  1.0973  0.9778  11.00000  0.05    0.10
Q18   1   0.3043  0.9964  0.9741  11.00000  0.05    0.10
Q19   1   0.0370  0.9524  0.8072  11.00000  0.05    0.10
Q20   1   0.3211  0.8096  0.9236  11.00000  0.05    0.10
;
_shelx_res_checksum              52641
loop_
_space_group_symop_operation_xyz
'x, y, z'
'-x+1/2, y+1/2, -z+1/2'
'-x, -y, -z'
'x-1/2, -y-1/2, z-1/2'
loop_
_atom_site_type_symbol
_atom_site_label
_atom_site_fract_x
_atom_site_fract_y
_atom_site_fract_z
_atom_site_U_iso_or_equiv
_atom_site_adp_type
_atom_site_calc_flag
_atom_site_occupancy
C C1 0.24514(17) 1.0767(5) 0.94448(14) 0.0370(5) Uani d 1
C C2 0.16370(17) 0.9076(5) 0.98328(16) 0.0423(6) Uani d 1
C C3 0.17626(19) 0.8268(5) 1.07728(16) 0.0430(6) Uani d 1
H H3 0.1187 0.7157 1.0995 0.052 Uiso calc 1
C C4 0.27553(18) 0.9127(5) 1.13846(15) 0.0402(6) Uani d 1
H H4 0.2869 0.8600 1.2026 0.048 Uiso calc 1
C C5 0.35721(17) 1.0787(5) 1.10151(13) 0.0327(5) Uani d 1
C C6 0.34464(17) 1.1593(5) 1.00692(13) 0.0343(5) Uani d 1
H H6 0.4027 1.2687 0.9850 0.041 Uiso calc 1
N N1 0.46159(16) 1.1836(4) 1.16606(12) 0.0439(5) Uani d 1
N N2 0.2278(2) 1.1426(7) 0.84863(14) 0.0563(6) Uani d 1
O O1 0.47362(16) 1.1064(6) 1.24921(11) 0.0826(7) Uani d 1
O O2 0.53201(14) 1.3472(5) 1.13505(11) 0.0627(5) Uani d 1
F F1 0.06598(11) 0.8233(4) 0.92311(10) 0.0660(5) Uani d 1
H H2B 0.158(2) 1.155(7) 0.8230(19) 0.074(9) Uiso d 1
H H2A 0.271(2) 1.293(7) 0.830(2) 0.083(11) Uiso d 1
loop_
_atom_site_aniso_label
_atom_site_aniso_U_11
_atom_site_aniso_U_22
_atom_site_aniso_U_33
_atom_site_aniso_U_12
_atom_site_aniso_U_13
_atom_site_aniso_U_23
C1 0.0376(13) 0.0370(12) 0.0353(11) 0.0103(11) 0.0055(10) -0.0004(10)
C2 0.0295(13) 0.0389(12) 0.0552(14) 0.0049(10) 0.0015(11) -0.0096(11)
C3 0.0391(14) 0.0358(12) 0.0597(15) -0.0010(11) 0.0231(12) -0.0013(10)
C4 0.0499(15) 0.0358(12) 0.0380(11) 0.0044(11) 0.0164(11) 0.0006(10)
C5 0.0341(12) 0.0294(10) 0.0345(11) 0.0040(9) 0.0067(9) -0.0024(9)
C6 0.0343(12) 0.0341(11) 0.0364(11) 0.0040(10) 0.0117(10) -0.0001(9)
N1 0.0433(12) 0.0475(11) 0.0387(11) 0.0041(10) 0.0035(9) -0.0031(9)
N2 0.0491(15) 0.0750(16) 0.0400(12) 0.0034(14) -0.0016(11) 0.0038(11)
O1 0.0832(15) 0.1230(16) 0.0340(10) -0.0218(12) -0.0053(9) 0.0090(11)
O2 0.0414(10) 0.0848(12) 0.0595(11) -0.0144(10) 0.0056(9) 0.0022(9)
F1 0.0375(8) 0.0796(10) 0.0755(10) -0.0046(7) -0.0001(7) -0.0135(8)
loop_
_atom_type_symbol
_atom_type_description
_atom_type_scat_dispersion_real
_atom_type_scat_dispersion_imag
_atom_type_scat_source
C C 0.0033 0.0016 'International Tables Vol C Tables 4.2.6.8 and 6.1.1.4'
H H 0.0000 0.0000 'International Tables Vol C Tables 4.2.6.8 and 6.1.1.4'
N N 0.0061 0.0033 'International Tables Vol C Tables 4.2.6.8 and 6.1.1.4'
O O 0.0106 0.0060 'International Tables Vol C Tables 4.2.6.8 and 6.1.1.4'
F F 0.0171 0.0103 'International Tables Vol C Tables 4.2.6.8 and 6.1.1.4'
loop_
_geom_angle_atom_site_label_1
_geom_angle_atom_site_label_2
_geom_angle_atom_site_label_3
_geom_angle
N2 C1 C6 122.8(2)
N2 C1 C2 121.0(2)
C6 C1 C2 116.15(19)
F1 C2 C3 119.0(2)
F1 C2 C1 116.9(2)
C3 C2 C1 124.1(2)
C2 C3 C4 119.0(2)
C2 C3 H3 120.5
C4 C3 H3 120.5
C5 C4 C3 117.85(19)
C5 C4 H4 121.1
C3 C4 H4 121.1
C4 C5 C6 123.2(2)
C4 C5 N1 118.56(18)
C6 C5 N1 118.27(18)
C5 C6 C1 119.77(19)
C5 C6 H6 120.1
C1 C6 H6 120.1
O1 N1 O2 122.5(2)
O1 N1 C5 118.28(19)
O2 N1 C5 119.18(18)
C1 N2 H2B 111.9(18)
C1 N2 H2A 117(2)
H2B N2 H2A 117(3)
loop_
_geom_bond_atom_site_label_1
_geom_bond_atom_site_label_2
_geom_bond_distance
C1 N2 1.379(3)
C1 C6 1.387(3)
C1 C2 1.392(3)
C2 F1 1.357(2)
C2 C3 1.369(3)
C3 C4 1.379(3)
C3 H3 0.9300
C4 C5 1.375(3)
C4 H4 0.9300
C5 C6 1.377(3)
C5 N1 1.465(3)
C6 H6 0.9300
N1 O1 1.215(2)
N1 O2 1.216(2)
N2 H2B 0.85(3)
N2 H2A 0.85(3)
loop_
_geom_hbond_atom_site_label_D
_geom_hbond_atom_site_label_H
_geom_hbond_atom_site_label_A
_geom_hbond_site_symmetry_A
_geom_hbond_distance_DH
_geom_hbond_distance_HA
_geom_hbond_distance_DA
_geom_hbond_angle_DHA
N2 H2B F1 . 0.85(3) 2.37(3) 2.718(3) 105(2)
N2 H2B O1 4_585 0.85(3) 2.45(3) 3.270(3) 162(2)
C6 H6 O2 3_687 0.93 2.51 3.348(3) 150
loop_
_geom_torsion_atom_site_label_1
_geom_torsion_atom_site_label_2
_geom_torsion_atom_site_label_3
_geom_torsion_atom_site_label_4
_geom_torsion
N2 C1 C2 F1 -2.2(3)
C6 C1 C2 F1 -179.70(16)
N2 C1 C2 C3 178.47(19)
C6 C1 C2 C3 1.0(3)
F1 C2 C3 C4 -179.95(17)
C1 C2 C3 C4 -0.7(3)
C2 C3 C4 C5 0.4(3)
C3 C4 C5 C6 -0.6(3)
C3 C4 C5 N1 177.80(17)
C4 C5 C6 C1 1.0(3)
N1 C5 C6 C1 -177.43(16)
N2 C1 C6 C5 -178.51(18)
C2 C1 C6 C5 -1.1(3)
C4 C5 N1 O1 3.0(3)
C6 C5 N1 O1 -178.58(19)
C4 C5 N1 O2 -176.16(18)
C6 C5 N1 O2 2.3(3)

_cod_database_fobs_code 1549130
