#------------------------------------------------------------------------------
#$Date: 2018-09-01 05:27:43 +0300 (Sat, 01 Sep 2018) $
#$Revision: 210294 $
#$URL: file:///home/coder/svn-repositories/cod/cif/1/54/98/1549871.cif $
#------------------------------------------------------------------------------
#
# This file is available in the Crystallography Open Database (COD),
# http://www.crystallography.net/. The original data for this entry
# were provided by IUCr Journals, http://journals.iucr.org/.
#
# The file may be used within the scientific community so long as
# proper attribution is given to the journal article from which the
# data were obtained.
#
data_1549871
loop_
_publ_author_name
'Grinev, Vyacheslav S.'
'Osipov, Alexander K.'
'Yegorova, Alevtina Yu.'
_publ_section_title
;
 (<i>Z</i>)-3-[(3,5-Dichloroanilino)methylidene]-5-(4-methylphenyl)furan-2(3<i>H</i>)-one
;
_journal_coeditor_code           VM4038
_journal_issue                   8
_journal_name_full               IUCrData
_journal_page_first              x181224
_journal_paper_doi               10.1107/S2414314618012245
_journal_volume                  3
_journal_year                    2018
_chemical_formula_iupac          'C18 H13 Cl2 N O2'
_chemical_formula_moiety         'C18 H13 Cl2 N O2'
_chemical_formula_sum            'C18 H13 Cl2 N O2'
_chemical_formula_weight         346.19
_chemical_name_systematic
(<i>Z</i>)-3-[(3,5-Dichloroanilino)methylidene]-5-(4-methylphenyl)furan-2(3<i>H</i>)-one
_space_group_crystal_system      triclinic
_space_group_IT_number           2
_space_group_name_Hall           '-P 1'
_space_group_name_H-M_alt        'P -1'
_symmetry_space_group_name_Hall  '-P 1'
_symmetry_space_group_name_H-M   'P -1'
_atom_sites_solution_hydrogens   mixed
_audit_creation_method
;
Olex2 1.2
(compiled 2017.01.04 svn.r3372 for OlexSys, GUI svn.r5292)
;
_cell_angle_alpha                86.076(2)
_cell_angle_beta                 72.382(2)
_cell_angle_gamma                81.325(2)
_cell_formula_units_Z            2
_cell_length_a                   7.4005(8)
_cell_length_b                   10.4272(11)
_cell_length_c                   10.5704(11)
_cell_measurement_reflns_used    9480
_cell_measurement_temperature    120
_cell_measurement_theta_max      33.614
_cell_measurement_theta_min      2.793
_cell_volume                     768.30(14)
_computing_cell_refinement
;
SAINT (Bruker, 2013)
;
_computing_data_collection
;
APEX2 (Bruker, 2013)
;
_computing_data_reduction
;
SAINT (Bruker, 2013)
;
_computing_molecular_graphics
;
<i>OLEX2</i> (Dolomanov <i>et al.</i>,  2009)
;
_computing_publication_material
;
publCIF (Westrip, 2010)
;
_computing_structure_refinement
;
SHELXL2016 (Sheldrick, 2015b)
;
_computing_structure_solution
;
SHELXT2014 (Sheldrick, 2015a)
;
_diffrn_ambient_temperature      120
_diffrn_measured_fraction_theta_full 1.000
_diffrn_measured_fraction_theta_max 1.000
_diffrn_measurement_device_type  'Bruker APEXII CCD'
_diffrn_measurement_method       '\f and \w scans'
_diffrn_radiation_type           MoK\a
_diffrn_radiation_wavelength     0.71073
_diffrn_reflns_av_R_equivalents  0.0194
_diffrn_reflns_limit_h_max       9
_diffrn_reflns_limit_h_min       -9
_diffrn_reflns_limit_k_max       14
_diffrn_reflns_limit_k_min       -14
_diffrn_reflns_limit_l_max       14
_diffrn_reflns_limit_l_min       -14
_diffrn_reflns_number            14989
_diffrn_reflns_theta_full        25.242
_diffrn_reflns_theta_max         28.699
_diffrn_reflns_theta_min         1.976
_diffrn_standards_number         0
_exptl_absorpt_coefficient_mu    0.431
_exptl_absorpt_correction_T_max  0.7466
_exptl_absorpt_correction_T_min  0.6701
_exptl_absorpt_correction_type   multi-scan
_exptl_absorpt_process_details
;
(SADABS; Bruker, 2013)
;
_exptl_crystal_colour            'metallic orangish yellow'
_exptl_crystal_density_diffrn    1.496
_exptl_crystal_description       needle
_exptl_crystal_F_000             356
_exptl_crystal_size_max          0.6
_exptl_crystal_size_mid          0.1
_exptl_crystal_size_min          0.1
_refine_diff_density_max         0.649
_refine_diff_density_min         -0.255
_refine_ls_extinction_method     none
_refine_ls_goodness_of_fit_ref   1.047
_refine_ls_hydrogen_treatment    mixed
_refine_ls_matrix_type           full
_refine_ls_number_parameters     213
_refine_ls_number_reflns         3956
_refine_ls_number_restraints     0
_refine_ls_restrained_S_all      1.047
_refine_ls_R_factor_all          0.0398
_refine_ls_R_factor_gt           0.0360
_refine_ls_shift/su_max          0.000
_refine_ls_shift/su_mean         0.000
_refine_ls_structure_factor_coef Fsqd
_refine_ls_weighting_details
'w=1/[\s^2^(Fo^2^)+(0.0584P)^2^+0.3381P] where P=(Fo^2^+2Fc^2^)/3'
_refine_ls_weighting_scheme      calc
_refine_ls_wR_factor_gt          0.0990
_refine_ls_wR_factor_ref         0.1023
_reflns_number_gt                3576
_reflns_number_total             3956
_reflns_threshold_expression     'I > 2\s(I)'
_cod_data_source_file            vm4038sup1.cif
_cod_data_source_block           I
_cod_database_code               1549871
_shelx_space_group_comment
;
The symmetry employed for this shelxl refinement is uniquely defined
by the following loop, which should always be used as a source of
symmetry information in preference to the above space-group names.
They are only intended as comments.
;
_shelx_hkl_file
;
  -1   0   0   16.30    0.50
  -1   0   0   15.30    0.30
   1   0   0   14.60    0.30
   1   0   0   15.60    0.30
   1   0   0   15.70    0.40
  -2   0   0 3068.99   48.70
  -2   0   0 3237.28   47.70
  -2   0   0 3115.39   49.40
   2   0   0 3184.08   48.50
   2   0   0 3137.29   45.80
   2   0   0 3190.08   46.40
  -3   0   0  111.19    2.50
  -3   0   0  112.29    2.20
  -3   0   0  109.49    1.70
   3   0   0  111.49    1.90
   3   0   0  112.29    2.40
  -4   0   0  105.89    2.30
  -4   0   0  102.59    2.60
  -4   0   0   99.09    1.60
   4   0   0  100.59    1.80
  -5   0   0  241.58    5.10
  -5   0   0  245.78    4.50
  -5   0   0  234.28    3.60
   5   0   0  236.88    3.90
   5   0   0  237.28    4.80
  -6   0   0    0.80    0.50
  -6   0   0    1.20    0.40
   6   0   0    1.00    0.40
   6   0   0    1.80    0.20
  -7   0   0   68.19    2.10
  -7   0   0   66.29    2.70
   7   0   0   68.29    2.40
  -8   0   0   16.70    1.50
  -8   0   0   16.30    1.10
   8   0   0   14.30    1.20
  -9   0   0    8.40    0.90
  -9   0   0    9.20    1.50
   9   0   0    8.30    1.10
 -10   0   0    1.10    0.50
 -10   0   0    1.50    0.90
  10   0   0    1.00    0.70
  10  -1   0    4.10    0.90
 -10   1   0    5.70    0.90
 -10   1   0    7.00    1.50
   9  -1   0    3.20    0.80
  -9   1   0    4.20    1.20
  -9   1   0    3.80    0.80
   8  -1   0    1.60    0.60
  -8   1   0    1.70    0.80
  -8   1   0    1.80    0.60
   7  -1   0    9.40    0.50
   7  -1   0    8.60    0.90
  -7   1   0   10.30    1.20
  -7   1   0    9.10    0.80
   6  -1   0    0.50    0.30
   6  -1   0    0.70    0.20
  -6   1   0    0.50    0.40
  -6   1   0   -0.30    0.20
   5  -1   0  208.18    3.50
   5  -1   0  203.78    4.30
  -5   1   0  209.08    4.70
  -5   1   0  210.88    4.10
   4  -1   0  180.58    3.70
   4  -1   0  183.98    3.00
  -4   1   0  179.78    3.90
  -4   1   0  188.68    3.50
  -4   1   0  177.38    2.70
   3  -1   0  320.07    4.60
   3  -1   0  311.87    4.80
   3  -1   0  316.07    5.40
  -3   1   0  304.07    4.60
  -3   1   0  312.97    5.60
  -3   1   0  317.87    5.20
   2  -1   0 3761.72   57.39
   2  -1   0 3834.12   58.09
   2  -1   0 3782.82   56.09
  -2   1   0 3835.12   55.09
  -2   1   0 3852.11   57.49
  -2   1   0 3755.12   58.69
   1  -1   0  214.68    3.30
   1  -1   0  218.68    3.40
  -1   1   0  217.08    3.50
  -1   1   0  217.28    3.40
  -1   1   0  216.28    3.20
  -1   1   0  219.38    3.20
   0  -1   0   51.69    0.80
   0  -1   0   50.59    0.80
   0   1   0   50.89    0.90
   0   1   0   48.60    0.80
  -1  -1   0  327.47    4.70
  -1  -1   0  325.77    5.00
  -1  -1   0  319.07    4.80
  -1  -1   0  326.87    4.90
   1   1   0  325.47    4.90
   1   1   0  310.77    4.70
  -2  -1   0  759.22   11.30
  -2  -1   0  756.72   11.60
  -2  -1   0  747.03   11.30
   2   1   0  764.72   11.40
   2   1   0  762.32   11.10
  -3  -1   0  116.59    2.60
  -3  -1   0  115.89    1.80
  -3  -1   0  114.69    2.20
   3   1   0  119.39    2.40
   3   1   0  118.59    1.90
  -4  -1   0  594.84   10.10
  -4  -1   0  612.94    9.50
  -4  -1   0  586.54    8.80
   4   1   0  609.34    9.00
   4   1   0  609.84    9.80
  -5  -1   0    0.10    0.10
  -5  -1   0    0.00    0.20
  -5  -1   0    0.30    0.30
   5   1   0    0.00    0.20
   5   1   0    0.10    0.10
  -6  -1   0    5.00    0.60
  -6  -1   0    4.90    0.80
   6   1   0    4.40    0.30
   6   1   0    4.10    0.60
  -7  -1   0    8.20    0.80
  -7  -1   0    8.80    1.10
   7   1   0    8.50    0.90
  -8  -1   0    3.50    0.90
  -8  -1   0    3.70    0.60
   8   1   0    3.20    0.70
  -9  -1   0    3.80    1.10
  -9  -1   0    3.10    0.70
   9   1   0    3.20    0.80
 -10  -1   0   19.10    1.90
 -10  -1   0   17.20    1.30
  10   1   0   17.30    1.50
  10  -2   0    3.20    0.90
 -10   2   0    6.30    1.40
 -10   2   0    4.70    0.80
   9  -2   0    4.50    0.90
  -9   2   0    5.80    1.30
  -9   2   0    6.40    0.90
  -8   2   0    0.30    0.40
  -8   2   0    0.50    0.70
   7  -2   0   21.50    1.30
   7  -2   0   21.40    0.80
  -7   2   0   19.70    1.20
  -7   2   0   20.20    1.50
   6  -2   0   82.09    1.70
   6  -2   0   81.89    2.50
  -6   2   0   81.69    2.30
  -6   2   0   81.99    2.80
   5  -2   0   40.00    1.50
   5  -2   0   40.60    1.00
  -5   2   0   41.30    1.40
  -5   2   0   38.40    1.70
   4  -2   0  258.07    4.20
   4  -2   0  259.47    4.90
  -4   2   0  261.17    5.20
  -4   2   0  255.27    3.80
  -4   2   0  263.27    4.70
   3  -2   0  214.88    3.90
   3  -2   0  211.38    3.50
  -3   2   0  217.78    4.20
  -3   2   0  212.28    3.20
  -3   2   0  213.68    3.80
   2  -2   0  216.78    3.70
   2  -2   0  209.28    3.40
  -2   2   0  217.98    3.20
  -2   2   0  215.98    3.90
  -2   2   0  215.78    3.60
   1  -2   0  261.87    4.00
   1  -2   0  262.27    4.00
   1  -2   0  270.27    4.20
  -1   2   0  262.77    4.10
  -1   2   0  268.37    4.20
   0  -2   0   61.49    1.00
   0  -2   0   60.19    0.90
   0   2   0   57.29    1.00
   0   2   0   61.19    1.10
  -1  -2   0  165.08    2.50
  -1  -2   0  155.18    2.50
  -1  -2   0  155.48    2.40
  -1  -2   0  168.78    2.50
   1   2   0  161.08    2.80
   1   2   0  151.78    2.40
  -2  -2   0   49.50    0.90
  -2  -2   0   52.39    1.30
  -2  -2   0   49.20    1.00
  -2  -2   0   50.09    0.90
   2   2   0   51.79    1.20
  -3  -2   0   24.50    0.80
  -3  -2   0   24.50    0.50
  -3  -2   0   24.30    1.00
   3   2   0   24.50    0.60
   3   2   0   25.80    0.90
  -4  -2   0    0.70    0.20
  -4  -2   0    0.60    0.10
  -4  -2   0    0.90    0.30
   4   2   0    0.70    0.10
   4   2   0    0.40    0.20
  -5  -2   0    0.20    0.30
  -5  -2   0    0.10    0.20
  -5  -2   0    0.40    0.10
   5   2   0    0.50    0.10
   5   2   0    0.40    0.20
  -6  -2   0    3.40    0.20
  -6  -2   0    3.40    0.70
  -6  -2   0    3.10    0.50
   6   2   0    3.10    0.30
   6   2   0    3.00    0.60
  -7  -2   0    0.40    0.30
  -7  -2   0    0.50    0.50
   7   2   0    0.50    0.30
  -8  -2   0   34.40    1.50
  -8  -2   0   35.40    2.10
   8   2   0   35.80    1.80
  -9  -2   0   -0.30    0.60
  -9  -2   0   -0.10    0.40
   9   2   0   -0.20    0.30
 -10  -2   0    4.20    0.80
 -10  -2   0    3.90    1.10
  10   2   0    4.60    0.90
   9  -3   0    1.70    0.70
  -9   3   0    2.70    0.70
  -9   3   0    2.50    1.00
   8  -3   0   35.40    1.90
  -8   3   0   38.30    1.80
  -8   3   0   37.30    2.30
   7  -3   0    6.30    0.50
   7  -3   0    5.40    0.80
  -7   3   0    6.70    0.90
  -7   3   0    7.20    1.20
   6  -3   0    2.20    0.30
   6  -3   0    3.00    0.60
  -6   3   0    3.50    0.60
  -6   3   0    2.60    0.70
   5  -3   0   16.60    0.70
   5  -3   0   16.20    1.00
  -5   3   0   16.90    1.10
  -5   3   0   16.90    1.00
   4  -3   0    3.90    0.50
   4  -3   0    4.60    0.30
  -4   3   0    3.90    0.60
  -4   3   0    4.50    0.60
  -4   3   0    4.20    0.20
   3  -3   0   28.50    0.80
   3  -3   0   28.50    1.00
  -3   3   0   30.40    1.00
  -3   3   0   29.30    0.60
  -3   3   0   30.00    1.20
   2  -3   0   20.60    0.70
   2  -3   0   20.70    0.60
  -2   3   0   20.90    0.80
  -2   3   0   19.50    0.70
   1  -3   0  368.26    5.60
   1  -3   0  373.26    5.60
   1  -3   0  361.56    5.80
  -1   3   0  358.06    5.80
  -1   3   0  373.26    5.70
   0  -3   0   40.60    0.80
   0  -3   0   41.30    0.80
   0  -3   0   39.20    0.70
   0   3   0   40.90    0.90
   0   3   0   38.70    0.70
   0   3   0   40.90    1.00
  -1  -3   0  320.67    5.00
  -1  -3   0  334.17    5.10
  -1  -3   0  349.17    5.00
  -1  -3   0  330.97    5.00
   1   3   0  334.07    5.40
  -2  -3   0  253.17    3.90
  -2  -3   0  243.58    3.80
  -2  -3   0  248.78    4.00
   2   3   0  248.68    4.60
   2   3   0  259.77    4.10
  -3  -3   0   88.79    1.70
  -3  -3   0   85.49    1.50
  -3  -3   0   87.29    1.50
  -3  -3   0   86.49    2.10
   3   3   0   87.99    1.90
  -4  -3   0   31.30    0.70
  -4  -3   0   29.40    0.90
  -4  -3   0   30.20    1.30
   4   3   0   29.60    0.70
   4   3   0   31.60    1.10
  -5  -3   0    0.10    0.20
  -5  -3   0    0.00    0.10
  -5  -3   0    0.30    0.30
   5   3   0    0.00    0.10
   5   3   0    0.00    0.10
  -6  -3   0    2.30    0.40
  -6  -3   0    2.10    0.60
  -6  -3   0    1.80    0.20
   6   3   0    2.00    0.40
   6   3   0    2.30    0.20
  -7  -3   0    4.40    0.60
  -7  -3   0    4.20    0.90
   7   3   0    3.50    0.70
  -8  -3   0    5.60    0.70
  -8  -3   0    4.50    1.00
   8   3   0    4.80    0.80
  -9  -3   0    0.80    0.70
  -9  -3   0    0.10    0.40
   9   3   0    0.60    0.50
 -10  -3   0    3.40    0.70
 -10  -3   0    2.20    1.00
  10   3   0    2.70    0.80
   9  -4   0   16.40    1.40
  -9   4   0   16.80    1.90
  -9   4   0   17.60    1.40
   8  -4   0   -0.10    0.30
  -8   4   0   -0.10    0.40
  -8   4   0    0.30    0.60
   7  -4   0    4.70    0.50
   7  -4   0    4.50    0.80
  -7   4   0    3.80    0.90
  -7   4   0    5.70    0.80
   6  -4   0    0.00    0.30
   6  -4   0   -0.20    0.10
  -6   4   0   -0.30    0.20
  -6   4   0    0.10    0.40
   5  -4   0   25.80    0.90
   5  -4   0   26.00    1.20
  -5   4   0   26.10    1.40
  -5   4   0   28.40    1.30
   4  -4   0   37.40    1.00
   4  -4   0   36.40    1.30
  -4   4   0   36.20    1.50
  -4   4   0   35.90    0.70
  -4   4   0   37.50    1.40
   3  -4   0    4.10    0.30
   3  -4   0    4.40    0.40
  -3   4   0    4.30    0.60
  -3   4   0    4.60    0.20
  -3   4   0    4.70    0.50
   2  -4   0  349.37    5.70
   2  -4   0  348.47    5.30
   2  -4   0  349.87    5.50
  -2   4   0  344.67    5.90
  -2   4   0  350.16    5.70
   1  -4   0    9.90    0.40
   1  -4   0    9.90    0.40
   1  -4   0   10.00    0.30
  -1   4   0    9.20    0.50
  -1   4   0   10.20    0.50
   0  -4   0  124.79    2.00
   0  -4   0  121.49    1.90
   0  -4   0  123.09    2.10
   0   4   0  124.09    2.20
   0   4   0  121.29    2.30
  -1  -4   0   49.70    1.00
  -1  -4   0   49.60    0.80
  -1  -4   0   49.20    1.00
   1   4   0   48.50    1.20
   1   4   0   48.50    1.00
   1   4   0   43.10    0.80
  -2  -4   0   99.39    1.70
  -2  -4   0   96.49    1.80
  -2  -4   0   95.09    1.70
  -2  -4   0  102.79    1.70
   2   4   0   97.09    2.30
  -3  -4   0  775.12   11.50
  -3  -4   0  767.32   11.40
  -3  -4   0  774.42   11.70
   3   4   0  788.72   11.90
   3   4   0  770.22   12.70
  -4  -4   0    9.20    0.70
  -4  -4   0    9.10    0.40
  -4  -4   0    8.20    0.50
  -4  -4   0    8.50    0.30
   4   4   0    8.50    0.60
  -5  -4   0  214.08    4.70
  -5  -4   0  221.98    3.60
  -5  -4   0  217.78    4.00
   5   4   0  222.58    4.40
   5   4   0  226.18    3.60
  -6  -4   0    0.50    0.20
  -6  -4   0    0.40    0.40
  -6  -4   0    0.50    0.10
   6   4   0    0.30    0.30
   6   4   0    0.50    0.20
  -7  -4   0   48.60    1.60
  -7  -4   0   47.10    2.20
   7   4   0   49.10    2.00
  -8  -4   0    3.20    0.60
  -8  -4   0    2.70    0.80
   8   4   0    3.20    0.70
  -9  -4   0   33.30    1.50
  -9  -4   0   33.40    2.20
   9   4   0   33.90    1.90
 -10  -4   0    9.60    1.00
  10   4   0    7.90    1.10
  10   4   0    9.30    1.70
   9  -5   0    1.40    0.60
  -9   5   0    2.40    0.70
   8  -5   0    9.60    1.20
  -8   5   0    8.90    1.10
  -8   5   0   11.40    1.60
   7  -5   0   14.80    0.80
   7  -5   0   14.60    1.10
  -7   5   0   14.20    1.50
  -7   5   0   14.40    1.10
   6  -5   0    1.00    0.40
   6  -5   0    1.00    0.30
  -6   5   0    1.60    0.50
  -6   5   0    0.70    0.50
   5  -5   0    7.60    0.70
   5  -5   0    7.60    0.50
  -5   5   0    7.30    0.80
  -5   5   0    6.80    0.90
   4  -5   0   10.20    0.70
   4  -5   0   10.50    0.60
  -4   5   0    9.50    0.80
  -4   5   0   10.30    0.40
  -4   5   0    9.80    0.90
   3  -5   0   22.50    0.80
   3  -5   0   21.80    0.90
  -3   5   0   21.40    1.00
  -3   5   0   20.40    1.00
  -3   5   0   22.40    0.60
   2  -5   0  400.56    6.20
   2  -5   0  416.86    6.60
   2  -5   0  404.56    6.40
  -2   5   0  402.26    6.80
  -2   5   0  414.16    6.70
   1  -5   0   57.39    1.10
   1  -5   0   53.99    1.10
   1  -5   0   55.69    1.20
  -1   5   0   56.09    1.40
  -1   5   0   52.49    1.40
   0  -5   0  742.33   10.90
   0  -5   0  751.12   11.20
   0  -5   0  740.53   11.40
   0   5   0  755.22   11.40
   0   5   0  756.52   11.50
  -1  -5   0   53.19    1.10
  -1  -5   0   51.69    1.10
  -1  -5   0   52.69    0.90
   1   5   0   51.19    1.20
   1   5   0   52.69    1.40
  -2  -5   0  265.97    4.20
  -2  -5   0  264.07    4.40
  -2  -5   0  258.97    4.20
  -2  -5   0  285.37    4.20
   2   5   0  270.67    4.90
  -3  -5   0    4.00    0.20
  -3  -5   0    4.70    0.40
  -3  -5   0    4.10    0.30
   3   5   0    4.10    0.40
   3   5   0    4.00    0.50
  -4  -5   0    0.40    0.20
  -4  -5   0    0.20    0.10
  -4  -5   0    0.20    0.10
   4   5   0    0.10    0.30
   4   5   0    0.10    0.10
  -5  -5   0   63.99    1.40
  -5  -5   0   65.99    1.60
   5   5   0   62.69    1.90
   5   5   0   64.79    2.50
   5   5   0   65.89    1.30
  -6  -5   0    1.80    0.20
  -6  -5   0    2.10    0.60
  -6  -5   0    2.10    0.40
   6   5   0    1.60    0.40
  -7  -5   0   18.20    1.00
  -7  -5   0   18.50    1.40
  -7  -5   0   17.40    0.60
   7   5   0   17.70    1.20
  -8  -5   0    6.40    0.70
   8   5   0    6.80    1.00
   8   5   0    7.00    1.30
  -9  -5   0    7.10    0.80
   9   5   0    6.60    1.10
   9   5   0    7.80    1.50
 -10  -5   0    0.30    0.40
  10   5   0    0.70    0.60
  10   5   0   -0.10    0.40
   9  -6   0   -0.30    0.50
  -9   6   0    1.40    0.40
   8  -6   0    2.90    0.80
  -8   6   0    2.60    0.70
  -8   6   0    4.30    1.00
   7  -6   0    2.50    0.60
   7  -6   0    2.50    0.40
  -7   6   0    2.50    0.80
  -7   6   0    3.50    0.80
   6  -6   0    1.40    0.50
   6  -6   0    1.90    0.40
  -6   6   0    1.60    0.60
  -6   6   0    1.70    0.50
   5  -6   0   41.60    1.30
   5  -6   0   41.60    1.60
  -5   6   0   39.90    1.80
  -5   6   0   39.00    1.70
   4  -6   0    6.70    0.60
   4  -6   0    8.00    0.50
  -4   6   0    7.00    0.80
  -4   6   0    7.40    0.80
  -4   6   0    7.70    0.30
   3  -6   0   31.30    1.00
   3  -6   0   32.00    1.10
  -3   6   0   30.00    1.20
  -3   6   0   30.50    0.80
  -3   6   0   30.50    1.30
   2  -6   0   36.60    0.90
   2  -6   0   36.90    1.00
   2  -6   0   37.80    1.00
  -2   6   0   35.90    1.20
  -2   6   0   35.10    1.30
   1  -6   0   14.00    0.50
   1  -6   0   13.40    0.60
   1  -6   0   13.00    0.50
  -1   6   0   13.30    0.70
  -1   6   0   14.30    0.70
   0  -6   0  129.89    2.40
   0  -6   0  126.89    2.10
   0  -6   0  131.79    2.30
   0   6   0  133.99    2.60
   0   6   0  129.39    2.70
  -1  -6   0   58.39    1.00
  -1  -6   0   56.89    1.30
  -1  -6   0   56.99    1.20
   1   6   0   60.49    1.40
   1   6   0   60.39    1.60
  -2  -6   0  406.26    6.30
  -2  -6   0  405.16    6.30
   2   6   0  402.96    6.40
   2   6   0  414.26    7.00
  -3  -6   0   70.79    1.40
  -3  -6   0   74.79    1.50
  -3  -6   0   74.49    1.60
   3   6   0   75.69    1.70
   3   6   0   73.59    2.20
  -4  -6   0   83.49    1.90
  -4  -6   0   84.69    1.60
  -4  -6   0   83.59    1.70
   4   6   0   84.49    2.60
   4   6   0   84.09    2.00
  -5  -6   0   33.80    0.90
  -5  -6   0   32.90    1.10
  -5  -6   0   33.60    0.80
   5   6   0   34.40    1.30
   5   6   0   34.70    1.80
  -6  -6   0    3.50    0.30
  -6  -6   0    3.80    0.50
   6   6   0    3.20    0.60
   6   6   0    2.20    0.70
  -7  -6   0   40.70    1.10
  -7  -6   0   41.70    1.50
   7   6   0   45.60    2.40
   7   6   0   44.40    1.80
  -8  -6   0    2.80    0.50
   8   6   0    4.20    1.00
   8   6   0    2.60    0.60
  -9  -6   0   15.80    1.10
   9   6   0   14.10    1.70
   9   6   0   15.60    1.30
 -10  -6   0    6.90    0.90
  10   6   0    5.80    1.30
  10   6   0    4.90    0.90
   8  -7   0   -0.30    0.50
  -8   7   0    0.50    0.50
   7  -7   0    4.20    0.80
   7  -7   0    4.60    0.60
  -7   7   0    5.90    1.00
  -7   7   0    3.70    1.00
   6  -7   0    0.40    0.20
   6  -7   0    0.50    0.40
  -6   7   0    0.80    0.50
  -6   7   0    1.20    0.50
   5  -7   0   23.60    1.00
   5  -7   0   23.50    1.20
  -5   7   0   21.80    1.30
  -5   7   0   22.90    1.40
   4  -7   0    0.10    0.20
   4  -7   0    0.30    0.20
  -4   7   0    0.30    0.30
  -4   7   0    0.00    0.30
  -4   7   0    0.50    0.10
   3  -7   0   55.79    1.60
   3  -7   0   57.79    1.50
  -3   7   0   55.09    1.20
  -3   7   0   55.79    1.90
  -3   7   0   55.49    1.80
   2  -7   0    2.00    0.30
   2  -7   0    2.50    0.30
   2  -7   0    2.80    0.20
  -2   7   0    2.70    0.50
  -2   7   0    2.00    0.40
   1  -7   0   59.09    1.20
   1  -7   0   61.89    1.50
   1  -7   0   63.29    1.30
  -1   7   0   57.59    1.70
  -1   7   0   60.39    1.70
   0  -7   0    2.60    0.30
   0  -7   0    2.40    0.20
   0  -7   0    2.50    0.30
   0   7   0    2.90    0.40
   0   7   0    2.80    0.60
  -1  -7   0   91.19    1.80
  -1  -7   0   92.79    1.80
   1   7   0   92.99    2.10
   1   7   0   93.09    2.30
  -2  -7   0   32.20    0.90
  -2  -7   0   32.30    0.90
   2   7   0   33.90    1.30
   2   7   0   34.70    1.00
  -3  -7   0    0.80    0.20
  -3  -7   0    1.00    0.20
  -3  -7   0    0.90    0.30
   3   7   0    0.90    0.40
   3   7   0    0.70    0.20
  -4  -7   0   11.10    0.60
  -4  -7   0   11.00    0.50
  -4  -7   0   11.10    0.50
   4   7   0   10.80    0.60
   4   7   0   11.90    1.00
  -5  -7   0    3.70    0.30
  -5  -7   0    4.40    0.50
  -5  -7   0    4.10    0.30
   5   7   0    3.80    0.50
   5   7   0    4.60    0.90
  -6  -7   0   53.49    1.60
  -6  -7   0   53.59    1.30
   6   7   0   54.09    1.80
   6   7   0   56.19    2.50
  -7  -7   0    0.10    0.10
  -7  -7   0   -0.60    0.20
   7   7   0   -0.40    0.40
   7   7   0    0.30    0.30
  -8  -7   0    6.30    0.80
   8   7   0    5.80    0.90
   8   7   0    8.00    1.50
  -9  -7   0    1.00    0.50
   9   7   0   -0.20    0.50
   9   7   0    0.20    0.40
 -10  -7   0   -0.30    0.40
   8  -8   0    0.40    0.60
  -8   8   0    3.50    0.70
   7  -8   0    1.20    0.40
   7  -8   0    0.20    0.50
  -7   8   0    0.70    0.60
   6  -8   0    3.60    0.50
   6  -8   0    3.80    0.70
  -6   8   0    5.10    0.90
   5  -8   0   -0.40    0.20
   5  -8   0   -0.30    0.10
  -5   8   0    0.50    0.40
  -5   8   0    0.20    0.40
   4  -8   0    2.80    0.50
   4  -8   0    3.30    0.50
  -4   8   0    3.70    0.70
  -4   8   0    3.50    0.70
   3  -8   0    3.30    0.40
   3  -8   0    3.90    0.50
  -3   8   0    3.30    0.60
  -3   8   0    4.70    0.70
   2  -8   0    1.70    0.20
   2  -8   0    1.10    0.20
   2  -8   0    1.10    0.30
  -2   8   0    1.00    0.50
  -2   8   0    1.30    0.40
   1  -8   0   -0.10    0.10
   1  -8   0   -0.10    0.20
   1  -8   0    0.00    0.10
  -1   8   0    0.20    0.30
  -1   8   0   -0.50    0.30
   0  -8   0    0.70    0.10
   0  -8   0    0.40    0.20
   0  -8   0    0.50    0.20
   0   8   0    0.50    0.50
   0   8   0    0.70    0.40
  -1  -8   0    2.60    0.30
  -1  -8   0    3.30    0.30
   1   8   0    3.00    0.50
   1   8   0    3.30    0.70
  -2  -8   0    1.70    0.30
  -2  -8   0    2.30    0.30
   2   8   0    2.20    0.60
   2   8   0    1.80    0.40
   2   8   0    2.00    0.20
  -3  -8   0   29.50    0.90
  -3  -8   0   30.00    0.90
   3   8   0   28.90    1.00
   3   8   0   30.00    0.90
   3   8   0   29.80    1.40
  -4  -8   0   34.30    0.90
  -4  -8   0   35.30    1.20
  -4  -8   0   34.80    1.00
   4   8   0   34.40    1.10
   4   8   0   37.00    1.70
  -5  -8   0   30.50    1.00
  -5  -8   0   33.20    0.90
  -5  -8   0   33.20    1.20
   5   8   0   33.50    1.80
   5   8   0   31.40    1.20
  -6  -8   0   30.50    1.00
  -6  -8   0   31.90    1.20
   6   8   0   30.90    1.90
   6   8   0   31.10    1.30
  -7  -8   0   44.50    1.60
  -7  -8   0   43.40    1.20
   7   8   0   41.20    2.30
  -8  -8   0   11.00    0.90
   8   8   0   12.30    1.50
  -9  -8   0   -0.50    0.30
   9   8   0    0.00    0.60
   7  -9   0    1.40    0.40
   7  -9   0    0.50    0.60
  -7   9   0    3.00    0.70
   6  -9   0    1.40    0.60
   6  -9   0    2.40    0.50
  -6   9   0    2.30    0.70
   5  -9   0    0.00    0.20
   5  -9   0   -0.60    0.30
  -5   9   0    0.10    0.40
   4  -9   0    0.90    0.40
   4  -9   0    0.60    0.30
  -4   9   0    1.10    0.50
   3  -9   0    5.80    0.50
   3  -9   0    5.20    0.60
  -3   9   0    4.20    0.80
  -3   9   0    5.80    0.80
   2  -9   0    2.60    0.40
   2  -9   0    3.40    0.40
  -2   9   0    2.70    0.60
  -2   9   0    3.50    0.60
   1  -9   0    0.70    0.20
   1  -9   0    0.50    0.20
  -1   9   0    1.00    0.40
  -1   9   0    1.20    0.50
   0  -9   0    7.80    0.50
   0  -9   0    7.00    0.50
   0   9   0    8.30    0.80
   0   9   0    7.10    0.80
  -1  -9   0    0.40    0.20
  -1  -9   0    0.30    0.20
   1   9   0    0.70    0.30
   1   9   0    0.30    0.60
  -2  -9   0   10.70    0.60
  -2  -9   0   11.00    0.50
   2   9   0   10.30    0.70
   2   9   0   10.40    1.00
  -3  -9   0   14.50    0.60
  -3  -9   0   14.50    0.60
   3   9   0   14.40    1.10
   3   9   0   13.70    0.80
  -4  -9   0   27.50    0.90
  -4  -9   0   28.10    0.90
   4   9   0   27.20    1.10
   4   9   0   26.90    1.50
  -5  -9   0    0.40    0.20
  -5  -9   0    0.30    0.20
  -5  -9   0    0.20    0.30
   5   9   0    0.20    0.50
  -6  -9   0    3.60    0.60
  -6  -9   0    3.20    0.40
   6   9   0    3.00    0.80
  -7  -9   0   15.70    1.00
  -7  -9   0   15.20    0.70
   7   9   0   14.40    1.50
  -8  -9   0   18.20    1.10
   8   9   0   19.30    1.80
  -9  -9   0   21.10    1.30
   9   9   0   19.10    1.90
   7 -10   0    0.30    0.30
  -7  10   0    0.50    0.40
   6 -10   0    3.90    0.60
  -6  10   0    4.80    1.00
   5 -10   0   -0.10    0.20
  -5  10   0    1.10    0.60
   4 -10   0   23.80    1.10
  -4  10   0   25.30    1.50
   3 -10   0   23.90    1.00
  -3  10   0   24.10    1.40
  -3  10   0   24.50    0.80
   2 -10   0    0.80    0.20
   2 -10   0    0.60    0.30
  -2  10   0    0.50    0.50
   1 -10   0   68.69    1.60
   1 -10   0   67.89    1.80
  -1  10   0   67.69    2.10
   0 -10   0    0.20    0.20
   0 -10   0    0.30    0.20
   0  10   0    0.60    0.50
   0  10   0    0.40    0.40
  -1 -10   0  308.47    5.30
  -1 -10   0  308.27    5.20
   1  10   0  312.87    6.00
   1  10   0  303.17    5.60
  -2 -10   0   28.00    0.90
  -2 -10   0   27.70    1.00
   2  10   0   27.90    1.20
   2  10   0   24.40    1.40
  -3 -10   0   52.99    1.40
  -3 -10   0   51.29    1.40
   3  10   0   51.09    1.70
   3  10   0   54.89    2.10
  -4 -10   0    5.60    0.50
  -4 -10   0    5.30    0.40
   4  10   0    5.00    0.90
   4  10   0    5.60    0.60
  -5 -10   0   26.70    1.00
   5  10   0   31.70    1.80
   5  10   0   31.40    1.20
  -6 -10   0    1.00    0.30
  -6 -10   0    0.90    0.40
   6  10   0    1.30    0.70
  -7 -10   0    0.60    0.20
  -7 -10   0    0.80    0.40
   7  10   0    0.80    0.70
  -8 -10   0   -0.30    0.40
  -8 -10   0    0.10    0.30
   8  10   0   -0.60    0.60
  -9 -10   0    5.40    0.90
   9  10   0    4.30    1.20
   6 -11   0    0.00    0.30
  -6  11   0    1.90    0.70
   5 -11   0    9.70    0.80
  -5  11   0    9.60    1.30
   4 -11   0   34.20    1.40
  -4  11   0   35.00    1.90
   3 -11   0   17.20    0.90
  -3  11   0   17.10    0.70
  -3  11   0   15.50    1.30
   2 -11   0   72.29    2.00
   2 -11   0   69.39    1.70
  -2  11   0   71.89    2.40
   1 -11   0   52.59    1.40
   1 -11   0   49.30    1.50
  -1  11   0   50.49    1.90
   0 -11   0  129.19    2.80
   0 -11   0  129.69    2.60
   0  11   0  130.99    3.20
  -1 -11   0   24.00    0.90
  -1 -11   0   23.00    1.00
   1  11   0   23.20    1.20
  -2 -11   0    4.10    0.40
  -2 -11   0    4.30    0.50
   2  11   0    4.80    0.70
   2  11   0    4.00    0.90
  -3 -11   0   49.60    1.40
  -3 -11   0   51.89    1.40
   3  11   0   51.69    1.80
   3  11   0   47.30    2.10
  -4 -11   0   12.10    0.70
  -4 -11   0   11.10    0.60
   4  11   0   10.90    1.30
   4  11   0   11.60    0.90
  -5 -11   0   88.49    2.10
   5  11   0   90.89    3.20
   5  11   0   87.69    2.40
  -6 -11   0    3.80    0.50
   6  11   0    4.50    1.00
   6  11   0    5.20    0.70
  -7 -11   0   11.80    0.70
   7  11   0   10.80    1.40
  -8 -11   0    3.50    0.50
  -8 -11   0    4.20    0.70
   8  11   0    3.40    1.10
   5 -12   0    0.50    0.30
  -5  12   0    1.70    0.60
   4 -12   0    1.10    0.40
  -4  12   0    1.60    0.70
   3 -12   0    0.00    0.30
  -3  12   0    0.40    0.50
   2 -12   0    0.80    0.30
   2 -12   0    0.90    0.40
  -2  12   0    1.60    0.70
   1 -12   0   15.20    0.80
   1 -12   0   16.70    0.90
  -1  12   0   17.70    1.30
   0 -12   0   37.40    1.30
   0 -12   0   36.10    1.20
   0  12   0   37.90    1.70
  -1 -12   0   16.30    0.80
  -1 -12   0   15.30    0.80
   1  12   0   16.30    1.20
  -2 -12   0   48.00    1.50
  -2 -12   0   47.80    1.40
   2  12   0   46.40    1.80
  -3 -12   0    0.20    0.20
  -3 -12   0    0.60    0.30
   3  12   0    0.30    0.40
  -4 -12   0   48.60    1.50
  -4 -12   0   51.39    1.50
   4  12   0   52.19    1.90
   4  12   0   40.60    2.70
  -5 -12   0    6.90    0.60
   5  12   0    5.30    1.20
   5  12   0    7.30    0.90
  -6 -12   0   22.30    1.00
   6  12   0   21.10    1.80
   6  12   0   21.10    1.20
  -7 -12   0    0.60    0.30
   7  12   0    0.90    0.40
   7  12   0    0.10    0.90
  -8 -12   0    0.60    0.30
   8  12   0   -0.40    0.80
   4 -13   0    0.70    0.40
  -4  13   0    2.10    0.70
  -3  13   0    0.70    0.60
   2 -13   0   -0.30    0.20
   2 -13   0    0.10    0.20
  -2  13   0    0.80    0.60
   1 -13   0    0.30    0.20
   1 -13   0   -0.30    0.30
  -1  13   0    0.00    0.50
   0 -13   0   10.70    0.80
   0 -13   0   11.90    0.70
   0  13   0   10.60    1.10
  -1 -13   0   14.00    0.80
  -1 -13   0   13.50    0.80
   1  13   0   14.20    1.20
  -2 -13   0    3.10    0.50
  -2 -13   0    3.00    0.40
   2  13   0    2.20    0.70
  -3 -13   0    0.30    0.20
  -3 -13   0    0.10    0.20
   3  13   0   -0.40    0.50
  -4 -13   0    8.90    0.70
  -4 -13   0    8.90    0.70
   4  13   0    9.70    1.10
  -5 -13   0   15.00    0.80
   5  13   0   15.90    1.20
  -6 -13   0    0.40    0.30
   6  13   0    0.10    0.50
  -7 -13   0   33.70    1.30
  -3  14   0    1.10    0.70
   2 -14   0    2.70    0.50
  -2  14   0    2.30    0.40
  -2  14   0    3.40    0.80
   1 -14   0   18.10    1.00
   1 -14   0   17.00    0.90
  -1  14   0   17.40    1.40
   0 -14   0    1.00    0.40
   0 -14   0    0.90    0.30
   0  14   0    0.80    0.60
  -1 -14   0    2.40    0.40
  -1 -14   0    3.00    0.50
   1  14   0    2.00    0.70
  -2 -14   0    3.70    0.50
  -2 -14   0    4.20    0.60
   2  14   0    3.60    0.80
  -3 -14   0    6.90    0.70
  -3 -14   0    7.30    0.70
   3  14   0    6.30    1.00
  -4 -14   0   22.00    1.10
   4  14   0   22.20    1.50
  -5 -14   0    6.60    0.70
   5  14   0    9.40    1.20
   1 -15   0   13.60    1.10
   1 -15   0   12.50    0.80
  -1  15   0   12.70    2.00
   0 -15   0    0.30    0.30
   0 -15   0    0.50    0.30
   0  15   0    1.00    0.70
  -1 -15   0   37.00    1.40
  -1 -15   0   37.40    1.50
   1  15   0   37.20    1.90
  -2 -15   0   22.30    1.10
  -2 -15   0   23.00    1.10
   2  15   0   19.80    1.50
  -3 -15   0   32.80    1.40
  -3 -15   0   31.80    1.30
   3  15   0   31.90    1.80
   3  15  -1    8.50    1.20
  -3 -15   1    8.80    0.80
  -3 -15   1    9.80    0.80
   2  15  -1   -0.80    0.60
  -2 -15   1    0.50    0.30
  -2 -15   1   -0.20    0.20
   1  15  -1    8.20    1.20
  -1 -15   1    9.20    0.80
  -1 -15   1    8.80    0.70
   0  15  -1    0.00    0.60
   0 -15   1   -0.10    0.20
   0 -15   1    0.00    0.20
  -1  15  -1    3.10    0.50
   1 -15   1    3.50    0.80
  -2  15  -1    0.90    0.40
   5  14  -1   10.30    1.20
  -5 -14   1   10.60    0.80
   4  14  -1   37.20    1.80
  -4 -14   1   36.60    1.40
   3  14  -1    5.20    0.90
  -3 -14   1    4.90    0.60
  -3 -14   1    5.40    0.60
   2  14  -1    8.80    1.10
  -2 -14   1    9.60    0.70
  -2 -14   1   10.10    0.70
   1  14  -1   -0.20    0.60
  -1 -14   1    0.40    0.30
  -1 -14   1    0.40    0.30
   0  14  -1    4.70    0.90
   0 -14   1    4.80    0.60
   0 -14   1    3.80    0.60
  -1  14  -1    5.10    0.90
   1 -14   1    4.20    0.60
   1 -14   1    4.00    0.60
  -2  14  -1    6.20    0.60
  -2  14  -1    7.30    1.10
   2 -14   1    5.80    0.70
  -3  14  -1    0.70    0.60
   3 -14   1    0.30    0.30
  -7 -13   1    0.40    0.30
   6  13  -1   -0.30    0.50
  -6 -13   1   -0.10    0.20
   5  13  -1    4.00    0.80
  -5 -13   1    4.80    0.60
   4  13  -1   30.90    1.60
  -4 -13   1   31.30    1.20
  -4 -13   1   32.60    1.20
   3  13  -1    3.00    0.70
  -3 -13   1    3.20    0.50
  -3 -13   1    3.50    0.50
   2  13  -1   22.70    1.40
  -2 -13   1   23.10    1.00
  -2 -13   1   23.00    1.00
   1  13  -1    5.20    0.90
  -1 -13   1    4.90    0.60
  -1 -13   1    5.30    0.60
   0  13  -1    4.40    0.90
   0 -13   1    3.60    0.50
   0 -13   1    3.90    0.50
  -1  13  -1    1.40    0.70
   1 -13   1    1.70    0.40
   1 -13   1    0.80    0.30
  -2  13  -1    0.90    0.60
  -2  13  -1    0.60    0.30
   2 -13   1    0.00    0.30
  -3  13  -1    6.10    1.00
   3 -13   1    4.70    0.60
  -4  13  -1    3.90    0.80
   4 -13   1    2.80    0.50
   8  12  -1    0.20    1.10
   7  12  -1   44.70    1.80
   7  12  -1   42.40    3.80
  -7 -12   1   39.80    1.40
   6  12  -1    4.70    0.70
  -6 -12   1    3.90    0.50
   5  12  -1   35.10    1.60
  -5 -12   1   33.50    1.20
   4  12  -1    0.50    0.50
  -4 -12   1    0.10    0.20
  -4 -12   1    0.30    0.20
   3  12  -1    1.10    0.60
  -3 -12   1    2.30    0.40
  -3 -12   1    1.80    0.40
   2  12  -1   -0.40    0.40
  -2 -12   1   -0.10    0.20
  -2 -12   1    0.40    0.20
   1  12  -1    2.30    0.60
  -1 -12   1    2.50    0.40
  -1 -12   1    2.60    0.40
   0  12  -1   34.10    1.60
   0 -12   1   34.70    1.20
   0 -12   1   33.50    1.30
  -1  12  -1    0.00    0.50
   1 -12   1    0.30    0.20
   1 -12   1    0.10    0.20
  -2  12  -1    1.80    0.70
   2 -12   1    1.60    0.40
  -3  12  -1    5.20    0.50
  -3  12  -1    6.60    1.00
   3 -12   1    5.40    0.60
  -4  12  -1    6.50    1.00
   4 -12   1    4.30    0.60
  -5  12  -1    1.10    0.60
   5 -12   1    0.10    0.30
   8  11  -1   16.70    1.80
  -8 -11   1   17.10    1.20
   7  11  -1    1.90    0.40
   7  11  -1    1.00    0.80
  -7 -11   1    0.90    0.30
   6  11  -1    8.80    0.80
   6  11  -1    5.70    1.10
  -6 -11   1    6.70    0.60
   5  11  -1    3.90    0.90
   5  11  -1    3.40    0.60
  -5 -11   1    3.00    0.40
   4  11  -1    1.20    0.70
   4  11  -1    1.40    0.50
  -4 -11   1    2.10    0.30
  -4 -11   1    2.10    0.40
   3  11  -1    0.70    0.40
   3  11  -1   -1.10    0.70
  -3 -11   1    0.30    0.20
  -3 -11   1    0.50    0.20
   2  11  -1   18.10    1.10
  -2 -11   1   20.10    0.80
  -2 -11   1   19.80    0.90
   1  11  -1    0.90    0.50
  -1 -11   1    1.20    0.30
  -1 -11   1    1.00    0.30
   0  11  -1    0.50    0.50
   0 -11   1    0.50    0.30
   0 -11   1    0.50    0.20
  -1  11  -1   16.50    1.20
   1 -11   1   13.40    0.70
   1 -11   1   16.30    0.90
  -2  11  -1   -0.10    0.50
   2 -11   1    0.00    0.20
   2 -11   1    0.20    0.20
  -3  11  -1    0.50    0.50
  -3  11  -1    0.50    0.20
   3 -11   1    0.00    0.20
  -4  11  -1    2.10    0.70
   4 -11   1    1.10    0.30
  -5  11  -1    0.80    0.60
   5 -11   1    0.30    0.30
  -6  11  -1    4.50    0.90
   6 -11   1    4.60    0.60
   8  10  -1    0.30    0.70
  -8 -10   1   -0.10    0.40
   7  10  -1    2.10    0.90
  -7 -10   1    2.20    0.50
  -7 -10   1    2.50    0.40
   6  10  -1    9.60    1.20
  -6 -10   1   10.00    0.80
  -6 -10   1    8.50    0.60
   5  10  -1   24.80    1.10
   5  10  -1   23.40    1.60
  -5 -10   1   24.50    0.90
  -5 -10   1   23.90    0.90
   4  10  -1    1.40    0.60
   4  10  -1    1.20    0.40
  -4 -10   1    1.50    0.30
  -4 -10   1    2.40    0.30
   3  10  -1   65.69    2.20
   3  10  -1   64.89    1.90
  -3 -10   1   64.99    1.60
  -3 -10   1   62.69    1.60
   2  10  -1    1.90    0.50
   2  10  -1    1.10    0.70
  -2 -10   1    1.30    0.30
  -2 -10   1    2.40    0.40
   1  10  -1   36.70    1.60
   1  10  -1   39.10    1.50
  -1 -10   1   38.00    1.10
  -1 -10   1   40.20    1.20
   0  10  -1    9.80    0.90
   0 -10   1    8.20    0.50
   0 -10   1   10.40    0.60
  -1  10  -1    4.40    0.70
   1 -10   1    4.70    0.50
   1 -10   1    4.30    0.50
  -2  10  -1   11.50    1.00
   2 -10   1   12.90    0.70
   2 -10   1   12.80    0.70
  -3  10  -1    2.70    0.70
  -3  10  -1    2.80    0.40
   3 -10   1    3.30    0.50
  -4  10  -1    1.50    0.60
   4 -10   1    1.20    0.30
  -5  10  -1   10.90    1.20
   5 -10   1    9.60    0.80
  -6  10  -1    0.20    0.50
   6 -10   1    0.10    0.20
  -7  10  -1    5.90    1.00
   7 -10   1    3.00    0.50
   9   9  -1    2.70    1.00
  -9  -9   1    3.90    0.70
   8   9  -1   17.40    1.80
  -8  -9   1   16.00    1.10
   7   9  -1   10.30    1.50
  -7  -9   1   10.20    0.60
  -7  -9   1    9.70    0.80
   6   9  -1  148.69    4.40
  -6  -9   1  143.49    2.90
  -6  -9   1  149.09    3.20
   5   9  -1    0.50    0.40
  -5  -9   1    0.80    0.20
  -5  -9   1    0.70    0.30
  -5  -9   1    1.00    0.20
   4   9  -1  108.49    3.10
   4   9  -1  103.89    2.40
  -4  -9   1  105.09    2.20
  -4  -9   1  106.39    2.20
   3   9  -1    2.90    0.50
   3   9  -1    2.40    0.60
  -3  -9   1    2.70    0.30
  -3  -9   1    2.70    0.30
   2   9  -1   90.09    2.50
   2   9  -1   88.09    2.20
  -2  -9   1   89.49    1.90
  -2  -9   1   87.39    1.90
   1   9  -1  242.18    4.60
   1   9  -1  239.38    4.60
  -1  -9   1  243.18    4.20
  -1  -9   1  247.88    4.30
   0   9  -1    2.10    0.50
   0   9  -1    2.00    0.50
   0  -9   1    2.20    0.30
   0  -9   1    1.90    0.30
  -1   9  -1  120.69    2.80
  -1   9  -1  111.69    2.60
   1  -9   1  120.29    2.50
   1  -9   1  123.49    2.40
  -2   9  -1    0.40    0.40
   2  -9   1    0.00    0.20
   2  -9   1    0.30    0.20
   2  -9   1    0.10    0.20
  -3   9  -1   33.20    1.50
  -3   9  -1   32.80    1.00
   3  -9   1   33.90    1.10
   3  -9   1   36.20    1.20
  -4   9  -1   10.90    1.00
  -4   9  -1    9.20    0.50
   4  -9   1    7.90    0.60
   4  -9   1    8.10    0.70
  -5   9  -1    0.20    0.40
   5  -9   1    0.20    0.20
   5  -9   1   -0.20    0.30
  -6   9  -1    1.30    0.60
   6  -9   1   -0.60    0.40
   6  -9   1    0.90    0.30
  -7   9  -1    7.70    1.20
   7  -9   1    6.50    0.70
   7  -9   1    4.80    0.80
   8  -9   1   -0.90    0.50
   9   8  -1    2.70    1.00
  -9  -8   1    2.40    0.60
   8   8  -1    1.40    0.70
  -8  -8   1    2.10    0.50
   7   8  -1   10.50    1.30
   7   8  -1   10.10    1.00
  -7  -8   1   10.30    0.60
  -7  -8   1   11.70    0.90
   6   8  -1   28.80    1.30
   6   8  -1   30.20    1.90
  -6  -8   1   26.80    0.90
  -6  -8   1   29.50    1.20
   5   8  -1   -0.10    0.20
   5   8  -1   -0.20    0.40
  -5  -8   1    0.20    0.30
  -5  -8   1    0.10    0.20
  -5  -8   1    0.00    0.10
   4   8  -1   81.49    2.00
   4   8  -1   81.49    2.70
  -4  -8   1   76.99    1.90
  -4  -8   1   80.19    1.70
  -4  -8   1   78.99    1.70
   3   8  -1   94.39    2.60
   3   8  -1   91.39    2.10
  -3  -8   1   90.19    1.90
  -3  -8   1   91.09    1.90
   2   8  -1  500.85    8.60
   2   8  -1  510.25    8.30
  -2  -8   1  506.85    8.00
  -2  -8   1  526.55    7.80
  -2  -8   1  505.15    8.00
   1   8  -1   -0.10    0.30
   1   8  -1   -0.10    0.50
  -1  -8   1    0.00    0.10
  -1  -8   1    0.10    0.10
  -1  -8   1    0.40    0.10
   0   8  -1  131.19    2.80
   0   8  -1  122.59    2.70
   0  -8   1  133.39    2.40
   0  -8   1  125.69    2.20
   0  -8   1  128.19    2.50
  -1   8  -1    1.20    0.30
  -1   8  -1    1.60    0.50
   1  -8   1    1.70    0.30
   1  -8   1    1.80    0.30
   1  -8   1    2.20    0.30
  -2   8  -1   75.99    2.10
  -2   8  -1   69.09    1.90
   2  -8   1   74.39    1.60
   2  -8   1   77.59    1.80
   2  -8   1   76.99    1.60
  -3   8  -1  100.89    2.60
  -3   8  -1   97.19    1.90
  -3   8  -1   91.89    2.40
   3  -8   1  100.79    2.20
   3  -8   1   97.49    2.20
  -4   8  -1    2.50    0.30
  -4   8  -1    2.40    0.60
   4  -8   1    2.00    0.40
   4  -8   1    2.40    0.50
  -5   8  -1   10.70    1.00
   5  -8   1    9.70    0.80
   5  -8   1   11.10    0.70
  -6   8  -1    3.70    0.80
   6  -8   1    2.40    0.40
   6  -8   1    1.60    0.50
  -7   8  -1    0.80    0.60
   7  -8   1   -0.40    0.40
   7  -8   1    0.50    0.30
  -8   8  -1    2.20    0.60
   8  -8   1    0.30    0.60
 -10  -7   1    6.60    1.40
   9   7  -1   17.00    1.80
   9   7  -1   17.40    1.40
  -9  -7   1   16.80    1.10
   8   7  -1    2.80    0.70
   8   7  -1    2.70    0.90
  -8  -7   1    3.10    0.60
   7   7  -1   10.20    1.30
   7   7  -1   12.10    1.00
  -7  -7   1   10.40    0.80
  -7  -7   1   10.70    0.50
   6   7  -1    0.00    0.30
   6   7  -1    0.60    0.50
  -6  -7   1    0.50    0.30
  -6  -7   1    0.30    0.20
   5   7  -1    6.90    0.90
   5   7  -1    5.30    0.60
  -5  -7   1    6.50    0.40
  -5  -7   1    6.00    0.40
  -5  -7   1    6.80    0.60
   4   7  -1   42.30    1.40
   4   7  -1   42.70    1.90
  -4  -7   1   41.00    1.10
  -4  -7   1   43.60    1.30
  -4  -7   1   44.30    1.10
   3   7  -1    0.50    0.30
  -3  -7   1    1.00    0.20
  -3  -7   1    0.50    0.20
  -3  -7   1    0.60    0.20
  -3  -7   1    0.50    0.20
   2   7  -1    0.40    0.30
   2   7  -1    0.50    0.20
  -2  -7   1    0.20    0.10
  -2  -7   1    0.30    0.10
  -2  -7   1    0.70    0.20
   1   7  -1    2.30    0.40
   1   7  -1    2.20    0.50
  -1  -7   1    1.90    0.30
  -1  -7   1    1.40    0.20
  -1  -7   1    1.20    0.20
   0   7  -1    0.40    0.40
   0   7  -1    0.30    0.30
   0  -7   1    0.30    0.10
   0  -7   1    0.30    0.10
   0  -7   1    0.60    0.20
  -1   7  -1   49.20    1.40
  -1   7  -1   52.69    1.50
   1  -7   1   53.79    1.30
   1  -7   1   52.79    1.20
   1  -7   1   51.69    1.10
  -2   7  -1   25.20    1.00
  -2   7  -1   24.60    1.10
   2  -7   1   25.10    0.80
   2  -7   1   25.40    0.80
   2  -7   1   24.90    0.90
  -3   7  -1   11.10    0.50
  -3   7  -1   10.50    0.80
  -3   7  -1   10.50    0.70
   3  -7   1   10.70    0.60
   3  -7   1   11.00    0.70
  -4   7  -1    0.10    0.30
  -4   7  -1    0.00    0.30
  -4   7  -1   -0.20    0.10
   4  -7   1    0.40    0.30
   4  -7   1    0.10    0.20
  -5   7  -1    0.90    0.50
  -5   7  -1    1.00    0.40
   5  -7   1    1.00    0.30
   5  -7   1    1.10    0.40
  -6   7  -1    2.00    0.70
  -6   7  -1    3.40    0.80
   6  -7   1    2.90    0.60
   6  -7   1    1.90    0.40
  -7   7  -1    6.90    1.10
   7  -7   1    5.50    0.80
   7  -7   1    5.20    0.60
  -8   7  -1    2.10    0.70
   8  -7   1   -0.30    0.50
   9  -7   1   -1.20    0.80
  10   6  -1    0.30    0.50
 -10  -6   1   -0.30    0.40
   9   6  -1    9.90    1.20
   9   6  -1   10.60    1.70
  -9  -6   1   10.50    0.90
   8   6  -1   36.40    2.40
   8   6  -1   37.20    1.90
  -8  -6   1   37.00    1.50
   7   6  -1   22.30    1.80
   7   6  -1   21.10    1.30
  -7  -6   1   20.70    1.00
   6   6  -1   43.10    2.30
   6   6  -1   44.50    1.80
  -6  -6   1   44.00    1.10
  -6  -6   1   48.40    1.50
   5   6  -1   12.30    0.80
   5   6  -1   12.40    1.10
  -5  -6   1   12.50    0.50
  -5  -6   1   12.90    0.70
  -5  -6   1   12.20    0.50
   4   6  -1   55.29    2.10
   4   6  -1   56.99    1.70
  -4  -6   1   52.79    1.20
  -4  -6   1   53.39    1.40
  -4  -6   1   55.09    1.20
   3   6  -1    5.50    0.60
  -3  -6   1    6.50    0.50
  -3  -6   1    5.60    0.30
  -3  -6   1    6.10    0.40
  -3  -6   1    5.70    0.30
   2   6  -1    1.40    0.30
   2   6  -1    2.00    0.40
  -2  -6   1    1.80    0.20
  -2  -6   1    1.40    0.20
  -2  -6   1    1.70    0.20
   1   6  -1   18.90    0.80
   1   6  -1   18.40    0.70
  -1  -6   1   17.60    0.60
  -1  -6   1   17.20    0.50
  -1  -6   1   19.40    0.60
   0   6  -1   18.20    0.80
   0   6  -1   19.00    0.80
   0  -6   1   20.30    0.60
   0  -6   1   18.50    0.50
   0  -6   1   18.40    0.60
  -1   6  -1   35.90    1.20
  -1   6  -1   36.60    1.10
   1  -6   1   38.90    1.00
   1  -6   1   37.80    0.90
   1  -6   1   38.40    0.90
  -2   6  -1   24.80    1.00
  -2   6  -1   22.80    0.90
   2  -6   1   23.60    0.80
   2  -6   1   23.40    0.70
   2  -6   1   23.30    0.80
  -3   6  -1   18.70    0.60
  -3   6  -1   18.00    1.00
  -3   6  -1   16.50    0.90
   3  -6   1   18.30    0.70
   3  -6   1   18.30    0.80
  -4   6  -1    3.90    0.60
  -4   6  -1    4.80    0.70
  -4   6  -1    4.20    0.30
   4  -6   1    4.10    0.40
   4  -6   1    4.60    0.60
  -5   6  -1    8.70    0.90
  -5   6  -1    7.50    0.80
   5  -6   1    7.50    0.50
   5  -6   1    8.70    0.80
  -6   6  -1   18.90    1.30
  -6   6  -1   18.60    1.20
   6  -6   1   19.20    0.80
   6  -6   1   19.20    1.20
  -7   6  -1    3.40    0.70
  -7   6  -1    2.60    0.70
   7  -6   1    1.10    0.50
   7  -6   1    3.30    0.50
  -8   6  -1    2.50    0.70
   8  -6   1    1.60    0.60
  -9   6  -1    0.00    0.40
   9  -6   1   -1.30    0.40
  10   5  -1    4.60    1.50
  10   5  -1    3.30    0.80
 -10  -5   1    4.00    0.70
   9   5  -1    2.70    0.70
  -9  -5   1    1.30    0.80
  -9  -5   1    2.30    0.50
   8   5  -1   -0.10    0.30
  -8  -5   1   -0.50    0.50
  -8  -5   1   -0.50    0.20
   7   5  -1   19.40    1.30
  -7  -5   1   18.70    1.50
  -7  -5   1   19.40    1.00
   6   5  -1    1.80    0.30
   6   5  -1    1.90    0.50
  -6  -5   1    1.90    0.60
  -6  -5   1    1.90    0.40
  -6  -5   1    1.90    0.20
   5   5  -1    0.50    0.30
   5   5  -1    0.30    0.10
  -5  -5   1    0.70    0.20
  -5  -5   1    0.70    0.20
  -5  -5   1    0.50    0.40
   4   5  -1    3.20    0.40
  -4  -5   1    3.30    0.20
  -4  -5   1    2.90    0.40
  -4  -5   1    3.10    0.60
  -4  -5   1    3.20    0.20
   3   5  -1   51.99    1.80
  -3  -5   1   53.49    1.10
  -3  -5   1   52.09    1.30
  -3  -5   1   52.99    1.10
  -3  -5   1   54.79    1.30
   2   5  -1   19.30    0.90
  -2  -5   1   20.00    0.70
  -2  -5   1   19.70    0.60
  -2  -5   1   19.60    0.60
  -2  -5   1   17.90    0.60
   1   5  -1   22.80    0.80
   1   5  -1   22.60    0.70
  -1  -5   1   22.80    0.60
  -1  -5   1   22.40    0.60
   0   5  -1    5.90    0.40
   0   5  -1    5.30    0.50
   0  -5   1    4.80    0.30
   0  -5   1    5.60    0.30
   0  -5   1    4.90    0.30
  -1   5  -1   22.80    0.80
  -1   5  -1   21.50    0.70
   1  -5   1   22.60    0.70
   1  -5   1   23.20    0.60
   1  -5   1   23.90    0.60
  -2   5  -1   43.80    1.20
  -2   5  -1   45.00    1.30
   2  -5   1   46.60    1.00
   2  -5   1   44.50    1.20
   2  -5   1   47.40    1.10
  -3   5  -1    1.50    0.20
  -3   5  -1    1.20    0.40
  -3   5  -1    1.50    0.40
   3  -5   1    1.90    0.30
   3  -5   1    1.50    0.30
  -4   5  -1   29.50    0.70
  -4   5  -1   29.60    1.30
  -4   5  -1   30.10    1.30
   4  -5   1   31.30    1.20
   4  -5   1   31.40    0.90
  -5   5  -1   11.00    0.90
  -5   5  -1    9.60    0.90
   5  -5   1   10.80    0.80
   5  -5   1   10.90    0.60
  -6   5  -1   15.50    1.10
  -6   5  -1   17.30    1.30
   6  -5   1   17.50    0.80
   6  -5   1   16.20    1.10
  -7   5  -1    1.20    0.50
  -7   5  -1    1.00    0.60
   7  -5   1    1.00    0.50
   7  -5   1    1.20    0.30
  -8   5  -1   10.40    1.30
  -8   5  -1    7.50    1.30
   8  -5   1    6.30    0.90
  -9   5  -1    1.40    0.60
  -9   5  -1    3.20    0.80
   9  -5   1    0.80    0.60
  10   4  -1   10.20    1.40
 -10  -4   1   10.40    1.00
 -10  -4   1    9.70    1.60
   9   4  -1    6.50    1.10
  -9  -4   1    8.80    1.50
  -9  -4   1    7.20    0.80
   8   4  -1   35.10    1.90
  -8  -4   1   35.50    2.10
  -8  -4   1   35.40    1.40
   7   4  -1    2.90    0.60
  -7  -4   1    3.20    0.50
  -7  -4   1    3.00    0.80
   6   4  -1   52.49    1.90
   6   4  -1   50.39    1.20
  -6  -4   1   47.90    2.10
  -6  -4   1   47.50    1.10
  -6  -4   1   49.80    1.50
   5   4  -1   46.50    1.70
   5   4  -1   46.90    1.10
  -5  -4   1   47.40    1.90
  -5  -4   1   46.50    1.30
  -5  -4   1   46.20    1.00
   4   4  -1  186.68    3.80
  -4  -4   1  179.78    3.00
  -4  -4   1  181.48    3.30
  -4  -4   1  188.88    3.00
  -4  -4   1  181.38    4.00
  -3  -4   1  326.37    5.30
  -3  -4   1  330.47    5.10
  -3  -4   1  341.57    5.40
  -3  -4   1  326.17    5.10
  -3  -4   1  326.77    5.90
  -2  -4   1   92.89    1.70
  -2  -4   1   92.59    2.10
  -2  -4   1   95.89    1.80
  -2  -4   1   94.99    1.80
  -2  -4   1   98.29    1.70
   1   4  -1  338.77    5.50
   1   4  -1  347.57    5.20
  -1  -4   1  316.97    5.10
  -1  -4   1  329.97    5.10
  -1  -4   1  339.57    5.10
   0   4  -1   14.10    0.50
   0   4  -1   13.50    0.50
   0  -4   1   12.80    0.40
   0  -4   1   12.30    0.40
   0  -4   1   12.70    0.40
  -1   4  -1  502.05    7.70
  -1   4  -1  484.95    7.50
   1  -4   1  501.25    7.50
   1  -4   1  494.95    7.50
   1  -4   1  496.45    7.40
  -2   4  -1   16.10    0.70
  -2   4  -1   16.70    0.70
  -2   4  -1   17.40    0.50
   2  -4   1   16.40    0.50
   2  -4   1   15.60    0.60
  -3   4  -1  151.58    3.20
  -3   4  -1  153.88    2.50
  -3   4  -1  152.98    3.10
   3  -4   1  154.08    2.70
   3  -4   1  158.88    3.00
  -4   4  -1   27.20    1.20
  -4   4  -1   28.80    0.70
  -4   4  -1   27.40    1.20
   4  -4   1   28.00    1.10
   4  -4   1   27.60    0.80
  -5   4  -1   32.70    1.50
  -5   4  -1   32.60    0.70
  -5   4  -1   30.20    1.30
   5  -4   1   32.80    1.30
   5  -4   1   33.00    1.00
  -6   4  -1    2.10    0.60
  -6   4  -1    1.70    0.50
   6  -4   1    1.40    0.30
   6  -4   1    1.20    0.40
  -7   4  -1   17.10    1.20
  -7   4  -1   16.10    1.40
   7  -4   1   15.80    1.20
   7  -4   1   16.20    0.70
  -8   4  -1    3.00    0.70
  -8   4  -1    2.60    0.90
   8  -4   1    2.70    0.70
  -9   4  -1    0.30    0.70
  -9   4  -1    0.20    0.50
   9  -4   1    0.10    0.50
  10   3  -1    1.80    0.70
 -10  -3   1    0.90    0.80
 -10  -3   1    1.60    0.60
   9   3  -1    0.40    0.50
  -9  -3   1   -0.10    0.30
  -9  -3   1   -0.40    0.70
   8   3  -1    6.20    1.00
  -8  -3   1    8.60    1.30
  -8  -3   1    6.40    0.70
   7   3  -1   14.90    1.10
  -7  -3   1   14.10    0.90
  -7  -3   1   14.90    1.30
   6   3  -1   25.90    1.30
   6   3  -1   25.90    0.80
  -6  -3   1   27.40    1.10
  -6  -3   1   25.80    0.60
  -6  -3   1   24.40    1.50
   5   3  -1   15.60    0.60
   5   3  -1   15.50    0.90
  -5  -3   1   15.80    0.70
  -5  -3   1   15.70    1.10
  -5  -3   1   16.20    0.50
   4   3  -1   37.10    0.90
   4   3  -1   35.80    1.30
  -4  -3   1   36.80    1.50
  -4  -3   1   36.00    0.80
  -4  -3   1   36.10    1.00
  -3  -3   1  116.19    2.00
  -3  -3   1  116.19    2.70
  -3  -3   1  115.09    1.90
  -3  -3   1  113.69    2.10
  -3  -3   1  120.49    2.30
  -2  -3   1   65.79    1.60
  -2  -3   1   65.99    1.30
  -2  -3   1   64.79    1.30
  -2  -3   1   66.49    1.20
  -2  -3   1   66.69    1.20
  -1  -3   1  311.17    4.70
  -1  -3   1  301.57    4.70
  -1  -3   1  305.07    4.90
  -1  -3   1  295.87    4.60
  -1  -3   1  319.57    4.70
   0   3  -1  415.46    6.10
   0   3  -1  414.66    6.10
   0  -3   1  399.86    6.10
   0  -3   1  401.86    6.20
   0  -3   1  386.56    6.00
   0  -3   1  396.96    6.10
  -1   3  -1  280.77    4.30
  -1   3  -1  282.17    4.40
   1  -3   1  280.37    4.20
   1  -3   1  260.37    4.30
   1  -3   1  276.97    4.30
   1  -3   1  267.77    4.30
  -2   3  -1   30.20    0.90
  -2   3  -1   30.70    0.90
  -2   3  -1   31.00    0.60
   2  -3   1   30.40    0.70
   2  -3   1   31.60    0.90
  -3   3  -1   40.90    1.30
  -3   3  -1   42.00    0.80
  -3   3  -1   41.30    1.20
   3  -3   1   42.70    1.00
   3  -3   1   44.40    1.30
  -4   3  -1   27.80    0.60
  -4   3  -1   26.90    1.10
  -4   3  -1   28.30    1.20
   4  -3   1   28.10    0.80
   4  -3   1   29.20    1.10
  -5   3  -1   22.00    1.10
  -5   3  -1   22.20    0.50
   5  -3   1   22.40    1.10
   5  -3   1   23.10    0.70
  -6   3  -1    9.90    0.80
  -6   3  -1    9.10    1.00
   6  -3   1    9.60    0.50
   6  -3   1   10.40    0.90
  -7   3  -1   32.40    1.50
  -7   3  -1   29.70    1.80
   7  -3   1   30.60    1.00
   7  -3   1   30.20    1.50
  -8   3  -1    3.70    1.00
  -8   3  -1    2.70    0.70
   8  -3   1    3.20    0.70
  -9   3  -1    0.70    0.80
  -9   3  -1    1.40    0.60
   9  -3   1    0.10    0.50
 -10   3  -1    2.00    0.50
  10  -3   1    1.80    0.80
  10   2  -1    7.90    1.20
 -10  -2   1    8.70    1.60
 -10  -2   1   10.00    1.00
   9   2  -1    0.00    0.40
  -9  -2   1    0.10    0.40
  -9  -2   1   -0.20    0.70
   8   2  -1   24.80    1.60
  -8  -2   1   24.50    1.30
  -8  -2   1   27.10    1.90
   7   2  -1    0.10    0.30
  -7  -2   1    0.40    0.30
  -7  -2   1   -0.30    0.40
   6   2  -1  152.78    2.70
   6   2  -1  151.68    3.80
  -6  -2   1  151.18    4.10
  -6  -2   1  154.78    3.20
   5   2  -1   45.60    1.10
   5   2  -1   47.20    1.70
  -5  -2   1   47.00    1.40
  -5  -2   1   42.60    1.80
  -5  -2   1   44.60    0.90
   4   2  -1  418.36    6.40
   4   2  -1  426.06    7.20
  -4  -2   1  403.46    7.40
  -4  -2   1  413.46    6.70
  -4  -2   1  410.26    6.20
   3   2  -1   99.79    1.80
   3   2  -1  103.89    2.30
  -3  -2   1   99.29    1.60
  -3  -2   1   96.99    1.90
  -3  -2   1   97.39    2.40
  -2  -2   1   36.30    1.10
  -2  -2   1   34.60    0.80
  -2  -2   1   34.00    0.70
  -2  -2   1   35.10    0.90
  -2  -2   1   34.10    0.70
  -1  -2   1   14.40    0.40
  -1  -2   1   15.30    0.40
  -1  -2   1   15.60    0.50
  -1  -2   1   15.50    0.40
  -1  -2   1   14.70    0.40
   0   2  -1  161.98    2.60
   0   2  -1  172.78    2.60
   0   2  -1  177.88    2.70
   0  -2   1  171.98    2.60
   0  -2   1  160.88    2.60
   0  -2   1  177.48    2.60
  -1   2  -1  842.52   12.80
  -1   2  -1  831.62   12.70
  -1   2  -1  854.91   12.70
   1  -2   1  850.71   12.90
   1  -2   1  844.62   12.50
   1  -2   1  832.32   12.90
  -2   2  -1  166.58    3.00
  -2   2  -1  166.08    2.60
  -2   2  -1  170.38    3.00
   2  -2   1  169.58    2.70
   2  -2   1  163.78    2.90
  -3   2  -1   21.30    0.50
  -3   2  -1   24.40    0.90
  -3   2  -1   20.90    0.80
   3  -2   1   21.80    0.80
   3  -2   1   21.60    0.60
  -4   2  -1   93.19    2.40
  -4   2  -1   96.19    2.20
  -4   2  -1   94.19    1.60
   4  -2   1   94.79    1.70
   4  -2   1   91.79    2.20
  -5   2  -1    1.00    0.40
  -5   2  -1    0.80    0.10
  -5   2  -1    0.90    0.30
   5  -2   1    0.50    0.30
   5  -2   1    0.80    0.20
  -6   2  -1    1.60    0.60
  -6   2  -1    1.70    0.40
   6  -2   1    1.60    0.20
   6  -2   1    1.00    0.40
  -7   2  -1   -0.20    0.40
  -7   2  -1    0.20    0.30
   7  -2   1    0.00    0.10
   7  -2   1    0.30    0.30
  -8   2  -1   12.20    1.40
  -8   2  -1   12.50    1.00
   8  -2   1   12.00    1.10
  -9   2  -1   -0.20    0.70
  -9   2  -1    0.50    0.40
   9  -2   1    0.80    0.50
 -10   2  -1    1.70    0.90
 -10   2  -1    1.70    0.50
  10  -2   1   -0.40    0.50
  10   1  -1    0.20    0.50
 -10  -1   1    0.40    0.50
 -10  -1   1    1.70    0.80
   9   1  -1    5.60    1.00
  -9  -1   1    6.20    1.30
  -9  -1   1    7.20    0.90
   8   1  -1    2.20    0.60
  -8  -1   1    1.50    0.80
  -8  -1   1    2.70    0.60
   7   1  -1    0.60    0.30
  -7  -1   1    0.30    0.30
  -7  -1   1    0.30    0.50
   6   1  -1    8.60    0.50
   6   1  -1    8.90    0.80
  -6  -1   1    8.40    0.70
  -6  -1   1    8.50    1.00
   5   1  -1    9.60    0.80
   5   1  -1   10.70    0.50
  -5  -1   1    9.90    0.90
  -5  -1   1   10.60    0.30
  -5  -1   1   10.10    0.70
   4   1  -1   45.00    1.00
   4   1  -1   44.70    1.50
  -4  -1   1   43.20    0.80
  -4  -1   1   43.30    1.60
  -4  -1   1   43.60    1.20
   3   1  -1   46.60    1.00
   3   1  -1   47.00    1.40
  -3  -1   1   46.90    0.80
  -3  -1   1   46.20    1.50
  -3  -1   1   47.40    1.20
   2   1  -1   83.19    1.50
  -2  -1   1   85.29    1.60
  -2  -1   1   85.79    1.30
  -2  -1   1   82.19    1.60
  -2  -1   1   84.49    1.90
  -1  -1   1  307.47    4.70
  -1  -1   1  313.57    4.70
  -1  -1   1  313.57    4.80
  -1  -1   1  319.37    5.00
  -1  -1   1  307.57    4.60
   0   1  -1   93.39    1.40
   0   1  -1   92.39    1.50
   0  -1   1   94.59    1.50
   0  -1   1   92.69    1.40
   0  -1   1   93.89    1.50
   0  -1   1   88.99    1.40
  -1   1  -1  126.49    2.10
  -1   1  -1  127.89    2.10
  -1   1  -1  128.39    2.00
   1  -1   1  129.89    2.10
   1  -1   1  129.09    2.00
  -2   1  -1  280.67    4.20
  -2   1  -1  278.17    4.60
  -2   1  -1  276.57    4.50
   2  -1   1  281.97    4.50
   2  -1   1  279.37    4.20
  -3   1  -1   23.40    0.50
  -3   1  -1   26.20    1.00
   3  -1   1   23.30    0.60
   3  -1   1   23.30    0.80
  -4   1  -1   14.80    0.90
  -4   1  -1   14.00    0.70
  -4   1  -1   14.90    0.40
   4  -1   1   15.20    0.80
   4  -1   1   14.20    0.40
  -5   1  -1    7.40    0.60
  -5   1  -1    6.60    0.20
  -5   1  -1    6.10    0.70
   5  -1   1    6.80    0.30
   5  -1   1    7.10    0.60
  -6   1  -1    0.40    0.40
  -6   1  -1    1.10    0.40
   6  -1   1    0.90    0.30
   6  -1   1    0.90    0.20
  -7   1  -1   10.30    0.90
  -7   1  -1    9.80    1.10
   7  -1   1    9.90    0.90
  -8   1  -1    1.00    0.70
  -8   1  -1    0.50    0.40
   8  -1   1    0.40    0.40
  -9   1  -1    1.80    0.60
  -9   1  -1    2.30    1.00
   9  -1   1    2.20    0.70
 -10   1  -1    0.60    0.80
 -10   1  -1   -0.70    0.30
  10  -1   1    0.20    0.50
  10   0  -1    0.40    0.40
 -10   0   1    0.90    0.80
 -10   0   1    0.10    0.40
   9   0  -1   17.30    1.50
  -9   0   1   16.30    1.20
  -9   0   1   16.20    1.70
   8   0  -1    5.40    0.90
  -8   0   1    6.20    1.20
  -8   0   1    6.30    0.80
   7   0  -1    6.20    0.40
   7   0  -1    5.10    0.80
  -7   0   1    7.10    1.20
  -7   0   1    6.70    0.80
   6   0  -1    1.80    0.50
   6   0  -1    2.20    0.30
  -6   0   1    2.30    0.70
  -6   0   1    2.20    0.50
   5   0  -1    4.30    0.60
   5   0  -1    5.00    0.30
  -5   0   1    4.20    0.50
  -5   0   1    4.70    0.80
   4   0  -1    2.90    0.20
   4   0  -1    2.50    0.40
  -4   0   1    3.00    0.40
  -4   0   1    2.60    0.50
   3   0  -1    4.40    0.40
   3   0  -1    5.00    0.30
  -3   0   1    4.90    0.50
  -3   0   1    4.50    0.40
   2   0  -1   69.99    1.60
   2   0  -1   70.49    1.30
  -2   0   1   69.89    1.70
  -2   0   1   69.59    1.40
   1   0  -1    8.70    0.30
   1   0  -1    9.10    0.20
   1   0  -1    9.30    0.20
  -1   0   1    9.10    0.30
  -1   0   1    8.40    0.40
  -1   0   1    9.10    0.30
   0   0  -1   17.70    0.30
   0   0  -1   17.60    0.40
   0   0   1   18.90    0.40
   0   0   1   18.30    0.40
  -1   0  -1  149.49    2.30
  -1   0  -1  153.68    2.30
  -1   0  -1  151.78    2.40
   1   0   1  156.68    2.50
   1   0   1  153.88    2.30
   1   0   1  150.38    2.30
   1   0   1  153.78    2.40
  -2   0  -1  368.26    5.80
  -2   0  -1  376.16    5.50
  -2   0  -1  368.56    5.90
  -2   0  -1  362.06    5.40
   2   0   1  369.56    5.50
   2   0   1  372.06    5.80
  -3   0  -1   74.89    1.30
  -3   0  -1   75.09    1.90
  -3   0  -1   76.89    1.70
   3   0   1   76.09    1.70
   3   0   1   75.99    1.30
  -4   0  -1  148.29    3.30
  -4   0  -1  149.59    2.40
  -4   0  -1  152.48    3.00
   4   0   1  149.39    3.10
   4   0   1  149.69    2.40
  -5   0  -1   40.30    1.60
  -5   0  -1   42.10    1.40
  -5   0  -1   38.20    0.80
   5   0   1   39.00    0.90
   5   0   1   40.50    1.40
  -6   0  -1  143.29    3.70
  -6   0  -1  145.39    3.20
  -6   0  -1  140.59    2.30
   6   0   1  136.29    3.40
   6   0   1  142.89    2.40
  -7   0  -1    1.40    0.40
  -7   0  -1    1.20    0.60
   7   0   1    0.70    0.40
  -8   0  -1   44.10    1.80
  -8   0  -1   42.10    2.30
   8   0   1   42.60    1.90
  -9   0  -1    7.40    1.00
  -9   0  -1    7.70    1.40
   9   0   1    7.70    1.10
 -10   0  -1    2.80    1.20
 -10   0  -1    4.10    0.80
  10   0   1    2.50    0.70
  10  -1  -1   -0.60    0.90
 -10   1   1    0.50    0.70
 -10   1   1    0.80    0.40
   9  -1  -1    1.60    0.60
  -9   1   1   -0.40    0.60
  -9   1   1    0.40    0.50
   8  -1  -1    0.40    0.40
  -8   1   1   -0.10    0.40
  -8   1   1   -0.10    0.60
   7  -1  -1   12.50    1.10
   7  -1  -1   11.10    0.60
  -7   1   1   13.10    1.30
  -7   1   1   11.50    0.90
   6  -1  -1    4.60    0.40
   6  -1  -1    4.10    0.70
  -6   1   1    5.00    0.70
   5  -1  -1  315.97    6.10
   5  -1  -1  324.07    5.20
  -5   1   1  325.37    5.80
  -5   1   1  318.87    6.50
   4  -1  -1   13.20    0.80
   4  -1  -1   12.80    0.50
  -4   1   1   13.40    0.70
  -4   1   1   14.20    1.00
   3  -1  -1  228.08    4.20
   3  -1  -1  220.98    3.60
  -3   1   1  227.98    4.50
  -3   1   1  223.88    3.90
   2  -1  -1  381.46    6.10
   2  -1  -1  382.66    5.80
  -2   1   1  373.46    6.30
  -2   1   1  371.06    5.90
   1  -1  -1    1.00    0.10
  -1   1   1    0.70    0.10
  -1   1   1    0.90    0.10
  -1   1   1    0.90    0.20
   0  -1  -1  116.89    1.80
   0  -1  -1  115.09    1.80
   0  -1  -1  115.09    1.80
   0   1   1  114.69    1.80
   0   1   1  120.79    2.00
   0   1   1  119.09    1.80
   0   1   1  117.79    1.80
  -1  -1  -1  910.51   13.80
  -1  -1  -1  919.41   13.60
  -1  -1  -1  889.01   13.20
   1   1   1  902.21   13.20
   1   1   1  892.91   14.40
   1   1   1  897.11   13.90
  -2  -1  -1   54.39    1.30
  -2  -1  -1   54.59    1.10
  -2  -1  -1   54.39    1.00
   2   1   1   55.79    1.20
  -3  -1  -1   43.00    0.80
  -3  -1  -1   44.10    1.30
  -3  -1  -1   42.90    1.10
   3   1   1   42.20    0.70
   3   1   1   43.90    1.20
  -4  -1  -1   14.10    0.70
  -4  -1  -1   15.10    0.90
  -4  -1  -1   14.50    0.40
   4   1   1   13.90    0.70
   4   1   1   14.70    0.40
  -5  -1  -1   42.50    1.70
  -5  -1  -1   42.30    0.90
  -5  -1  -1   43.10    1.40
   5   1   1   42.50    0.90
   5   1   1   42.90    1.50
  -6  -1  -1    2.10    0.20
  -6  -1  -1    2.10    0.60
  -6  -1  -1    2.20    0.50
   6   1   1    2.20    0.20
   6   1   1    2.00    0.50
  -7  -1  -1    9.80    0.80
  -7  -1  -1    9.30    1.10
   7   1   1   10.40    0.90
  -8  -1  -1   23.90    1.70
  -8  -1  -1   22.20    1.20
   8   1   1   22.80    1.40
  -9  -1  -1    2.70    1.00
  -9  -1  -1    2.80    0.60
   9   1   1    2.10    0.60
 -10  -1  -1    9.10    1.60
 -10  -1  -1    9.30    1.00
  10   1   1    9.00    1.20
 -10   2   1    7.60    1.00
 -10   2   1   13.60    1.70
   9  -2  -1    0.40    0.50
  -9   2   1    0.40    0.80
  -9   2   1    0.10    0.40
   8  -2  -1   27.90    1.70
  -8   2   1   24.60    1.40
  -8   2   1   25.50    2.00
   7  -2  -1   42.50    1.20
   7  -2  -1   43.50    1.90
  -7   2   1   40.10    1.70
  -7   2   1   43.30    2.30
   6  -2  -1   43.30    1.20
   6  -2  -1   42.70    1.80
  -6   2   1   41.10    1.60
  -6   2   1   44.70    2.10
   5  -2  -1   23.80    1.20
   5  -2  -1   25.50    0.80
  -5   2   1   26.40    1.20
  -5   2   1   26.20    1.50
   4  -2  -1   64.29    1.90
   4  -2  -1   63.39    1.40
  -4   2   1   63.89    2.10
  -4   2   1   64.79    1.70
   3  -2  -1 1230.68   18.60
   3  -2  -1 1198.88   18.60
  -3   2   1 1241.28   19.00
  -3   2   1 1227.18   18.40
   2  -2  -1  166.78    3.10
   2  -2  -1  162.48    2.80
  -2   2   1  166.68    2.90
  -2   2   1  162.28    2.50
  -2   2   1  174.58    3.30
   1  -2  -1 8876.31  144.79
   1  -2  -1 9347.46  166.38
   1  -2  -1 9841.62  155.58
  -1   2   1 9999.00  177.78
  -1   2   1 9697.03  157.08
   0  -2  -1   11.20    0.20
   0  -2  -1   11.50    0.30
   0   2   1   10.60    0.50
   0   2   1   10.80    0.30
  -1  -2  -1 1239.48   18.60
  -1  -2  -1 1217.48   18.50
  -1  -2  -1 1262.87   18.40
  -1  -2  -1 1222.18   18.40
   1   2   1 1206.08   18.20
   1   2   1 1233.98   19.40
  -2  -2  -1    8.10    0.20
  -2  -2  -1    7.90    0.30
  -2  -2  -1    8.20    0.30
   2   2   1    8.30    0.20
   2   2   1    8.30    0.50
   2   2   1    8.60    0.40
  -3  -2  -1  281.57    4.60
  -3  -2  -1  287.17    5.00
  -3  -2  -1  276.37    4.30
   3   2   1  270.37    4.10
   3   2   1  288.87    4.70
   3   2   1  286.17    4.20
  -4  -2  -1  578.64    9.60
  -4  -2  -1  575.24    9.00
  -4  -2  -1  560.14    8.50
   4   2   1  583.24    8.40
   4   2   1  568.84    9.20
  -5  -2  -1   47.10    1.00
  -5  -2  -1   47.30    1.80
  -5  -2  -1   47.50    1.40
   5   2   1   48.10    1.60
   5   2   1   47.10    0.90
  -6  -2  -1   60.69    1.20
  -6  -2  -1   62.59    2.30
  -6  -2  -1   65.09    1.80
   6   2   1   62.59    1.20
   6   2   1   62.99    2.00
  -7  -2  -1   66.39    2.50
  -7  -2  -1   63.59    2.00
   7   2   1   63.09    2.20
  -8  -2  -1   14.00    1.40
  -8  -2  -1   14.60    1.00
   8   2   1   12.60    1.10
  -9  -2  -1    3.90    1.10
  -9  -2  -1    5.00    0.80
   9   2   1    3.20    0.70
 -10  -2  -1    8.90    1.00
 -10  -2  -1   10.70    1.70
  10   2   1    7.30    1.20
   9  -3  -1    2.80    0.80
  -9   3   1    4.20    1.20
  -9   3   1    3.00    0.70
   8  -3  -1   17.70    1.40
  -8   3   1   18.40    1.30
  -8   3   1   16.40    1.60
   7  -3  -1    9.80    1.00
   7  -3  -1    8.90    0.60
  -7   3   1    9.40    0.90
  -7   3   1   10.20    1.30
   6  -3  -1  222.48    4.00
   6  -3  -1  226.38    5.00
  -6   3   1  225.88    4.70
  -6   3   1  224.18    5.40
   5  -3  -1  267.77    5.40
   5  -3  -1  276.27    4.60
  -5   3   1  275.87    5.90
  -5   3   1  270.97    5.20
   4  -3  -1  191.38    4.00
   4  -3  -1  193.68    3.40
  -4   3   1  192.98    4.30
  -4   3   1  188.88    3.80
   3  -3  -1 1531.75   22.70
   3  -3  -1 1537.45   23.30
  -3   3   1 1584.64   23.70
  -3   3   1 1537.55   22.50
  -3   3   1 1535.65   23.10
   2  -3  -1  436.56    6.80
   2  -3  -1  450.65    6.50
   2  -3  -1  453.05    7.10
  -2   3   1  442.66    7.00
  -2   3   1  438.76    7.40
   1  -3  -1   12.30    0.50
   1  -3  -1   11.90    0.30
  -1   3   1   11.50    0.50
  -1   3   1   11.90    0.60
   0  -3  -1  162.08    2.40
   0  -3  -1  154.98    2.60
   0  -3  -1  156.88    2.50
   0  -3  -1  161.58    2.40
   0   3   1  158.88    2.90
   0   3   1  156.48    2.60
  -1  -3  -1  588.34    9.40
  -1  -3  -1  604.84    9.10
  -1  -3  -1  602.84    9.40
   1   3   1  623.04    9.30
  -2  -3  -1 1187.48   18.10
  -2  -3  -1 1216.18   18.80
  -2  -3  -1 1237.48   18.70
   2   3   1 1258.57   18.50
   2   3   1 1217.28   18.40
  -3  -3  -1  496.05    7.70
  -3  -3  -1  508.95    7.30
  -3  -3  -1  504.05    7.50
   3   3   1  505.65    7.90
   3   3   1  492.85    8.50
  -4  -3  -1   22.30    0.80
  -4  -3  -1   22.20    0.60
  -4  -3  -1   23.10    1.10
   4   3   1   23.40    0.50
   4   3   1   22.80    0.90
  -5  -3  -1    1.20    0.40
  -5  -3  -1    1.70    0.30
   5   3   1    1.50    0.10
   5   3   1    1.30    0.30
  -6  -3  -1    7.10    0.60
  -6  -3  -1    6.60    0.30
  -6  -3  -1    7.40    0.90
   6   3   1    6.40    0.70
  -7  -3  -1   12.60    1.20
  -7  -3  -1   12.40    0.80
  -7  -3  -1   11.00    0.50
   7   3   1   11.30    0.90
  -8  -3  -1    2.20    0.50
  -8  -3  -1    1.50    0.70
   8   3   1    1.90    0.60
  -9  -3  -1   23.80    1.90
  -9  -3  -1   23.20    1.30
   9   3   1   23.40    1.60
 -10  -3  -1    1.50    0.50
  10   3   1    0.30    0.50
  10   3   1    2.60    1.00
   9  -4  -1    0.10    0.40
  -9   4   1    0.40    0.80
  -9   4   1    0.50    0.40
   8  -4  -1    1.60    0.60
  -8   4   1    2.10    0.60
  -8   4   1    0.70    0.70
   7  -4  -1   76.09    2.70
   7  -4  -1   72.49    1.90
  -7   4   1   73.49    3.10
  -7   4   1   75.69    2.50
   6  -4  -1   -0.10    0.20
   6  -4  -1   -0.10    0.20
  -6   4   1   -0.10    0.50
  -6   4   1   -0.40    0.30
   5  -4  -1  159.08    3.70
   5  -4  -1  161.38    3.00
  -5   4   1  149.99    4.00
  -5   4   1  157.88    3.60
   4  -4  -1   13.90    0.60
   4  -4  -1   14.00    0.80
  -4   4   1   14.00    0.80
  -4   4   1   13.90    1.00
   3  -4  -1   26.80    1.00
   3  -4  -1   27.90    0.80
  -3   4   1   26.10    0.50
  -3   4   1   25.60    1.20
  -3   4   1   24.20    1.00
   2  -4  -1   41.20    0.80
   2  -4  -1   40.80    1.00
   2  -4  -1   40.80    1.20
  -2   4   1   41.80    1.20
  -2   4   1   43.50    1.40
   1  -4  -1  103.29    1.70
   1  -4  -1  101.19    1.90
   1  -4  -1  100.69    1.90
  -1   4   1   98.89    2.20
  -1   4   1  104.59    2.00
   0  -4  -1    1.00    0.20
   0  -4  -1    0.70    0.10
   0   4   1    0.40    0.30
   0   4   1    1.10    0.20
  -1  -4  -1   50.49    1.00
  -1  -4  -1   49.90    1.00
   1   4   1   50.99    1.10
   1   4   1   52.79    1.40
  -2  -4  -1    8.50    0.40
  -2  -4  -1    8.50    0.30
  -2  -4  -1    8.70    0.30
   2   4   1    9.30    0.60
   2   4   1    8.80    0.30
  -3  -4  -1   51.59    1.20
  -3  -4  -1   50.99    0.90
  -3  -4  -1   51.79    1.10
   3   4   1   53.29    1.70
   3   4   1   53.09    1.30
  -4  -4  -1    8.10    0.50
  -4  -4  -1    7.70    0.30
  -4  -4  -1    7.80    0.30
   4   4   1    7.60    0.50
   4   4   1    7.20    0.70
  -5  -4  -1    0.60    0.10
  -5  -4  -1    0.30    0.20
   5   4   1    0.50    0.10
   5   4   1    0.00    0.20
   5   4   1    0.80    0.30
  -6  -4  -1    0.80    0.20
  -6  -4  -1    1.00    0.30
  -6  -4  -1    1.40    0.50
   6   4   1    0.60    0.30
  -7  -4  -1   35.00    1.30
  -7  -4  -1   34.10    1.80
  -7  -4  -1   34.70    0.90
   7   4   1   35.40    1.60
  -8  -4  -1    0.10    0.30
   8   4   1    0.70    0.40
   8   4   1    0.30    0.50
  -9  -4  -1    5.00    0.80
   9   4   1    4.30    1.10
   9   4   1    5.60    0.90
 -10  -4  -1    1.10    0.50
  10   4   1    0.60    0.50
  10   4   1    2.30    0.80
   9  -5  -1   34.70    2.00
  -9   5   1   35.80    1.90
   8  -5  -1    0.30    0.50
  -8   5   1    0.50    0.30
  -8   5   1   -0.50    0.50
   7  -5  -1   15.50    0.80
   7  -5  -1   16.30    1.20
  -7   5   1   16.60    1.20
  -7   5   1   16.20    1.60
   6  -5  -1    1.00    0.30
   6  -5  -1    0.80    0.40
  -6   5   1    0.90    0.40
  -6   5   1    1.00    0.60
   5  -5  -1   22.60    0.90
   5  -5  -1   20.80    1.10
  -5   5   1   21.40    1.20
  -5   5   1   23.30    1.50
   4  -5  -1    4.20    0.40
   4  -5  -1    3.90    0.50
  -4   5   1    4.40    0.60
  -4   5   1    3.90    0.70
  -4   5   1    3.90    0.20
   3  -5  -1    6.20    0.50
   3  -5  -1    6.80    0.40
  -3   5   1    6.20    0.60
  -3   5   1    6.50    0.70
   2  -5  -1  138.19    2.30
   2  -5  -1  141.69    2.60
   2  -5  -1  138.49    2.70
  -2   5   1  138.89    3.10
  -2   5   1  138.79    2.80
   1  -5  -1    1.20    0.10
   1  -5  -1    1.00    0.20
   1  -5  -1    1.20    0.20
  -1   5   1    0.80    0.30
  -1   5   1    0.70    0.30
   0  -5  -1   71.59    1.30
   0  -5  -1   71.59    1.40
   0  -5  -1   72.49    1.20
   0   5   1   72.09    1.60
   0   5   1   70.99    1.80
  -1  -5  -1   70.19    1.40
  -1  -5  -1   69.89    1.30
   1   5   1   71.49    1.80
   1   5   1   67.49    1.50
  -2  -5  -1   62.89    1.20
  -2  -5  -1   66.59    1.40
   2   5   1   65.59    1.20
   2   5   1   65.29    1.70
  -3  -5  -1    1.30    0.20
  -3  -5  -1    1.50    0.10
  -3  -5  -1    1.30    0.20
   3   5   1    1.40    0.20
   3   5   1    1.80    0.40
  -4  -5  -1   40.00    0.80
  -4  -5  -1   40.00    1.00
  -4  -5  -1   40.90    1.10
   4   5   1   39.70    1.20
   4   5   1   39.90    1.70
  -5  -5  -1    6.90    0.50
  -5  -5  -1    6.30    0.40
   5   5   1    5.60    0.70
   5   5   1    6.60    0.60
  -6  -5  -1   59.19    1.60
  -6  -5  -1   57.59    1.30
   6   5   1   57.49    1.90
   6   5   1   55.89    2.40
  -7  -5  -1    0.80    0.20
  -7  -5  -1    0.90    0.30
   7   5   1    0.80    0.40
   7   5   1    1.20    0.50
  -8  -5  -1   13.00    0.90
   8   5   1   12.40    1.00
   8   5   1   10.70    1.30
  -9  -5  -1    3.00    0.60
   9   5   1    1.80    0.60
   9   5   1    3.50    1.10
 -10  -5  -1    6.60    0.90
  10   5   1    8.00    1.60
  10   5   1    5.20    0.90
  -9   6   1    2.10    0.60
   8  -6  -1    0.70    0.50
  -8   6   1    0.40    0.70
  -8   6   1    0.90    0.50
   7  -6  -1    7.50    0.70
   7  -6  -1    7.90    1.00
  -7   6   1    8.50    1.40
  -7   6   1    7.80    1.10
   6  -6  -1    3.00    0.50
   6  -6  -1    2.70    0.60
  -6   6   1    4.10    0.70
  -6   6   1    2.80    0.90
   5  -6  -1   26.90    1.30
   5  -6  -1   28.40    1.10
  -5   6   1   26.00    1.60
  -5   6   1   28.50    1.40
   4  -6  -1   55.19    1.80
   4  -6  -1   56.09    1.50
  -4   6   1   55.99    1.90
  -4   6   1   53.89    2.10
   3  -6  -1   91.89    2.20
   3  -6  -1   86.59    1.60
   3  -6  -1   89.79    2.00
  -3   6   1   89.79    2.30
  -3   6   1   86.99    2.50
   2  -6  -1   14.60    0.70
   2  -6  -1   14.60    0.50
   2  -6  -1   15.10    0.60
  -2   6   1   15.00    0.90
  -2   6   1   15.00    0.80
   1  -6  -1   21.50    0.60
   1  -6  -1   21.80    0.70
   1  -6  -1   20.90    0.60
  -1   6   1   21.50    0.90
  -1   6   1   19.40    1.00
   0  -6  -1   25.70    0.80
   0  -6  -1   25.30    0.70
   0  -6  -1   25.00    0.50
   0   6   1   25.90    0.90
   0   6   1   24.60    1.10
  -1  -6  -1    7.10    0.40
  -1  -6  -1    7.20    0.30
   1   6   1    6.80    0.70
   1   6   1    7.40    0.50
  -2  -6  -1  301.67    4.80
  -2  -6  -1  302.07    4.80
   2   6   1  304.97    5.50
   2   6   1  304.77    5.00
  -3  -6  -1   15.20    0.50
  -3  -6  -1   14.90    0.60
  -3  -6  -1   14.90    0.50
   3   6   1   15.90    0.90
   3   6   1   14.80    0.50
  -4  -6  -1   75.99    1.80
  -4  -6  -1   77.19    1.40
  -4  -6  -1   77.59    1.60
   4   6   1   80.39    2.50
   4   6   1   77.89    1.80
  -5  -6  -1    2.40    0.30
  -5  -6  -1    1.70    0.30
  -5  -6  -1    2.60    0.20
   5   6   1    2.40    0.60
   5   6   1    2.10    0.40
  -6  -6  -1   54.49    1.30
  -6  -6  -1   55.89    1.60
   6   6   1   52.89    1.70
   6   6   1   52.59    2.40
  -7  -6  -1    1.50    0.40
  -7  -6  -1    1.80    0.30
   7   6   1    2.20    0.70
   7   6   1    2.10    0.50
  -8  -6  -1   67.99    2.10
   8   6   1   70.79    3.20
   8   6   1   67.89    2.40
  -9  -6  -1    3.30    0.60
   9   6   1    3.80    1.10
   9   6   1    3.40    0.70
 -10  -6  -1   18.10    1.20
  10   6   1   18.10    1.90
  10   6   1   18.10    1.50
   8  -7  -1    2.60    0.70
  -8   7   1    5.00    0.90
   7  -7  -1    3.10    0.70
   7  -7  -1    2.70    0.50
  -7   7   1    2.50    0.80
  -7   7   1    4.50    0.90
   6  -7  -1    0.70    0.40
   6  -7  -1    1.10    0.30
  -6   7   1    0.90    0.50
  -6   7   1    0.50    0.60
   5  -7  -1    1.70    0.40
   5  -7  -1    1.60    0.50
  -5   7   1    1.70    0.70
  -5   7   1    1.20    0.50
   4  -7  -1    7.40    0.60
   4  -7  -1    6.90    0.60
  -4   7   1    6.80    0.90
  -4   7   1    6.80    1.00
   3  -7  -1  222.88    4.20
   3  -7  -1  224.58    4.10
   3  -7  -1  218.08    3.60
  -3   7   1  225.18    4.50
  -3   7   1  226.18    4.80
   2  -7  -1    0.70    0.20
   2  -7  -1    0.40    0.20
   2  -7  -1    0.60    0.10
  -2   7   1    0.90    0.40
  -2   7   1    0.60    0.40
   1  -7  -1  290.47    4.60
   1  -7  -1  292.77    4.90
   1  -7  -1  291.77    4.60
  -1   7   1  289.27    5.10
  -1   7   1  284.27    5.40
   0  -7  -1   87.79    1.80
   0  -7  -1   83.99    1.40
   0  -7  -1   87.59    1.70
   0   7   1   83.39    2.30
   0   7   1   85.99    2.00
  -1  -7  -1  151.98    2.80
  -1  -7  -1  153.58    2.70
   1   7   1  154.98    3.00
   1   7   1  158.48    3.40
  -2  -7  -1   11.90    0.50
  -2  -7  -1   11.00    0.50
   2   7   1   10.70    0.60
   2   7   1   12.00    0.90
  -3  -7  -1   55.49    1.40
  -3  -7  -1   54.69    1.20
  -3  -7  -1   55.39    1.30
   3   7   1   56.39    1.90
   3   7   1   55.59    1.20
  -4  -7  -1   64.89    1.30
  -4  -7  -1   64.59    1.60
  -4  -7  -1   63.89    1.40
   4   7   1   63.19    1.50
   4   7   1   65.89    2.20
  -5  -7  -1   80.49    2.00
  -5  -7  -1   80.09    1.50
  -5  -7  -1   78.29    1.70
   5   7   1   78.79    2.00
   5   7   1   81.69    2.80
  -6  -7  -1   11.20    0.70
  -6  -7  -1   10.60    0.50
   6   7   1    9.20    0.70
   6   7   1   10.60    1.10
  -7  -7  -1   35.00    1.00
  -7  -7  -1   34.60    1.30
   7   7   1   32.40    2.00
   7   7   1   34.60    1.50
  -8  -7  -1   16.60    1.00
   8   7   1   15.10    1.60
   8   7   1   17.10    1.20
  -9  -7  -1    0.10    0.30
   9   7   1   -0.30    0.50
   9   7   1   -0.20    0.40
 -10  -7  -1    8.60    0.90
  10   7   1    7.80    1.60
   8  -8  -1    2.60    0.80
   8  -8  -1    5.20    1.00
  -8   8   1    8.60    1.00
   7  -8  -1   -0.30    0.40
   7  -8  -1    0.30    0.30
  -7   8   1    0.60    0.50
   6  -8  -1   30.50    1.30
   6  -8  -1   31.50    1.60
  -6   8   1   33.70    2.00
  -6   8   1   31.10    1.70
   5  -8  -1    4.90    0.70
   5  -8  -1    4.80    0.60
  -5   8   1    5.90    1.00
  -5   8   1    4.90    0.80
   4  -8  -1   15.70    0.90
   4  -8  -1   16.20    0.80
  -4   8   1   16.70    1.20
  -4   8   1   15.20    1.20
   3  -8  -1    0.00    0.20
   3  -8  -1    0.30    0.10
   3  -8  -1    0.40    0.20
  -3   8   1    0.50    0.40
  -3   8   1    0.20    0.40
   2  -8  -1    3.10    0.30
   2  -8  -1    2.90    0.40
   2  -8  -1    2.30    0.30
  -2   8   1    2.00    0.50
  -2   8   1    2.00    0.50
   1  -8  -1   33.10    0.90
   1  -8  -1   32.40    1.00
   1  -8  -1   32.30    0.80
  -1   8   1   32.00    1.30
  -1   8   1   31.60    1.40
   0  -8  -1    0.30    0.10
   0  -8  -1    0.60    0.20
   0   8   1    0.10    0.50
   0   8   1    0.40    0.30
  -1  -8  -1  158.08    2.90
  -1  -8  -1  160.78    2.80
   1   8   1  156.68    3.50
   1   8   1  158.58    3.20
  -2  -8  -1    0.40    0.10
  -2  -8  -1    0.30    0.10
   2   8   1    0.50    0.50
   2   8   1   -0.10    0.20
  -3  -8  -1   24.70    0.80
  -3  -8  -1   26.70    0.80
   3   8   1   25.60    0.90
   3   8   1   25.70    1.30
  -4  -8  -1    8.20    0.60
  -4  -8  -1    8.20    0.50
  -4  -8  -1    8.80    0.40
   4   8   1    8.80    0.90
  -5  -8  -1    2.60    0.30
  -5  -8  -1    3.40    0.50
  -5  -8  -1    2.70    0.30
   5   8   1    2.10    0.60
  -6  -8  -1   25.70    1.10
  -6  -8  -1   24.70    0.90
   6   8   1   28.50    1.80
  -7  -8  -1    1.40    0.30
  -7  -8  -1    1.70    0.50
   7   8   1    1.50    0.70
  -8  -8  -1    7.50    0.80
  -8  -8  -1    8.40    0.50
   8   8   1    9.70    1.50
  -9  -8  -1    0.50    0.40
   9   8   1    1.40    0.80
 -10  -8  -1    0.70    0.60
   7  -9  -1    0.10    0.30
  -7   9   1    1.70    0.50
   6  -9  -1    5.40    0.70
  -6   9   1    6.50    1.00
   5  -9  -1   -0.60    0.30
   5  -9  -1    0.00    0.20
  -5   9   1    0.40    0.50
   4  -9  -1   31.80    1.20
   4  -9  -1   30.30    1.50
  -4   9   1   30.30    1.60
  -4   9   1   30.90    1.70
   3  -9  -1    0.20    0.10
   3  -9  -1    0.00    0.20
  -3   9   1    0.40    0.40
  -3   9   1    0.10    0.40
   2  -9  -1   43.30    1.10
   2  -9  -1   43.90    1.40
  -2   9   1   42.60    1.60
  -2   9   1   41.10    1.70
   1  -9  -1    0.10    0.10
   1  -9  -1    0.30    0.20
  -1   9   1    0.60    0.40
  -1   9   1   -0.10    0.40
   0  -9  -1   60.89    1.60
   0  -9  -1   61.79    1.40
   0   9   1   66.79    1.90
   0   9   1   58.99    2.00
  -1  -9  -1   23.70    0.80
  -1  -9  -1   24.10    0.90
   1   9   1   24.50    1.10
   1   9   1   23.80    1.40
  -2  -9  -1    3.30    0.40
  -2  -9  -1    4.00    0.30
   2   9   1    3.90    0.80
   2   9   1    3.50    0.50
  -3  -9  -1   26.50    0.90
  -3  -9  -1   25.90    0.90
   3   9   1   29.10    1.50
   3   9   1   28.00    1.10
  -4  -9  -1    8.20    0.50
  -4  -9  -1    8.10    0.50
   4   9   1    8.90    1.00
   4   9   1    8.40    0.60
  -5  -9  -1   51.09    1.30
  -5  -9  -1   47.70    1.50
   5   9   1   50.59    2.20
  -6  -9  -1    0.40    0.30
  -6  -9  -1    0.30    0.20
   6   9   1    0.40    0.50
  -7  -9  -1    3.10    0.60
  -7  -9  -1    2.50    0.40
   7   9   1    1.90    0.80
  -8  -9  -1    2.10    0.30
  -8  -9  -1    3.70    0.70
   8   9   1    2.00    0.90
  -9  -9  -1   -0.10    0.40
   9   9   1    0.40    0.70
   7 -10  -1    0.10    0.30
   6 -10  -1    0.30    0.30
  -6  10   1    0.90    0.60
   5 -10  -1   -0.10    0.30
  -5  10   1    0.30    0.50
   4 -10  -1    0.10    0.20
  -4  10   1    0.60    0.50
   3 -10  -1    0.40    0.20
   3 -10  -1    0.10    0.20
  -3  10   1    0.60    0.50
   2 -10  -1    2.60    0.30
   2 -10  -1    2.60    0.40
  -2  10   1    3.20    0.60
  -2  10   1    3.70    0.70
   1 -10  -1    0.80    0.20
   1 -10  -1    0.80    0.20
  -1  10   1    0.70    0.50
  -1  10   1    0.90    0.40
   0 -10  -1    0.00    0.20
   0 -10  -1   -0.10    0.10
   0  10   1    0.40    0.50
   0  10   1    0.30    0.40
  -1 -10  -1    1.00    0.30
  -1 -10  -1    1.10    0.20
   1  10   1    1.60    0.50
   1  10   1    1.10    0.70
  -2 -10  -1    8.20    0.50
  -2 -10  -1    8.80    0.50
   2  10   1    8.90    1.10
   2  10   1    9.40    0.80
  -3 -10  -1   45.90    1.30
  -3 -10  -1   46.60    1.30
   3  10   1   44.50    2.00
   3  10   1   46.30    1.60
  -4 -10  -1   14.10    0.60
  -4 -10  -1   15.10    0.70
   4  10   1   13.90    1.30
   4  10   1   14.20    0.90
  -5 -10  -1   11.60    0.60
   5  10   1   11.10    0.80
   5  10   1   10.20    1.20
  -6 -10  -1   20.80    0.90
  -6 -10  -1   20.10    1.10
   6  10   1   18.80    1.60
  -7 -10  -1    5.50    0.50
  -7 -10  -1    5.20    0.70
   7  10   1    5.00    1.10
  -8 -10  -1    0.60    0.40
  -8 -10  -1    0.90    0.30
   8  10   1    0.70    0.70
  -9 -10  -1    2.40    0.60
   9  10   1    1.70    1.00
   6 -11  -1    0.30    0.30
   5 -11  -1    0.20    0.30
  -5  11   1    0.70    0.50
   4 -11  -1    0.10    0.30
  -4  11   1    0.50    0.60
   3 -11  -1    0.30    0.30
  -3  11   1    0.50    0.50
   2 -11  -1    0.60    0.30
   2 -11  -1    0.60    0.20
  -2  11   1    0.30    0.50
   1 -11  -1   11.60    0.80
   1 -11  -1   12.30    0.60
  -1  11   1   12.80    1.10
   0 -11  -1    0.50    0.20
   0 -11  -1    0.10    0.20
   0  11   1    0.50    0.50
   0  11   1    0.80    0.50
  -1 -11  -1   33.30    1.10
  -1 -11  -1   36.20    1.20
   1  11   1   33.90    1.50
   1  11   1   37.20    1.80
  -2 -11  -1    2.40    0.40
  -2 -11  -1    2.30    0.30
   2  11   1    2.90    0.60
   2  11   1    1.90    0.80
  -3 -11  -1   36.40    1.20
  -3 -11  -1   38.50    1.20
   3  11   1   34.30    1.90
   3  11   1   37.20    1.50
  -4 -11  -1    3.50    0.40
  -4 -11  -1    3.30    0.40
   4  11   1    2.90    1.00
   4  11   1    4.60    0.70
  -5 -11  -1   -0.10    0.20
   5  11   1   -0.90    0.60
   5  11   1    0.10    0.30
  -6 -11  -1   44.60    1.40
   6  11   1   43.70    2.30
   6  11   1   46.40    1.70
  -7 -11  -1    4.50    0.70
  -7 -11  -1    4.00    0.50
   7  11   1    3.90    1.10
  -8 -11  -1   36.90    1.60
  -8 -11  -1   35.30    1.30
   8  11   1   36.40    2.40
   5 -12  -1    2.20    0.50
  -5  12   1    3.70    0.80
   4 -12  -1    6.90    0.80
  -4  12   1    6.20    1.00
   3 -12  -1    2.60    0.50
  -3  12   1    4.80    0.90
   2 -12  -1   15.60    0.90
   2 -12  -1   14.70    0.70
  -2  12   1   15.20    1.30
   1 -12  -1    0.50    0.20
   1 -12  -1    0.10    0.20
  -1  12   1    0.60    0.60
   0 -12  -1   95.99    2.40
   0 -12  -1   96.09    2.20
   0  12   1   96.79    2.80
  -1 -12  -1   12.90    0.80
  -1 -12  -1   13.30    0.70
   1  12   1   12.30    1.10
  -2 -12  -1   10.70    0.60
  -2 -12  -1   10.20    0.70
   2  12   1    9.80    1.00
  -3 -12  -1    8.90    0.60
  -3 -12  -1    7.90    0.60
   3  12   1    8.50    1.30
   3  12   1    8.00    0.90
  -4 -12  -1   10.00    0.60
  -4 -12  -1    8.90    0.60
   4  12   1   10.40    1.00
   4  12   1    9.70    1.50
  -5 -12  -1    1.00    0.30
   5  12   1   -1.30    0.80
   5  12   1    0.50    0.50
  -6 -12  -1    1.30    0.30
   6  12   1    1.40    0.50
   6  12   1    0.20    0.90
  -7 -12  -1    0.00    0.20
   7  12   1    1.00    0.40
   7  12   1   -1.00    0.80
  -8 -12  -1   12.40    0.80
   8  12   1   11.40    1.80
   4 -13  -1   14.90    1.00
  -4  13   1   20.10    1.50
   3 -13  -1   30.40    1.40
  -3  13   1   28.30    1.80
   2 -13  -1   41.00    1.40
   2 -13  -1   43.60    1.60
  -2  13   1   42.90    2.00
   1 -13  -1   66.19    1.80
   1 -13  -1   64.19    2.00
  -1  13   1   68.19    2.40
   0 -13  -1    6.00    0.50
   0 -13  -1    5.50    0.60
   0  13   1    5.90    0.90
  -1 -13  -1    7.70    0.70
  -1 -13  -1    7.80    0.60
   1  13   1    7.70    1.00
  -2 -13  -1    8.30    0.60
  -2 -13  -1    7.40    0.60
   2  13   1    9.20    1.10
  -3 -13  -1   19.20    0.90
  -3 -13  -1   19.20    0.90
   3  13   1   19.10    1.30
  -4 -13  -1   29.50    1.20
   4  13   1   29.10    1.60
  -5 -13  -1    0.10    0.20
   5  13   1    0.40    0.50
  -6 -13  -1    5.10    0.60
   6  13   1    2.50    1.40
   6  13   1    4.70    0.80
  -7 -13  -1   -0.20    0.20
   7  13   1    0.50    0.60
  -3  14   1    1.90    0.90
   2 -14  -1   11.20    0.90
  -2  14   1   13.20    1.30
   1 -14  -1    7.50    0.60
   1 -14  -1    8.10    0.80
  -1  14   1    9.00    1.20
   0 -14  -1    9.80    0.70
   0 -14  -1    9.60    0.80
   0  14   1    9.40    1.20
  -1 -14  -1   14.50    0.80
  -1 -14  -1   14.50    0.90
   1  14   1   12.90    1.30
  -2 -14  -1    0.10    0.20
  -2 -14  -1    0.80    0.30
   2  14   1   -0.10    0.60
  -3 -14  -1   44.90    1.50
  -3 -14  -1   45.00    1.50
   3  14   1   44.40    2.00
  -4 -14  -1    2.40    0.50
   4  14   1    1.60    0.70
  -5 -14  -1   23.60    1.10
   5  14   1   21.20    1.50
  -6 -14  -1    1.50    0.40
   1 -15  -1    9.70    1.20
   1 -15  -1   11.10    0.80
  -1  15   1    8.30    1.80
   0 -15  -1   12.40    0.80
   0 -15  -1   13.20    0.90
   0  15   1   12.70    1.30
  -1 -15  -1   10.50    0.80
  -1 -15  -1    9.80    0.80
   1  15   1   10.30    1.30
  -2 -15  -1    0.30    0.30
  -2 -15  -1    0.10    0.20
   2  15   1    0.40    0.70
  -3 -15  -1   11.90    0.80
  -3 -15  -1   12.40    0.80
   3  15   1   11.10    1.30
  -4 -15  -1    7.80    0.80
   4  15   1    8.80    1.60
  -2 -16  -1    4.70    0.90
   3  15  -2    6.40    1.10
  -3 -15   2    6.30    0.70
   2  15  -2    2.80    0.80
  -2 -15   2    2.50    0.50
  -2 -15   2    2.30    0.50
   1  15  -2    0.20    0.60
  -1 -15   2    0.30    0.30
  -1 -15   2    1.00    0.30
   0  15  -2   -0.20    0.60
   0 -15   2   -0.10    0.30
  -1  15  -2    0.80    0.30
  -2  15  -2    1.00    0.30
   5  14  -2    0.40    0.60
  -5 -14   2    0.30    0.30
   4  14  -2   -0.50    0.50
  -4 -14   2    0.10    0.50
  -4 -14   2   -0.20    0.20
   3  14  -2    0.90    0.70
  -3 -14   2    0.90    0.30
  -3 -14   2    1.00    0.30
   2  14  -2    2.50    0.70
  -2 -14   2    2.90    0.50
  -2 -14   2    3.10    0.50
   1  14  -2    0.80    0.70
  -1 -14   2    0.30    0.30
  -1 -14   2    0.90    0.30
   0  14  -2    5.50    0.90
   0 -14   2    4.70    0.60
   0 -14   2    5.80    0.70
  -1  14  -2   -0.70    0.50
  -1  14  -2   -0.40    0.20
   1 -14   2   -0.30    0.20
  -2  14  -2    2.40    0.80
  -2  14  -2    1.40    0.40
   2 -14   2    2.00    0.50
  -3  14  -2    0.80    0.60
   3 -14   2   -0.10    0.30
   6  13  -2   -0.20    0.50
  -6 -13   2   -0.30    0.20
   5  13  -2   10.00    1.10
  -5 -13   2   11.60    0.80
   4  13  -2    4.80    0.90
  -4 -13   2    4.90    0.60
  -4 -13   2    4.10    0.50
   3  13  -2   13.60    1.20
  -3 -13   2   13.60    0.80
  -3 -13   2   13.40    0.80
   2  13  -2    0.70    0.60
  -2 -13   2    1.10    0.30
  -2 -13   2    0.90    0.30
   1  13  -2    3.80    0.80
  -1 -13   2    3.90    0.50
  -1 -13   2    3.60    0.50
   0  13  -2    0.70    0.60
   0 -13   2    0.70    0.30
   0 -13   2    0.60    0.30
  -1  13  -2    0.70    0.60
   1 -13   2    0.10    0.30
  -2  13  -2    8.60    1.10
  -2  13  -2    7.80    0.60
   2 -13   2    9.30    0.80
  -3  13  -2    0.90    0.60
  -3  13  -2    0.20    0.30
   3 -13   2    0.30    0.30
  -4  13  -2   11.80    1.20
   4 -13   2    9.70    0.80
   7  12  -2   12.60    1.00
  -7 -12   2   10.80    0.70
   6  12  -2   28.00    1.40
  -6 -12   2   26.60    1.10
   5  12  -2   21.90    1.30
  -5 -12   2   23.20    1.00
   4  12  -2    0.70    0.50
  -4 -12   2    0.80    0.30
  -4 -12   2    0.40    0.30
   3  12  -2   24.10    1.30
  -3 -12   2   22.30    1.00
  -3 -12   2   23.50    1.00
   2  12  -2   11.70    1.00
  -2 -12   2   11.50    0.70
  -2 -12   2   10.90    0.70
   1  12  -2   52.29    1.90
  -1 -12   2   55.49    1.60
  -1 -12   2   52.29    1.60
   0  12  -2    2.30    0.70
   0 -12   2    2.60    0.40
   0 -12   2    2.90    0.40
  -1  12  -2   26.10    1.50
   1 -12   2   28.20    1.10
   1 -12   2   26.40    1.20
  -2  12  -2   -0.10    0.50
  -2  12  -2    0.30    0.20
   2 -12   2    0.10    0.20
  -3  12  -2    2.80    0.40
  -3  12  -2    4.70    0.90
   3 -12   2    2.60    0.50
  -4  12  -2    2.00    0.70
   4 -12   2    1.00    0.40
  -5  12  -2    3.80    0.90
   5 -12   2    2.80    0.50
   8  11  -2   -0.80    0.60
   7  11  -2   -0.40    0.70
  -7 -11   2   -0.20    0.20
   6  11  -2    5.10    1.10
   6  11  -2    7.50    0.80
  -6 -11   2    6.30    0.60
   5  11  -2   23.30    1.20
   5  11  -2   19.70    2.00
  -5 -11   2   20.80    0.90
   4  11  -2   19.30    1.10
  -4 -11   2   18.00    0.80
  -4 -11   2   18.80    0.90
   3  11  -2    2.30    0.60
  -3 -11   2    1.70    0.30
  -3 -11   2    2.10    0.40
   2  11  -2   18.20    1.10
  -2 -11   2   16.90    0.80
  -2 -11   2   17.40    0.80
   1  11  -2    1.30    0.50
  -1 -11   2    1.00    0.30
  -1 -11   2    1.50    0.30
   0  11  -2    6.50    0.90
   0 -11   2    6.00    0.50
   0 -11   2    5.80    0.50
  -1  11  -2   11.30    1.00
   1 -11   2   10.30    0.70
   1 -11   2   11.20    0.70
  -2  11  -2    1.60    0.60
  -2  11  -2    0.90    0.30
   2 -11   2    1.00    0.30
  -3  11  -2   11.60    0.70
  -3  11  -2   12.00    1.20
   3 -11   2   13.70    0.80
  -4  11  -2   10.30    1.10
   4 -11   2    8.70    0.70
  -5  11  -2    0.30    0.50
   5 -11   2    0.10    0.20
  -6  11  -2    1.40    0.60
   6 -11   2   -0.20    0.20
   8  10  -2   18.10    1.80
  -8 -10   2   15.80    1.10
   7  10  -2    1.80    0.70
  -7 -10   2    1.70    0.50
  -7 -10   2    2.00    0.40
   6  10  -2   13.20    1.40
  -6 -10   2   13.00    0.70
   5  10  -2    6.50    1.10
   5  10  -2    7.10    0.70
  -5 -10   2    5.80    0.50
  -5 -10   2    5.80    0.50
   4  10  -2    1.40    0.40
   4  10  -2    1.10    0.50
  -4 -10   2    1.40    0.30
  -4 -10   2    1.30    0.30
   3  10  -2    6.60    0.90
   3  10  -2    7.10    0.70
  -3 -10   2    7.80    0.50
  -3 -10   2    7.40    0.50
   2  10  -2   17.70    1.00
  -2 -10   2   17.20    0.80
  -2 -10   2   18.40    0.80
   1  10  -2   35.70    1.40
  -1 -10   2   37.60    1.20
  -1 -10   2   37.00    1.20
   0  10  -2    0.30    0.40
   0 -10   2    0.40    0.20
   0 -10   2    0.20    0.20
  -1  10  -2    4.50    0.70
   1 -10   2    3.90    0.50
   1 -10   2    3.50    0.40
  -2  10  -2    0.50    0.50
  -2  10  -2    0.00    0.20
   2 -10   2    0.00    0.20
  -3  10  -2    0.60    0.20
  -3  10  -2    1.20    0.60
   3 -10   2    1.00    0.30
  -4  10  -2    1.50    0.60
  -4  10  -2    0.90    0.30
   4 -10   2    0.90    0.30
  -5  10  -2    1.00    0.60
   5 -10   2    0.00    0.20
  -6  10  -2    1.70    0.70
   6 -10   2    0.40    0.30
  -7  10  -2    1.40    0.50
   7 -10   2    0.20    0.30
  -9  -9   2    1.50    0.60
   8   9  -2   -0.60    0.50
  -8  -9   2   -0.40    0.40
   7   9  -2    0.80    0.70
  -7  -9   2    0.30    0.20
  -7  -9   2    0.20    0.40
   6   9  -2    3.90    1.00
  -6  -9   2    6.30    0.70
  -6  -9   2    5.40    0.50
   5   9  -2    0.70    0.50
  -5  -9   2    1.00    0.30
  -5  -9   2    0.50    0.20
   4   9  -2    3.90    0.80
   4   9  -2    3.40    0.50
  -4  -9   2    3.00    0.40
  -4  -9   2    3.00    0.40
   3   9  -2   32.90    1.20
   3   9  -2   33.10    1.50
  -3  -9   2   32.30    1.00
  -3  -9   2   34.10    1.00
   2   9  -2    0.10    0.40
   2   9  -2    0.60    0.40
  -2  -9   2    0.70    0.20
  -2  -9   2    0.20    0.20
   1   9  -2    1.40    0.50
   1   9  -2    1.40    0.60
  -1  -9   2    1.30    0.30
  -1  -9   2    1.50    0.30
   0   9  -2   65.89    1.90
   0  -9   2   67.39    1.70
   0  -9   2   66.79    1.70
   0  -9   2   64.79    1.60
  -1   9  -2   -0.20    0.40
   1  -9   2    0.20    0.20
   1  -9   2    0.00    0.10
   1  -9   2    0.00    0.10
  -2   9  -2    6.10    0.50
  -2   9  -2    4.80    0.70
   2  -9   2    5.00    0.40
   2  -9   2    6.00    0.50
  -3   9  -2    1.30    0.50
  -3   9  -2    0.70    0.20
   3  -9   2    0.60    0.30
   3  -9   2    0.50    0.20
  -4   9  -2    4.40    0.80
  -4   9  -2    3.40    0.40
   4  -9   2    3.70    0.50
   4  -9   2    4.00    0.50
  -5   9  -2   15.60    1.30
   5  -9   2   15.40    1.00
   5  -9   2   16.20    0.90
  -6   9  -2    0.30    0.50
   6  -9   2    0.40    0.30
   6  -9   2   -0.90    0.40
  -7   9  -2   13.90    1.30
   7  -9   2   12.00    0.80
   7  -9   2   10.70    1.10
   9   8  -2    0.90    0.70
  -9  -8   2    0.40    0.50
   8   8  -2    0.70    0.60
  -8  -8   2   -0.10    0.40
   7   8  -2   13.30    1.50
   7   8  -2   12.70    1.10
  -7  -8   2   11.50    0.90
   6   8  -2    7.30    0.80
   6   8  -2    8.40    1.30
  -6  -8   2    7.00    0.70
  -6  -8   2    7.60    0.50
   5   8  -2   40.30    2.00
   5   8  -2   36.60    1.50
  -5  -8   2   37.60    1.10
  -5  -8   2   37.80    1.30
  -5  -8   2   35.80    1.10
   4   8  -2   37.10    1.80
   4   8  -2   35.90    1.40
  -4  -8   2   37.10    1.10
  -4  -8   2   36.70    1.10
   3   8  -2   19.50    0.80
   3   8  -2   19.30    1.10
  -3  -8   2   19.70    0.70
  -3  -8   2   19.60    0.70
  -3  -8   2   19.10    0.70
   2   8  -2    3.80    0.50
   2   8  -2    3.40    0.50
  -2  -8   2    3.50    0.40
  -2  -8   2    4.10    0.30
  -2  -8   2    3.30    0.40
   1   8  -2    0.60    0.40
   1   8  -2    0.30    0.30
  -1  -8   2    0.50    0.20
  -1  -8   2    0.10    0.10
  -1  -8   2    0.20    0.10
   0   8  -2   10.40    0.70
   0   8  -2   11.20    0.80
   0  -8   2   11.50    0.50
   0  -8   2   10.00    0.60
   0  -8   2    9.90    0.50
  -1   8  -2   27.90    1.20
  -1   8  -2   27.50    0.90
   1  -8   2   28.00    0.80
   1  -8   2   28.00    0.90
   1  -8   2   29.40    0.90
  -2   8  -2   43.90    1.60
  -2   8  -2   41.50    1.10
   2  -8   2   44.90    1.20
   2  -8   2   44.10    1.30
  -3   8  -2   -0.20    0.40
  -3   8  -2    0.40    0.20
   3  -8   2    0.30    0.30
   3  -8   2    0.40    0.20
  -4   8  -2   53.69    2.00
  -4   8  -2   53.09    1.30
   4  -8   2   54.09    1.50
   4  -8   2   52.99    1.60
  -5   8  -2    1.60    0.60
   5  -8   2    1.50    0.50
   5  -8   2    2.20    0.40
  -6   8  -2    8.30    1.20
   6  -8   2    8.10    0.60
   6  -8   2    7.70    0.90
  -7   8  -2    7.60    1.20
   7  -8   2    7.10    1.00
   7  -8   2    6.60    0.60
  -8   8  -2    5.30    0.90
   8  -8   2    3.20    0.80
   9   7  -2    6.70    1.40
   9   7  -2    6.00    1.00
  -9  -7   2    6.70    0.90
   8   7  -2   22.50    1.90
   8   7  -2   19.00    1.40
  -8  -7   2   19.80    1.10
   7   7  -2   83.69    3.50
   7   7  -2   83.19    2.80
  -7  -7   2   82.39    2.20
   6   7  -2    1.80    0.70
   6   7  -2    1.30    0.40
  -6  -7   2    1.90    0.40
  -6  -7   2    1.50    0.30
   5   7  -2   69.59    2.70
   5   7  -2   69.39    2.20
  -5  -7   2   69.79    1.60
  -5  -7   2   71.59    1.60
  -5  -7   2   73.29    1.80
   4   7  -2    6.60    0.80
  -4  -7   2    6.70    0.40
  -4  -7   2    6.30    0.50
  -4  -7   2    6.20    0.40
  -4  -7   2    5.40    0.50
   3   7  -2  204.08    4.50
  -3  -7   2  202.28    3.50
  -3  -7   2  209.28    3.60
  -3  -7   2  202.68    3.50
   2   7  -2  289.27    4.90
   2   7  -2  293.67    5.30
  -2  -7   2  284.97    4.70
  -2  -7   2  286.27    4.80
  -2  -7   2  288.97    4.70
   1   7  -2   84.49    1.90
   1   7  -2   84.39    1.90
  -1  -7   2   79.99    1.60
  -1  -7   2   85.69    1.70
  -1  -7   2   83.79    1.80
   0   7  -2   92.79    2.10
   0   7  -2   88.99    1.90
   0  -7   2   87.99    1.80
   0  -7   2   89.39    1.70
   0  -7   2   90.89    1.90
  -1   7  -2   25.60    0.80
  -1   7  -2   28.70    1.10
   1  -7   2   27.50    0.90
   1  -7   2   26.50    0.80
   1  -7   2   26.70    0.80
  -2   7  -2   22.80    1.10
  -2   7  -2   20.80    0.80
  -2   7  -2   22.30    0.70
   2  -7   2   24.20    0.80
   2  -7   2   21.50    0.80
  -3   7  -2    6.90    0.60
  -3   7  -2    8.00    0.80
  -3   7  -2    7.70    0.40
   3  -7   2    7.80    0.60
   3  -7   2    8.30    0.50
  -4   7  -2   15.80    0.60
  -4   7  -2   15.70    1.10
  -4   7  -2   12.10    0.80
   4  -7   2   13.90    0.70
   4  -7   2   14.10    0.80
  -5   7  -2    0.20    0.40
  -5   7  -2    0.60    0.20
   5  -7   2    0.60    0.20
   5  -7   2    0.70    0.40
  -6   7  -2   64.79    2.40
   6  -7   2   62.09    1.70
   6  -7   2   61.19    2.10
  -7   7  -2    0.40    0.40
   7  -7   2   -0.60    0.40
   7  -7   2   -0.20    0.20
  -8   7  -2   10.80    1.20
   8  -7   2   10.80    1.20
   9  -7   2   -1.00    0.40
  10   6  -2    1.60    1.20
 -10  -6   2    1.30    0.50
   9   6  -2    4.30    1.10
   9   6  -2    3.60    0.80
  -9  -6   2    3.90    0.70
   8   6  -2   23.30    1.60
  -8  -6   2   23.90    1.90
  -8  -6   2   23.00    1.20
   7   6  -2   17.90    1.30
  -7  -6   2   21.30    1.60
  -7  -6   2   19.80    1.00
   6   6  -2   20.00    1.20
   6   6  -2   20.70    0.80
  -6  -6   2   19.60    0.70
  -6  -6   2   20.70    0.90
  -6  -6   2   19.80    1.40
   5   6  -2   44.50    1.70
  -5  -6   2   46.70    1.30
  -5  -6   2   45.40    1.10
  -5  -6   2   42.50    1.10
  -5  -6   2   41.60    1.80
  -4  -6   2  238.78    5.00
  -4  -6   2  242.78    4.00
  -4  -6   2  244.78    4.30
  -4  -6   2  246.58    4.10
  -4  -6   2  246.28    4.40
   3   6  -2  444.16    8.10
  -3  -6   2  442.46    7.00
  -3  -6   2  444.36    6.90
  -3  -6   2  438.96    7.10
  -3  -6   2  456.75    7.10
   2   6  -2    4.00    0.40
   2   6  -2    4.60    0.50
  -2  -6   2    4.00    0.30
  -2  -6   2    4.10    0.30
  -2  -6   2    3.80    0.30
   1   6  -2  163.38    3.00
   1   6  -2  161.48    3.00
  -1  -6   2  157.38    2.80
  -1  -6   2  163.98    2.80
  -1  -6   2  159.28    2.70
   0   6  -2   17.00    0.70
   0   6  -2   17.20    0.70
   0  -6   2   16.70    0.60
   0  -6   2   16.00    0.60
   0  -6   2   15.90    0.60
  -1   6  -2  265.17    4.70
  -1   6  -2  262.87    4.30
   1  -6   2  272.27    4.30
   1  -6   2  278.47    4.40
   1  -6   2  277.07    4.50
  -2   6  -2  185.78    3.10
  -2   6  -2  189.38    3.60
  -2   6  -2  175.08    3.20
   2  -6   2  187.58    3.30
   2  -6   2  185.78    3.20
  -3   6  -2   36.30    0.90
  -3   6  -2   33.70    1.10
  -3   6  -2   34.80    1.30
   3  -6   2   36.70    1.10
   3  -6   2   36.00    1.00
  -4   6  -2    1.70    0.20
  -4   6  -2    2.00    0.40
  -4   6  -2    2.20    0.50
   4  -6   2    1.90    0.30
   4  -6   2    1.60    0.40
  -5   6  -2    7.00    0.70
  -5   6  -2    7.10    0.40
  -5   6  -2    7.40    0.90
   5  -6   2    8.00    0.50
   5  -6   2    7.10    0.70
  -6   6  -2   -0.20    0.30
  -6   6  -2    0.00    0.40
   6  -6   2    0.00    0.20
   6  -6   2   -0.60    0.30
  -7   6  -2    3.60    0.80
   7  -6   2    2.60    0.60
   7  -6   2    2.70    0.40
  -8   6  -2    3.30    0.80
   8  -6   2    2.10    0.70
  -9   6  -2    3.00    0.80
   9  -6   2    1.50    0.70
  10   5  -2    3.30    1.00
 -10  -5   2    4.40    0.70
   9   5  -2    0.40    0.50
  -9  -5   2    0.30    0.80
  -9  -5   2    0.10    0.40
   8   5  -2    6.10    1.00
  -8  -5   2    7.30    1.30
  -8  -5   2    6.90    0.70
   7   5  -2    1.90    0.60
  -7  -5   2    1.60    0.70
  -7  -5   2    2.70    0.50
   6   5  -2    2.90    0.30
   6   5  -2    1.60    0.50
  -6  -5   2    2.30    0.30
  -6  -5   2    2.60    0.40
  -6  -5   2    2.00    0.60
   5   5  -2   56.99    2.00
   5   5  -2   60.29    1.40
  -5  -5   2   58.89    2.20
  -5  -5   2   57.69    1.30
  -5  -5   2   61.19    1.60
  -4  -5   2   15.50    0.70
  -4  -5   2   15.90    0.80
  -4  -5   2   15.80    0.60
  -4  -5   2   15.90    1.00
  -4  -5   2   16.20    0.50
  -3  -5   2    2.20    0.20
  -3  -5   2    2.00    0.30
  -3  -5   2    2.10    0.30
  -3  -5   2    1.70    0.20
  -3  -5   2    2.10    0.40
  -2  -5   2   19.10    0.60
  -2  -5   2   20.10    0.60
  -2  -5   2   19.30    0.70
  -2  -5   2   20.50    0.60
   1   5  -2    1.90    0.30
   1   5  -2    2.10    0.30
  -1  -5   2    1.60    0.20
  -1  -5   2    2.30    0.20
  -1  -5   2    1.70    0.20
   0   5  -2  346.77    5.50
   0   5  -2  344.87    5.30
   0  -5   2  336.27    5.30
   0  -5   2  345.07    5.30
   0  -5   2  315.07    5.20
  -1   5  -2   33.70    1.00
   1  -5   2   33.80    0.80
   1  -5   2   31.90    0.80
   1  -5   2   33.20    0.90
  -2   5  -2   17.00    0.60
  -2   5  -2   19.10    0.60
  -2   5  -2   17.80    0.80
   2  -5   2   18.60    0.70
   2  -5   2   18.10    0.60
  -3   5  -2    0.30    0.20
  -3   5  -2    0.40    0.10
  -3   5  -2    0.00    0.30
   3  -5   2    0.60    0.20
   3  -5   2    0.60    0.20
  -4   5  -2    2.30    0.50
  -4   5  -2    2.80    0.20
  -4   5  -2    3.20    0.50
   4  -5   2    2.60    0.40
   4  -5   2    3.40    0.30
  -5   5  -2    2.90    0.60
  -5   5  -2    2.20    0.50
  -5   5  -2    2.90    0.30
   5  -5   2    2.80    0.30
   5  -5   2    2.80    0.50
  -6   5  -2    8.90    0.90
  -6   5  -2    8.90    0.90
   6  -5   2    9.10    0.80
   6  -5   2    8.80    0.50
  -7   5  -2    1.10    0.50
  -7   5  -2    1.30    0.60
   7  -5   2    1.00    0.50
   7  -5   2    1.00    0.30
  -8   5  -2    1.90    0.60
  -8   5  -2    1.80    0.70
   8  -5   2    1.50    0.60
  -9   5  -2    2.00    0.70
   9  -5   2    0.70    0.60
  10   4  -2    5.40    1.20
 -10  -4   2    5.60    0.80
   9   4  -2   17.00    1.50
  -9  -4   2   14.20    1.00
  -9  -4   2   17.60    1.80
   8   4  -2    7.10    1.10
  -8  -4   2    9.40    1.40
  -8  -4   2    8.60    0.80
   7   4  -2   41.30    1.90
  -7  -4   2   40.20    1.40
  -7  -4   2   38.80    2.10
   6   4  -2    3.00    0.60
   6   4  -2    2.10    0.30
  -6  -4   2    2.70    0.30
  -6  -4   2    2.30    0.40
  -6  -4   2    2.10    0.70
   5   4  -2   36.00    1.50
   5   4  -2   36.80    1.00
  -5  -4   2   37.20    0.90
  -5  -4   2   35.30    1.10
  -5  -4   2   38.10    1.70
   4   4  -2   13.60    0.50
  -4  -4   2   12.00    0.40
  -4  -4   2   12.20    0.90
  -4  -4   2   12.10    0.60
  -3  -4   2    0.00    0.10
  -3  -4   2    0.30    0.20
  -3  -4   2    0.20    0.10
  -3  -4   2   -0.10    0.20
  -3  -4   2   -0.10    0.10
  -2  -4   2  136.89    2.50
  -2  -4   2  138.79    2.30
  -2  -4   2  135.49    2.80
  -2  -4   2  134.49    2.30
  -2  -4   2  136.99    2.40
   1   4  -2   29.60    0.70
  -1  -4   2   27.50    0.80
  -1  -4   2   29.10    0.70
  -1  -4   2   27.80    0.70
  -1  -4   2   31.10    0.70
   0   4  -2  184.58    2.90
   0   4  -2  189.08    3.10
   0  -4   2  172.98    3.00
   0  -4   2  183.48    3.00
   0  -4   2  186.78    3.00
  -1   4  -2   14.50    0.60
   1  -4   2   14.40    0.50
   1  -4   2   14.40    0.50
   1  -4   2   14.00    0.50
  -2   4  -2   18.00    0.50
  -2   4  -2   17.20    0.70
  -2   4  -2   16.10    0.60
   2  -4   2   17.30    0.60
   2  -4   2   17.20    0.60
  -3   4  -2   17.10    0.80
  -3   4  -2   17.90    0.50
  -3   4  -2   16.20    0.70
   3  -4   2   17.90    0.80
   3  -4   2   18.10    0.60
  -4   4  -2   19.00    1.00
  -4   4  -2   20.90    0.60
  -4   4  -2   20.90    1.00
   4  -4   2   20.20    0.70
   4  -4   2   21.00    0.90
  -5   4  -2   87.29    2.50
  -5   4  -2   88.59    1.60
  -5   4  -2   90.69    2.50
   5  -4   2   89.09    2.40
   5  -4   2   90.29    1.80
  -6   4  -2    0.20    0.30
  -6   4  -2    0.40    0.40
   6  -4   2    0.10    0.20
   6  -4   2    0.30    0.30
  -7   4  -2    8.70    0.90
  -7   4  -2    8.40    1.00
   7  -4   2    6.40    0.90
   7  -4   2    6.90    0.50
  -8   4  -2    0.30    0.40
  -8   4  -2   -0.10    0.60
   8  -4   2   -0.50    0.30
  -9   4  -2   12.80    1.60
  -9   4  -2   13.10    1.20
   9  -4   2   11.70    1.20
 -10   4  -2   26.00    2.50
  10   3  -2   -0.70    0.40
 -10  -3   2   -0.20    0.30
   9   3  -2    0.20    0.40
  -9  -3   2   -0.20    0.60
  -9  -3   2   -0.20    0.30
   8   3  -2    1.40    0.60
  -8  -3   2    1.60    0.40
  -8  -3   2    1.00    0.70
   7   3  -2    2.00    0.60
  -7  -3   2    2.00    0.70
  -7  -3   2    1.70    0.40
   6   3  -2    2.00    0.30
   6   3  -2    2.00    0.50
  -6  -3   2    2.00    0.70
  -6  -3   2    2.60    0.40
   5   3  -2   23.40    0.80
   5   3  -2   21.90    1.20
  -5  -3   2   22.60    0.90
  -5  -3   2   22.30    0.60
  -5  -3   2   23.30    1.40
   4   3  -2   24.50    1.10
   4   3  -2   25.70    0.80
  -4  -3   2   26.70    1.30
  -4  -3   2   25.00    0.80
  -4  -3   2   25.20    0.60
  -3  -3   2    9.60    0.30
  -3  -3   2    9.90    0.50
  -3  -3   2    9.60    0.40
  -3  -3   2   10.30    0.50
  -3  -3   2    9.00    0.70
  -2  -3   2   24.30    0.70
  -2  -3   2   24.00    0.90
  -2  -3   2   24.90    0.60
  -2  -3   2   23.50    0.60
  -2  -3   2   24.50    0.60
  -1  -3   2   30.90    0.70
  -1  -3   2   29.00    0.70
  -1  -3   2   29.30    0.90
  -1  -3   2   30.50    0.70
  -1  -3   2   29.10    0.70
   0   3  -2  193.88    3.10
   0   3  -2  190.68    3.00
   0   3  -2  199.68    3.10
   0  -3   2  184.18    3.10
   0  -3   2  189.78    3.10
   0  -3   2  201.38    3.10
  -1   3  -2    9.00    0.40
  -1   3  -2    9.00    0.30
   1  -3   2    8.10    0.30
   1  -3   2    8.70    0.40
  -2   3  -2  120.79    2.00
  -2   3  -2  118.79    2.30
  -2   3  -2  117.39    2.10
   2  -3   2  119.49    2.10
   2  -3   2  122.09    2.20
  -3   3  -2    2.90    0.40
  -3   3  -2    2.90    0.40
  -3   3  -2    2.90    0.20
   3  -3   2    3.10    0.40
   3  -3   2    3.30    0.20
  -4   3  -2  103.09    2.40
  -4   3  -2  105.99    2.50
  -4   3  -2  104.89    1.80
   4  -3   2  107.29    2.40
   4  -3   2  103.99    1.90
  -5   3  -2   29.70    1.30
  -5   3  -2   28.60    1.30
  -5   3  -2   28.90    0.70
   5  -3   2   30.40    1.20
   5  -3   2   29.90    0.80
  -6   3  -2   18.60    1.10
  -6   3  -2   21.30    1.30
   6  -3   2   20.20    1.10
   6  -3   2   18.10    0.70
  -7   3  -2   21.40    1.50
  -7   3  -2   21.40    1.30
   7  -3   2   20.50    0.70
   7  -3   2   18.60    1.20
  -8   3  -2   27.40    1.50
  -8   3  -2   25.70    1.80
   8  -3   2   25.30    1.50
  -9   3  -2   14.50    1.70
  -9   3  -2   17.50    1.30
   9  -3   2   15.80    1.30
 -10   3  -2    0.30    0.40
  10  -3   2   -0.80    0.40
  10   2  -2    1.60    1.20
 -10  -2   2    4.20    0.70
   9   2  -2   19.00    1.60
  -9  -2   2   19.00    1.80
  -9  -2   2   18.20    1.20
   8   2  -2    0.60    0.50
  -8  -2   2    1.20    0.40
  -8  -2   2    1.00    0.70
   7   2  -2   26.20    1.50
  -7  -2   2   27.90    1.80
  -7  -2   2   27.60    1.20
   6   2  -2    3.00    0.60
   6   2  -2    2.50    0.30
  -6  -2   2    2.40    0.70
  -6  -2   2    2.60    0.40
   5   2  -2  134.19    2.50
   5   2  -2  133.29    3.30
  -5  -2   2  133.29    3.60
  -5  -2   2  135.09    2.80
  -5  -2   2  126.89    2.10
   4   2  -2   95.69    2.50
   4   2  -2   93.99    1.80
  -4  -2   2   93.69    2.70
  -4  -2   2   94.39    2.00
  -4  -2   2   92.09    1.60
   3   2  -2   60.09    1.30
  -3  -2   2   56.89    1.30
  -3  -2   2   59.59    1.10
  -3  -2   2   59.39    1.80
  -3  -2   2   60.09    1.40
  -2  -2   2  260.27    4.10
  -2  -2   2  263.17    4.70
  -2  -2   2  260.77    4.10
  -2  -2   2  266.57    4.30
  -2  -2   2  267.57    4.00
  -1  -2   2   64.29    1.10
  -1  -2   2   61.59    1.40
  -1  -2   2   64.19    1.10
  -1  -2   2   62.79    1.20
  -1  -2   2   60.29    1.10
   0   2  -2  954.30   14.50
   0   2  -2  947.21   14.30
   0   2  -2  948.81   14.20
   0  -2   2  916.11   14.20
   0  -2   2  982.90   14.70
   0  -2   2  954.80   14.40
  -1   2  -2   14.50    0.50
  -1   2  -2   11.70    0.30
   1  -2   2   12.10    0.40
   1  -2   2   12.00    0.40
  -2   2  -2  400.66    6.30
  -2   2  -2  406.66    6.40
  -2   2  -2  400.76    6.00
   2  -2   2  409.26    6.30
   2  -2   2  402.86    6.10
  -3   2  -2    2.60    0.30
  -3   2  -2    2.40    0.20
  -3   2  -2    2.70    0.40
   3  -2   2    2.70    0.20
   3  -2   2    3.00    0.40
  -4   2  -2  101.89    2.40
  -4   2  -2  101.69    2.30
  -4   2  -2  101.29    1.80
   4  -2   2  102.69    1.80
   4  -2   2   99.99    2.30
  -5   2  -2    1.80    0.40
  -5   2  -2    2.50    0.50
  -5   2  -2    2.10    0.20
   5  -2   2    2.10    0.20
   5  -2   2    1.70    0.40
  -6   2  -2   49.10    1.70
  -6   2  -2   48.40    1.00
  -6   2  -2   51.49    2.00
   6  -2   2   50.49    1.80
   6  -2   2   48.70    1.10
  -7   2  -2   17.90    1.30
  -7   2  -2   16.90    1.10
   7  -2   2   17.60    1.10
  -8   2  -2   13.40    1.10
  -8   2  -2   12.80    1.40
   8  -2   2   13.40    1.10
  -9   2  -2   16.70    1.80
  -9   2  -2   16.00    1.30
   9  -2   2   14.30    1.30
 -10   2  -2   10.20    1.10
 -10   2  -2   10.30    1.60
  10  -2   2    6.70    1.10
 -10  -1   2    3.90    0.70
   9   1  -2    0.60    0.60
  -9  -1   2   -0.10    0.30
  -9  -1   2    0.20    0.70
   8   1  -2   20.40    1.50
  -8  -1   2   22.10    1.20
  -8  -1   2   20.10    1.80
   7   1  -2    7.70    0.50
   7   1  -2    7.70    1.10
  -7  -1   2    8.90    1.10
  -7  -1   2    7.80    0.70
   6   1  -2   24.10    1.40
   6   1  -2   23.00    0.80
  -6  -1   2   22.90    1.50
  -6  -1   2   22.60    1.00
   5   1  -2   92.19    1.90
   5   1  -2   87.59    2.60
  -5  -1   2   94.19    2.20
  -5  -1   2   91.89    2.90
   4   1  -2    2.60    0.40
   4   1  -2    3.30    0.30
  -4  -1   2    2.40    0.10
  -4  -1   2    3.10    0.60
  -4  -1   2    2.60    0.40
   3   1  -2  304.37    4.70
  -3  -1   2  300.87    5.60
  -3  -1   2  294.97    4.90
  -3  -1   2  288.37    4.40
  -3  -1   2  304.37    5.00
   2   1  -2    0.10    0.10
  -2  -1   2    0.30    0.10
  -2  -1   2    0.30    0.10
  -2  -1   2    0.20    0.10
  -2  -1   2    0.70    0.20
   1   1  -2  663.03   13.80
  -1  -1   2  655.13    9.80
  -1  -1   2  663.93    9.80
  -1  -1   2  667.53    9.90
  -1  -1   2  686.03   10.80
   0   1  -2   71.69    1.10
   0   1  -2   69.69    1.10
   0  -1   2   68.39    1.20
   0  -1   2   72.19    1.30
   0  -1   2   67.49    1.20
   0  -1   2   62.19    1.10
  -1   1  -2  116.59    1.90
  -1   1  -2  116.29    1.90
  -1   1  -2  116.39    1.90
   1  -1   2  116.99    1.90
   1  -1   2  117.19    1.80
   1  -1   2  114.09    1.90
  -2   1  -2  238.38    3.70
  -2   1  -2  234.88    3.90
  -2   1  -2  242.68    4.00
   2  -1   2  248.38    4.00
   2  -1   2  242.68    3.70
  -3   1  -2    9.20    0.50
  -3   1  -2   10.40    0.60
  -3   1  -2   10.20    0.30
   3  -1   2   10.90    0.30
   3  -1   2   10.40    0.50
  -4   1  -2   51.29    1.00
  -4   1  -2   50.19    1.50
  -4   1  -2   52.49    1.60
   4  -1   2   54.89    1.50
   4  -1   2   52.09    1.00
  -5   1  -2   18.50    0.90
  -5   1  -2   18.30    1.10
  -5   1  -2   19.10    0.50
   5  -1   2   18.30    0.90
   5  -1   2   19.30    0.50
  -6   1  -2   29.60    1.30
  -6   1  -2   28.90    1.50
  -6   1  -2   28.50    0.70
   6  -1   2   30.60    1.30
   6  -1   2   28.70    0.70
  -7   1  -2   -0.10    0.50
  -7   1  -2    0.50    0.30
   7  -1   2    0.90    0.40
  -8   1  -2   -0.40    0.50
  -8   1  -2   -0.10    0.30
   8  -1   2    0.50    0.40
  -9   1  -2    0.80    0.80
  -9   1  -2    0.70    0.50
   9  -1   2    0.50    0.50
 -10   1  -2    0.80    0.50
 -10   1  -2    0.30    0.80
  10  -1   2    1.00    0.50
 -10   0   2    0.50    0.40
   9   0  -2    3.90    0.80
  -9   0   2    5.40    0.80
  -9   0   2    5.50    1.30
   8   0  -2    2.30    0.70
  -8   0   2    2.10    0.50
  -8   0   2    1.60    0.80
   7   0  -2   25.70    0.90
   7   0  -2   24.80    1.50
  -7   0   2   25.10    1.20
  -7   0   2   24.80    1.80
   6   0  -2   39.60    1.10
   6   0  -2   38.10    1.70
  -6   0   2   38.60    1.40
  -6   0   2   37.40    2.00
   5   0  -2   50.79    1.90
   5   0  -2   54.59    1.30
  -5   0   2   52.89    1.60
  -5   0   2   51.79    2.10
   4   0  -2   11.80    0.50
   4   0  -2   11.40    0.80
  -4   0   2   11.40    0.90
  -4   0   2   11.40    0.60
   3   0  -2    6.90    0.50
   3   0  -2    6.90    0.40
  -3   0   2    7.00    0.60
  -3   0   2    6.20    0.40
   2   0  -2    4.40    0.10
   2   0  -2    4.30    0.10
   2   0  -2    4.20    0.30
  -2   0   2    4.30    0.30
  -2   0   2    4.40    0.30
  -2   0   2    4.50    0.50
   1   0  -2  497.85    7.50
   1   0  -2  506.95    7.40
  -1   0   2  506.95    7.50
  -1   0   2  509.25    7.60
  -1   0   2  508.25    7.90
  -1   0   2  495.85    7.50
   0   0  -2  363.06    5.40
   0   0  -2  357.06    5.30
   0   0   2  361.66    5.90
  -1   0  -2  206.58    3.20
  -1   0  -2  205.48    3.20
   1   0   2  210.98    3.10
   1   0   2  208.08    3.20
   1   0   2  207.58    3.30
  -2   0  -2   34.80    0.90
  -2   0  -2   34.40    0.60
  -2   0  -2   35.40    0.70
   2   0   2   34.60    0.60
   2   0   2   36.70    1.00
  -3   0  -2   38.10    1.10
  -3   0  -2   38.90    0.80
  -3   0  -2   38.20    1.20
   3   0   2   39.40    0.70
   3   0   2   39.00    1.10
  -4   0  -2   27.50    1.00
  -4   0  -2   26.40    1.10
  -4   0  -2   27.80    0.60
   4   0   2   27.00    0.60
   4   0   2   28.00    1.00
  -5   0  -2    3.40    0.50
  -5   0  -2    3.00    0.60
  -5   0  -2    3.10    0.20
   5   0   2    3.30    0.50
   5   0   2    3.00    0.20
  -6   0  -2   11.90    1.00
  -6   0  -2   10.30    0.80
  -6   0  -2   11.10    0.40
   6   0   2   11.10    0.80
   6   0   2   11.30    0.40
  -7   0  -2    1.00    0.40
  -7   0  -2    1.00    0.60
   7   0   2    0.70    0.30
  -8   0  -2    0.70    0.40
  -8   0  -2    1.40    0.70
   8   0   2    1.10    0.50
  -9   0  -2    0.50    0.40
  -9   0  -2    0.50    0.70
   9   0   2    0.00    0.40
 -10   0  -2    0.40    0.40
 -10   0  -2   -0.10    0.70
  10   0   2    0.30    0.60
 -10   1   2    3.90    0.70
   9  -1  -2    2.70    0.80
  -9   1   2    2.80    0.60
  -9   1   2    1.70    0.90
   8  -1  -2   -0.20    0.40
  -8   1   2   -0.20    0.50
  -8   1   2   -0.10    0.30
   7  -1  -2    1.80    0.30
   7  -1  -2    2.30    0.60
  -7   1   2    2.50    0.50
  -7   1   2    1.60    0.70
   6  -1  -2    1.20    0.30
   6  -1  -2    0.80    0.40
  -6   1   2    2.00    0.60
  -6   1   2    1.50    0.40
   5  -1  -2   17.50    0.70
   5  -1  -2   18.30    1.10
  -5   1   2   16.90    1.20
  -5   1   2   17.70    0.90
   4  -1  -2    8.30    0.40
   4  -1  -2    7.30    0.60
  -4   1   2    8.40    0.60
  -4   1   2    7.70    0.80
   3  -1  -2    0.30    0.10
   3  -1  -2    0.30    0.20
  -3   1   2    0.20    0.20
  -3   1   2    0.20    0.30
   2  -1  -2  268.87    4.30
  -2   1   2  270.57    5.00
  -2   1   2  271.57    4.40
  -2   1   2  274.27    4.40
   1  -1  -2   15.00    0.40
   1  -1  -2   14.50    0.30
  -1   1   2   14.80    0.40
  -1   1   2   14.50    0.30
  -1   1   2   14.10    0.50
  -1   1   2   14.10    0.70
   0  -1  -2   37.90    0.60
   0  -1  -2   37.70    0.80
   0  -1  -2   37.30    0.70
   0   1   2   38.50    0.70
   0   1   2   37.60    1.00
  -1  -1  -2  267.67    4.00
  -1  -1  -2  264.37    4.00
  -1  -1  -2  259.97    4.00
   1   1   2  269.47    4.00
   1   1   2  261.57    4.00
   1   1   2  272.07    4.30
  -2  -1  -2    0.90    0.10
  -2  -1  -2    0.90    0.20
   2   1   2    0.90    0.20
   2   1   2    1.10    0.20
  -3  -1  -2    4.30    0.20
  -3  -1  -2    4.20    0.30
   3   1   2    4.50    0.30
   3   1   2    3.90    0.40
  -4  -1  -2   12.70    0.40
  -4  -1  -2   13.30    0.60
  -4  -1  -2   13.90    0.80
   4   1   2   13.10    0.70
  -5  -1  -2   28.90    0.70
  -5  -1  -2   28.30    1.30
  -5  -1  -2   28.50    1.10
   5   1   2   29.20    1.20
   5   1   2   27.60    0.50
  -6  -1  -2    0.00    0.20
  -6  -1  -2    0.10    0.10
  -6  -1  -2   -0.40    0.30
   6   1   2    0.00    0.10
   6   1   2    0.00    0.20
  -7  -1  -2    4.00    0.60
  -7  -1  -2    3.00    0.70
   7   1   2    3.60    0.60
  -8  -1  -2    1.90    0.80
  -8  -1  -2    2.20    0.50
   8   1   2    2.50    0.60
  -9  -1  -2    1.00    0.50
  -9  -1  -2    1.00    0.80
   9   1   2    1.40    0.60
 -10  -1  -2    5.80    0.90
  10   1   2    3.60    0.80
  10   1   2    4.80    1.30
 -10   2   2    3.40    0.70
   9  -2  -2    2.90    0.70
  -9   2   2    4.30    0.80
  -9   2   2    5.10    1.30
   8  -2  -2    1.60    0.60
  -8   2   2    0.30    0.40
  -8   2   2    1.20    0.80
   7  -2  -2    1.70    0.30
   7  -2  -2    0.80    0.40
  -7   2   2    1.70    0.70
  -7   2   2    1.20    0.40
   6  -2  -2    0.10    0.30
   6  -2  -2   -0.10    0.20
  -6   2   2    0.20    0.40
  -6   2   2    0.20    0.30
   5  -2  -2    0.20    0.20
   5  -2  -2    0.20    0.20
  -5   2   2    0.40    0.40
  -5   2   2    0.00    0.20
   4  -2  -2   21.60    0.70
   4  -2  -2   21.10    1.10
  -4   2   2   20.90    1.20
  -4   2   2   21.50    0.90
   3  -2  -2    0.90    0.20
   3  -2  -2    0.70    0.20
  -3   2   2    0.70    0.30
  -3   2   2    0.90    0.30
   2  -2  -2   29.80    1.00
   2  -2  -2   30.80    0.80
  -2   2   2   29.40    0.90
  -2   2   2   29.60    1.20
   1  -2  -2  122.89    2.10
   1  -2  -2  120.19    1.80
  -1   2   2  118.19    2.40
  -1   2   2  118.19    2.10
  -1   2   2  120.29    2.10
   0  -2  -2  174.48    2.80
   0  -2  -2  173.28    2.60
   0   2   2  171.48    3.20
   0   2   2  171.78    2.70
   0   2   2  169.48    2.70
  -1  -2  -2   28.40    0.60
  -1  -2  -2   27.40    0.60
  -1  -2  -2   29.20    0.60
  -1  -2  -2   27.40    0.60
   1   2   2   28.00    0.90
   1   2   2   27.60    0.50
  -2  -2  -2   11.50    0.40
  -2  -2  -2   11.20    0.20
  -2  -2  -2   10.80    0.40
   2   2   2   11.20    0.20
   2   2   2   10.70    0.60
   2   2   2   12.00    0.40
  -3  -2  -2   96.29    1.90
  -3  -2  -2   98.29    1.70
   3   2   2   95.99    2.40
   3   2   2   97.89    1.90
  -4  -2  -2   66.29    1.30
  -4  -2  -2   67.99    1.60
   4   2   2   68.59    1.70
   4   2   2   69.19    2.20
  -5  -2  -2  233.28    4.30
  -5  -2  -2  233.88    4.80
  -5  -2  -2  229.68    3.70
   5   2   2  225.78    4.40
  -6  -2  -2    4.70    0.80
  -6  -2  -2    4.10    0.30
  -6  -2  -2    4.10    0.50
   6   2   2    3.80    0.50
  -7  -2  -2   62.39    2.00
  -7  -2  -2   65.79    2.50
  -7  -2  -2   62.49    1.30
   7   2   2   68.39    2.20
  -8  -2  -2    0.20    0.30
  -8  -2  -2    0.10    0.60
   8   2   2    0.30    0.40
  -9  -2  -2    1.30    0.50
   9   2   2    1.40    0.50
 -10  -2  -2    0.20    0.40
  10   2   2    0.10    0.40
  10   2   2    0.00    0.40
   9  -3  -2    0.60    0.50
  -9   3   2    1.00    0.80
  -9   3   2    0.50    0.40
   8  -3  -2    2.00    0.60
  -8   3   2    2.70    0.60
  -8   3   2    2.40    1.00
   7  -3  -2    5.50    0.90
   7  -3  -2    5.30    0.60
  -7   3   2    6.40    1.20
  -7   3   2    7.50    0.90
   6  -3  -2   56.09    1.50
   6  -3  -2   53.69    2.10
  -6   3   2   55.69    1.90
  -6   3   2   56.19    2.50
   5  -3  -2   13.70    0.70
   5  -3  -2   12.90    0.90
  -5   3   2   14.40    0.90
  -5   3   2   14.50    1.20
   4  -3  -2   10.10    0.70
   4  -3  -2    9.80    0.50
  -4   3   2   10.20    0.90
  -4   3   2   10.10    0.70
   3  -3  -2   19.30    0.90
   3  -3  -2   19.70    0.70
  -3   3   2   19.20    1.10
  -3   3   2   18.00    0.80
   2  -3  -2   34.80    1.10
   2  -3  -2   35.60    0.90
   2  -3  -2   35.70    0.60
  -2   3   2   34.60    1.30
  -2   3   2   34.30    1.00
   1  -3  -2  121.59    1.90
   1  -3  -2  124.79    2.30
   1  -3  -2  121.59    2.20
  -1   3   2  122.69    2.20
  -1   3   2  122.99    2.60
   0  -3  -2   82.09    1.40
   0  -3  -2   81.99    1.50
   0   3   2   82.79    1.40
   0   3   2   82.29    1.50
   0   3   2   84.09    2.00
  -1  -3  -2   15.60    0.30
  -1  -3  -2   15.10    0.40
  -1  -3  -2   15.30    0.40
  -1  -3  -2   15.20    0.40
   1   3   2   16.40    0.80
   1   3   2   14.30    0.30
  -2  -3  -2  374.36    5.70
  -2  -3  -2  376.66    5.80
  -2  -3  -2  370.76    5.60
   2   3   2  379.16    6.30
   2   3   2  377.96    5.70
  -3  -3  -2   25.90    0.80
  -3  -3  -2   25.50    0.60
   3   3   2   26.20    1.10
   3   3   2   25.40    0.80
  -4  -3  -2  128.19    2.50
  -4  -3  -2  127.69    2.20
   4   3   2  127.49    2.60
   4   3   2  131.49    3.20
  -5  -3  -2   12.00    0.70
  -5  -3  -2   12.50    0.50
   5   3   2   11.40    1.00
   5   3   2   11.60    0.70
  -6  -3  -2   65.09    1.80
  -6  -3  -2   61.79    1.30
   6   3   2   59.49    2.50
   6   3   2   63.59    1.90
  -7  -3  -2   89.99    1.80
  -7  -3  -2   95.19    2.40
   7   3   2   90.89    2.60
   7   3   2   92.79    3.40
  -8  -3  -2    8.40    0.80
   8   3   2    7.10    0.90
   8   3   2    9.60    1.20
  -9  -3  -2   32.20    1.50
   9   3   2   32.00    1.70
   9   3   2   32.10    2.30
 -10  -3  -2    3.20    0.70
  10   3   2    2.80    0.80
  10   3   2    4.40    1.10
   9  -4  -2    3.50    0.90
  -9   4   2    5.10    1.30
  -9   4   2    5.20    0.90
   8  -4  -2   27.60    1.70
  -8   4   2   29.20    2.20
  -8   4   2   28.50    1.60
   7  -4  -2   11.30    1.10
   7  -4  -2   10.80    0.70
  -7   4   2   10.30    1.50
  -7   4   2   10.50    1.00
   6  -4  -2   10.30    1.00
   6  -4  -2   12.00    0.70
  -6   4   2   11.50    1.30
  -6   4   2   12.20    0.90
   5  -4  -2    0.30    0.20
   5  -4  -2    0.10    0.20
  -5   4   2    0.20    0.40
  -5   4   2    0.20    0.30
   4  -4  -2  162.58    3.60
   4  -4  -2  161.38    3.00
  -4   4   2  161.38    4.10
  -4   4   2  155.08    3.40
   3  -4  -2  295.47    5.30
   3  -4  -2  293.37    4.90
  -3   4   2  293.07    5.20
  -3   4   2  286.77    5.80
   2  -4  -2  997.60   15.00
   2  -4  -2 1023.10   15.30
   2  -4  -2  990.40   15.00
  -2   4   2 1011.00   15.20
  -2   4   2  996.10   15.80
   1  -4  -2    1.00    0.20
   1  -4  -2    0.50    0.10
   1  -4  -2    0.60    0.10
  -1   4   2    0.30    0.20
  -1   4   2    0.50    0.30
   0  -4  -2   64.79    1.30
   0  -4  -2   67.29    1.20
   0  -4  -2   65.49    1.20
   0   4   2   62.19    1.70
   0   4   2   63.39    1.40
  -1  -4  -2   16.40    0.50
   1   4   2   18.70    0.90
   1   4   2   17.30    0.50
  -2  -4  -2  342.07    5.30
  -2  -4  -2  342.87    5.30
  -2  -4  -2  334.77    5.20
   2   4   2  345.17    5.90
   2   4   2  340.37    5.10
  -3  -4  -2  176.88    2.80
  -3  -4  -2  182.88    3.10
  -3  -4  -2  180.98    3.00
   3   4   2  187.78    3.80
   3   4   2  179.78    3.10
  -4  -4  -2   89.09    1.70
  -4  -4  -2   85.49    1.90
   4   4   2   92.49    2.60
   4   4   2   90.39    2.00
  -5  -4  -2    0.40    0.20
  -5  -4  -2    0.20    0.10
   5   4   2    0.20    0.30
   5   4   2    0.40    0.20
  -6  -4  -2   47.50    1.50
  -6  -4  -2   47.70    1.10
   6   4   2   46.30    1.60
   6   4   2   44.90    2.10
  -7  -4  -2   13.10    0.50
  -7  -4  -2   13.20    0.80
   7   4   2   12.90    1.30
   7   4   2   13.40    0.90
  -8  -4  -2    5.10    0.70
   8   4   2    5.90    1.20
   8   4   2    3.70    0.70
  -9  -4  -2   34.70    1.50
   9   4   2   32.60    2.30
   9   4   2   30.20    1.70
 -10  -4  -2    0.90    0.50
  10   4   2    0.00    0.40
  10   4   2    0.60    0.70
  11   4   2   16.70    2.10
   9  -5  -2    6.10    1.50
  -9   5   2    8.80    1.00
   8  -5  -2   13.20    1.30
  -8   5   2   13.90    1.80
  -8   5   2   14.60    1.20
   7  -5  -2   70.89    2.60
   7  -5  -2   69.69    1.90
  -7   5   2   71.59    3.20
  -7   5   2   68.89    2.50
   6  -5  -2  116.79    3.40
   6  -5  -2  117.79    2.60
  -6   5   2  120.59    3.90
  -6   5   2  120.29    3.20
   5  -5  -2   31.70    1.10
   5  -5  -2   33.10    1.50
  -5   5   2   30.50    1.40
  -5   5   2   30.30    1.80
   4  -5  -2  326.77    5.50
   4  -5  -2  325.57    6.10
  -4   5   2  326.37    6.00
  -4   5   2  321.37    6.70
   3  -5  -2  274.07    4.70
   3  -5  -2  276.47    5.10
   3  -5  -2  266.97    4.20
  -3   5   2  271.37    5.00
  -3   5   2  275.77    5.60
   2  -5  -2   58.39    1.40
   2  -5  -2   57.59    1.10
   2  -5  -2   58.89    1.50
  -2   5   2   57.59    1.80
  -2   5   2   58.59    1.50
   1  -5  -2  339.37    5.40
   1  -5  -2  337.27    5.40
   1  -5  -2  341.37    5.10
  -1   5   2  317.77    5.90
  -1   5   2  334.07    5.50
   0  -5  -2  124.99    2.10
   0  -5  -2  124.89    2.10
   0  -5  -2  123.89    2.20
   0   5   2  120.99    2.80
   0   5   2  122.19    2.30
  -1  -5  -2  985.00   15.70
  -1  -5  -2 1014.90   15.60
   1   5   2 1004.00   14.90
   1   5   2  999.80   15.50
  -2  -5  -2  237.58    3.80
  -2  -5  -2  235.38    3.90
  -2  -5  -2  235.08    3.70
   2   5   2  237.28    4.50
  -3  -5  -2   23.30    0.80
  -3  -5  -2   22.30    0.60
   3   5   2   23.40    0.70
   3   5   2   24.10    1.10
  -4  -5  -2   28.30    0.90
  -4  -5  -2   28.70    0.60
  -4  -5  -2   29.20    0.80
   4   5   2   28.90    1.40
   4   5   2   28.40    0.90
  -5  -5  -2    1.70    0.20
  -5  -5  -2    1.30    0.30
   5   5   2    1.20    0.30
   5   5   2    1.40    0.50
  -6  -5  -2   43.20    1.40
  -6  -5  -2   40.70    1.10
   6   5   2   45.50    1.50
   6   5   2   41.90    2.00
  -7  -5  -2    7.50    0.70
  -7  -5  -2    7.10    0.40
   7   5   2    5.40    0.70
   7   5   2    6.30    1.10
  -8  -5  -2   22.70    1.20
   8   5   2   23.50    1.30
   8   5   2   22.90    1.80
  -9  -5  -2    0.10    0.30
   9   5   2   -0.20    0.40
   9   5   2    0.10    0.50
 -10  -5  -2    1.10    0.50
  10   5   2    0.90    0.70
  10   5   2    0.70    0.50
  11   5   2   -0.50    0.50
  -9   6   2   42.60    1.70
   8  -6  -2   26.40    1.70
   8  -6  -2   30.00    1.80
  -8   6   2   30.50    2.20
  -8   6   2   27.30    1.70
   7  -6  -2    3.30    0.50
   7  -6  -2    4.20    0.80
  -7   6   2    6.00    1.30
  -7   6   2    3.90    0.80
   6  -6  -2   37.10    1.30
   6  -6  -2   37.80    1.80
  -6   6   2   35.10    1.70
  -6   6   2   36.10    2.20
   5  -6  -2    2.30    0.40
   5  -6  -2    2.90    0.50
  -5   6   2    2.90    0.60
  -5   6   2    3.10    0.80
   4  -6  -2   10.70    0.80
   4  -6  -2   10.10    0.60
  -4   6   2   10.30    1.10
  -4   6   2    9.90    0.80
   3  -6  -2    0.70    0.10
   3  -6  -2    0.60    0.20
   3  -6  -2    1.40    0.30
  -3   6   2    0.50    0.40
  -3   6   2    1.20    0.40
   2  -6  -2  106.29    1.80
   2  -6  -2  106.69    2.20
   2  -6  -2  106.19    2.30
  -2   6   2  104.59    2.40
  -2   6   2  102.89    2.80
   1  -6  -2   22.80    0.80
   1  -6  -2   22.60    0.70
   1  -6  -2   22.80    0.60
  -1   6   2   22.00    1.10
  -1   6   2   22.50    0.90
   0  -6  -2   49.90    0.90
   0  -6  -2   47.80    1.20
   0  -6  -2   49.99    1.10
   0   6   2   49.40    1.30
   0   6   2   44.60    1.60
  -1  -6  -2    3.70    0.30
  -1  -6  -2    4.10    0.30
   1   6   2    4.40    0.70
   1   6   2    3.80    0.40
  -2  -6  -2   22.10    0.60
  -2  -6  -2   22.90    0.70
   2   6   2   21.60    0.70
   2   6   2   23.40    1.10
  -3  -6  -2    6.10    0.30
  -3  -6  -2    6.10    0.30
  -3  -6  -2    6.40    0.40
   3   6   2    6.70    0.30
   3   6   2    6.70    0.70
  -4  -6  -2    0.20    0.10
  -4  -6  -2    0.20    0.10
  -4  -6  -2    0.30    0.20
   4   6   2    0.10    0.30
   4   6   2    0.10    0.10
  -5  -6  -2    1.10    0.30
  -5  -6  -2    0.70    0.10
  -5  -6  -2    0.70    0.20
   5   6   2    0.60    0.20
   5   6   2    1.10    0.40
  -6  -6  -2   21.30    1.00
  -6  -6  -2   21.80    0.70
   6   6   2   22.30    1.50
   6   6   2   22.00    1.00
  -7  -6  -2    0.20    0.20
  -7  -6  -2    0.20    0.30
   7   6   2   -0.30    0.20
   7   6   2    0.30    0.40
  -8  -6  -2    1.10    0.40
  -8  -6  -2    0.70    0.20
   8   6   2    1.10    0.60
   8   6   2    1.10    0.40
  -9  -6  -2    1.40    0.50
   9   6   2    1.20    0.50
   9   6   2    1.90    0.80
 -10  -6  -2    8.60    0.90
  10   6   2    8.50    1.20
  10   6   2    8.80    1.70
   8  -7  -2    7.20    1.10
   8  -7  -2    7.40    0.80
  -8   7   2   11.40    1.20
   7  -7  -2    0.30    0.30
   7  -7  -2    0.30    0.50
  -7   7   2    0.60    0.40
  -7   7   2    1.40    0.80
   6  -7  -2    4.40    0.80
   6  -7  -2    4.50    0.60
  -6   7   2    5.00    0.90
  -6   7   2    4.90    1.10
   5  -7  -2    4.90    0.60
   5  -7  -2    3.80    0.60
  -5   7   2    4.50    0.80
  -5   7   2    4.10    0.90
   4  -7  -2   16.70    0.80
   4  -7  -2   16.00    1.00
  -4   7   2   17.30    1.30
  -4   7   2   15.50    1.10
   3  -7  -2   12.70    0.80
   3  -7  -2   12.20    0.70
   3  -7  -2   12.50    0.50
  -3   7   2   11.20    1.00
  -3   7   2   13.60    0.90
   2  -7  -2    4.50    0.40
   2  -7  -2    4.20    0.30
   2  -7  -2    4.50    0.40
  -2   7   2    4.70    0.70
  -2   7   2    5.10    0.60
   1  -7  -2    1.00    0.20
   1  -7  -2    1.00    0.20
   1  -7  -2    1.00    0.20
  -1   7   2    0.50    0.50
  -1   7   2    1.30    0.40
   0  -7  -2    2.20    0.30
   0  -7  -2    2.30    0.20
   0   7   2    2.60    0.70
   0   7   2    3.20    0.50
  -1  -7  -2   26.60    0.80
  -1  -7  -2   26.30    0.80
   1   7   2   27.00    1.40
   1   7   2   26.90    1.00
  -2  -7  -2    0.40    0.10
  -2  -7  -2    0.20    0.10
   2   7   2    0.90    0.50
   2   7   2    0.40    0.20
  -3  -7  -2   52.29    1.30
  -3  -7  -2   48.60    1.10
  -3  -7  -2   50.99    1.20
   3   7   2   50.79    1.80
  -4  -7  -2   15.70    0.60
  -4  -7  -2   15.80    0.50
  -4  -7  -2   17.20    0.80
   4   7   2   17.00    1.10
   4   7   2   16.30    0.60
  -5  -7  -2   79.79    1.70
  -5  -7  -2   78.39    1.90
  -5  -7  -2   79.59    1.60
   5   7   2   80.19    2.70
   5   7   2   77.59    1.80
  -6  -7  -2    0.00    0.10
  -6  -7  -2    0.00    0.30
   6   7   2   -0.30    0.20
   6   7   2    0.10    0.20
  -7  -7  -2   27.10    1.20
  -7  -7  -2   24.10    0.90
   7   7   2   25.70    1.80
   7   7   2   27.20    1.20
  -8  -7  -2    2.40    0.50
  -8  -7  -2    2.60    0.30
   8   7   2    2.20    0.50
   8   7   2    3.10    0.90
  -9  -7  -2   30.80    1.40
   9   7   2   29.10    2.20
 -10  -7  -2   28.60    1.50
  10   7   2   27.60    2.30
   8  -8  -2    5.30    1.00
   8  -8  -2    6.00    0.80
   7  -8  -2    0.40    0.30
   7  -8  -2   -0.10    0.40
  -7   8   2    0.90    0.50
   6  -8  -2    3.00    0.60
   6  -8  -2    3.70    0.60
  -6   8   2    4.50    1.10
  -6   8   2    4.00    0.80
   5  -8  -2   30.20    1.40
   5  -8  -2   28.80    1.20
  -5   8   2   27.80    1.80
  -5   8   2   30.10    1.60
   4  -8  -2   20.60    1.00
   4  -8  -2   20.20    1.10
  -4   8   2   20.40    1.30
  -4   8   2   19.60    1.40
   3  -8  -2    0.10    0.20
   3  -8  -2    0.50    0.20
   3  -8  -2    0.50    0.10
  -3   8   2    0.60    0.40
  -3   8   2    0.60    0.50
   2  -8  -2    1.60    0.30
   2  -8  -2    1.60    0.30
   2  -8  -2    1.30    0.20
  -2   8   2    1.60    0.50
  -2   8   2    1.10    0.50
   1  -8  -2    3.10    0.40
   1  -8  -2    3.90    0.30
   1  -8  -2    3.90    0.30
  -1   8   2    3.80    0.60
  -1   8   2    3.70    0.70
   0  -8  -2   81.09    1.70
   0  -8  -2   81.79    1.80
   0   8   2   82.39    2.50
   0   8   2   83.99    2.10
  -1  -8  -2   34.50    0.90
  -1  -8  -2   34.20    1.00
   1   8   2   35.50    1.20
   1   8   2   33.30    1.60
  -2  -8  -2   40.50    1.10
  -2  -8  -2   36.00    1.00
   2   8   2   36.90    1.20
   2   8   2   39.60    1.70
  -3  -8  -2    8.80    0.40
   3   8   2    8.40    0.60
   3   8   2   10.50    1.00
  -4  -8  -2    9.60    0.50
  -4  -8  -2    9.10    0.60
  -4  -8  -2    9.00    0.40
   4   8   2   10.60    1.00
  -5  -8  -2   55.59    1.60
  -5  -8  -2   53.29    1.40
   5   8   2   55.09    2.20
  -6  -8  -2    6.40    0.50
  -6  -8  -2    6.50    0.60
   6   8   2    7.50    1.00
  -7  -8  -2   74.69    1.80
  -7  -8  -2   76.29    2.10
   7   8   2   72.19    3.00
  -8  -8  -2    3.70    0.60
  -8  -8  -2    3.00    0.40
   8   8   2    2.80    1.00
  -9  -8  -2   25.50    1.40
   9   8   2   25.50    2.10
 -10  -8  -2   -0.20    0.40
   7  -9  -2    1.90    0.50
  -7   9   2    3.20    0.80
   6  -9  -2    0.20    0.30
  -6   9   2    1.40    0.60
   5  -9  -2    0.00    0.30
  -5   9   2    1.10    0.50
  -5   9   2    0.70    0.60
   4  -9  -2   50.29    1.60
  -4   9   2   47.60    2.20
  -4   9   2   51.49    2.10
   3  -9  -2   10.40    0.70
   3  -9  -2   10.90    0.50
  -3   9   2   12.40    1.00
  -3   9   2   11.00    1.10
   2  -9  -2   30.90    0.90
   2  -9  -2   29.30    1.10
  -2   9   2   34.10    1.60
  -2   9   2   31.70    1.40
   1  -9  -2   40.10    1.00
   1  -9  -2   37.90    1.20
  -1   9   2   38.70    1.70
  -1   9   2   38.10    1.50
   0  -9  -2   56.59    1.50
   0  -9  -2   55.59    1.30
   0   9   2   54.69    2.00
   0   9   2   56.29    1.70
  -1  -9  -2    6.20    0.50
  -1  -9  -2    6.30    0.40
   1   9   2    6.60    0.70
   1   9   2    6.60    1.00
  -2  -9  -2  104.89    2.20
  -2  -9  -2  109.99    2.20
   2   9   2  106.19    2.50
   2   9   2  107.89    3.00
  -3  -9  -2    8.20    0.50
  -3  -9  -2    8.20    0.50
   3   9   2    9.10    1.10
   3   9   2    7.40    0.60
  -4  -9  -2  107.69    2.10
  -4  -9  -2  105.59    2.20
   4   9   2  108.59    3.20
   4   9   2  106.99    2.40
  -5  -9  -2   -0.10    0.10
  -5  -9  -2   -0.20    0.30
   5   9   2    0.00    0.40
  -6  -9  -2   38.30    1.40
  -6  -9  -2   36.30    1.20
   6   9   2   38.10    2.00
  -7  -9  -2   21.20    0.90
  -7  -9  -2   24.10    1.20
   7   9   2   23.20    1.80
  -8  -9  -2    0.30    0.40
  -8  -9  -2    0.50    0.20
   8   9   2    0.60    0.70
  -9  -9  -2   20.50    1.30
   9   9   2   25.70    2.10
   6 -10  -2    5.90    0.70
  -6  10   2   10.80    1.20
   5 -10  -2    2.70    0.50
  -5  10   2    3.90    0.80
   4 -10  -2    0.50    0.30
  -4  10   2    1.50    0.60
   3 -10  -2    0.30    0.30
  -3  10   2    0.90    0.50
  -3  10   2    0.10    0.50
   2 -10  -2    3.50    0.50
   2 -10  -2    3.50    0.40
  -2  10   2    3.60    0.70
  -2  10   2    3.50    0.70
   1 -10  -2   21.30    0.80
   1 -10  -2   23.20    1.00
  -1  10   2   22.20    1.30
  -1  10   2   22.10    1.20
   0 -10  -2   21.00    0.90
   0 -10  -2   20.80    0.80
   0  10   2   18.30    1.20
   0  10   2   19.30    1.10
  -1 -10  -2   10.10    0.50
  -1 -10  -2   10.40    0.60
   1  10   2    9.70    0.80
   1  10   2    8.20    1.10
  -2 -10  -2    1.10    0.20
  -2 -10  -2    1.20    0.20
   2  10   2    1.20    0.40
   2  10   2    1.00    0.70
  -3 -10  -2    0.60    0.20
  -3 -10  -2    0.30    0.20
   3  10   2    0.60    0.70
   3  10   2    0.50    0.40
  -4 -10  -2    6.10    0.40
  -4 -10  -2    5.40    0.40
   4  10   2    6.00    1.10
   4  10   2    5.40    0.60
  -5 -10  -2    1.60    0.30
   5  10   2    1.70    0.80
   5  10   2    2.40    0.50
  -6 -10  -2   20.40    0.90
  -6 -10  -2   20.30    1.10
   6  10   2   20.50    1.60
  -7 -10  -2    0.10    0.40
  -7 -10  -2    0.00    0.20
   7  10   2   -0.10    0.60
  -8 -10  -2    0.20    0.20
  -8 -10  -2   -0.10    0.40
   8  10   2   -0.80    0.60
  -9 -10  -2    3.60    0.70
   9  10   2    3.50    1.20
   6 -11  -2    0.00    0.40
   5 -11  -2    6.40    0.70
  -5  11   2    7.40    1.10
   4 -11  -2    0.30    0.30
  -4  11   2    1.10    0.60
   3 -11  -2    9.10    0.70
  -3  11   2    8.80    1.10
   2 -11  -2    0.50    0.20
   2 -11  -2   -0.20    0.20
  -2  11   2    0.50    0.50
   1 -11  -2   17.20    0.90
   1 -11  -2   16.30    0.70
  -1  11   2   17.60    1.20
  -1  11   2   16.50    1.20
   0 -11  -2   15.80    0.80
   0 -11  -2   15.40    0.70
   0  11   2   15.90    1.20
   0  11   2   15.40    1.10
  -1 -11  -2    4.40    0.50
  -1 -11  -2    3.70    0.50
   1  11   2    4.40    0.90
   1  11   2    3.10    0.60
  -2 -11  -2   12.90    0.70
  -2 -11  -2   13.30    0.70
   2  11   2   12.50    1.00
   2  11   2   12.90    1.30
  -3 -11  -2   10.70    0.60
  -3 -11  -2   10.60    0.60
   3  11   2    9.90    0.90
   3  11   2   11.00    1.40
  -4 -11  -2    9.60    0.60
  -4 -11  -2    9.00    0.60
   4  11   2   10.50    0.80
   4  11   2    8.90    1.30
  -5 -11  -2    1.70    0.30
   5  11   2   -0.20    0.80
   5  11   2    1.80    0.50
  -6 -11  -2    0.20    0.20
   6  11   2    0.20    0.30
   6  11   2   -1.30    0.60
  -7 -11  -2   13.80    1.00
  -7 -11  -2   13.90    0.80
   7  11   2   13.90    1.60
  -8 -11  -2    0.10    0.20
  -8 -11  -2    0.10    0.40
   8  11   2   -1.30    0.70
   5 -12  -2    1.10    0.40
  -5  12   2    2.80    0.70
   4 -12  -2    0.40    0.30
  -4  12   2    1.20    0.60
   3 -12  -2    1.50    0.40
  -3  12   2    2.10    0.70
   2 -12  -2    2.90    0.40
   2 -12  -2    3.80    0.60
  -2  12   2    2.80    0.70
   1 -12  -2    0.30    0.20
   1 -12  -2    0.50    0.30
  -1  12   2    0.00    0.50
   0 -12  -2    3.80    0.50
   0 -12  -2    4.10    0.50
   0  12   2    4.20    0.80
  -1 -12  -2    4.00    0.40
  -1 -12  -2    4.50    0.50
   1  12   2    3.10    0.70
   1  12   2    5.20    0.90
  -2 -12  -2   16.90    0.80
  -2 -12  -2   16.20    0.80
   2  12   2   14.80    1.50
   2  12   2   15.10    1.10
  -3 -12  -2    2.50    0.40
  -3 -12  -2    2.90    0.40
   3  12   2    2.20    0.60
   3  12   2    1.20    0.90
  -4 -12  -2    0.00    0.20
  -4 -12  -2    0.10    0.20
   4  12   2    0.00    0.40
   4  12   2   -1.40    0.80
  -5 -12  -2    1.40    0.30
   5  12   2    1.20    0.50
   5  12   2    0.60    1.00
  -6 -12  -2    0.70    0.30
   6  12   2    0.80    0.40
   6  12   2    0.10    1.00
  -7 -12  -2    1.10    0.30
   7  12   2    2.40    0.50
   7  12   2   -0.90    0.90
  -8 -12  -2    2.90    0.40
   8  12   2    1.50    1.20
  -4  13   2    1.90    0.60
   3 -13  -2   -0.30    0.30
  -3  13   2    0.40    0.50
   2 -13  -2    9.60    0.80
  -2  13   2   11.50    1.20
   1 -13  -2    0.10    0.30
   1 -13  -2    0.20    0.20
  -1  13   2    0.50    0.60
   0 -13  -2   20.60    0.90
   0 -13  -2   22.60    1.10
   0  13   2   20.60    1.40
  -1 -13  -2   -0.10    0.20
  -1 -13  -2    0.00    0.20
   1  13   2    0.20    0.50
  -2 -13  -2   11.90    0.70
  -2 -13  -2   11.70    0.70
   2  13   2   12.10    1.10
  -3 -13  -2    9.10    0.70
  -3 -13  -2   10.00    0.70
   3  13   2    9.90    1.00
  -4 -13  -2    0.70    0.30
   4  13   2   -0.90    0.90
   4  13   2    0.20    0.50
  -5 -13  -2   57.09    1.70
   5  13   2   56.19    2.90
   5  13   2   54.39    2.10
  -6 -13  -2   -0.20    0.20
   6  13   2   -2.30    0.90
   6  13   2   -0.50    0.40
  -7 -13  -2   30.00    1.20
   7  13   2   27.10    2.50
   7  13   2   32.70    1.60
   2 -14  -2    1.00    0.40
  -2  14   2    1.60    0.70
   1 -14  -2   15.10    0.80
   1 -14  -2   15.20    1.00
  -1  14   2   15.50    1.40
   0 -14  -2    4.00    0.60
   0 -14  -2    3.60    0.50
   0  14   2    4.10    0.90
  -1 -14  -2   -0.10    0.20
  -1 -14  -2    0.10    0.30
   1  14   2   -0.20    0.60
  -2 -14  -2   10.00    0.70
  -2 -14  -2    9.60    0.70
   2  14   2    8.10    1.10
  -3 -14  -2   -0.20    0.20
  -3 -14  -2    0.30    0.30
   3  14   2   -0.90    0.50
  -4 -14  -2    4.80    0.60
   4  14   2    5.10    0.90
  -5 -14  -2   -0.10    0.20
   5  14   2   -0.30    0.50
  -6 -14  -2    1.90    0.40
   6  14   2    1.90    1.10
   1 -15  -2    2.60    0.50
   0 -15  -2    2.20    0.40
   0 -15  -2    2.10    0.40
   0  15   2    2.90    0.80
  -1 -15  -2    0.90    0.30
  -1 -15  -2    1.30    0.40
   1  15   2    0.30    0.60
  -2 -15  -2    6.00    0.60
  -2 -15  -2    6.00    0.70
   2  15   2    6.80    1.10
  -3 -15  -2   10.90    0.80
  -3 -15  -2   11.60    0.80
   3  15   2   11.90    1.30
  -4 -15  -2   -0.10    0.20
   4  15   2    0.00    0.60
  -2 -16  -2   15.40    1.10
  -3 -15   3    6.10    0.70
   2  15  -3    7.40    1.10
  -2 -15   3    8.10    0.70
   1  15  -3    6.40    1.10
  -1 -15   3    6.00    0.70
   0  15  -3    6.80    1.20
   0  15  -3    4.80    0.80
  -1  15  -3    1.20    0.60
   4  14  -3   -0.80    0.50
  -4 -14   3    0.30    0.30
  -4 -14   3    0.30    0.30
   3  14  -3    0.10    0.60
  -3 -14   3    0.70    0.30
  -3 -14   3    0.10    0.30
   2  14  -3    0.30    0.60
  -2 -14   3    0.50    0.30
  -2 -14   3    0.80    0.30
   1  14  -3    0.70    0.70
  -1 -14   3    0.40    0.30
  -1 -14   3    1.20    0.40
   0  14  -3   16.80    1.30
   0  14  -3   14.90    0.90
   0 -14   3   16.50    1.00
  -1  14  -3    0.60    0.30
  -1  14  -3    0.60    0.60
   1 -14   3    0.80    0.30
  -2  14  -3    1.30    0.40
  -2  14  -3    2.10    0.70
   2 -14   3    2.20    0.50
  -3  14  -3    9.50    1.60
  -3  14  -3    8.80    0.70
   6  13  -3    0.90    0.60
  -6 -13   3    0.80    0.30
   5  13  -3   -0.20    0.50
  -5 -13   3    0.10    0.20
   4  13  -3    3.00    0.80
  -4 -13   3    3.00    0.50
  -4 -13   3    2.50    0.50
   3  13  -3    1.50    0.60
  -3 -13   3    0.90    0.30
  -3 -13   3    1.40    0.40
   2  13  -3    9.40    1.10
  -2 -13   3   10.60    0.80
  -2 -13   3    9.90    0.70
   1  13  -3    3.50    0.80
  -1 -13   3    3.70    0.50
  -1 -13   3    3.30    0.50
   0  13  -3    2.60    0.70
   0 -13   3    3.20    0.50
  -1  13  -3   19.10    0.90
  -1  13  -3   21.90    1.50
   1 -13   3   20.00    1.10
  -2  13  -3    5.70    1.00
  -2  13  -3    5.10    0.60
   2 -13   3    4.80    0.60
  -3  13  -3   19.60    1.00
  -3  13  -3   21.30    1.50
   3 -13   3   21.40    1.10
  -4  13  -3    1.40    0.70
   4 -13   3    0.60    0.30
   7  12  -3    7.20    0.90
   6  12  -3    4.60    0.70
  -6 -12   3    3.70    0.50
   5  12  -3    2.60    0.70
  -5 -12   3    2.30    0.40
   4  12  -3   16.40    1.20
  -4 -12   3   16.40    0.90
  -4 -12   3   18.10    0.90
   3  12  -3   -0.60    0.40
  -3 -12   3    0.50    0.30
  -3 -12   3    0.10    0.20
   2  12  -3    9.70    1.00
  -2 -12   3   11.10    0.70
  -2 -12   3   11.50    0.70
   1  12  -3    1.90    0.60
  -1 -12   3    0.70    0.30
  -1 -12   3    0.90    0.30
   0  12  -3   -0.10    0.50
   0 -12   3    0.00    0.20
   0 -12   3   -0.20    0.20
  -1  12  -3    0.70    0.60
  -1  12  -3    1.00    0.30
   1 -12   3    0.70    0.30
  -2  12  -3    0.50    0.30
  -2  12  -3    0.00    0.50
   2 -12   3    0.10    0.20
  -3  12  -3    2.60    0.40
  -3  12  -3    4.30    0.90
   3 -12   3    3.10    0.50
  -4  12  -3    6.20    1.00
   4 -12   3    6.10    0.70
  -5  12  -3    2.00    0.70
   5 -12   3    0.60    0.30
   7  11  -3    1.30    0.40
   6  11  -3   12.80    1.00
  -6 -11   3   12.80    0.80
   5  11  -3    0.20    0.40
  -5 -11   3    0.40    0.30
  -5 -11   3    0.50    0.30
   4  11  -3   34.60    1.50
  -4 -11   3   33.20    1.20
  -4 -11   3   32.50    1.20
   3  11  -3    0.00    0.40
  -3 -11   3    0.50    0.20
  -3 -11   3    0.40    0.20
   2  11  -3   26.30    1.30
  -2 -11   3   28.40    1.10
  -2 -11   3   27.40    1.10
   1  11  -3    1.90    0.50
  -1 -11   3    2.20    0.40
  -1 -11   3    3.10    0.40
   0  11  -3   14.10    1.10
   0 -11   3   16.10    0.80
   0 -11   3   15.10    0.80
  -1  11  -3   39.60    1.70
  -1  11  -3   37.90    1.30
   1 -11   3   39.50    1.40
  -2  11  -3   35.00    1.20
  -2  11  -3   35.50    1.70
   2 -11   3   36.70    1.30
  -3  11  -3   40.20    1.90
  -3  11  -3   37.40    1.30
   3 -11   3   41.40    1.40
  -4  11  -3   57.29    2.30
  -4  11  -3   53.79    1.50
   4 -11   3   56.09    1.80
  -5  11  -3    0.60    0.60
   5 -11   3    0.00    0.30
  -6  11  -3   33.20    1.90
   6 -11   3   32.50    1.40
   7 -11   3    1.10    0.40
   8  10  -3    0.40    0.70
  -8 -10   3   -0.50    0.40
   7  10  -3   36.80    2.30
   6  10  -3    3.90    1.00
   6  10  -3    4.00    0.60
  -6 -10   3    4.20    0.50
   5  10  -3    0.90    0.60
   5  10  -3    0.80    0.40
  -5 -10   3    0.80    0.30
  -5 -10   3    1.00    0.30
   4  10  -3   31.10    1.30
   4  10  -3   30.80    1.90
  -4 -10   3   29.20    1.10
  -4 -10   3   30.40    1.10
   3  10  -3    0.40    0.40
  -3 -10   3    0.30    0.20
  -3 -10   3    0.70    0.20
   2  10  -3   83.79    2.20
  -2 -10   3   79.49    2.00
  -2 -10   3   82.69    1.90
   1  10  -3   19.40    1.10
  -1 -10   3   18.50    0.80
  -1 -10   3   20.10    0.80
   0  10  -3   11.30    0.90
   0 -10   3   11.70    0.70
   0 -10   3   10.20    0.70
  -1  10  -3    6.30    0.80
   1 -10   3    7.40    0.60
  -2  10  -3   39.00    1.20
  -2  10  -3   39.60    1.60
   2 -10   3   41.00    1.30
  -3  10  -3   17.80    0.80
  -3  10  -3   18.60    1.30
   3 -10   3   18.70    0.90
  -4  10  -3    6.70    1.00
  -4  10  -3    5.60    0.50
   4 -10   3    4.70    0.60
  -5  10  -3   63.69    2.60
   5 -10   3   63.09    1.90
  -6  10  -3    9.30    1.20
   6 -10   3    8.80    0.70
  -7  10  -3    8.80    1.30
   7 -10   3    6.30    0.70
   8   9  -3   -0.20    0.50
  -8  -9   3   -0.30    0.40
   7   9  -3   38.90    2.40
  -7  -9   3   37.80    1.50
   6   9  -3    5.80    1.10
  -6  -9   3    4.60    0.60
  -6  -9   3    4.80    0.50
   5   9  -3   56.59    2.50
   5   9  -3   55.89    1.70
  -5  -9   3   54.59    1.50
  -5  -9   3   52.69    1.50
   4   9  -3    0.70    0.30
   4   9  -3    0.20    0.40
  -4  -9   3    0.40    0.20
  -4  -9   3    0.10    0.20
   3   9  -3    6.50    0.70
   3   9  -3    6.20    0.70
  -3  -9   3    7.00    0.50
  -3  -9   3    6.60    0.50
   2   9  -3   27.80    1.20
   2   9  -3   29.80    1.20
  -2  -9   3   29.40    1.00
  -2  -9   3   30.00    1.00
  -2  -9   3   28.00    1.00
   1   9  -3    3.70    0.60
  -1  -9   3    3.20    0.40
  -1  -9   3    3.70    0.40
  -1  -9   3    3.30    0.40
   0   9  -3  157.38    3.30
   0  -9   3  157.08    2.90
   0  -9   3  159.78    3.10
   0  -9   3  157.58    3.00
  -1   9  -3   25.90    1.20
   1  -9   3   26.50    1.00
   1  -9   3   26.30    0.90
   1  -9   3   26.60    0.90
  -2   9  -3   36.60    1.50
  -2   9  -3   37.10    1.10
   2  -9   3   38.60    1.10
   2  -9   3   39.50    1.20
  -3   9  -3   95.99    2.70
  -3   9  -3   94.29    2.10
   3  -9   3   96.19    2.10
   3  -9   3   99.19    2.30
  -4   9  -3    4.30    0.40
  -4   9  -3    4.20    0.80
   4  -9   3    3.50    0.50
   4  -9   3    2.70    0.40
  -5   9  -3    3.40    0.80
   5  -9   3    2.10    0.50
   5  -9   3    2.60    0.40
  -6   9  -3   18.40    1.50
   6  -9   3   15.00    1.10
   6  -9   3   17.70    0.90
  -7   9  -3    1.10    0.60
   7  -9   3    0.00    0.50
   7  -9   3    0.40    0.30
  -9  -8   3    0.80    0.50
   8   8  -3    1.40    0.80
   8   8  -3    1.40    0.80
  -8  -8   3    1.60    0.50
   7   8  -3    3.60    0.90
   7   8  -3    1.20    0.50
  -7  -8   3    2.60    0.50
   6   8  -3    9.80    1.00
   6   8  -3    8.60    1.40
  -6  -8   3    8.30    0.50
  -6  -8   3    9.50    0.70
   5   8  -3    0.70    0.50
   5   8  -3    0.40    0.30
  -5  -8   3    0.20    0.20
  -5  -8   3    0.60    0.20
  -5  -8   3    0.20    0.30
   4   8  -3    0.10    0.20
   4   8  -3   -0.30    0.30
  -4  -8   3    0.00    0.20
  -4  -8   3    0.20    0.20
  -4  -8   3    0.30    0.20
   3   8  -3   31.60    1.10
   3   8  -3   30.30    1.40
  -3  -8   3   30.30    1.00
  -3  -8   3   31.40    1.00
  -3  -8   3   29.70    1.00
   2   8  -3    0.40    0.30
   2   8  -3    0.50    0.30
  -2  -8   3    0.70    0.20
  -2  -8   3    0.30    0.20
  -2  -8   3    0.60    0.20
   1   8  -3   18.80    0.90
   1   8  -3   19.40    0.90
  -1  -8   3   19.00    0.70
  -1  -8   3   18.70    0.80
  -1  -8   3   18.60    0.70
   0   8  -3   13.50    0.80
   0  -8   3   12.80    0.60
   0  -8   3   12.60    0.60
   0  -8   3   11.70    0.60
  -1   8  -3   55.19    1.70
   1  -8   3   54.89    1.40
   1  -8   3   55.09    1.50
   1  -8   3   55.69    1.30
  -2   8  -3    5.70    0.70
  -2   8  -3    4.40    0.40
   2  -8   3    4.70    0.40
   2  -8   3    5.50    0.50
  -3   8  -3   10.90    0.90
  -3   8  -3   11.60    0.60
   3  -8   3   11.30    0.60
   3  -8   3   11.40    0.70
  -4   8  -3    5.90    0.40
  -4   8  -3    5.70    0.80
   4  -8   3    5.30    0.50
   4  -8   3    5.60    0.60
  -5   8  -3    0.90    0.50
  -5   8  -3    0.60    0.20
   5  -8   3    0.30    0.40
   5  -8   3    0.50    0.20
  -6   8  -3    0.40    0.50
   6  -8   3   -0.20    0.40
   6  -8   3    0.30    0.20
  -7   8  -3    0.80    0.50
   7  -8   3    0.50    0.30
   7  -8   3   -0.10    0.50
  -8   8  -3    1.50    0.50
   8  -8   3   -0.60    0.50
   9   7  -3    0.00    0.40
   9   7  -3    2.20    0.90
  -9  -7   3    0.30    0.40
   8   7  -3    0.40    0.50
   8   7  -3    0.00    0.30
  -8  -7   3   -0.30    0.30
   7   7  -3    8.40    1.10
  -7  -7   3    9.00    0.80
  -7  -7   3    9.10    1.30
   6   7  -3    3.30    0.70
   6   7  -3    3.00    0.40
  -6  -7   3    3.80    0.60
  -6  -7   3    3.00    0.80
  -6  -7   3    3.50    0.40
   5   7  -3    0.40    0.30
  -5  -7   3    0.30    0.30
  -5  -7   3    0.10    0.40
  -5  -7   3    0.40    0.20
  -5  -7   3    0.40    0.20
   4   7  -3   13.60    1.10
  -4  -7   3   12.60    0.70
  -4  -7   3   13.10    0.70
  -4  -7   3   13.90    0.60
  -4  -7   3   12.70    0.60
   3   7  -3    2.60    0.60
   3   7  -3    3.80    0.40
  -3  -7   3    3.00    0.30
  -3  -7   3    3.80    0.30
  -3  -7   3    3.40    0.40
   2   7  -3   17.60    1.00
   2   7  -3   18.40    0.80
  -2  -7   3   18.00    0.70
  -2  -7   3   18.80    0.70
  -2  -7   3   17.00    0.70
   1   7  -3   36.80    1.20
   1   7  -3   36.70    1.10
  -1  -7   3   37.50    1.00
  -1  -7   3   37.30    1.00
  -1  -7   3   37.30    1.10
   0   7  -3    0.10    0.30
   0  -7   3    0.10    0.10
   0  -7   3    0.10    0.10
   0  -7   3    0.10    0.20
  -1   7  -3    3.10    0.50
   1  -7   3    3.80    0.40
   1  -7   3    3.00    0.40
  -2   7  -3    0.30    0.40
  -2   7  -3    0.40    0.20
   2  -7   3    0.40    0.20
   2  -7   3    0.30    0.20
  -3   7  -3   25.50    0.80
  -3   7  -3   25.30    1.20
   3  -7   3   24.30    0.90
   3  -7   3   26.60    0.90
  -4   7  -3   42.90    1.70
  -4   7  -3   41.70    1.10
   4  -7   3   41.60    1.40
   4  -7   3   43.10    1.30
  -5   7  -3   11.60    1.00
  -5   7  -3   10.80    0.50
   5  -7   3   12.20    0.70
   5  -7   3   11.50    0.80
  -6   7  -3   41.20    1.90
   6  -7   3   40.60    1.30
   6  -7   3   41.40    1.70
  -7   7  -3    3.00    0.80
   7  -7   3    2.80    0.40
   7  -7   3    2.90    0.70
  -8   7  -3    8.50    1.20
   8  -7   3    6.30    1.00
   9  -7   3    5.50    1.00
   9   6  -3    0.50    0.50
  -9  -6   3    1.00    0.70
  -9  -6   3   -0.20    0.40
   8   6  -3    6.40    1.10
  -8  -6   3    8.30    0.80
  -8  -6   3    7.50    1.30
   7   6  -3    3.50    0.70
  -7  -6   3    2.80    0.50
  -7  -6   3    4.00    1.00
   6   6  -3   80.39    2.70
   6   6  -3   80.19    1.90
  -6  -6   3   81.49    2.90
  -6  -6   3   76.49    1.70
  -6  -6   3   79.29    2.00
   5   6  -3   12.30    0.70
   5   6  -3   12.50    0.90
  -5  -6   3   12.50    0.70
  -5  -6   3   12.70    1.10
  -5  -6   3   10.90    0.50
  -4  -6   3   59.89    1.40
  -4  -6   3   57.09    2.00
  -4  -6   3   60.69    1.40
  -4  -6   3   59.19    1.50
  -4  -6   3   61.39    1.70
  -3  -6   3    1.90    0.40
  -3  -6   3    2.50    0.40
  -3  -6   3    2.10    0.30
  -3  -6   3    2.50    0.30
  -3  -6   3    2.90    0.40
   2   6  -3    8.30    0.50
   2   6  -3    8.50    0.70
  -2  -6   3    8.50    0.50
  -2  -6   3    9.40    0.50
  -2  -6   3    8.70    0.40
   1   6  -3   51.19    1.40
   1   6  -3   52.99    1.30
  -1  -6   3   51.19    1.20
  -1  -6   3   49.50    1.20
  -1  -6   3   49.99    1.20
   0   6  -3    2.00    0.40
   0  -6   3    1.30    0.20
   0  -6   3    1.60    0.20
   0  -6   3    1.40    0.20
  -1   6  -3  137.99    2.70
   1  -6   3  137.09    2.60
   1  -6   3  136.59    2.50
  -2   6  -3   98.79    1.90
  -2   6  -3   97.99    2.30
   2  -6   3  101.59    2.00
   2  -6   3   98.69    2.00
  -3   6  -3   90.49    1.80
  -3   6  -3   88.49    2.30
  -3   6  -3   84.39    1.80
   3  -6   3   91.99    1.90
   3  -6   3   91.89    2.00
  -4   6  -3   38.50    1.50
  -4   6  -3   38.90    1.00
  -4   6  -3   36.50    1.20
   4  -6   3   39.60    1.30
   4  -6   3   39.80    1.10
  -5   6  -3    9.00    0.90
  -5   6  -3    9.30    0.50
  -5   6  -3    8.30    0.70
   5  -6   3    9.40    0.60
   5  -6   3    9.30    0.80
  -6   6  -3    6.60    0.90
   6  -6   3    6.10    0.80
   6  -6   3    6.10    0.50
  -7   6  -3    5.40    0.90
   7  -6   3    4.30    0.70
   7  -6   3    4.50    0.50
  -8   6  -3    2.50    0.70
   8  -6   3    3.00    0.80
  -9   6  -3    0.50    0.50
   9  -6   3   -0.40    0.50
   9   5  -3   32.00    2.00
  -9  -5   3   30.10    2.20
  -9  -5   3   30.70    1.40
   8   5  -3    8.00    1.10
  -8  -5   3    8.20    0.80
  -8  -5   3   11.20    1.60
   7   5  -3    7.40    1.10
  -7  -5   3    8.80    1.40
  -7  -5   3    7.20    0.70
   6   5  -3   15.40    0.70
   6   5  -3   15.50    1.20
  -6  -5   3   16.40    0.80
  -6  -5   3   15.00    1.30
   5   5  -3    3.40    0.40
   5   5  -3    3.50    0.60
  -5  -5   3    4.30    0.80
  -5  -5   3    3.90    0.50
  -5  -5   3    4.10    0.30
  -4  -5   3  256.57    4.30
  -4  -5   3  268.77    4.80
  -4  -5   3  267.77    4.40
  -4  -5   3  260.77    5.40
  -4  -5   3  264.37    4.50
  -3  -5   3  101.99    2.00
  -3  -5   3  102.29    1.90
  -3  -5   3   98.79    2.60
  -3  -5   3  101.99    2.00
  -3  -5   3  105.69    2.20
  -2  -5   3  274.17    4.40
  -2  -5   3  272.87    4.40
  -2  -5   3  268.77    4.90
  -2  -5   3  264.27    4.50
   1   5  -3    1.10    0.20
  -1  -5   3    0.90    0.20
  -1  -5   3    1.60    0.20
  -1  -5   3    1.10    0.20
   0   5  -3   26.50    0.80
   0  -5   3   26.80    0.80
   0  -5   3   27.40    0.80
   0  -5   3   26.90    0.80
  -1   5  -3   22.60    0.80
  -1   5  -3   21.70    0.60
   1  -5   3   21.20    0.70
   1  -5   3   20.10    0.70
  -2   5  -3   14.90    0.80
  -2   5  -3   14.30    0.50
   2  -5   3   13.90    0.60
   2  -5   3   14.90    0.60
  -3   5  -3  169.68    2.90
  -3   5  -3  168.88    3.40
  -3   5  -3  169.78    3.00
   3  -5   3  172.98    3.00
   3  -5   3  176.68    3.20
  -4   5  -3   36.00    1.20
  -4   5  -3   37.60    0.90
  -4   5  -3   36.10    1.40
   4  -5   3   37.20    1.00
   4  -5   3   36.30    1.30
  -5   5  -3  225.58    3.70
  -5   5  -3  221.08    4.40
  -5   5  -3  221.58    4.70
   5  -5   3  225.38    3.90
   5  -5   3  226.88    4.40
  -6   5  -3    7.50    0.90
  -6   5  -3    6.50    0.80
   6  -5   3    6.60    0.50
   6  -5   3    6.40    0.80
  -7   5  -3   28.70    1.60
  -7   5  -3   26.80    1.50
   7  -5   3   27.50    1.40
   7  -5   3   27.90    1.00
  -8   5  -3    0.50    0.50
   8  -5   3   -0.70    0.30
  -9   5  -3   11.40    1.20
   9  -5   3   11.80    1.20
   9   4  -3   24.50    1.80
  -9  -4   3   24.70    1.30
  -9  -4   3   25.50    2.10
   8   4  -3   12.70    1.30
  -8  -4   3   13.20    1.50
  -8  -4   3   14.30    0.90
   7   4  -3   51.79    2.30
  -7  -4   3   56.79    2.60
  -7  -4   3   55.79    1.70
   6   4  -3    2.90    0.60
   6   4  -3    2.70    0.40
  -6  -4   3    3.00    0.50
  -6  -4   3    3.60    0.80
   5   4  -3  300.17    5.00
   5   4  -3  294.47    6.00
  -5  -4   3  302.67    5.10
  -5  -4   3  295.17    6.30
  -5  -4   3  291.37    4.70
   4   4  -3  181.48    3.30
  -4  -4   3  182.58    3.30
  -4  -4   3  178.38    4.20
  -4  -4   3  179.28    3.00
  -4  -4   3  187.48    3.60
  -3  -4   3    2.60    0.40
  -3  -4   3    1.90    0.30
  -3  -4   3    2.30    0.20
  -3  -4   3    2.20    0.50
  -3  -4   3    2.00    0.20
  -2  -4   3  192.98    3.80
  -2  -4   3  194.38    3.30
  -2  -4   3  201.28    3.20
  -2  -4   3  193.68    3.40
  -2  -4   3  197.48    3.20
   1   4  -3    5.80    0.30
  -1  -4   3    6.00    0.30
  -1  -4   3    5.90    0.40
  -1  -4   3    5.40    0.40
  -1  -4   3    5.60    0.30
   0   4  -3  867.91   12.70
   0   4  -3  861.51   12.60
   0   4  -3  845.52   12.60
   0  -4   3  849.72   12.70
   0  -4   3  837.12   12.70
  -1   4  -3   17.70    0.50
  -1   4  -3   17.50    0.70
   1  -4   3   18.20    0.60
   1  -4   3   15.50    0.60
  -2   4  -3   72.79    1.70
  -2   4  -3   71.49    1.40
   2  -4   3   68.19    1.50
   2  -4   3   70.89    1.40
  -3   4  -3   53.09    1.10
  -3   4  -3   52.59    1.30
  -3   4  -3   54.19    1.50
   3  -4   3   53.99    1.20
   3  -4   3   53.99    1.40
  -4   4  -3    5.90    0.30
  -4   4  -3    5.90    0.60
  -4   4  -3    6.00    0.50
   4  -4   3    5.60    0.40
   4  -4   3    6.30    0.60
  -5   4  -3    0.10    0.30
  -5   4  -3   -0.10    0.10
  -5   4  -3   -0.10    0.30
   5  -4   3    0.00    0.20
   5  -4   3    0.00    0.10
  -6   4  -3   15.60    0.50
  -6   4  -3   14.30    1.00
  -6   4  -3   15.10    1.00
   6  -4   3   14.40    0.60
   6  -4   3   15.20    1.00
  -7   4  -3    7.80    1.00
  -7   4  -3    8.20    0.90
   7  -4   3    8.20    0.90
   7  -4   3    7.80    0.50
  -8   4  -3   20.20    1.60
  -8   4  -3   21.00    1.40
   8  -4   3   21.40    1.40
  -9   4  -3   10.20    1.90
  -9   4  -3    9.80    1.30
   9  -4   3    9.70    1.20
 -10   4  -3    0.90    0.50
  10  -4   3   -0.50    0.70
   9   3  -3    0.00    0.50
  -9  -3   3    0.60    0.40
  -9  -3   3    0.20    0.70
   8   3  -3    2.80    0.70
  -8  -3   3    1.30    0.80
  -8  -3   3    2.10    0.50
   7   3  -3    3.00    0.70
  -7  -3   3    3.50    0.50
  -7  -3   3    3.80    1.00
   6   3  -3   47.60    2.00
   6   3  -3   44.80    1.30
  -6  -3   3   45.40    1.40
  -6  -3   3   47.10    2.20
   5   3  -3   49.20    1.90
   5   3  -3   44.90    1.20
  -5  -3   3   49.80    2.10
  -5  -3   3   49.30    1.40
  -5  -3   3   44.40    1.00
   4   3  -3    2.60    0.30
  -4  -3   3    2.30    0.40
  -4  -3   3    3.10    0.60
  -4  -3   3    2.50    0.20
  -4  -3   3    2.30    0.30
  -3  -3   3   88.99    2.40
  -3  -3   3   88.59    1.70
  -3  -3   3   88.09    1.60
  -3  -3   3   89.19    2.00
  -2  -3   3    4.90    0.30
  -2  -3   3    4.60    0.40
  -2  -3   3    4.70    0.50
  -2  -3   3    4.80    0.30
   1   3  -3  410.26    6.10
  -1  -3   3  393.96    6.10
  -1  -3   3  403.56    6.10
  -1  -3   3  403.66    6.50
  -1  -3   3  389.76    6.20
   0   3  -3   79.99    1.40
   0   3  -3   82.99    1.50
   0  -3   3   77.49    1.50
   0  -3   3   75.99    1.50
   0  -3   3   80.19    1.50
  -1   3  -3    2.30    0.30
  -1   3  -3    1.60    0.20
   1  -3   3    2.00    0.20
   1  -3   3    2.00    0.20
  -2   3  -3   11.30    0.40
  -2   3  -3   11.10    0.60
   2  -3   3   11.40    0.40
   2  -3   3   11.10    0.40
   2  -3   3   10.80    0.40
   2  -3   3   11.40    0.50
  -3   3  -3   14.50    0.70
  -3   3  -3   14.60    0.50
  -3   3  -3   14.60    0.60
   3  -3   3   14.40    0.70
   3  -3   3   15.10    0.50
  -4   3  -3    4.50    0.30
  -4   3  -3    4.70    0.50
  -4   3  -3    4.60    0.60
   4  -3   3    4.60    0.30
   4  -3   3    4.60    0.50
  -5   3  -3   38.40    1.50
  -5   3  -3   37.40    1.40
  -5   3  -3   38.00    0.90
   5  -3   3   38.90    1.00
   5  -3   3   38.60    1.40
  -6   3  -3    1.70    0.50
  -6   3  -3    1.70    0.20
  -6   3  -3    2.10    0.50
   6  -3   3    1.60    0.40
   6  -3   3    1.30    0.20
  -7   3  -3    6.70    0.90
  -7   3  -3    7.60    1.10
   7  -3   3    7.20    0.50
   7  -3   3    7.90    0.90
  -8   3  -3   11.10    1.00
  -8   3  -3   10.00    1.30
   8  -3   3    9.30    1.00
  -9   3  -3    5.40    1.00
  -9   3  -3    3.10    1.00
   9  -3   3    2.60    0.80
 -10   3  -3    0.90    0.50
  10  -3   3   -0.40    0.60
   9   2  -3    1.70    0.70
  -9  -2   3    2.90    0.60
  -9  -2   3    2.40    0.90
   8   2  -3   21.20    1.60
  -8  -2   3   18.90    1.10
  -8  -2   3   20.30    1.80
   7   2  -3   -0.10    0.40
   7   2  -3    0.00    0.20
  -7  -2   3    0.70    0.30
  -7  -2   3    0.30    0.50
   6   2  -3    8.10    0.50
   6   2  -3    8.20    0.90
  -6  -2   3    8.70    0.70
  -6  -2   3    8.00    1.00
   5   2  -3   15.80    0.70
   5   2  -3   16.80    1.10
   5   2  -3   15.40    0.40
  -5  -2   3   14.80    0.70
  -5  -2   3   15.30    1.20
   4   2  -3    1.30    0.10
   4   2  -3    1.10    0.20
  -4  -2   3    0.40    0.30
  -4  -2   3    1.00    0.30
  -4  -2   3    1.00    0.20
   3   2  -3  165.08    2.60
   3   2  -3  164.58    2.90
  -3  -2   3  164.78    3.10
  -3  -2   3  158.58    2.80
  -3  -2   3  163.78    3.70
   2   2  -3   28.90    0.60
  -2  -2   3   29.40    1.10
  -2  -2   3   29.00    0.90
  -2  -2   3   27.00    0.70
  -2  -2   3   27.70    0.70
   1   2  -3  149.79    2.40
  -1  -2   3  150.58    2.90
  -1  -2   3  151.58    2.60
  -1  -2   3  144.59    2.50
  -1  -2   3  149.09    2.40
   0  -2   3    6.40    0.30
  -1   2  -3    4.90    0.20
  -1   2  -3    5.20    0.20
  -1   2  -3    4.50    0.30
   1  -2   3    4.90    0.20
   1  -2   3    4.30    0.20
   1  -2   3    4.10    0.30
  -2   2  -3   28.80    0.70
  -2   2  -3   28.90    0.80
   2  -2   3   28.80    0.80
   2  -2   3   28.50    0.70
   2  -2   3   28.00    0.70
  -3   2  -3  144.09    2.80
  -3   2  -3  148.39    2.40
   3  -2   3  141.59    2.70
   3  -2   3  146.69    2.40
  -4   2  -3  166.38    3.30
  -4   2  -3  164.38    3.30
  -4   2  -3  164.78    2.80
   4  -2   3  169.58    2.70
   4  -2   3  164.88    3.30
  -5   2  -3   18.60    1.00
  -5   2  -3   17.90    0.90
  -5   2  -3   18.50    0.60
   5  -2   3   18.70    0.60
   5  -2   3   18.40    0.90
  -6   2  -3    2.90    0.60
  -6   2  -3    2.80    0.30
  -6   2  -3    2.50    0.50
   6  -2   3    1.90    0.40
   6  -2   3    2.80    0.30
  -7   2  -3    2.90    0.70
  -7   2  -3    2.20    0.50
   7  -2   3    2.80    0.60
  -8   2  -3   33.40    1.90
  -8   2  -3   30.30    1.60
   8  -2   3   33.80    1.70
  -9   2  -3   53.29    2.60
  -9   2  -3   55.59    2.30
   9  -2   3   53.89    2.30
 -10   2  -3    5.20    0.90
  10  -2   3    2.80    0.80
   9   1  -3    0.10    0.40
  -9  -1   3   -0.70    0.50
  -9  -1   3   -0.20    0.30
   8   1  -3    0.70    0.50
  -8  -1   3    0.00    0.60
  -8  -1   3    0.60    0.40
   7   1  -3    7.00    0.50
   7   1  -3    5.70    0.90
  -7  -1   3    7.40    1.20
  -7  -1   3    7.50    0.70
   6   1  -3   49.70    1.40
   6   1  -3   49.90    2.10
  -6  -1   3   47.80    1.50
  -6  -1   3   46.20    2.30
   5   1  -3    0.50    0.20
   5   1  -3    0.20    0.30
  -5  -1   3    0.30    0.20
  -5  -1   3    0.70    0.50
   4   1  -3   61.59    1.40
   4   1  -3   61.99    2.00
   4   1  -3   60.59    1.00
  -4  -1   3   60.29    2.20
  -4  -1   3   58.89    1.50
   3   1  -3    1.70    0.20
   3   1  -3    1.90    0.10
  -3  -1   3    1.40    0.20
  -3  -1   3    2.10    0.50
  -3  -1   3    1.70    0.30
   2   1  -3   73.29    1.50
   2   1  -3   71.79    1.20
  -2  -1   3   73.49    1.60
  -2  -1   3   73.29    2.00
  -2  -1   3   71.39    1.40
   1   1  -3  371.66    5.60
  -1  -1   3  382.16    6.30
  -1  -1   3  376.16    5.60
  -1  -1   3  371.66    5.70
  -1  -1   3  378.36    5.90
   0   1  -3   14.80    0.40
   0  -1   3   15.40    0.50
   0  -1   3   15.20    0.60
  -1   1  -3  494.05    7.40
  -1   1  -3  492.45    7.40
   1  -1   3  491.95    7.50
   1  -1   3  506.05    7.50
   1  -1   3  505.25    7.40
  -2   1  -3   83.79    1.50
  -2   1  -3   84.79    1.70
   2  -1   3   87.49    1.60
   2  -1   3   82.49    1.70
   2  -1   3   85.69    1.40
  -3   1  -3  289.47    4.90
  -3   1  -3  286.07    4.50
   3  -1   3  292.47    5.10
   3  -1   3  287.37    4.40
   3  -1   3  287.17    4.80
  -4   1  -3   63.09    1.20
  -4   1  -3   61.89    1.60
   4  -1   3   61.99    1.10
   4  -1   3   63.49    1.60
  -5   1  -3  136.69    2.40
  -5   1  -3  139.69    3.20
  -5   1  -3  137.99    3.00
   5  -1   3  141.79    2.30
   5  -1   3  137.09    3.00
  -6   1  -3   38.60    1.50
  -6   1  -3   38.20    0.90
  -6   1  -3   37.50    1.60
   6  -1   3   36.70    0.80
   6  -1   3   36.40    1.50
  -7   1  -3  205.58    4.50
  -7   1  -3  217.68    5.00
   7  -1   3  206.58    4.60
  -8   1  -3   21.60    1.60
  -8   1  -3   20.40    1.30
   8  -1   3   20.30    1.30
  -9   1  -3    6.10    1.20
  -9   1  -3    6.00    1.00
   9  -1   3    4.30    0.80
 -10   1  -3    2.30    0.60
  10  -1   3    2.20    0.90
  10  -1   3    1.20    0.60
  11  -1   3    1.50    0.60
   9   0  -3    0.30    0.50
  -9   0   3   -0.60    0.50
  -9   0   3    0.30    0.40
   8   0  -3    2.10    0.70
  -8   0   3    2.20    0.50
  -8   0   3    2.30    0.90
   7   0  -3    1.30    0.50
   7   0  -3    1.20    0.30
  -7   0   3    0.90    0.40
  -7   0   3    0.70    0.60
   6   0  -3   42.60    1.90
   6   0  -3   41.60    1.30
  -6   0   3   41.50    2.10
  -6   0   3   40.00    1.50
   5   0  -3   15.50    0.70
   5   0  -3   17.50    1.10
  -5   0   3   16.00    0.80
  -5   0   3   16.40    1.30
   4   0  -3   46.10    1.70
   4   0  -3   46.50    1.20
  -4   0   3   43.30    1.80
  -4   0   3   47.50    1.30
   3   0  -3   31.30    0.90
   3   0  -3   31.60    0.60
  -3   0   3   32.20    1.00
  -3   0   3   32.90    0.90
  -3   0   3   32.10    1.40
   2   0  -3  213.78    3.20
   2   0  -3  207.68    3.50
  -2   0   3  211.48    3.40
  -2   0   3  206.28    3.60
  -2   0   3  214.68    4.20
   1   0  -3  209.28    3.40
   1   0  -3  208.08    3.20
  -1   0   3  204.68    3.20
  -1   0   3  209.68    3.40
  -1   0   3  208.38    3.80
   0   0  -3  151.18    2.50
   0   0  -3  154.08    2.40
   0   0   3  158.08    2.80
   0   0   3  154.38    2.60
  -1   0  -3  331.47    5.00
  -1   0  -3  322.37    5.10
   1   0   3  341.07    5.10
   1   0   3  347.67    5.20
   1   0   3  339.27    5.30
   1   0   3  333.17    5.00
  -2   0  -3  101.59    1.70
  -2   0  -3  101.79    1.90
   2   0   3  102.69    2.00
   2   0   3  103.09    1.90
   2   0   3  104.19    1.60
  -3   0  -3  115.99    2.00
  -3   0  -3  117.29    2.30
   3   0   3  114.59    1.80
   3   0   3  120.69    2.30
   3   0   3  118.29    2.60
  -4   0  -3   15.50    0.70
  -4   0  -3   16.60    0.50
   4   0   3   15.40    0.90
   4   0   3   15.80    0.40
   4   0   3   16.70    0.80
  -5   0  -3   38.10    0.90
  -5   0  -3   38.80    1.30
  -5   0  -3   39.80    1.50
   5   0   3   39.80    1.40
   5   0   3   38.80    0.70
  -6   0  -3   21.70    0.60
  -6   0  -3   22.20    1.10
  -6   0  -3   23.50    1.30
   6   0   3   21.70    1.10
   6   0   3   22.00    0.50
  -7   0  -3   43.60    1.90
  -7   0  -3   39.90    1.60
  -7   0  -3   39.20    1.00
   7   0   3   38.60    1.60
  -8   0  -3   50.49    2.30
  -8   0  -3   48.50    1.90
   8   0   3   46.90    2.00
  -9   0  -3   39.90    1.80
   9   0   3   38.70    1.90
 -10   0  -3    8.30    1.10
  10   0   3   11.90    1.90
  10   0   3    6.90    1.00
  11   0   3   11.90    1.60
   9  -1  -3    7.90    1.20
  -9   1   3    9.90    1.00
  -9   1   3    8.80    1.60
   8  -1  -3    0.90    0.50
  -8   1   3    1.50    0.50
  -8   1   3    0.50    0.70
   7  -1  -3   16.80    1.30
   7  -1  -3   19.20    0.90
  -7   1   3   19.30    1.70
  -7   1   3   18.30    1.10
   6  -1  -3   56.89    1.50
   6  -1  -3   54.49    2.20
  -6   1   3   54.99    1.80
  -6   1   3   54.79    2.50
   5  -1  -3    6.80    0.70
   5  -1  -3    7.20    0.50
  -5   1   3    7.60    0.60
  -5   1   3    7.50    0.90
   4  -1  -3  120.59    3.00
   4  -1  -3  122.69    2.40
  -4   1   3  120.89    3.40
  -4   1   3  124.09    2.60
   3  -1  -3   22.90    0.80
  -3   1   3   22.70    0.80
  -3   1   3   23.70    1.20
  -3   1   3   22.60    0.90
   2  -1  -3  283.57    4.20
   2  -1  -3  284.37    4.60
  -2   1   3  283.77    5.30
  -2   1   3  281.07    4.60
  -2   1   3  282.97    4.70
   1  -1  -3   27.00    0.50
   1  -1  -3   27.70    0.70
  -1   1   3   27.10    0.60
  -1   1   3   27.60    0.70
  -1   1   3   27.10    1.00
   0  -1  -3  304.27    4.70
   0  -1  -3  304.87    4.80
   0   1   3  316.97    5.20
   0   1   3  314.67    4.80
  -1  -1  -3  419.96    6.50
  -1  -1  -3  427.76    6.50
  -1  -1  -3  418.76    6.50
   1   1   3  460.05    7.10
   1   1   3  443.26    6.90
  -2  -1  -3  348.07    5.20
  -2  -1  -3  344.37    5.10
  -2  -1  -3  341.87    5.30
   2   1   3  344.57    5.60
   2   1   3  339.97    5.30
  -3  -1  -3   84.99    1.50
  -3  -1  -3   84.79    1.80
   3   1   3   83.99    2.10
   3   1   3   85.69    1.80
  -4  -1  -3  259.57    4.10
  -4  -1  -3  262.37    4.50
   4   1   3  258.77    5.10
   4   1   3  258.07    4.60
  -5  -1  -3   46.80    1.40
  -5  -1  -3   46.30    1.00
   5   1   3   46.80    1.90
   5   1   3   45.60    1.50
  -6  -1  -3   20.10    0.60
  -6  -1  -3   19.00    1.00
   6   1   3   19.90    1.00
  -7  -1  -3    0.30    0.10
  -7  -1  -3   -0.20    0.30
   7   1   3    0.40    0.30
  -8  -1  -3    8.20    0.80
   8   1   3    6.50    1.10
   8   1   3    7.50    0.90
  -9  -1  -3    2.60    0.60
   9   1   3    4.10    1.00
   9   1   3    2.70    0.70
 -10  -1  -3    0.30    0.40
  10   1   3   -0.40    0.40
  10   1   3    0.60    0.40
  11   1   3    1.30    0.70
  -9   2   3    2.70    0.60
  -9   2   3    3.40    1.10
   8  -2  -3   -0.40    0.40
  -8   2   3    0.00    0.40
  -8   2   3   -0.40    0.60
   7  -2  -3   13.60    0.80
   7  -2  -3   13.30    1.20
  -7   2   3   14.40    1.50
  -7   2   3   16.20    1.10
   6  -2  -3    0.80    0.30
   6  -2  -3    1.20    0.40
  -6   2   3    2.40    0.80
  -6   2   3    1.40    0.40
   5  -2  -3    2.10    0.30
   5  -2  -3    1.80    0.50
  -5   2   3    2.50    0.50
  -5   2   3    2.30    0.70
   4  -2  -3    1.70    0.40
   4  -2  -3    2.50    0.30
  -4   2   3    1.60    0.30
  -4   2   3    2.40    0.60
   3  -2  -3   13.20    0.60
   3  -2  -3   14.20    0.80
  -3   2   3   14.70    1.00
  -3   2   3   14.00    0.70
   2  -2  -3  119.29    1.80
   2  -2  -3  117.79    2.20
  -2   2   3  116.99    2.20
  -2   2   3  118.59    2.30
  -2   2   3  119.49    2.80
   1  -2  -3    3.20    0.20
   1  -2  -3    2.80    0.20
  -1   2   3    3.30    0.40
  -1   2   3    3.10    0.20
  -1   2   3    2.80    0.20
   0  -2  -3    2.60    0.20
   0  -2  -3    2.70    0.20
   0   2   3    3.60    0.50
   0   2   3    3.30    0.20
   0   2   3    3.50    0.20
  -1  -2  -3   20.60    0.50
  -1  -2  -3   19.70    0.50
  -1  -2  -3   19.40    0.50
   1   2   3   19.40    0.50
   1   2   3   20.60    0.90
  -2  -2  -3   13.40    0.40
  -2  -2  -3   13.20    0.30
  -2  -2  -3   13.20    0.40
   2   2   3   14.50    0.70
   2   2   3   14.20    0.40
  -3  -2  -3   79.39    1.60
  -3  -2  -3   78.29    1.50
   3   2   3   79.19    1.60
   3   2   3   77.79    2.00
  -4  -2  -3    9.70    0.50
  -4  -2  -3   10.00    0.40
   4   2   3   10.00    0.70
   4   2   3   10.90    0.60
  -5  -2  -3   20.50    0.60
  -5  -2  -3   19.30    0.90
   5   2   3   19.70    0.90
   5   2   3   18.40    1.10
  -6  -2  -3    3.80    0.30
  -6  -2  -3    4.40    0.60
   6   2   3    4.50    0.60
   6   2   3    4.00    0.80
  -7  -2  -3    1.20    0.40
  -7  -2  -3    1.10    0.20
   7   2   3    1.50    0.60
   7   2   3    0.80    0.40
  -8  -2  -3    4.00    0.70
   8   2   3    4.60    1.00
   8   2   3    4.20    0.70
  -9  -2  -3    9.80    0.90
   9   2   3    8.50    1.10
   9   2   3   10.20    1.30
 -10  -2  -3    3.50    0.70
  10   2   3    2.90    0.90
  10   2   3    1.60    0.70
  11   2   3    8.50    2.20
  11   2   3   10.60    1.70
   9  -3  -3    0.40    0.50
  -9   3   3    0.60    0.70
  -9   3   3    0.50    0.40
   8  -3  -3    0.00    0.40
  -8   3   3    0.00    0.70
  -8   3   3    0.10    0.40
   7  -3  -3    4.90    0.60
   7  -3  -3    4.20    0.80
  -7   3   3    5.00    0.80
  -7   3   3    5.80    1.20
   6  -3  -3    3.80    0.70
   6  -3  -3    4.40    0.50
  -6   3   3    4.60    0.70
  -6   3   3    5.60    1.10
   5  -3  -3    6.00    0.50
   5  -3  -3    6.30    0.80
  -5   3   3    6.40    1.10
  -5   3   3    5.70    0.60
   4  -3  -3    0.50    0.20
   4  -3  -3    0.30    0.20
  -4   3   3    0.10    0.40
  -4   3   3    0.40    0.20
   3  -3  -3   54.59    1.40
   3  -3  -3   53.99    1.70
  -3   3   3   55.59    1.50
  -3   3   3   55.89    2.00
   2  -3  -3   64.99    1.70
   2  -3  -3   65.29    1.50
   2  -3  -3   66.99    1.10
  -2   3   3   64.79    2.00
  -2   3   3   64.99    1.50
   1  -3  -3    0.30    0.10
   1  -3  -3    0.70    0.10
  -1   3   3    0.20    0.30
  -1   3   3    0.60    0.20
  -1   3   3    0.50    0.20
   0  -3  -3    2.60    0.20
   0  -3  -3    2.60    0.20
   0   3   3    3.90    0.30
   0   3   3    2.70    0.20
   0   3   3    2.90    0.50
  -1  -3  -3   51.29    1.00
  -1  -3  -3   52.79    1.00
   1   3   3   52.99    1.00
   1   3   3   53.09    1.50
  -2  -3  -3   12.70    0.40
  -2  -3  -3   12.30    0.40
  -2  -3  -3   13.00    0.40
   2   3   3   13.30    0.70
   2   3   3   12.20    0.40
  -3  -3  -3   16.20    0.50
  -3  -3  -3   16.80    0.60
   3   3   3   18.10    0.60
   3   3   3   16.80    0.90
  -4  -3  -3   34.70    1.00
  -4  -3  -3   34.90    0.90
   4   3   3   35.00    1.00
   4   3   3   33.30    1.40
  -5  -3  -3    5.00    0.30
  -5  -3  -3    5.10    0.50
   5   3   3    5.30    0.70
   5   3   3    5.00    0.50
  -6  -3  -3    1.80    0.20
  -6  -3  -3    1.80    0.40
   6   3   3    1.50    0.40
   6   3   3    0.90    0.40
  -7  -3  -3   22.30    1.10
  -7  -3  -3   21.80    0.70
   7   3   3   22.40    1.60
   7   3   3   23.00    1.20
  -8  -3  -3    7.20    0.70
   8   3   3    6.90    0.90
   8   3   3    6.70    1.20
  -9  -3  -3   35.70    1.60
   9   3   3   36.30    2.30
   9   3   3   36.30    1.80
 -10  -3  -3   55.39    2.10
  10   3   3   51.89    3.00
  10   3   3   51.89    2.30
  11   3   3    9.10    1.30
   8  -4  -3    0.00    0.40
  -8   4   3    0.20    0.70
  -8   4   3    0.10    0.30
   7  -4  -3    0.40    0.40
   7  -4  -3    0.80    0.30
  -7   4   3    0.70    0.80
  -7   4   3    1.10    0.50
   6  -4  -3   -0.20    0.20
   6  -4  -3    0.20    0.30
  -6   4   3    0.20    0.50
  -6   4   3    0.00    0.30
   5  -4  -3   29.50    1.10
   5  -4  -3   29.10    1.50
  -5   4   3   29.80    1.80
  -5   4   3   32.50    1.40
   4  -4  -3    1.10    0.30
   4  -4  -3    1.80    0.50
  -4   4   3    1.90    0.40
  -4   4   3    1.70    0.60
   3  -4  -3   30.60    1.20
   3  -4  -3   29.50    0.60
   3  -4  -3   31.10    1.00
  -3   4   3   30.50    1.10
  -3   4   3   30.00    1.50
   2  -4  -3   51.39    1.50
   2  -4  -3   52.19    1.30
   2  -4  -3   51.79    0.90
  -2   4   3   49.70    1.80
  -2   4   3   48.60    1.30
   1  -4  -3  137.39    2.60
   1  -4  -3  139.49    2.30
   1  -4  -3  145.99    2.70
  -1   4   3  140.29    3.10
  -1   4   3  138.59    2.50
   0  -4  -3    0.10    0.10
   0  -4  -3    0.10    0.10
   0   4   3   -0.10    0.40
   0   4   3    0.10    0.10
   0   4   3    0.20    0.20
  -1  -4  -3   38.50    0.90
  -1  -4  -3   38.80    0.80
   1   4   3   37.00    0.70
   1   4   3   40.10    1.40
   1   4   3   37.40    0.90
  -2  -4  -3   27.90    0.60
  -2  -4  -3   28.20    0.80
   2   4   3   29.80    1.20
   2   4   3   27.30    0.60
  -3  -4  -3  200.28    3.20
  -3  -4  -3  207.98    3.40
  -3  -4  -3  206.28    3.50
   3   4   3  205.68    3.40
   3   4   3  208.88    4.10
  -4  -4  -3  207.88    3.70
  -4  -4  -3  206.58    3.50
   4   4   3  207.38    4.40
   4   4   3  209.28    3.60
  -5  -4  -3  118.59    2.50
  -5  -4  -3  119.29    2.20
   5   4   3  121.29    2.60
   5   4   3  120.19    3.30
  -6  -4  -3   50.79    1.20
  -6  -4  -3   53.09    1.50
   6   4   3   50.29    1.60
   6   4   3   48.70    2.10
  -7  -4  -3   51.69    1.70
  -7  -4  -3   50.79    1.20
   7   4   3   49.60    1.80
   7   4   3   48.80    2.30
  -8  -4  -3    1.40    0.20
  -8  -4  -3    1.50    0.40
   8   4   3    2.10    0.70
   8   4   3    1.80    0.50
  -9  -4  -3    5.20    0.70
   9   4   3    4.70    0.80
   9   4   3    4.50    1.10
 -10  -4  -3   -0.30    0.40
  10   4   3    0.70    0.60
  10   4   3   -1.00    0.40
  11   4   3    4.40    1.00
   8  -5  -3    6.10    1.00
   8  -5  -3    5.10    0.90
  -8   5   3    6.00    0.90
  -8   5   3    7.60    1.40
   7  -5  -3    0.40    0.30
   7  -5  -3    0.10    0.30
  -7   5   3    0.70    0.70
  -7   5   3    0.40    0.40
   6  -5  -3    5.00    0.80
   6  -5  -3    6.60    0.60
  -6   5   3    7.60    1.40
  -6   5   3    5.90    0.80
   5  -5  -3    2.10    0.40
   5  -5  -3    3.30    0.60
  -5   5   3    2.40    0.50
  -5   5   3    2.70    0.80
   4  -5  -3    0.20    0.30
   4  -5  -3    0.50    0.20
  -4   5   3   -0.20    0.40
  -4   5   3   -0.10    0.20
   3  -5  -3   15.50    0.40
   3  -5  -3   15.80    0.70
   3  -5  -3   16.10    0.90
  -3   5   3   16.70    0.90
  -3   5   3   15.90    1.20
   2  -5  -3    4.00    0.40
   2  -5  -3    3.60    0.40
   2  -5  -3    4.20    0.20
  -2   5   3    4.50    0.70
  -2   5   3    4.40    0.50
   1  -5  -3   85.79    1.90
   1  -5  -3   86.69    1.80
   1  -5  -3   86.69    1.50
  -1   5   3   85.39    1.90
  -1   5   3   85.99    2.40
   0  -5  -3   79.09    1.60
   0  -5  -3   78.79    1.50
   0  -5  -3   79.19    1.50
   0   5   3   78.09    1.70
   0   5   3   75.49    2.20
  -1  -5  -3   99.79    1.90
  -1  -5  -3   98.99    1.80
   1   5   3  103.39    2.60
   1   5   3   98.39    1.90
   1   5   3   97.19    1.60
  -2  -5  -3   58.69    1.30
  -2  -5  -3   61.89    1.10
  -2  -5  -3   61.29    1.20
   2   5   3   63.09    1.90
   2   5   3   58.29    1.00
  -3  -5  -3   87.39    1.50
  -3  -5  -3   86.49    1.70
  -3  -5  -3   87.39    1.80
   3   5   3   88.49    1.60
   3   5   3   90.59    2.40
  -4  -5  -3   24.80    0.50
  -4  -5  -3   26.30    0.90
  -4  -5  -3   26.30    0.80
   4   5   3   26.50    0.80
   4   5   3   25.10    1.30
  -5  -5  -3  101.99    2.20
  -5  -5  -3   99.79    2.00
   5   5   3  101.79    3.00
   5   5   3  100.49    2.20
  -6  -5  -3  174.88    3.10
  -6  -5  -3  181.88    3.60
   6   5   3  175.78    4.60
   6   5   3  179.98    3.70
  -7  -5  -3   51.59    1.30
  -7  -5  -3   54.89    1.70
   7   5   3   55.19    1.80
   7   5   3   54.19    2.50
  -8  -5  -3   66.89    2.00
  -8  -5  -3   62.29    1.50
   8   5   3   66.79    3.00
   8   5   3   67.69    2.20
  -9  -5  -3   29.20    1.40
   9   5   3   27.10    2.10
   9   5   3   28.10    1.60
 -10  -5  -3   11.50    1.00
  10   5   3   15.60    1.70
  10   5   3   11.30    1.20
  11   5   3   -1.10    0.50
   8  -6  -3    2.70    0.60
   8  -6  -3    3.00    0.80
  -8   6   3    2.80    0.70
   7  -6  -3    6.90    0.70
   7  -6  -3    8.40    1.10
  -7   6   3    8.40    1.10
  -7   6   3    9.40    1.60
   6  -6  -3   10.20    1.00
   6  -6  -3   10.60    0.80
  -6   6   3   12.00    1.00
  -6   6   3   12.10    1.50
   5  -6  -3    4.60    0.50
   5  -6  -3    5.80    0.80
  -5   6   3    5.70    0.80
  -5   6   3    7.40    1.20
   4  -6  -3  143.79    3.00
   4  -6  -3  148.49    3.50
  -4   6   3  147.59    3.40
  -4   6   3  148.89    4.10
   3  -6  -3   77.09    1.90
   3  -6  -3   75.49    2.10
   3  -6  -3   71.69    1.30
  -3   6   3   73.59    2.50
  -3   6   3   73.79    2.10
   2  -6  -3    0.20    0.20
   2  -6  -3    0.40    0.20
   2  -6  -3    0.00    0.10
  -2   6   3    0.20    0.40
  -2   6   3    0.40    0.30
   1  -6  -3   14.20    0.60
   1  -6  -3   13.80    0.50
   1  -6  -3   14.50    0.60
  -1   6   3   14.00    1.00
  -1   6   3   13.50    0.70
   0  -6  -3   11.70    0.50
   0  -6  -3   11.30    0.40
   0  -6  -3   10.50    0.40
   0   6   3   11.20    0.60
   0   6   3   10.90    1.00
  -1  -6  -3  189.78    3.20
  -1  -6  -3  191.18    3.30
   1   6   3  191.28    3.40
   1   6   3  184.78    4.00
  -2  -6  -3   21.60    0.60
   2   6   3   18.90    0.70
   2   6   3   22.40    1.20
  -3  -6  -3   32.20    1.00
  -3  -6  -3   31.30    0.80
  -3  -6  -3   32.90    0.90
   3   6   3   32.80    1.40
   3   6   3   31.60    0.70
  -4  -6  -3   91.49    1.60
  -4  -6  -3   91.19    1.90
  -4  -6  -3   96.49    2.10
   4   6   3   96.29    1.80
   4   6   3   94.69    2.70
  -5  -6  -3   17.00    0.60
  -5  -6  -3   16.20    0.80
   5   6   3   16.50    0.70
   5   6   3   17.30    1.20
  -6  -6  -3    0.00    0.20
  -6  -6  -3    0.10    0.10
   6   6   3    0.10    0.20
   6   6   3    0.10    0.40
  -7  -6  -3   10.00    0.50
   7   6   3    9.60    0.80
   7   6   3    9.30    1.10
  -8  -6  -3   23.10    0.80
  -8  -6  -3   22.70    1.20
   8   6   3   25.30    1.30
   8   6   3   23.80    1.80
  -9  -6  -3    7.20    0.90
   9   6   3    6.20    1.30
   9   6   3    5.10    0.80
 -10  -6  -3   20.00    1.30
  10   6   3   18.60    1.40
  10   6   3   19.50    1.90
  -8   7   3   11.10    1.00
   7  -7  -3   26.20    1.20
   7  -7  -3   26.40    1.70
  -7   7   3   27.30    1.60
  -7   7   3   25.00    2.10
   6  -7  -3    0.90    0.40
   6  -7  -3    0.30    0.30
  -6   7   3    0.80    0.50
  -6   7   3    0.80    0.70
   5  -7  -3   72.49    2.00
   5  -7  -3   73.89    2.40
  -5   7   3   67.59    2.90
  -5   7   3   71.49    2.40
   4  -7  -3  123.79    3.10
   4  -7  -3  125.89    2.80
  -4   7   3  122.99    3.80
  -4   7   3  127.59    3.20
   3  -7  -3    9.50    0.60
   3  -7  -3    8.50    0.40
   3  -7  -3    8.60    0.70
  -3   7   3    9.50    1.00
  -3   7   3    9.40    0.80
   2  -7  -3  104.79    2.30
   2  -7  -3  103.59    2.30
   2  -7  -3  100.49    1.80
  -2   7   3  101.29    3.00
  -2   7   3   99.99    2.40
   1  -7  -3    1.70    0.30
   1  -7  -3    1.30    0.20
   1  -7  -3    1.10    0.20
  -1   7   3    0.70    0.50
  -1   7   3    1.20    0.40
   0  -7  -3  184.48    3.00
   0  -7  -3  188.18    3.10
   0  -7  -3  185.58    3.40
   0   7   3  182.08    3.50
   0   7   3  179.58    4.10
  -1  -7  -3  108.19    2.10
  -1  -7  -3  109.29    2.20
   1   7   3  109.79    3.00
   1   7   3  108.39    2.30
  -2  -7  -3    0.60    0.20
  -2  -7  -3    0.40    0.10
   2   7   3    0.50    0.60
   2   7   3    0.50    0.20
  -3  -7  -3   78.49    1.80
  -3  -7  -3   74.89    1.50
  -3  -7  -3   78.39    1.70
   3   7   3   76.89    2.40
  -4  -7  -3   23.70    0.80
  -4  -7  -3   22.90    0.60
  -4  -7  -3   24.40    0.90
   4   7   3   23.20    0.60
   4   7   3   23.40    1.30
  -5  -7  -3   53.39    1.50
  -5  -7  -3   51.89    1.30
   5   7   3   51.99    1.30
   5   7   3   52.59    2.10
  -6  -7  -3   31.20    1.20
  -6  -7  -3   32.10    1.00
   6   7   3   33.10    1.80
   6   7   3   32.60    1.10
  -7  -7  -3   20.60    0.80
  -7  -7  -3   19.70    1.00
   7   7   3   19.60    1.00
   7   7   3   21.40    1.60
  -8  -7  -3   -0.10    0.30
  -8  -7  -3   -0.10    0.20
   8   7   3   -0.60    0.30
   8   7   3    0.20    0.50
  -9  -7  -3    8.30    0.90
   9   7   3    9.80    1.60
 -10  -7  -3    1.90    0.60
  10   7   3    1.30    0.80
   7  -8  -3    3.50    0.60
   7  -8  -3    3.50    0.80
  -7   8   3    4.40    0.80
   6  -8  -3    8.30    1.10
   6  -8  -3    9.70    0.80
  -6   8   3   12.20    1.20
  -6   8   3   10.80    1.70
   5  -8  -3   20.80    1.10
   5  -8  -3   21.00    1.30
  -5   8   3   19.70    1.30
  -5   8   3   20.20    1.70
   4  -8  -3    2.70    0.50
   4  -8  -3    3.00    0.60
  -4   8   3    3.50    0.90
  -4   8   3    2.80    0.60
   3  -8  -3   56.49    1.70
   3  -8  -3   61.29    1.70
  -3   8   3   56.69    2.30
  -3   8   3   60.49    2.00
   2  -8  -3    4.10    0.30
   2  -8  -3    3.40    0.40
   2  -8  -3    5.10    0.40
  -2   8   3    3.90    0.80
  -2   8   3    4.80    0.70
   1  -8  -3   62.49    2.00
   1  -8  -3   66.89    1.40
   1  -8  -3   65.69    1.70
  -1   8   3   67.39    2.30
  -1   8   3   65.99    1.90
   0  -8  -3   10.70    0.50
   0  -8  -3   11.40    0.60
   0   8   3   10.70    0.80
   0   8   3   10.10    1.10
  -1  -8  -3    5.40    0.40
  -1  -8  -3    5.30    0.40
   1   8   3    5.50    0.90
   1   8   3    5.90    0.60
  -2  -8  -3    0.10    0.10
  -2  -8  -3    0.10    0.10
   2   8   3    0.00    0.20
   2   8   3    0.60    0.70
  -3  -8  -3    7.70    0.50
  -3  -8  -3    7.10    0.40
   3   8   3    8.80    1.10
   3   8   3    7.70    0.60
  -4  -8  -3   13.30    0.50
  -4  -8  -3   12.80    0.70
  -4  -8  -3   12.10    0.60
   4   8   3   14.60    1.20
  -5  -8  -3   15.00    0.70
  -5  -8  -3   14.40    0.80
   5   8   3   13.60    1.20
  -6  -8  -3    0.20    0.20
  -6  -8  -3   -0.20    0.30
   6   8   3    0.10    0.50
  -7  -8  -3    1.70    0.30
  -7  -8  -3    2.10    0.50
   7   8   3    1.30    0.70
  -8  -8  -3    2.30    0.40
  -8  -8  -3    1.10    0.50
   8   8   3    2.00    0.80
  -9  -8  -3   18.30    1.20
   9   8   3   17.60    1.80
 -10  -8  -3    0.70    0.50
  10   8   3    0.10    0.90
   7  -9  -3   -0.30    0.30
   6  -9  -3    0.90    0.30
  -6   9   3    1.70    0.60
   5  -9  -3   26.20    1.20
  -5   9   3   27.40    1.60
  -5   9   3   26.70    1.90
   4  -9  -3    0.80    0.30
  -4   9   3    1.90    0.80
  -4   9   3    1.80    0.60
   3  -9  -3   11.60    0.80
  -3   9   3   12.20    1.20
  -3   9   3   11.70    1.00
   2  -9  -3    0.30    0.20
   2  -9  -3    0.00    0.10
  -2   9   3    0.00    0.40
  -2   9   3    0.50    0.40
   1  -9  -3    2.40    0.40
   1  -9  -3    2.40    0.30
  -1   9   3    2.90    0.70
  -1   9   3    2.60    0.60
   0  -9  -3    5.00    0.40
   0  -9  -3    5.10    0.50
   0   9   3    4.80    0.90
   0   9   3    5.20    0.70
  -1  -9  -3    1.90    0.30
  -1  -9  -3    2.60    0.40
   1   9   3    2.90    0.50
   1   9   3    2.80    0.80
  -2  -9  -3   10.80    0.60
  -2  -9  -3   10.00    0.50
   2   9   3   10.80    1.30
   2   9   3   10.60    0.80
  -3  -9  -3   33.70    1.00
  -3  -9  -3   34.10    1.00
   3   9   3   33.80    1.20
   3   9   3   34.50    1.80
  -4  -9  -3   40.80    1.10
  -4  -9  -3   41.10    1.20
   4   9   3   40.80    2.00
   4   9   3   40.60    1.30
  -5  -9  -3    3.20    0.40
  -5  -9  -3    3.80    0.50
   5   9   3    3.60    0.90
  -6  -9  -3   23.90    0.90
  -6  -9  -3   24.90    1.10
   6   9   3   25.80    1.70
  -7  -9  -3   -0.10    0.20
  -7  -9  -3   -0.10    0.30
   7   9   3    0.10    0.50
  -8  -9  -3   44.10    1.40
  -8  -9  -3   45.40    1.70
   8   9   3   47.70    2.60
  -9  -9  -3   24.50    1.30
   9   9   3   24.50    2.10
   6 -10  -3    5.90    0.70
   5 -10  -3    1.30    0.50
  -5  10   3    1.70    0.60
   4 -10  -3    1.70    0.40
  -4  10   3    1.10    0.60
  -4  10   3    2.00    0.60
   3 -10  -3    3.90    0.60
  -3  10   3    3.80    0.70
  -3  10   3    4.40    0.90
   2 -10  -3   -0.10    0.20
   2 -10  -3    0.00    0.10
  -2  10   3   -0.20    0.40
  -2  10   3   -0.10    0.40
   1 -10  -3   48.90    1.50
   1 -10  -3   46.60    1.20
  -1  10   3   48.90    2.10
  -1  10   3   49.30    1.80
   0 -10  -3    0.80    0.30
   0 -10  -3    1.00    0.20
   0  10   3    2.00    0.70
   0  10   3    1.40    0.50
  -1 -10  -3   10.60    0.60
  -1 -10  -3   10.20    0.60
   1  10   3   11.10    1.20
   1  10   3   11.50    0.90
  -2 -10  -3    1.30    0.30
  -2 -10  -3    1.40    0.30
   2  10   3    1.40    0.40
   2  10   3    2.00    0.80
  -3 -10  -3   17.00    0.70
  -3 -10  -3   17.30    0.80
   3  10   3   17.70    1.50
   3  10   3   16.80    1.00
  -4 -10  -3   34.80    1.10
  -4 -10  -3   35.00    1.00
   4  10   3   35.50    1.30
   4  10   3   37.40    2.00
  -5 -10  -3   46.40    1.40
   5  10   3   47.00    1.50
   5  10   3   46.80    2.30
  -6 -10  -3   39.70    1.50
  -6 -10  -3   39.50    1.30
   6  10   3   38.50    2.20
  -7 -10  -3   33.40    1.40
  -7 -10  -3   34.30    1.20
   7  10   3   33.60    2.20
  -8 -10  -3   25.70    1.30
  -8 -10  -3   24.60    1.00
   8  10   3   26.40    2.10
  -9 -10  -3    0.30    0.20
  -9 -10  -3   -0.10    0.40
   9  10   3    0.10    0.80
   5 -11  -3    3.50    0.60
  -5  11   3    4.60    0.90
   4 -11  -3    6.50    0.70
  -4  11   3    9.00    1.20
   3 -11  -3    0.10    0.30
  -3  11   3    0.80    0.50
   2 -11  -3   12.60    0.60
   2 -11  -3   13.80    0.90
  -2  11   3   15.20    1.20
  -2  11   3   15.90    1.30
   1 -11  -3   25.40    0.90
   1 -11  -3   24.30    1.10
  -1  11   3   26.20    1.40
  -1  11   3   25.10    1.50
   0 -11  -3    0.90    0.20
   0 -11  -3    0.10    0.20
   0  11   3    0.60    0.50
   0  11   3    1.30    0.50
  -1 -11  -3   63.59    1.60
  -1 -11  -3   62.89    1.70
   1  11   3   57.69    1.90
   1  11   3   60.89    2.40
  -2 -11  -3    7.40    0.60
  -2 -11  -3    7.20    0.50
   2  11   3    7.20    0.80
   2  11   3    7.60    1.20
  -3 -11  -3   33.00    1.10
  -3 -11  -3   30.90    1.10
   3  11   3   30.80    1.40
   3  11   3   31.60    1.90
  -4 -11  -3    5.70    0.50
  -4 -11  -3    6.00    0.50
   4  11   3    4.90    1.20
   4  11   3    5.80    0.70
  -5 -11  -3   17.70    0.80
   5  11   3   17.10    1.00
   5  11   3   14.10    1.60
  -6 -11  -3   15.00    0.80
   6  11   3   15.60    1.70
   6  11   3   16.40    1.00
  -7 -11  -3    7.20    0.60
  -7 -11  -3    6.80    0.80
   7  11   3    6.90    1.40
  -8 -11  -3   13.50    1.10
  -8 -11  -3   14.90    0.80
   8  11   3   14.70    1.80
  -9 -11  -3   15.40    0.80
  -5  12   3    1.80    0.50
  -4  12   3    2.00    0.60
   3 -12  -3    0.20    0.30
  -3  12   3    1.30    0.60
   2 -12  -3   13.50    0.90
  -2  12   3   14.50    1.20
   1 -12  -3   -0.20    0.10
   1 -12  -3    0.00    0.20
  -1  12   3   -0.10    0.50
   0 -12  -3    4.20    0.50
   0 -12  -3    3.90    0.40
   0  12   3    5.20    0.80
   0  12   3    5.20    0.90
  -1 -12  -3    0.20    0.20
  -1 -12  -3    0.00    0.20
   1  12   3    0.90    0.60
   1  12   3    0.40    0.50
  -2 -12  -3    0.20    0.20
  -2 -12  -3    0.30    0.20
   2  12   3    0.00    0.70
   2  12   3    0.10    0.40
  -3 -12  -3    8.20    0.60
  -3 -12  -3    9.60    0.60
   3  12   3    9.70    1.40
   3  12   3    8.50    0.90
  -4 -12  -3    5.70    0.50
   4  12   3    6.90    0.90
   4  12   3    4.70    1.20
  -5 -12  -3   22.50    1.00
   5  12   3   20.00    2.00
   5  12   3   23.20    1.30
  -6 -12  -3    4.60    0.60
   6  12   3    5.90    0.80
   6  12   3    4.90    1.40
  -7 -12  -3    0.00    0.20
   7  12   3    1.10    0.40
   7  12   3   -1.80    0.90
  -8 -12  -3    4.60    0.60
   8  12   3    1.90    1.20
   3 -13  -3    0.20    0.30
  -3  13   3    2.00    0.60
   2 -13  -3    3.50    0.60
  -2  13   3    3.70    0.80
   1 -13  -3    4.20    0.50
   1 -13  -3    5.00    0.60
  -1  13   3    4.70    0.90
   0 -13  -3    1.80    0.40
   0 -13  -3    1.70    0.40
   0  13   3    2.50    0.70
  -1 -13  -3    0.50    0.30
  -1 -13  -3    0.00    0.20
   1  13   3    0.30    0.50
  -2 -13  -3    2.80    0.50
  -2 -13  -3    2.40    0.40
   2  13   3    4.00    1.00
   2  13   3    2.00    0.60
  -3 -13  -3    0.10    0.20
  -3 -13  -3    0.10    0.20
   3  13   3   -0.20    0.80
   3  13   3   -0.20    0.50
  -4 -13  -3    5.80    0.60
   4  13   3    5.20    0.90
   4  13   3    4.20    1.20
  -5 -13  -3   -0.10    0.20
   5  13   3   -2.00    0.90
   5  13   3    0.50    0.50
  -6 -13  -3   14.20    0.80
   6  13   3   11.30    1.80
   6  13   3   13.10    1.10
  -7 -13  -3    0.40    0.30
   7  13   3    0.90    0.40
   2 -14  -3    0.00    0.30
  -2  14   3    0.90    0.60
   1 -14  -3    1.30    0.40
   1 -14  -3    0.40    0.30
  -1  14   3    2.10    0.70
   0 -14  -3    2.20    0.50
   0 -14  -3    2.10    0.40
   0  14   3    3.60    0.80
  -1 -14  -3    0.60    0.30
  -1 -14  -3   -0.10    0.20
   1  14   3    0.60    0.60
  -2 -14  -3    0.20    0.20
  -2 -14  -3    0.10    0.20
   2  14   3    0.30    0.60
  -3 -14  -3    3.50    0.50
  -3 -14  -3    3.20    0.50
   3  14   3    2.20    0.70
  -4 -14  -3    0.30    0.20
   4  14   3   -0.50    0.50
  -5 -14  -3    1.00    0.30
   5  14   3   -1.20    1.60
   5  14   3    0.60    0.60
  -6 -14  -3    0.20    0.30
   6  14   3   -0.60    0.70
   0 -15  -3   -0.10    0.20
   0 -15  -3   -0.10    0.20
   0  15   3    0.60    0.60
  -1 -15  -3    0.40    0.30
  -1 -15  -3    0.70    0.30
   1  15   3    0.10    0.60
  -2 -15  -3    6.20    0.70
  -2 -15  -3    6.40    0.70
   2  15   3    6.60    1.00
  -3 -15  -3    0.90    0.30
   3  15   3    0.80    0.70
  -4 -15  -3   24.40    1.20
   4  15   3   22.40    2.10
  -2 -16  -3    3.10    0.80
   1  15  -4    0.10    0.90
   4  14  -4   -1.30    0.50
  -4 -14   4   -0.20    0.20
   3  14  -4   11.50    1.20
  -3 -14   4   12.00    0.90
   2  14  -4    1.50    0.70
   2  14  -4    0.90    0.40
  -2 -14   4    1.30    0.40
   1  14  -4    3.50    0.80
   1  14  -4    2.90    0.50
  -1 -14   4    3.00    0.50
   0  14  -4    0.30    0.60
   0  14  -4    0.40    0.30
   0 -14   4    0.70    0.30
  -1  14  -4    1.30    0.40
  -1  14  -4    1.20    0.70
   1 -14   4    0.60    0.30
  -2  14  -4    0.90    0.40
  -2  14  -4    1.90    0.70
   2 -14   4    0.90    0.40
  -3  14  -4   10.00    0.80
   5  13  -4    4.70    0.90
  -5 -13   4    6.60    0.70
   4  13  -4   24.30    1.50
  -4 -13   4   24.20    1.10
  -4 -13   4   24.20    1.10
   3  13  -4    9.90    1.10
  -3 -13   4    9.80    0.80
  -3 -13   4    8.20    0.70
   2  13  -4   23.90    1.40
  -2 -13   4   25.80    1.20
  -2 -13   4   24.10    1.10
   1  13  -4    7.80    1.00
   1  13  -4    8.90    0.70
  -1 -13   4    8.90    0.70
   0  13  -4    7.10    1.00
   0  13  -4    6.10    0.70
   0 -13   4    6.60    0.70
  -1  13  -4    0.60    0.60
  -1  13  -4    0.20    0.30
   1 -13   4    0.00    0.20
  -2  13  -4    6.80    0.70
  -2  13  -4    8.20    1.10
   2 -13   4    6.80    0.80
  -3  13  -4    2.20    0.50
  -3  13  -4    3.80    0.80
   3 -13   4    2.50    0.50
  -4  13  -4    1.90    0.70
   6  12  -4    5.30    0.80
  -6 -12   4    4.70    0.60
   5  12  -4    1.60    0.60
  -5 -12   4    1.10    0.30
   4  12  -4   -0.30    0.50
  -4 -12   4    0.50    0.30
  -4 -12   4    0.50    0.30
   3  12  -4   -0.20    0.50
  -3 -12   4   -0.10    0.20
  -3 -12   4    0.10    0.20
   2  12  -4    2.30    0.60
  -2 -12   4    2.40    0.40
  -2 -12   4    1.40    0.40
   1  12  -4   23.20    1.30
  -1 -12   4   24.60    1.10
   0  12  -4    1.60    0.60
   0  12  -4    1.70    0.40
   0 -12   4    1.40    0.40
  -1  12  -4    0.10    0.50
  -1  12  -4    0.50    0.30
   1 -12   4   -0.10    0.20
  -2  12  -4    7.70    0.60
  -2  12  -4    7.30    1.00
   2 -12   4    6.70    0.70
  -3  12  -4   15.40    1.30
  -3  12  -4   14.30    0.80
   3 -12   4   13.70    0.90
  -4  12  -4    4.30    0.50
  -4  12  -4    5.20    1.00
   4 -12   4    5.60    0.70
   5 -12   4    6.00    0.70
   7  11  -4    1.50    0.50
   6  11  -4    6.60    0.80
  -6 -11   4    4.20    0.50
   5  11  -4   -0.10    0.40
  -5 -11   4    0.30    0.30
  -5 -11   4    0.00    0.20
   4  11  -4   -0.30    0.40
  -4 -11   4    0.10    0.20
  -4 -11   4    0.10    0.20
   3  11  -4   22.50    1.20
  -3 -11   4   22.60    1.00
  -3 -11   4   23.20    1.00
   2  11  -4    7.10    0.90
  -2 -11   4    6.90    0.60
  -2 -11   4    7.70    0.60
   1  11  -4    0.10    0.40
  -1 -11   4    0.50    0.20
  -1 -11   4   -0.10    0.20
   0  11  -4   29.90    1.10
   0  11  -4   29.80    1.40
   0 -11   4   31.40    1.20
  -1  11  -4   17.70    0.90
  -1  11  -4   17.40    1.20
   1 -11   4   18.20    0.90
  -2  11  -4   33.30    1.20
  -2  11  -4   34.00    1.60
   2 -11   4   35.10    1.30
  -3  11  -4    0.30    0.50
  -3  11  -4    0.50    0.30
   3 -11   4    0.10    0.20
  -4  11  -4   12.50    0.70
  -4  11  -4   14.00    1.30
   4 -11   4   12.00    0.80
  -5  11  -4    6.30    1.10
   5 -11   4    5.10    0.60
  -6  11  -4   36.50    2.10
   6 -11   4   33.50    1.40
   7 -11   4    7.80    1.00
   7  10  -4   14.20    0.90
   6  10  -4    5.20    0.70
  -6 -10   4    4.00    0.50
   5  10  -4   54.99    1.80
  -5 -10   4   54.59    1.60
  -5 -10   4   54.39    1.60
   4  10  -4    2.60    0.50
  -4 -10   4    2.50    0.40
  -4 -10   4    2.80    0.40
   3  10  -4   32.70    1.40
  -3 -10   4   33.30    1.20
  -3 -10   4   34.20    1.20
   2  10  -4    0.50    0.40
  -2 -10   4    0.70    0.20
  -2 -10   4    0.80    0.30
   1  10  -4    3.00    0.60
  -1 -10   4    3.30    0.40
  -1 -10   4    3.00    0.40
   0  10  -4    0.70    0.50
   0  10  -4    0.20    0.20
   0 -10   4    0.10    0.20
  -1  10  -4   12.60    1.00
  -1  10  -4   11.40    0.70
   1 -10   4   11.60    0.70
  -2  10  -4    2.30    0.40
  -2  10  -4    3.50    0.70
   2 -10   4    3.60    0.50
  -3  10  -4    0.40    0.50
  -3  10  -4    0.30    0.20
   3 -10   4    0.20    0.20
   3 -10   4    0.90    0.50
  -4  10  -4    8.50    1.10
  -4  10  -4    7.30    0.60
   4 -10   4    8.90    0.70
   4 -10   4    6.20    0.70
  -5  10  -4    0.50    0.50
   5 -10   4    0.20    0.30
   5 -10   4   -0.30    0.40
  -6  10  -4    5.80    1.00
   6 -10   4    3.90    0.60
  -7  10  -4   29.40    1.90
   7 -10   4   24.70    1.20
   8   9  -4    1.90    0.80
   7   9  -4    1.70    0.80
  -7  -9   4    0.90    0.40
   6   9  -4    4.70    1.00
  -6  -9   4    2.80    0.40
   5   9  -4   18.80    0.90
   5   9  -4   17.60    1.40
   5   9  -4   17.30    1.30
  -5  -9   4   18.30    0.80
  -5  -9   4   17.00    0.80
   4   9  -4    3.20    0.50
   4   9  -4    2.60    0.70
  -4  -9   4    3.60    0.40
  -4  -9   4    3.80    0.60
  -4  -9   4    3.20    0.40
   3   9  -4   36.20    1.30
  -3  -9   4   37.30    1.20
  -3  -9   4   36.40    1.20
  -3  -9   4   36.30    1.20
   2   9  -4    6.90    0.70
  -2  -9   4    6.70    0.50
  -2  -9   4    7.50    0.50
  -2  -9   4    7.50    0.50
   1   9  -4   48.70    1.60
  -1  -9   4   48.80    1.30
  -1  -9   4   48.10    1.40
  -1  -9   4   48.10    1.40
   0   9  -4   75.89    2.10
   0   9  -4   76.69    1.80
   0  -9   4   74.19    1.70
   0  -9   4   75.59    1.90
  -1   9  -4  112.69    2.40
  -1   9  -4  116.99    2.80
   1  -9   4  120.19    2.50
   1  -9   4  112.99    2.30
  -2   9  -4   93.99    2.10
  -2   9  -4   92.59    2.50
   2  -9   4   99.59    2.30
   2  -9   4   98.09    2.10
  -3   9  -4  122.69    2.50
  -3   9  -4  121.09    3.10
   3  -9   4  127.89    2.70
   3  -9   4  121.09    2.60
  -4   9  -4    8.80    1.10
  -4   9  -4    6.90    0.50
   4  -9   4    7.00    0.60
   4  -9   4    7.60    0.60
  -5   9  -4   78.09    1.90
  -5   9  -4   79.69    2.80
   5  -9   4   80.69    2.20
   5  -9   4   79.09    2.10
  -6   9  -4    2.60    0.70
   6  -9   4    1.80    0.40
   6  -9   4    1.70    0.50
  -7   9  -4    0.60    0.50
   7  -9   4   -0.20    0.20
   7  -9   4   -1.00    0.40
   8   8  -4   27.50    2.20
   8   8  -4   22.80    1.90
   7   8  -4    0.70    0.50
   7   8  -4    1.70    0.70
  -7  -8   4    0.10    0.40
   6   8  -4    7.40    0.90
   6   8  -4    7.90    1.30
   6   8  -4    5.70    0.90
  -6  -8   4    7.50    0.50
  -6  -8   4    6.50    0.70
   5   8  -4   30.70    1.60
   5   8  -4   30.90    1.90
  -5  -8   4   29.90    1.10
  -5  -8   4   29.90    1.00
   4   8  -4   46.90    2.10
   4   8  -4   43.50    1.30
  -4  -8   4   42.70    1.30
  -4  -8   4   45.40    1.50
  -4  -8   4   42.10    1.20
   3   8  -4   52.89    1.50
   3   8  -4   54.99    2.00
  -3  -8   4   54.79    1.40
  -3  -8   4   54.49    1.50
  -3  -8   4   54.79    1.50
   2   8  -4  201.48    4.10
   2   8  -4  200.98    3.80
  -2  -8   4  195.68    3.60
  -2  -8   4  192.88    3.60
  -2  -8   4  196.98    3.60
   1   8  -4    0.30    0.30
  -1  -8   4    0.20    0.20
  -1  -8   4    0.60    0.20
  -1  -8   4    0.30    0.20
   0   8  -4   48.60    1.50
   0   8  -4   47.60    1.30
   0  -8   4   47.30    1.30
   0  -8   4   43.50    1.20
  -1   8  -4   61.59    1.80
  -1   8  -4   63.39    1.50
   1  -8   4   61.79    1.60
   1  -8   4   65.49    1.50
  -2   8  -4   12.10    0.60
  -2   8  -4   13.00    0.90
   2  -8   4   12.30    0.70
   2  -8   4   13.30    0.70
  -3   8  -4    0.30    0.20
  -3   8  -4   -0.20    0.40
   3  -8   4    0.60    0.20
   3  -8   4    0.20    0.30
  -4   8  -4   43.30    1.20
  -4   8  -4   43.80    1.80
   4  -8   4   42.30    1.40
   4  -8   4   42.80    1.30
  -5   8  -4   23.00    1.40
  -5   8  -4   21.30    0.80
   5  -8   4   21.20    0.90
   5  -8   4   20.90    1.10
  -6   8  -4    3.90    0.80
   6  -8   4    2.50    0.60
   6  -8   4    3.00    0.40
  -7   8  -4   11.50    1.20
   7  -8   4    9.70    1.00
   7  -8   4   10.30    0.70
  -8   8  -4    0.90    0.60
   8  -8   4   -0.80    0.50
   9   7  -4    0.50    0.60
   8   7  -4   27.90    1.90
  -8  -7   4   28.30    2.00
  -8  -7   4   31.60    2.20
   7   7  -4    0.90    0.50
  -7  -7   4    0.80    0.40
  -7  -7   4    1.20    0.70
   6   7  -4   14.10    0.80
   6   7  -4   13.10    1.10
  -6  -7   4   14.60    1.30
  -6  -7   4   13.30    0.80
  -5  -7   4    1.00    0.20
  -5  -7   4    0.40    0.40
  -5  -7   4    0.70    0.30
  -5  -7   4    0.70    0.30
  -4  -7   4    6.10    0.50
  -4  -7   4    5.60    0.70
  -4  -7   4    5.70    0.50
  -4  -7   4    6.40    0.40
  -4  -7   4    5.70    0.60
   3   7  -4  126.49    2.50
  -3  -7   4  126.09    2.50
  -3  -7   4  125.69    2.70
  -3  -7   4  124.79    2.50
   2   7  -4    0.30    0.30
   2   7  -4    0.30    0.30
  -2  -7   4    0.50    0.20
  -2  -7   4    0.10    0.20
  -2  -7   4    0.10    0.10
   1   7  -4  404.86    6.60
   1   7  -4  402.16    6.60
  -1  -7   4  399.46    6.40
  -1  -7   4  392.16    6.50
  -1  -7   4  391.36    6.50
   0   7  -4  122.39    2.60
   0   7  -4  119.89    2.40
   0  -7   4  121.59    2.40
   0  -7   4  122.99    2.50
  -1   7  -4   45.80    1.40
  -1   7  -4   43.90    1.20
   1  -7   4   45.40    1.20
   1  -7   4   46.30    1.20
  -2   7  -4  161.98    3.00
  -2   7  -4  157.88    3.30
   2  -7   4  163.08    3.10
   2  -7   4  162.78    3.00
  -3   7  -4    5.80    0.40
  -3   7  -4    7.70    0.80
   3  -7   4    5.70    0.50
   3  -7   4    6.70    0.50
  -4   7  -4    0.00    0.30
  -4   7  -4    0.00    0.20
   4  -7   4    0.10    0.20
   4  -7   4   -0.50    0.30
  -5   7  -4    8.10    1.00
  -5   7  -4    7.00    0.50
   5  -7   4    8.00    0.50
   5  -7   4    6.70    0.70
  -6   7  -4    0.30    0.40
   6  -7   4   -0.20    0.20
   6  -7   4   -0.50    0.30
  -7   7  -4    1.90    0.60
   7  -7   4    1.10    0.30
   7  -7   4    0.80    0.50
  -8   7  -4    1.60    0.60
   8  -7   4    0.70    0.60
   9  -7   4   -1.30    0.50
   9   6  -4    0.40    0.60
  -9  -6   4    1.90    1.00
   8   6  -4    7.20    1.20
  -8  -6   4    5.70    0.70
  -8  -6   4    5.60    1.20
   7   6  -4    1.50    0.50
  -7  -6   4    0.30    0.60
  -7  -6   4    0.60    0.40
   6   6  -4   19.60    1.40
   6   6  -4   22.30    1.00
  -6  -6   4   21.00    1.60
  -6  -6   4   21.10    1.00
   5   6  -4   40.50    1.30
  -5  -6   4   39.20    1.10
  -5  -6   4   39.70    1.50
  -5  -6   4   39.60    1.20
  -5  -6   4   40.80    1.90
  -4  -6   4   31.40    0.90
  -4  -6   4   31.70    1.20
  -4  -6   4   33.80    1.00
  -4  -6   4   33.10    1.00
  -4  -6   4   32.70    1.60
  -3  -6   4   48.90    1.40
  -3  -6   4   48.50    1.30
  -3  -6   4   48.50    1.70
  -3  -6   4   49.50    1.20
   2   6  -4  101.39    2.00
  -2  -6   4   96.39    2.10
  -2  -6   4  100.09    2.00
  -2  -6   4  100.79    2.00
  -2  -6   4   97.09    2.30
   1   6  -4   18.30    0.80
   1   6  -4   18.20    0.80
  -1  -6   4   15.60    0.70
  -1  -6   4   18.60    0.70
  -1  -6   4   18.40    0.70
   0   6  -4  196.78    3.40
   0   6  -4  202.88    3.60
   0  -6   4  197.28    3.50
   0  -6   4  196.28    3.50
  -1   6  -4   29.10    1.00
  -1   6  -4   28.40    0.80
   1  -6   4   28.10    0.90
   1  -6   4   29.20    0.90
  -2   6  -4   14.10    0.60
  -2   6  -4   13.90    0.80
   2  -6   4   13.90    0.60
   2  -6   4   14.90    0.60
  -3   6  -4    2.70    0.50
  -3   6  -4    2.60    0.30
   3  -6   4    2.60    0.40
   3  -6   4    2.50    0.30
  -4   6  -4    1.80    0.30
  -4   6  -4    2.20    0.50
   4  -6   4    2.20    0.40
   4  -6   4    2.30    0.30
  -5   6  -4   14.80    0.60
  -5   6  -4   15.40    1.10
   5  -6   4   14.20    0.90
   5  -6   4   13.70    0.70
  -6   6  -4    6.60    0.50
  -6   6  -4    7.00    1.00
   6  -6   4    6.60    0.50
   6  -6   4    6.30    0.80
  -7   6  -4   -0.10    0.40
   7  -6   4   -0.60    0.30
   7  -6   4    0.20    0.20
  -8   6  -4    4.10    0.90
   8  -6   4    2.00    0.70
  -9   6  -4    1.80    0.70
   9  -6   4   -0.40    0.60
   9   5  -4   -0.30    0.50
  -9  -5   4    0.80    0.60
   8   5  -4    2.40    0.80
  -8  -5   4    4.10    0.60
  -8  -5   4    3.90    1.10
   7   5  -4   18.60    1.40
  -7  -5   4   20.20    1.00
  -7  -5   4   22.60    1.70
   6   5  -4    0.00    0.30
   6   5  -4   -0.10    0.20
  -6  -5   4   -0.10    0.20
  -6  -5   4    0.00    0.40
   5   5  -4    3.20    0.40
  -5  -5   4    2.70    0.70
  -5  -5   4    3.20    0.40
  -5  -5   4    3.00    0.50
  -4  -5   4   45.50    1.50
  -4  -5   4   46.80    1.90
  -4  -5   4   46.50    1.10
  -4  -5   4   48.30    1.30
  -3  -5   4   73.69    1.60
  -3  -5   4   72.89    1.60
  -3  -5   4   71.99    1.50
  -3  -5   4   71.69    1.80
  -3  -5   4   73.29    2.20
   2   5  -4    0.60    0.20
  -2  -5   4    0.20    0.10
  -2  -5   4    0.00    0.20
  -2  -5   4    0.40    0.10
  -2  -5   4    0.30    0.20
   1   5  -4    1.30    0.30
   1   5  -4    1.20    0.20
  -1  -5   4    1.00    0.20
  -1  -5   4    1.30    0.30
  -1  -5   4    1.20    0.20
   0   5  -4    1.10    0.20
   0   5  -4    1.10    0.30
   0  -5   4    0.80    0.20
   0  -5   4    1.00    0.20
  -1   5  -4    1.10    0.30
  -1   5  -4    0.90    0.20
   1  -5   4    0.90    0.20
   1  -5   4    1.20    0.30
  -2   5  -4   81.09    1.60
  -2   5  -4   79.39    1.90
   2  -5   4   76.09    1.70
   2  -5   4   82.59    1.70
  -3   5  -4   17.40    0.60
  -3   5  -4   17.00    0.90
   3  -5   4   18.00    0.80
   3  -5   4   17.30    0.70
  -4   5  -4   33.90    1.40
  -4   5  -4   35.50    1.00
   4  -5   4   34.10    1.00
   4  -5   4   35.70    1.20
  -5   5  -4   58.59    1.70
  -5   5  -4   62.89    1.40
  -5   5  -4   63.49    2.00
   5  -5   4   63.39    1.50
   5  -5   4   63.29    1.90
  -6   5  -4    8.70    0.90
  -6   5  -4    9.90    0.50
  -6   5  -4    9.50    0.90
   6  -5   4   10.10    0.90
   6  -5   4    9.80    0.50
  -7   5  -4   34.60    1.70
   7  -5   4   30.60    1.00
   7  -5   4   34.40    1.60
  -8   5  -4   23.60    1.50
   8  -5   4   22.80    1.40
  -9   5  -4   14.50    1.30
   9  -5   4   14.60    1.40
   9   4  -4   -0.40    0.40
  -9  -4   4    0.90    0.80
   8   4  -4    1.10    0.60
  -8  -4   4    1.00    0.40
  -8  -4   4    3.20    1.00
   7   4  -4   37.90    2.00
  -7  -4   4   37.10    1.30
  -7  -4   4   37.40    2.20
   6   4  -4    6.30    0.50
   6   4  -4    6.10    1.00
  -6  -4   4    5.20    1.00
  -6  -4   4    4.50    0.50
   5   4  -4   25.00    1.00
   5   4  -4   25.10    0.70
  -5  -4   4   26.70    1.60
  -5  -4   4   25.80    0.90
   4   4  -4    1.70    0.20
   4   4  -4    1.40    0.30
  -4  -4   4    1.70    0.40
  -4  -4   4    1.50    0.50
  -4  -4   4    1.60    0.30
   3   4  -4   32.10    0.80
  -3  -4   4   33.60    0.90
  -3  -4   4   31.70    1.10
  -3  -4   4   31.20    1.40
  -3  -4   4   31.70    0.90
   2   4  -4  103.69    1.90
  -2  -4   4  101.19    2.50
  -2  -4   4  103.19    2.00
  -2  -4   4   96.59    2.10
  -2  -4   4  100.99    1.90
   1   4  -4   52.89    1.10
   1   4  -4   53.89    1.10
  -1  -4   4   49.99    1.40
  -1  -4   4   51.09    1.20
  -1  -4   4   50.69    1.30
   0   4  -4  145.09    2.50
   0   4  -4  146.09    2.50
   0  -4   4  143.89    2.60
   0  -4   4  139.99    2.50
   0  -4   4  140.29    2.50
  -1   4  -4  533.85    8.20
  -1   4  -4  533.75    8.10
   1  -4   4  520.25    8.20
   1  -4   4  532.55    8.10
  -2   4  -4  111.99    2.00
  -2   4  -4  110.49    2.30
   2  -4   4  111.89    2.20
   2  -4   4  109.49    2.10
  -3   4  -4  228.38    4.20
  -3   4  -4  225.18    3.70
   3  -4   4  214.78    3.90
   3  -4   4  220.78    3.70
   3  -4   4  230.18    3.80
  -4   4  -4   33.00    0.90
  -4   4  -4   33.00    1.30
   4  -4   4   32.60    1.10
   4  -4   4   32.50    1.10
   4  -4   4   33.80    0.90
  -5   4  -4    1.10    0.20
  -5   4  -4    1.20    0.40
  -5   4  -4    0.90    0.40
   5  -4   4    1.10    0.20
   5  -4   4    0.90    0.40
  -6   4  -4    0.20    0.40
  -6   4  -4    0.20    0.10
  -6   4  -4    0.00    0.30
   6  -4   4    0.50    0.40
   6  -4   4    0.40    0.20
  -7   4  -4    1.10    0.50
  -7   4  -4    2.20    0.60
   7  -4   4    1.70    0.50
   7  -4   4    1.00    0.20
  -8   4  -4    3.60    0.80
   8  -4   4    3.60    0.70
  -9   4  -4    0.40    0.50
   9  -4   4   -0.20    0.50
 -10   4  -4    0.50    0.40
  10  -4   4   -0.50    0.60
   9   3  -4   -0.10    0.50
  -9  -3   4    0.90    0.70
   8   3  -4    8.60    1.20
  -8  -3   4    8.90    1.50
  -8  -3   4    9.50    0.80
   7   3  -4    2.60    0.70
   7   3  -4    2.50    0.60
  -7  -3   4    3.30    0.90
  -7  -3   4    3.10    0.50
   6   3  -4    2.00    0.30
   6   3  -4    1.30    0.50
  -6  -3   4    1.70    0.70
  -6  -3   4    1.20    0.40
   5   3  -4  185.38    3.40
   5   3  -4  181.28    4.40
   5   3  -4  176.78    3.10
  -5  -3   4  176.88    3.40
  -5  -3   4  182.98    4.70
   4   3  -4    1.90    0.20
   4   3  -4    2.20    0.30
  -4  -3   4    2.40    0.30
  -4  -3   4    2.50    0.40
  -4  -3   4    2.10    0.60
   3   3  -4  162.68    3.00
   3   3  -4  160.28    2.70
  -3  -3   4  163.58    3.20
  -3  -3   4  160.38    2.80
  -3  -3   4  161.98    3.70
   2   3  -4   77.19    1.50
  -2  -3   4   75.69    1.70
  -2  -3   4   77.19    1.40
  -2  -3   4   77.89    1.60
  -2  -3   4   78.19    2.10
   1   3  -4    6.50    0.30
   1   3  -4    6.60    0.30
  -1  -3   4    6.20    0.30
  -1  -3   4    5.80    0.40
  -1  -3   4    6.60    0.50
   0   3  -4   23.10    0.60
   0   3  -4   24.70    0.60
   0  -3   4   23.10    0.70
   0  -3   4   23.50    0.70
   0  -3   4   22.30    0.70
  -1   3  -4   28.50    0.80
  -1   3  -4   28.20    0.70
   1  -3   4   28.80    0.80
   1  -3   4   29.10    0.70
  -2   3  -4  482.05    7.60
  -2   3  -4  483.85    7.40
   2  -3   4  488.55    7.40
   2  -3   4  485.45    7.50
  -3   3  -4  190.68    3.20
  -3   3  -4  192.88    3.60
   3  -3   4  191.58    3.40
   3  -3   4  186.88    3.30
   3  -3   4  189.58    3.20
  -4   3  -4  335.27    5.90
  -4   3  -4  332.87    5.30
   4  -3   4  338.27    5.30
   4  -3   4  333.57    5.90
   4  -3   4  327.37    5.70
  -5   3  -4   14.60    0.60
  -5   3  -4   13.80    0.90
   5  -3   4   14.60    0.50
   5  -3   4   13.60    0.80
  -6   3  -4   38.30    1.60
  -6   3  -4   38.90    1.60
  -6   3  -4   37.60    1.00
   6  -3   4   38.50    1.00
   6  -3   4   38.60    1.50
  -7   3  -4    0.30    0.50
  -7   3  -4    0.30    0.40
   7  -3   4    1.20    0.50
  -8   3  -4   36.50    1.70
   8  -3   4   33.20    1.70
  -9   3  -4   24.30    1.50
   9  -3   4   22.10    1.50
   9  -3   4   22.40    1.80
 -10   3  -4    1.70    0.50
  10  -3   4   -0.60    0.50
   9   2  -4    3.80    1.00
  -9  -2   4    2.90    1.00
   8   2  -4   34.40    2.00
  -8  -2   4   33.30    1.40
  -8  -2   4   31.00    2.20
   7   2  -4    6.00    0.50
   7   2  -4    7.60    1.10
  -7  -2   4    8.00    1.40
  -7  -2   4    5.50    0.60
   6   2  -4  140.19    2.90
   6   2  -4  138.79    3.90
  -6  -2   4  139.69    3.00
  -6  -2   4  140.09    4.30
   5   2  -4   65.19    1.70
  -5  -2   4   65.19    2.50
  -5  -2   4   63.49    1.60
   4   2  -4    0.30    0.20
   4   2  -4    0.40    0.10
  -4  -2   4    0.70    0.30
  -4  -2   4    0.70    0.40
  -4  -2   4    0.40    0.20
   3   2  -4  280.47    4.30
   3   2  -4  280.87    4.70
  -3  -2   4  281.97    4.90
  -3  -2   4  274.07    4.50
  -3  -2   4  274.37    5.60
   2   2  -4   43.00    1.10
   2   2  -4   41.10    0.90
  -2  -2   4   41.40    0.90
  -2  -2   4   42.00    1.20
  -2  -2   4   42.10    1.50
   1   2  -4 1161.18   17.60
  -1  -2   4 1208.18   17.70
  -1  -2   4 1196.48   17.50
  -1  -2   4 1177.28   19.50
   0   2  -4  317.27    4.70
   0   2  -4  308.37    4.80
   0  -2   4  309.07    4.90
   0  -2   4  312.47    5.00
   0  -2   4  307.57    5.10
  -1   2  -4   35.10    0.80
  -1   2  -4   35.40    0.80
   1  -2   4   34.50    0.80
   1  -2   4   36.30    0.90
   1  -2   4   34.90    0.80
  -2   2  -4  303.47    4.80
  -2   2  -4  304.87    5.00
   2  -2   4  300.77    4.80
   2  -2   4  310.07    4.90
   2  -2   4  304.77    4.70
  -3   2  -4   28.60    1.00
  -3   2  -4   28.20    0.70
   3  -2   4   28.40    0.90
   3  -2   4   28.10    0.70
   3  -2   4   28.50    0.90
  -4   2  -4    2.20    0.20
  -4   2  -4    2.60    0.40
   4  -2   4    2.30    0.40
   4  -2   4    2.70    0.40
   4  -2   4    1.90    0.20
  -5   2  -4  119.49    2.20
  -5   2  -4  114.89    2.70
   5  -2   4  117.79    3.00
   5  -2   4  118.69    2.10
   5  -2   4  117.39    2.70
  -6   2  -4    8.70    0.40
  -6   2  -4    8.10    0.70
   6  -2   4    8.60    0.40
   6  -2   4    9.70    0.80
  -7   2  -4   67.09    2.20
  -7   2  -4   70.19    1.60
   7  -2   4   70.49    2.20
  -8   2  -4   22.50    1.40
   8  -2   4   20.20    1.50
   8  -2   4   20.50    1.30
  -9   2  -4    0.10    0.40
   9  -2   4    0.30    0.40
   9  -2   4    0.00    0.50
 -10   2  -4    5.10    0.90
  10  -2   4    5.30    1.10
  10  -2   4    4.10    0.90
   9   1  -4   -0.10    0.50
  -9  -1   4    1.20    0.70
   8   1  -4    1.30    0.50
  -8  -1   4    2.20    0.50
  -8  -1   4    1.80    0.90
   7   1  -4   36.50    2.00
   7   1  -4   39.40    1.30
  -7  -1   4   37.10    1.40
  -7  -1   4   37.30    2.30
   6   1  -4   62.59    2.40
   6   1  -4   63.59    1.70
  -6  -1   4   59.49    2.70
  -6  -1   4   62.89    1.80
   5   1  -4    7.60    0.80
   5   1  -4    6.30    0.50
  -5  -1   4    6.50    1.00
  -5  -1   4    7.00    0.50
   4   1  -4   38.20    1.10
   4   1  -4   37.70    0.70
  -4  -1   4   39.20    1.80
  -4  -1   4   37.30    1.10
  -4  -1   4   37.30    1.30
   3   1  -4   61.49    1.10
   3   1  -4   62.19    1.50
  -3  -1   4   58.39    1.30
  -3  -1   4   58.69    2.10
  -3  -1   4   60.99    1.60
   2   1  -4   38.10    0.80
   2   1  -4   38.10    1.00
  -2  -1   4   38.60    1.10
  -2  -1   4   36.50    0.80
  -2  -1   4   37.40    1.40
   1   1  -4   90.49    1.60
   1   1  -4   89.39    1.80
  -1  -1   4   92.09    1.80
  -1  -1   4   91.69    2.20
   0   1  -4   98.19    1.70
   0  -1   4   96.19    2.00
   0  -1   4   99.89    1.80
   0  -1   4   98.09    1.90
  -1   1  -4   40.10    0.80
  -1   1  -4   39.80    0.90
   1  -1   4   41.00    1.10
   1  -1   4   39.40    0.90
   1  -1   4   41.20    0.90
  -2   1  -4    0.30    0.10
  -2   1  -4    0.20    0.10
   2  -1   4    0.10    0.20
   2  -1   4    0.40    0.20
   2  -1   4    0.10    0.10
  -3   1  -4   84.29    1.60
  -3   1  -4   82.69    1.80
   3  -1   4   86.49    1.80
   3  -1   4   84.69    1.50
   3  -1   4   85.29    1.90
  -4   1  -4  116.39    2.10
  -4   1  -4  114.89    2.50
   4  -1   4  117.39    2.70
   4  -1   4  117.39    1.90
   4  -1   4  114.49    2.40
  -5   1  -4   39.70    1.00
  -5   1  -4   41.00    1.40
   5  -1   4   39.50    1.60
   5  -1   4   39.50    0.80
   5  -1   4   39.40    1.40
  -6   1  -4    9.10    0.40
  -6   1  -4    8.80    0.70
   6  -1   4    8.40    0.80
   6  -1   4    8.30    0.30
   6  -1   4    8.70    0.70
  -7   1  -4   21.20    1.20
  -7   1  -4   18.40    0.60
   7  -1   4   18.80    1.10
   7  -1   4   18.80    1.40
  -8   1  -4    5.30    0.80
   8  -1   4    5.40    0.80
   8  -1   4    4.60    1.00
  -9   1  -4    0.40    0.50
   9  -1   4    0.70    0.50
   9  -1   4    0.60    0.50
 -10   1  -4    1.10    0.50
  10  -1   4    0.50    0.60
  10  -1   4    1.00    0.60
  11  -1   4    0.20    0.50
   9   0  -4   11.90    1.60
  -9   0   4    9.00    1.60
   8   0  -4    0.60    0.60
  -8   0   4    1.00    0.70
  -8   0   4    1.20    0.40
   7   0  -4    2.60    0.40
   7   0  -4    2.70    0.70
  -7   0   4    2.20    0.50
  -7   0   4    2.50    0.90
   6   0  -4    5.60    0.60
   6   0  -4    5.00    0.80
  -6   0   4    6.30    1.10
  -6   0   4    5.60    0.60
   5   0  -4   -0.30    0.10
   5   0  -4   -0.10    0.20
  -5   0   4    0.00    0.20
  -5   0   4   -0.40    0.30
   4   0  -4   32.40    1.00
  -4   0   4   33.00    1.10
  -4   0   4   36.00    1.30
  -4   0   4   35.70    1.70
   3   0  -4   11.70    0.30
   3   0  -4   10.40    0.50
  -3   0   4   11.50    0.90
  -3   0   4   11.10    0.50
  -3   0   4   11.30    0.60
   2   0  -4    0.70    0.20
   2   0  -4    0.40    0.10
  -2   0   4    0.50    0.10
  -2   0   4    1.00    0.30
  -2   0   4    0.50    0.20
   1   0  -4    3.80    0.20
   1   0  -4    3.70    0.30
  -1   0   4    4.30    0.50
  -1   0   4    3.90    0.30
   0   0  -4    7.10    0.30
   0   0   4    7.20    0.50
   0   0   4    7.40    0.40
  -1   0  -4    0.40    0.10
   1   0   4    0.30    0.30
   1   0   4    0.20    0.10
   1   0   4    0.20    0.10
  -2   0  -4  652.43    9.90
  -2   0  -4  653.23   10.00
   2   0   4  678.13   10.10
   2   0   4  669.33   10.30
   2   0   4  666.83   10.60
  -3   0  -4   65.39    1.30
  -3   0  -4   66.19    1.50
   3   0   4   64.39    1.70
   3   0   4   65.89    1.10
   3   0   4   64.59    1.50
  -4   0  -4  126.79    2.60
  -4   0  -4  125.39    2.20
   4   0   4  125.89    2.90
   4   0   4  124.99    2.00
   4   0   4  126.19    2.60
  -5   0  -4    3.10    0.50
  -5   0  -4    2.80    0.30
   5   0   4    3.00    0.20
   5   0   4    3.50    0.50
   5   0   4    3.80    0.70
  -6   0  -4   13.80    0.90
  -6   0  -4   13.20    0.50
   6   0   4   12.40    1.00
   6   0   4   13.70    0.90
  -7   0  -4   81.59    2.40
  -7   0  -4   81.59    1.70
   7   0   4   81.39    2.90
   7   0   4   83.09    2.40
  -8   0  -4   49.60    1.90
   8   0   4   43.20    1.80
   8   0   4   43.80    2.30
  -9   0  -4   16.80    1.20
   9   0   4   15.30    1.20
   9   0   4   14.70    1.50
 -10   0  -4   -0.30    0.30
  10   0   4   -1.00    0.40
  10   0   4    0.60    0.60
  11   0   4   17.30    1.80
   9  -1  -4    0.00    0.40
  -9   1   4    0.40    0.70
   8  -1  -4    5.30    1.10
  -8   1   4    7.40    1.50
  -8   1   4    7.10    0.80
   7  -1  -4   40.70    2.10
   7  -1  -4   36.40    1.30
  -7   1   4   37.90    1.50
  -7   1   4   39.30    2.40
   6  -1  -4    0.70    0.20
   6  -1  -4    1.00    0.50
  -6   1   4    1.40    0.40
  -6   1   4    1.40    0.70
   5  -1  -4   46.20    1.40
   5  -1  -4   47.90    2.00
  -5   1   4   46.20    1.50
  -5   1   4   48.50    2.20
   4  -1  -4    2.90    0.40
   4  -1  -4    2.70    0.50
  -4   1   4    2.80    0.70
  -4   1   4    2.80    0.40
   3  -1  -4   62.69    1.50
  -3   1   4   63.19    1.60
  -3   1   4   62.19    1.50
  -3   1   4   59.69    2.10
   2  -1  -4  198.88    3.50
   2  -1  -4  198.08    3.00
  -2   1   4  196.68    3.50
  -2   1   4  197.38    3.30
  -2   1   4  196.18    4.20
   1  -1  -4   86.69    1.50
   1  -1  -4   84.89    1.70
  -1   1   4   86.39    1.70
  -1   1   4   84.99    1.50
  -1   1   4   87.19    2.20
   0  -1  -4  139.19    2.30
   0  -1  -4  137.09    2.40
   0   1   4  137.79    2.80
   0   1   4  141.39    2.40
  -1  -1  -4  194.08    3.20
  -1  -1  -4  190.38    3.00
  -1  -1  -4  194.58    3.20
   1   1   4  202.18    3.20
   1   1   4  205.58    3.70
  -2  -1  -4  241.88    3.90
  -2  -1  -4  245.08    3.80
  -2  -1  -4  242.98    3.90
   2   1   4  247.48    4.30
   2   1   4  249.18    3.90
  -3  -1  -4  124.89    2.20
  -3  -1  -4  124.59    2.00
  -3  -1  -4  125.59    2.40
   3   1   4  127.99    2.30
   3   1   4  122.89    2.70
  -4  -1  -4  451.55    7.00
  -4  -1  -4  459.45    7.40
   4   1   4  460.85    7.90
   4   1   4  458.75    7.40
  -5  -1  -4   15.00    0.50
  -5  -1  -4   15.20    0.80
   5   1   4   14.50    0.80
   5   1   4   15.10    1.00
  -6  -1  -4  593.64    9.10
  -6  -1  -4  604.84    9.90
   6   1   4  591.64    9.90
   6   1   4  591.74   10.80
  -7  -1  -4   16.10    0.60
  -7  -1  -4   16.70    1.00
   7   1   4   16.60    1.00
   7   1   4   17.40    1.30
  -8  -1  -4   23.60    1.30
   8   1   4   21.10    1.60
   8   1   4   23.70    1.30
   9   1   4   -0.20    0.40
   9   1   4   -0.30    0.30
 -10  -1  -4    0.70    0.50
  10   1   4    0.00    0.50
  10   1   4    1.60    0.80
  11   1   4   17.00    1.80
  -9   2   4    0.90    0.80
   8  -2  -4    3.50    0.90
  -8   2   4    2.60    1.00
  -8   2   4    2.30    0.60
   7  -2  -4    6.40    0.60
   7  -2  -4    6.70    1.10
  -7   2   4    6.40    0.80
  -7   2   4    7.40    1.50
   6  -2  -4   -0.20    0.30
   6  -2  -4    0.20    0.20
  -6   2   4    0.00    0.50
  -6   2   4    0.20    0.30
   5  -2  -4   27.70    1.00
   5  -2  -4   26.50    1.40
  -5   2   4   25.60    1.10
  -5   2   4   27.80    1.70
   4  -2  -4    4.00    0.40
   4  -2  -4    3.90    0.60
  -4   2   4    5.00    0.90
  -4   2   4    4.10    0.50
   3  -2  -4  150.88    2.90
  -3   2   4  149.39    3.00
  -3   2   4  145.59    3.70
  -3   2   4  147.79    2.90
   2  -2  -4    6.90    0.40
   2  -2  -4    7.80    0.20
  -2   2   4    7.60    0.40
  -2   2   4    7.20    0.70
  -2   2   4    8.00    0.50
   1  -2  -4  212.18    3.60
   1  -2  -4  214.98    3.30
  -1   2   4  208.98    3.40
  -1   2   4  209.38    4.20
  -1   2   4  215.38    3.60
   0  -2  -4   86.29    1.70
   0  -2  -4   85.89    1.50
   0   2   4   87.49    1.50
   0   2   4   85.69    1.60
   0   2   4   88.19    2.20
  -1  -2  -4  606.24    9.10
  -1  -2  -4  586.14    9.30
  -1  -2  -4  599.34    9.00
   1   2   4  616.54    9.30
   1   2   4  623.44    9.80
  -2  -2  -4    7.00    0.30
  -2  -2  -4    7.20    0.30
  -2  -2  -4    7.30    0.30
   2   2   4    7.70    0.60
   2   2   4    7.40    0.30
  -3  -2  -4  240.38    3.90
  -3  -2  -4  243.48    3.70
  -3  -2  -4  241.48    4.00
   3   2   4  240.28    4.50
   3   2   4  241.58    4.00
  -4  -2  -4    0.10    0.10
  -4  -2  -4    0.20    0.20
   4   2   4    0.30    0.20
   4   2   4    0.30    0.20
  -5  -2  -4    0.50    0.10
  -5  -2  -4    0.50    0.20
   5   2   4    0.70    0.30
   5   2   4    0.80    0.40
  -6  -2  -4   70.39    1.90
  -6  -2  -4   67.59    1.50
   6   2   4   68.99    2.50
   6   2   4   68.89    2.00
  -7  -2  -4   32.20    0.90
  -7  -2  -4   33.80    1.40
   7   2   4   31.80    1.80
   7   2   4   30.60    1.40
  -8  -2  -4   82.89    2.40
  -8  -2  -4   77.69    1.90
   8   2   4   80.19    2.50
   8   2   4   79.09    3.20
  -9  -2  -4    2.20    0.60
   9   2   4    2.20    0.60
   9   2   4    3.40    0.90
 -10  -2  -4   18.70    1.30
  10   2   4   17.80    1.70
  10   2   4   16.60    1.40
 -11  -2  -4    3.40    1.10
  11   2   4    2.60    0.90
  11   2   4    2.10    0.80
   8  -3  -4    8.80    1.30
  -8   3   4   10.70    1.70
  -8   3   4    9.00    0.90
   7  -3  -4   10.60    0.80
   7  -3  -4   10.60    1.10
  -7   3   4    9.90    1.60
  -7   3   4   10.80    0.90
   6  -3  -4    9.00    1.00
   6  -3  -4    7.90    0.60
  -6   3   4   10.00    1.50
  -6   3   4    9.60    0.80
   5  -3  -4   11.00    0.70
   5  -3  -4   10.40    0.90
  -5   3   4   10.40    1.20
  -5   3   4   11.40    0.80
   4  -3  -4   20.90    0.90
   4  -3  -4   20.50    1.20
  -4   3   4   22.10    1.00
  -4   3   4   20.10    1.40
   3  -3  -4   42.50    1.60
   3  -3  -4   46.00    1.30
  -3   3   4   45.00    1.30
  -3   3   4   45.20    1.90
   2  -3  -4    1.30    0.10
   2  -3  -4    1.20    0.20
  -2   3   4    1.00    0.20
  -2   3   4    1.30    0.40
  -2   3   4    1.30    0.30
   1  -3  -4  123.39    2.10
   1  -3  -4  129.29    2.40
  -1   3   4  125.69    2.30
  -1   3   4  127.09    2.30
  -1   3   4  127.09    3.00
   0  -3  -4  131.99    2.20
   0  -3  -4  134.99    2.40
   0   3   4  133.49    3.00
   0   3   4  132.69    2.30
   0   3   4  129.69    2.20
  -1  -3  -4  228.78    3.70
  -1  -3  -4  229.98    3.80
   1   3   4  237.38    4.50
   1   3   4  235.88    3.70
   1   3   4  229.48    3.60
  -2  -3  -4   86.69    1.60
  -2  -3  -4   88.49    1.60
  -2  -3  -4   86.09    1.60
   2   3   4   85.59    1.50
   2   3   4   89.89    2.20
  -3  -3  -4  417.66    6.40
  -3  -3  -4  415.16    6.50
  -3  -3  -4  415.26    6.20
   3   3   4  411.06    6.40
   3   3   4  416.46    7.20
  -4  -3  -4   89.99    1.90
  -4  -3  -4   91.99    1.80
   4   3   4   91.39    2.50
   4   3   4   91.89    1.90
  -5  -3  -4  112.99    2.40
  -5  -3  -4  116.89    2.20
   5   3   4  114.09    2.50
   5   3   4  109.59    3.10
  -6  -3  -4    3.30    0.30
  -6  -3  -4    4.10    0.60
   6   3   4    3.00    0.50
   6   3   4    3.90    0.80
  -7  -3  -4   39.70    1.10
  -7  -3  -4   39.30    1.50
   7   3   4   40.70    1.60
   7   3   4   38.00    2.00
  -8  -3  -4    9.20    0.50
  -8  -3  -4    7.80    0.80
   8   3   4    9.00    1.10
   8   3   4    8.20    0.80
  -9  -3  -4    2.30    0.60
   9   3   4    1.10    0.50
   9   3   4    1.30    0.70
 -10  -3  -4    0.00    0.40
  10   3   4    0.60    0.50
  10   3   4   -0.10    0.50
  11   3   4   -0.30    0.60
  11   3   4    1.70    0.90
   8  -4  -4    3.30    0.80
  -8   4   4    2.80    1.00
  -8   4   4    4.10    0.70
   7  -4  -4    0.20    0.40
   7  -4  -4    0.00    0.20
  -7   4   4    0.50    0.40
  -7   4   4   -0.10    0.70
   6  -4  -4    2.00    0.40
   6  -4  -4    1.30    0.50
  -6   4   4    2.70    1.00
  -6   4   4    1.90    0.50
   5  -4  -4    1.90    0.40
   5  -4  -4    1.20    0.50
  -5   4   4    1.70    0.40
  -5   4   4    1.30    0.60
   4  -4  -4   51.09    1.50
   4  -4  -4   48.80    1.90
  -4   4   4   50.09    1.60
  -4   4   4   55.99    2.30
   3  -4  -4    9.50    0.60
   3  -4  -4    9.70    0.70
  -3   4   4    9.30    0.90
  -3   4   4    9.10    0.60
   2  -4  -4   56.89    1.00
   2  -4  -4   56.89    1.40
   2  -4  -4   55.59    1.70
  -2   4   4   54.79    1.40
  -2   4   4   53.79    2.00
   1  -4  -4   14.30    0.40
   1  -4  -4   14.60    0.60
  -1   4   4   14.60    0.60
  -1   4   4   14.20    1.00
  -1   4   4   14.30    0.60
   0  -4  -4    2.20    0.30
   0  -4  -4    2.00    0.20
   0   4   4    2.00    0.50
   0   4   4    2.00    0.20
   0   4   4    1.80    0.30
  -1  -4  -4   10.30    0.40
  -1  -4  -4   10.10    0.40
   1   4   4   11.30    0.90
   1   4   4   10.40    0.40
   1   4   4   10.70    0.40
  -2  -4  -4    1.10    0.20
  -2  -4  -4    0.90    0.20
  -2  -4  -4    0.50    0.10
   2   4   4    0.70    0.10
   2   4   4    1.10    0.40
  -3  -4  -4    2.50    0.30
  -3  -4  -4    2.50    0.30
  -3  -4  -4    2.20    0.20
   3   4   4    3.00    0.30
   3   4   4    1.70    0.40
  -4  -4  -4    0.00    0.10
  -4  -4  -4    0.20    0.20
   4   4   4    0.20    0.20
   4   4   4    0.30    0.30
  -5  -4  -4   42.70    1.30
  -5  -4  -4   41.00    1.10
   5   4   4   43.30    1.30
   5   4   4   41.20    1.80
  -6  -4  -4    1.90    0.40
  -6  -4  -4    1.80    0.30
   6   4   4    2.00    0.60
   6   4   4    1.70    0.40
  -7  -4  -4   19.90    0.70
  -7  -4  -4   20.30    1.00
   7   4   4   18.30    1.00
   7   4   4   19.20    1.50
  -8  -4  -4   29.80    0.90
  -8  -4  -4   30.60    1.40
   8   4   4   31.30    1.50
   8   4   4   31.50    2.00
  -9  -4  -4   11.60    1.00
   9   4   4   10.10    1.00
   9   4   4   11.20    1.40
 -10  -4  -4   17.90    1.20
  10   4   4   17.00    1.80
  10   4   4   18.60    1.40
  11   4   4   -1.20    0.60
   8  -5  -4    0.80    0.40
   8  -5  -4    0.50    0.40
  -8   5   4    2.10    1.00
  -8   5   4    1.70    0.50
   7  -5  -4    0.80    0.50
   7  -5  -4    0.30    0.30
  -7   5   4    0.80    0.80
  -7   5   4    0.00    0.30
   6  -5  -4    0.30    0.30
   6  -5  -4    1.10    0.50
  -6   5   4    0.90    0.80
  -6   5   4    0.80    0.40
   5  -5  -4   -0.10    0.30
   5  -5  -4    0.10    0.20
  -5   5   4    0.20    0.30
  -5   5   4    0.40    0.50
   4  -5  -4    2.80    0.60
   4  -5  -4    2.70    0.40
  -4   5   4    2.80    0.70
  -4   5   4    3.60    0.60
   3  -5  -4   67.49    2.00
   3  -5  -4   68.39    1.70
  -3   5   4   66.19    2.50
  -3   5   4   66.89    1.90
   2  -5  -4    0.40    0.10
   2  -5  -4    0.40    0.20
   2  -5  -4    0.20    0.20
  -2   5   4    0.10    0.40
  -2   5   4    0.40    0.30
   1  -5  -4    2.40    0.20
   1  -5  -4    2.00    0.30
   1  -5  -4    2.40    0.30
  -1   5   4    3.00    0.40
  -1   5   4    2.20    0.60
   0  -5  -4    2.20    0.20
   0  -5  -4    1.70    0.30
   0   5   4    2.00    0.60
   0   5   4    2.40    0.30
   0   5   4    2.10    0.20
  -1  -5  -4    1.70    0.20
  -1  -5  -4    1.10    0.20
   1   5   4    1.60    0.20
   1   5   4    1.30    0.20
   1   5   4    1.10    0.60
  -2  -5  -4   75.09    1.50
  -2  -5  -4   74.79    1.50
  -2  -5  -4   73.29    1.50
   2   5   4   75.39    2.20
   2   5   4   73.09    1.30
  -3  -5  -4    2.80    0.20
  -3  -5  -4    2.70    0.30
  -3  -5  -4    3.50    0.30
   3   5   4    2.70    0.30
   3   5   4    4.00    0.70
  -4  -5  -4   17.60    0.60
  -4  -5  -4   16.80    0.40
  -4  -5  -4   18.20    0.70
   4   5   4   16.80    1.10
   4   5   4   17.80    0.60
  -5  -5  -4    5.20    0.40
  -5  -5  -4    5.60    0.50
   5   5   4    5.20    0.50
   5   5   4    4.50    0.70
  -6  -5  -4   60.39    1.70
  -6  -5  -4   60.49    1.40
   6   5   4   62.19    1.70
   6   5   4   61.09    2.40
  -7  -5  -4    9.00    0.50
  -7  -5  -4    9.20    0.70
   7   5   4    9.80    1.10
   7   5   4    9.80    0.80
  -8  -5  -4   57.09    1.50
  -8  -5  -4   63.89    2.00
   8   5   4   60.49    2.00
   8   5   4   60.29    2.80
  -9  -5  -4   84.89    2.50
   9   5   4   83.69    2.60
   9   5   4   80.69    3.50
 -10  -5  -4   12.40    1.10
  10   5   4   10.70    1.20
  10   5   4   12.50    1.60
  11   5   4   19.30    1.60
   8  -6  -4   -0.10    0.50
   8  -6  -4   -0.10    0.30
   7  -6  -4    0.80    0.40
   7  -6  -4    1.30    0.40
  -7   6   4    2.00    1.10
  -7   6   4    1.80    0.60
   6  -6  -4    7.70    1.10
   6  -6  -4    8.30    0.70
  -6   6   4    8.60    0.90
  -6   6   4    9.40    1.70
   5  -6  -4    7.70    1.00
   5  -6  -4    8.90    0.70
  -5   6   4    9.50    1.50
  -5   6   4    8.80    0.80
   4  -6  -4    7.20    0.60
   4  -6  -4    6.80    0.70
  -4   6   4    8.10    1.30
  -4   6   4    8.30    0.80
   3  -6  -4   11.40    0.70
   3  -6  -4   11.10    0.80
  -3   6   4   12.20    1.10
  -3   6   4   11.30    0.80
   2  -6  -4   41.80    0.90
   2  -6  -4   44.90    1.40
   2  -6  -4   44.00    1.30
  -2   6   4   41.50    1.90
  -2   6   4   41.50    1.40
   1  -6  -4    0.00    0.10
   1  -6  -4   -0.10    0.10
   1  -6  -4   -0.20    0.10
  -1   6   4    0.20    0.30
  -1   6   4   -0.20    0.40
   0  -6  -4    9.60    0.50
   0  -6  -4    8.40    0.40
   0  -6  -4    8.90    0.40
   0   6   4    7.10    0.90
   0   6   4    8.40    0.60
  -1  -6  -4   18.60    0.70
  -1  -6  -4   17.00    0.60
   1   6   4   18.70    0.70
   1   6   4   18.00    1.30
  -2  -6  -4  191.28    3.30
  -2  -6  -4  193.08    3.30
  -2  -6  -4  203.18    3.10
   2   6   4  185.18    3.40
   2   6   4  192.38    4.20
  -3  -6  -4  163.28    2.90
  -3  -6  -4  160.18    2.70
  -3  -6  -4  165.78    3.00
   3   6   4  163.78    3.80
   3   6   4  159.88    2.60
  -4  -6  -4  388.46    6.30
  -4  -6  -4  376.56    5.80
  -4  -6  -4  386.16    6.10
   4   6   4  374.86    5.90
   4   6   4  386.26    7.20
  -5  -6  -4   27.00    1.00
  -5  -6  -4   27.00    0.90
   5   6   4   26.10    1.50
   5   6   4   26.20    0.90
  -6  -6  -4  241.78    4.50
  -6  -6  -4  244.48    4.20
   6   6   4  243.88    4.40
   6   6   4  238.88    5.60
  -7  -6  -4    9.00    0.70
  -7  -6  -4    8.40    0.50
   7   6   4    6.80    0.70
   7   6   4    7.80    1.00
  -8  -6  -4   35.40    1.40
  -8  -6  -4   36.80    1.10
   8   6   4   36.80    2.20
   8   6   4   35.50    1.50
  -9  -6  -4    2.10    0.60
   9   6   4    0.50    0.50
   9   6   4    1.60    0.80
 -10  -6  -4    0.90    0.50
  10   6   4    1.10    0.70
  10   6   4   -0.60    0.50
   8  -7  -4    1.10    0.50
   7  -7  -4    4.30    0.90
   7  -7  -4    2.60    0.50
  -7   7   4    4.10    0.70
  -7   7   4    5.60    1.40
   6  -7  -4    3.70    0.70
   6  -7  -4    4.50    0.60
  -6   7   4    3.90    0.80
  -6   7   4    5.70    1.40
   5  -7  -4    0.20    0.30
   5  -7  -4    0.90    0.40
  -5   7   4    0.60    0.60
  -5   7   4    0.80    0.40
   4  -7  -4    2.50    0.50
   4  -7  -4    2.80    0.50
  -4   7   4    2.60    0.60
  -4   7   4    3.90    1.00
   3  -7  -4    8.40    0.60
   3  -7  -4    7.10    0.60
  -3   7   4    7.80    0.70
  -3   7   4    8.30    1.10
   2  -7  -4   15.80    0.80
   2  -7  -4   16.10    0.80
   2  -7  -4   15.90    0.50
  -2   7   4   17.20    1.30
  -2   7   4   16.50    0.90
   1  -7  -4  105.09    2.20
   1  -7  -4  106.39    2.30
   1  -7  -4  105.99    1.90
  -1   7   4  101.49    2.40
  -1   7   4  103.49    3.00
   0  -7  -4    2.30    0.30
   0  -7  -4    2.20    0.30
   0  -7  -4    2.50    0.30
   0   7   4    2.60    0.40
   0   7   4    1.80    0.70
  -1  -7  -4  103.09    2.10
  -1  -7  -4  103.39    2.00
   1   7   4  102.29    2.20
   1   7   4  102.49    3.00
  -2  -7  -4    2.40    0.30
  -2  -7  -4    2.40    0.30
   2   7   4    2.10    0.40
   2   7   4    2.10    0.70
  -3  -7  -4    4.40    0.30
  -3  -7  -4    4.40    0.30
   3   7   4    5.10    0.90
  -4  -7  -4   25.90    0.70
  -4  -7  -4   27.60    1.00
   4   7   4   26.50    1.50
   4   7   4   25.10    0.60
  -5  -7  -4  132.39    2.50
  -5  -7  -4  129.39    2.70
   5   7   4  126.09    2.40
   5   7   4  126.19    3.50
  -6  -7  -4   51.99    1.40
  -6  -7  -4   53.29    1.60
   6   7   4   51.29    1.40
   6   7   4   53.29    2.30
  -7  -7  -4   47.40    1.60
  -7  -7  -4   48.60    1.30
   7   7   4   47.60    2.30
   7   7   4   47.20    1.50
  -8  -7  -4   48.70    1.70
  -8  -7  -4   48.20    1.40
   8   7   4   46.20    2.50
  -9  -7  -4   14.20    0.80
  -9  -7  -4   13.90    1.00
   9   7   4   13.90    1.60
 -10  -7  -4    1.00    0.50
  10   7   4   -0.30    0.50
   7  -8  -4    3.80    0.60
   7  -8  -4    3.90    1.10
  -7   8   4    4.90    0.80
   6  -8  -4    0.60    0.30
   6  -8  -4    0.10    0.40
  -6   8   4    1.10    0.50
  -6   8   4    1.50    1.00
   5  -8  -4   23.90    1.40
   5  -8  -4   25.60    1.20
  -5   8   4   24.50    1.50
  -5   8   4   25.60    2.00
   4  -8  -4    8.90    0.80
   4  -8  -4    7.80    0.70
  -4   8   4    9.10    0.90
  -4   8   4   11.60    1.60
   3  -8  -4    3.30    0.50
   3  -8  -4    3.10    0.50
  -3   8   4    3.30    0.60
  -3   8   4    4.50    1.00
   2  -8  -4   15.80    0.80
   2  -8  -4   14.70    0.50
   2  -8  -4   15.30    0.80
  -2   8   4   14.80    0.90
  -2   8   4   14.70    1.30
   1  -8  -4   30.20    1.10
   1  -8  -4   27.30    0.80
  -1   8   4   26.90    1.20
  -1   8   4   27.30    1.60
   0  -8  -4   94.09    1.90
   0  -8  -4   93.79    2.10
   0   8   4   89.69    2.20
   0   8   4   90.39    2.80
  -1  -8  -4  143.79    2.80
  -1  -8  -4  143.09    2.60
   1   8   4  141.09    3.70
   1   8   4  137.69    2.90
  -2  -8  -4   11.70    0.60
  -2  -8  -4   11.70    0.60
   2   8   4   12.10    0.70
   2   8   4   12.30    1.30
  -3  -8  -4  210.48    3.70
  -3  -8  -4  204.18    3.50
   3   8   4  204.88    4.70
   3   8   4  205.98    3.80
  -4  -8  -4   17.70    0.60
  -4  -8  -4   17.20    0.80
   4   8   4   18.50    1.40
  -5  -8  -4   15.80    0.90
  -5  -8  -4   14.60    0.70
   5   8   4   15.00    1.30
  -6  -8  -4   23.20    0.90
  -6  -8  -4   24.10    1.10
   6   8   4   24.10    1.60
  -7  -8  -4    0.60    0.20
  -7  -8  -4    0.40    0.40
   7   8   4    0.80    0.60
  -8  -8  -4   16.70    1.10
  -8  -8  -4   15.60    0.80
   8   8   4   15.50    1.60
  -9  -8  -4    6.30    0.80
  -9  -8  -4    7.00    0.60
   9   8   4    7.50    1.50
 -10  -8  -4    2.80    0.60
  10   8   4    2.00    1.00
   6  -9  -4   23.40    1.30
  -6   9   4   29.00    1.70
   5  -9  -4   46.60    1.70
  -5   9   4   46.70    2.70
  -5   9   4   48.60    2.10
   4  -9  -4    3.40    0.60
  -4   9   4    2.30    0.60
  -4   9   4    4.70    1.10
   3  -9  -4    4.00    0.60
  -3   9   4    6.40    1.20
  -3   9   4    5.80    0.80
   2  -9  -4   12.40    0.50
   2  -9  -4   12.80    0.80
  -2   9   4   11.60    0.90
  -2   9   4   14.20    1.40
   1  -9  -4    1.40    0.20
   1  -9  -4    1.60    0.30
  -1   9   4    2.70    0.70
  -1   9   4    1.30    0.50
   0  -9  -4   32.50    1.10
   0  -9  -4   33.70    1.00
   0   9   4   34.80    1.80
   0   9   4   32.60    1.30
  -1  -9  -4    4.60    0.40
  -1  -9  -4    4.50    0.40
   1   9   4    4.30    0.60
   1   9   4    5.50    1.00
  -2  -9  -4   23.50    0.80
  -2  -9  -4   24.60    0.90
   2   9   4   23.10    1.10
   2   9   4   25.10    1.60
  -3  -9  -4   22.20    0.80
  -3  -9  -4   21.80    0.80
   3   9   4   22.20    1.00
   3   9   4   24.60    1.70
  -4  -9  -4    6.20    0.40
  -4  -9  -4    6.70    0.50
   4   9   4    7.40    1.20
   4   9   4    6.50    0.60
  -5  -9  -4   16.30    0.70
  -5  -9  -4   17.10    0.90
   5   9   4   17.70    1.50
  -6  -9  -4   13.50    0.70
  -6  -9  -4   13.60    0.90
   6   9   4   14.70    1.40
  -7  -9  -4    1.60    0.30
  -7  -9  -4    1.90    0.50
   7   9   4    1.30    0.80
  -8  -9  -4   31.80    1.40
  -8  -9  -4   31.10    1.10
   8   9   4   31.00    2.20
  -9  -9  -4    3.20    0.50
  -9  -9  -4    2.70    0.60
   9   9   4    2.40    1.00
  -6  10   4   12.30    0.90
   5 -10  -4    0.30    0.30
  -5  10   4    0.80    0.40
   4 -10  -4   15.30    1.00
  -4  10   4   16.50    1.30
  -4  10   4   20.70    1.80
   3 -10  -4    2.90    0.50
  -3  10   4    2.80    0.60
  -3  10   4    3.60    1.00
   2 -10  -4   61.29    1.90
  -2  10   4   59.49    2.10
  -2  10   4   65.29    2.70
   1 -10  -4   14.10    0.60
   1 -10  -4   14.30    0.80
  -1  10   4   14.90    1.00
  -1  10   4   14.40    1.30
   0 -10  -4   16.80    0.90
   0 -10  -4   16.60    0.70
   0  10   4   18.30    1.10
   0  10   4   19.70    1.40
  -1 -10  -4    0.60    0.20
  -1 -10  -4    0.60    0.20
   1  10   4    1.90    0.80
   1  10   4    0.10    0.40
  -2 -10  -4    2.70    0.40
  -2 -10  -4    2.90    0.40
   2  10   4    3.20    0.60
   2  10   4    2.10    0.90
  -3 -10  -4    3.80    0.40
  -3 -10  -4    5.10    0.40
   3  10   4    4.00    1.00
   3  10   4    4.50    0.60
  -4 -10  -4   12.60    0.70
  -4 -10  -4   12.00    0.60
   4  10   4   12.70    0.80
   4  10   4   13.10    1.50
  -5 -10  -4    4.60    0.50
   5  10   4    3.60    1.10
   5  10   4    5.10    0.60
  -6 -10  -4   12.20    0.70
  -6 -10  -4   13.00    0.90
   6  10   4   12.40    1.60
  -7 -10  -4    1.10    0.50
  -7 -10  -4    1.50    0.30
   7  10   4    0.30    0.70
  -8 -10  -4   27.70    1.40
  -8 -10  -4   29.10    1.10
   8  10   4   28.10    2.20
  -9 -10  -4    0.10    0.20
  -9 -10  -4   -0.20    0.40
   9  10   4   -1.20    0.70
   5 -11  -4    2.70    0.50
  -5  11   4    5.00    0.80
   4 -11  -4   15.80    1.00
  -4  11   4   15.90    1.30
   3 -11  -4    0.10    0.30
  -3  11   4    0.80    0.50
  -3  11   4    2.40    0.80
   2 -11  -4    4.20    0.60
  -2  11   4    6.00    1.10
  -2  11   4    4.70    0.80
   1 -11  -4    0.60    0.20
   1 -11  -4    0.80    0.30
  -1  11   4    0.80    0.50
  -1  11   4    2.00    0.70
   0 -11  -4    4.00    0.50
   0 -11  -4    5.10    0.40
   0  11   4    6.10    1.00
   0  11   4    5.30    0.80
  -1 -11  -4    2.40    0.40
  -1 -11  -4    2.10    0.40
   1  11   4    2.10    0.60
   1  11   4    2.60    0.80
  -2 -11  -4   41.10    1.30
  -2 -11  -4   40.90    1.20
   2  11   4   37.70    1.50
   2  11   4   38.60    2.10
  -3 -11  -4   28.10    1.00
  -3 -11  -4   27.20    1.00
   3  11   4   27.70    2.00
   3  11   4   27.70    1.30
  -4 -11  -4   16.90    0.80
  -4 -11  -4   17.30    0.80
   4  11   4   17.00    1.70
   4  11   4   15.60    1.00
  -5 -11  -4   16.60    0.80
   5  11   4   13.90    1.70
   5  11   4   15.60    1.00
  -6 -11  -4   10.80    0.70
   6  11   4   11.40    0.80
   6  11   4   12.40    1.70
  -7 -11  -4   37.60    1.60
  -7 -11  -4   35.80    1.30
   7  11   4   36.00    2.50
  -8 -11  -4    8.50    0.90
  -8 -11  -4    7.60    0.60
   8  11   4    8.30    1.60
  -9 -11  -4    0.50    0.30
   4 -12  -4    0.10    0.30
  -4  12   4    1.90    0.50
   3 -12  -4    1.00    0.40
  -3  12   4    1.80    0.60
   2 -12  -4    6.70    0.80
  -2  12   4    6.30    0.90
   1 -12  -4    0.50    0.20
   1 -12  -4    0.60    0.30
  -1  12   4    0.90    0.60
  -1  12   4    1.80    0.70
   0 -12  -4   -0.20    0.20
   0 -12  -4   -0.10    0.20
   0  12   4    1.00    0.60
   0  12   4    0.00    0.50
  -1 -12  -4    0.10    0.20
  -1 -12  -4   -0.10    0.20
   1  12   4    0.80    0.60
   1  12   4    0.60    0.50
  -2 -12  -4    8.60    0.60
  -2 -12  -4    8.20    0.60
   2  12   4   11.30    1.50
   2  12   4   10.30    1.00
  -3 -12  -4    8.10    0.60
  -3 -12  -4    7.70    0.60
   3  12   4    8.40    1.00
   3  12   4    9.30    1.40
  -4 -12  -4   44.60    1.40
   4  12   4   43.20    2.50
   4  12   4   43.20    1.70
  -5 -12  -4    7.90    0.60
   5  12   4    8.00    0.90
   5  12   4    7.40    1.50
  -6 -12  -4   44.80    1.50
   6  12   4   44.20    2.70
   6  12   4   46.20    1.80
  -7 -12  -4   25.30    1.10
   7  12   4   21.70    2.20
   7  12   4   25.50    1.30
  -8 -12  -4    2.70    0.40
   8  12   4    1.20    1.30
   3 -13  -4    3.40    0.60
  -3  13   4    4.60    0.80
   2 -13  -4   14.40    1.00
  -2  13   4   13.10    1.20
   1 -13  -4    5.60    0.70
   1 -13  -4    5.80    0.70
  -1  13   4    6.80    1.00
   0 -13  -4   15.30    0.90
   0 -13  -4   14.20    0.80
   0  13   4   15.60    1.30
  -1 -13  -4   20.60    1.00
  -1 -13  -4   20.10    0.90
   1  13   4   19.00    1.30
   1  13   4   23.30    1.70
  -2 -13  -4    1.10    0.30
  -2 -13  -4    1.20    0.30
   2  13   4    0.50    0.50
   2  13   4    2.50    0.90
  -3 -13  -4    8.20    0.60
  -3 -13  -4    7.60    0.60
   3  13   4    8.00    1.00
   3  13   4    9.70    1.50
  -4 -13  -4    5.50    0.60
   4  13   4    6.20    1.40
   4  13   4    5.20    0.90
  -5 -13  -4    1.70    0.40
   5  13   4    2.10    0.70
   5  13   4    0.50    1.10
  -6 -13  -4   14.60    0.90
   6  13   4   11.30    1.90
   6  13   4   14.00    1.20
  -7 -13  -4    0.90    0.30
   7  13   4   -2.20    1.10
   7  13   4    1.50    0.50
  -2  14   4    3.20    0.70
   1 -14  -4    0.00    0.30
  -1  14   4    0.20    0.50
   0 -14  -4    0.30    0.20
   0 -14  -4    0.40    0.30
   0  14   4   -0.30    0.50
  -1 -14  -4    0.70    0.30
  -1 -14  -4    1.20    0.30
   1  14   4    0.70    0.60
  -2 -14  -4    4.20    0.60
  -2 -14  -4    3.70    0.50
   2  14   4    3.30    0.80
  -3 -14  -4   17.50    0.90
  -3 -14  -4   18.10    0.90
   3  14   4   16.30    1.30
  -4 -14  -4    4.50    0.60
   4  14   4    5.60    1.00
   4  14   4    4.10    1.30
  -5 -14  -4    5.90    0.70
   5  14   4    5.20    1.40
   5  14   4    5.80    1.00
  -6 -14  -4    0.40    0.30
   6  14   4   -1.80    1.10
   7  14   4   -1.00    1.70
   0 -15  -4    1.40    0.40
   0 -15  -4    1.60    0.50
   0  15   4    1.50    0.70
  -1 -15  -4   -0.10    0.20
  -1 -15  -4   -0.10    0.20
   1  15   4   -0.20    0.50
  -2 -15  -4    0.70    0.40
  -2 -15  -4    0.80    0.30
   2  15   4    1.10    0.70
  -3 -15  -4    5.20    0.60
   3  15   4    3.60    0.90
  -4 -15  -4    0.30    0.40
   4  14  -5    6.70    1.20
  -4 -14   5    7.20    1.20
   3  14  -5   -1.50    0.50
  -3 -14   5    0.00    0.20
   2  14  -5    5.00    0.80
   2  14  -5    5.50    0.90
  -2 -14   5    5.20    0.70
   1  14  -5    0.90    0.40
   1  14  -5    1.10    0.60
  -1 -14   5    0.80    0.40
   0  14  -5    0.10    0.30
   0  14  -5    0.40    0.60
   0 -14   5    0.30    0.20
  -1  14  -5    0.30    0.30
  -1  14  -5    0.80    0.60
   1 -14   5    0.30    0.30
  -2  14  -5    3.20    0.70
  -2  14  -5    0.60    0.40
  -3  14  -5    2.00    0.70
   4  13  -5    1.00    0.40
   4  13  -5    2.10    0.70
  -4 -13   5    2.30    0.50
   3  13  -5   -0.10    0.50
   3  13  -5   -0.20    0.30
  -3 -13   5    0.10    0.30
   2  13  -5    5.30    0.90
   2  13  -5    5.90    0.70
  -2 -13   5    7.40    0.70
   1  13  -5   -0.20    0.50
   1  13  -5   -0.10    0.20
  -1 -13   5   -0.10    0.30
   0  13  -5   33.30    1.70
   0  13  -5   32.90    1.30
   0 -13   5   33.90    1.40
  -1  13  -5    0.00    0.30
  -1  13  -5    0.50    0.60
   1 -13   5    0.00    0.20
  -2  13  -5   20.40    1.10
  -2  13  -5   22.90    1.50
   2 -13   5   19.60    1.10
  -3  13  -5    3.10    0.70
  -3  13  -5    1.20    0.40
   3 -13   5    1.70    0.40
  -4  13  -5   -0.10    0.30
  -4  13  -5    2.20    0.60
   4 -13   5    0.50    0.40
   6  12  -5    3.30    0.50
   5  12  -5    5.40    0.60
   5  12  -5    4.20    0.80
   4  12  -5    8.80    1.00
   4  12  -5    8.20    0.70
  -4 -12   5    8.10    0.70
   3  12  -5    1.80    0.60
   3  12  -5    1.80    0.40
  -3 -12   5    2.10    0.40
   2  12  -5    0.70    0.30
   2  12  -5    0.30    0.50
  -2 -12   5    0.60    0.30
   1  12  -5    1.30    0.60
   1  12  -5    1.50    0.40
  -1 -12   5    2.10    0.40
   0  12  -5    1.70    0.40
   0  12  -5    1.90    0.60
   0 -12   5    1.00    0.30
  -1  12  -5    0.20    0.30
  -1  12  -5    0.80    0.50
   1 -12   5    0.20    0.30
  -2  12  -5   21.70    1.40
  -2  12  -5   20.10    1.00
   2 -12   5   18.50    1.00
  -3  12  -5    4.10    0.50
  -3  12  -5    4.70    0.90
   3 -12   5    4.40    0.60
  -4  12  -5    1.00    0.40
  -4  12  -5    1.30    0.60
   4 -12   5    0.40    0.30
  -5  12  -5    0.90    0.50
   5 -12   5   -0.10    0.20
   6  11  -5    1.40    0.40
   5  11  -5   34.80    1.30
   5  11  -5   32.40    1.50
  -5 -11   5   34.20    1.30
   4  11  -5    5.80    0.60
   4  11  -5    6.20    0.80
  -4 -11   5    5.70    0.60
   3  11  -5   32.90    1.50
   3  11  -5   35.90    1.30
  -3 -11   5   33.50    1.30
   2  11  -5   13.80    1.00
   2  11  -5   12.80    0.80
  -2 -11   5   15.50    0.90
   1  11  -5   14.00    1.00
   1  11  -5   13.30    0.80
  -1 -11   5   12.10    0.80
   0  11  -5    1.40    0.60
   0  11  -5    0.50    0.30
   0 -11   5    1.10    0.30
  -1  11  -5   23.90    1.30
  -1  11  -5   24.40    1.00
   1 -11   5   22.80    1.10
  -2  11  -5   16.80    1.20
  -2  11  -5   18.10    0.90
   2 -11   5   17.00    0.90
  -3  11  -5    0.80    0.50
  -3  11  -5    0.10    0.20
   3 -11   5    0.40    0.30
  -4  11  -5   12.50    0.80
  -4  11  -5   13.80    1.30
   4 -11   5   12.00    0.80
  -5  11  -5    2.70    0.70
   5 -11   5    1.90    0.40
  -6  11  -5   24.90    1.70
   6 -11   5   23.90    1.20
   7 -11   5    4.50    0.90
   6  10  -5    5.20    0.70
   5  10  -5    0.30    0.20
   5  10  -5   -0.40    0.40
  -5 -10   5    0.00    0.20
   4  10  -5    2.00    0.40
   4  10  -5    1.60    0.50
  -4 -10   5    1.60    0.30
   3  10  -5    7.10    0.60
   3  10  -5    7.00    0.80
  -3 -10   5    6.80    0.60
   2  10  -5    4.60    0.70
   2  10  -5    5.00    0.50
  -2 -10   5    4.50    0.50
   1  10  -5    0.30    0.40
   1  10  -5    0.30    0.20
  -1 -10   5    0.30    0.20
   0  10  -5    7.80    0.80
   0  10  -5    5.90    0.50
   0 -10   5    6.60    0.60
  -1  10  -5    0.60    0.30
  -1  10  -5    0.90    0.50
   1 -10   5    1.10    0.30
  -2  10  -5   20.00    0.90
  -2  10  -5   19.60    1.20
   2 -10   5   21.10    1.00
   2 -10   5   21.20    1.00
  -3  10  -5    1.80    0.40
  -3  10  -5    1.80    0.60
   3 -10   5    1.20    0.40
   3 -10   5    1.60    0.30
  -4  10  -5   10.10    0.70
  -4  10  -5   12.00    1.20
   4 -10   5   11.10    0.80
   4 -10   5    9.20    0.70
  -5  10  -5   14.50    0.80
  -5  10  -5   15.00    1.30
   5 -10   5   15.10    0.90
   5 -10   5   14.50    0.90
  -6  10  -5    4.30    0.90
   6 -10   5    2.40    0.60
   6 -10   5    3.30    0.50
  -7  10  -5    5.70    1.00
   7 -10   5    4.80    0.60
   8   9  -5    1.10    0.80
   7   9  -5   11.70    1.50
   6   9  -5    0.60    0.30
   6   9  -5    0.60    0.60
   5   9  -5    0.00    0.30
   5   9  -5    0.10    0.20
  -5  -9   5    0.20    0.20
   4   9  -5    6.90    0.70
   4   9  -5    7.00    0.60
  -4  -9   5    7.00    0.60
  -4  -9   5    8.10    0.70
   3   9  -5    1.10    0.30
   3   9  -5    1.00    0.40
  -3  -9   5    1.40    0.30
  -3  -9   5    1.40    0.30
   2   9  -5   10.20    0.80
   2   9  -5   10.70    0.70
  -2  -9   5   11.00    0.70
  -2  -9   5   11.30    0.70
   1   9  -5    7.20    0.70
   1   9  -5    7.90    0.60
  -1  -9   5    7.80    0.60
  -1  -9   5    7.30    0.60
   0   9  -5   32.60    1.30
   0   9  -5   35.60    1.20
   0  -9   5   35.00    1.20
   0  -9   5   33.70    1.10
  -1   9  -5   38.30    1.50
  -1   9  -5   37.60    1.20
   1  -9   5   39.10    1.20
   1  -9   5   38.80    1.30
  -2   9  -5    1.40    0.30
  -2   9  -5    1.70    0.50
   2  -9   5    1.90    0.40
   2  -9   5    1.40    0.30
  -3   9  -5   45.30    1.30
  -3   9  -5   43.80    1.80
   3  -9   5   43.30    1.30
   3  -9   5   46.30    1.40
  -4   9  -5   13.90    1.20
  -4   9  -5   14.00    0.80
   4  -9   5   15.60    0.80
   4  -9   5   13.90    0.80
  -5   9  -5   61.59    2.40
  -5   9  -5   59.99    1.60
   5  -9   5   57.79    1.80
   5  -9   5   59.99    1.70
  -6   9  -5   41.60    2.10
   6  -9   5   35.00    1.50
   6  -9   5   37.30    1.30
  -7   9  -5    3.50    0.80
   7  -9   5    1.90    0.60
   7  -9   5    3.20    0.50
   8  -9   5    2.90    0.80
   8   8  -5    6.10    1.30
   8   8  -5    5.50    1.30
   7   8  -5    5.70    1.20
   7   8  -5    5.20    1.00
   6   8  -5   39.50    2.00
   6   8  -5   39.70    1.50
  -6  -8   5   37.50    1.40
   5   8  -5    6.00    0.50
   5   8  -5    6.40    0.50
  -5  -8   5    5.40    0.70
  -5  -8   5    6.10    0.50
   4   8  -5   26.30    1.60
   4   8  -5   25.30    1.00
   4   8  -5   26.00    1.00
  -4  -8   5   25.30    1.10
  -4  -8   5   26.30    1.00
   3   8  -5    2.00    0.30
   3   8  -5    2.10    0.50
   3   8  -5    1.80    0.40
  -3  -8   5    1.30    0.30
  -3  -8   5    1.30    0.40
   2   8  -5   15.10    0.70
   2   8  -5   17.00    0.90
  -2  -8   5   17.40    0.80
  -2  -8   5   17.80    0.80
   1   8  -5    1.10    0.30
   1   8  -5    1.30    0.40
  -1  -8   5    1.10    0.30
  -1  -8   5    0.90    0.30
   0   8  -5  102.49    2.40
   0   8  -5   98.79    2.20
   0  -8   5  100.79    2.20
   0  -8   5  105.69    2.30
  -1   8  -5    2.40    0.50
  -1   8  -5    2.00    0.30
   1  -8   5    2.10    0.40
   1  -8   5    2.10    0.30
  -2   8  -5   40.10    1.20
  -2   8  -5   41.40    1.50
   2  -8   5   43.90    1.30
   2  -8   5   42.40    1.30
  -3   8  -5    4.60    0.50
  -3   8  -5    4.80    0.70
   3  -8   5    4.70    0.50
   3  -8   5    4.20    0.50
  -4   8  -5   39.90    1.70
  -4   8  -5   40.40    1.20
   4  -8   5   41.30    1.40
   4  -8   5   40.00    1.30
  -5   8  -5   32.80    1.70
  -5   8  -5   32.90    1.10
   5  -8   5   31.60    1.30
   5  -8   5   33.30    1.20
  -6   8  -5    2.90    0.70
   6  -8   5    2.30    0.60
   6  -8   5    2.20    0.40
  -7   8  -5    3.60    0.90
   7  -8   5    2.80    0.70
   7  -8   5    2.40    0.40
  -8   8  -5    2.20    0.70
   8  -8   5    0.90    0.60
   8   7  -5   -0.10    0.40
  -8  -7   5    2.80    0.70
   7   7  -5   12.20    1.20
  -7  -7   5   13.00    1.40
   6   7  -5    1.40    0.50
   6   7  -5    1.60    0.40
  -6  -7   5    2.30    0.70
  -6  -7   5    2.10    0.40
   5   7  -5   17.90    0.70
   5   7  -5   17.80    0.90
  -5  -7   5   17.00    0.80
  -5  -7   5   17.70    1.00
  -5  -7   5   16.30    1.30
   4   7  -5   19.10    0.80
   4   7  -5   19.90    0.80
  -4  -7   5   18.90    1.20
  -4  -7   5   18.40    0.80
  -4  -7   5   20.00    1.00
   3   7  -5    0.00    0.20
   3   7  -5   -0.20    0.20
  -3  -7   5    0.10    0.20
  -3  -7   5    0.10    0.20
  -3  -7   5    0.00    0.30
   2   7  -5   41.90    1.20
   2   7  -5   41.00    1.30
  -2  -7   5   40.20    1.20
  -2  -7   5   41.70    1.30
   1   7  -5   24.20    1.00
   1   7  -5   24.10    0.90
   1   7  -5   24.40    1.00
  -1  -7   5   25.70    1.00
  -1  -7   5   24.00    0.90
   0   7  -5  132.19    2.70
   0   7  -5  125.99    2.50
   0  -7   5  126.09    2.60
   0  -7   5  128.29    2.60
  -1   7  -5   70.29    1.60
  -1   7  -5   67.89    1.80
   1  -7   5   70.29    1.70
   1  -7   5   73.19    1.70
  -2   7  -5   93.89    2.00
  -2   7  -5   95.79    2.30
   2  -7   5   94.89    2.10
   2  -7   5   94.49    2.10
  -3   7  -5    6.70    0.80
  -3   7  -5    6.50    0.50
   3  -7   5    6.60    0.60
   3  -7   5    6.90    0.50
  -4   7  -5   96.19    2.10
  -4   7  -5   97.99    2.70
   4  -7   5   99.79    2.30
   4  -7   5   98.09    2.20
  -5   7  -5   22.50    1.30
  -5   7  -5   22.90    0.90
   5  -7   5   23.60    1.10
   5  -7   5   23.70    0.90
  -6   7  -5    0.20    0.20
  -6   7  -5    0.10    0.40
   6  -7   5    0.30    0.20
   6  -7   5   -0.30    0.40
  -7   7  -5    5.80    1.00
   7  -7   5    4.80    0.80
   7  -7   5    3.90    0.50
  -8   7  -5    0.50    0.50
   8  -7   5    0.30    0.50
   9  -7   5    6.90    1.10
   8   6  -5    1.30    0.60
  -8  -6   5    1.60    0.80
   7   6  -5   12.40    1.20
  -7  -6   5   10.90    1.30
   6   6  -5   16.50    1.30
   6   6  -5   15.60    0.90
  -6  -6   5   15.30    0.80
  -6  -6   5   14.50    1.40
   5   6  -5  117.29    2.70
   5   6  -5  117.69    2.30
  -5  -6   5  115.99    3.50
  -5  -6   5  113.29    2.40
  -5  -6   5  113.29    2.90
   4   6  -5   15.90    0.70
  -4  -6   5   15.20    1.10
  -4  -6   5   16.00    0.70
  -4  -6   5   14.20    0.90
  -4  -6   5   15.60    0.70
   3   6  -5  303.87    5.00
   3   6  -5  310.17    5.10
  -3  -6   5  299.87    5.20
  -3  -6   5  307.87    5.50
  -3  -6   5  306.07    6.00
   2   6  -5    0.50    0.30
   2   6  -5    0.50    0.20
  -2  -6   5    0.60    0.30
  -2  -6   5    0.30    0.20
  -2  -6   5    0.20    0.20
   1   6  -5  110.69    2.20
   1   6  -5  108.69    2.10
  -1  -6   5  105.69    2.20
  -1  -6   5  104.19    2.20
  -1  -6   5  101.89    2.30
   0   6  -5    3.60    0.50
   0   6  -5    3.60    0.40
   0  -6   5    3.00    0.40
   0  -6   5    3.00    0.40
  -1   6  -5    7.80    0.60
   1  -6   5    8.30    0.50
   1  -6   5    7.70    0.50
  -2   6  -5   21.20    0.80
  -2   6  -5   21.00    1.00
   2  -6   5   21.60    0.80
   2  -6   5   20.20    0.80
  -3   6  -5    0.00    0.20
  -3   6  -5   -0.20    0.30
   3  -6   5    0.20    0.30
   3  -6   5    0.10    0.10
  -4   6  -5   57.29    1.90
  -4   6  -5   57.69    1.40
   4  -6   5   57.89    1.50
   4  -6   5   55.79    1.60
  -5   6  -5    0.80    0.20
  -5   6  -5    0.80    0.40
   5  -6   5    0.80    0.40
   5  -6   5    0.90    0.20
  -6   6  -5   14.50    0.70
  -6   6  -5   15.80    1.20
   6  -6   5   15.60    1.00
   6  -6   5   15.40    0.70
  -7   6  -5   -0.10    0.40
   7  -6   5   -0.20    0.40
   7  -6   5    1.40    0.30
  -8   6  -5    2.10    0.60
   8  -6   5    1.00    0.60
  -9   6  -5    1.00    0.60
   9  -6   5   -0.10    0.60
   8   5  -5   12.40    1.30
  -8  -5   5   12.60    1.60
   7   5  -5    1.00    0.60
  -7  -5   5    0.90    0.60
   6   5  -5    0.30    0.40
   6   5  -5    1.20    0.30
  -6  -5   5    0.80    0.30
  -6  -5   5    1.10    0.60
   5   5  -5   25.90    0.80
   5   5  -5   26.40    1.10
  -5  -5   5   27.40    1.30
  -5  -5   5   28.60    1.70
  -5  -5   5   26.00    1.00
   4   5  -5   97.99    1.90
   4   5  -5  101.79    2.30
  -4  -5   5   96.79    2.00
  -4  -5   5   97.39    3.00
  -4  -5   5   97.19    2.50
   3   5  -5    2.30    0.30
  -3  -5   5    1.20    0.30
  -3  -5   5    1.10    0.20
  -3  -5   5    1.50    0.30
  -3  -5   5    0.90    0.40
   2   5  -5  232.18    3.90
   2   5  -5  235.18    3.90
  -2  -5   5  228.48    4.50
  -2  -5   5  230.88    4.20
  -2  -5   5  222.28    4.00
   1   5  -5   82.49    1.70
   1   5  -5   84.19    1.70
  -1  -5   5   83.39    2.00
  -1  -5   5   81.29    1.80
  -1  -5   5   75.89    1.80
   0   5  -5    4.10    0.40
   0   5  -5    3.50    0.30
   0  -5   5    3.70    0.40
   0  -5   5    3.80    0.30
   0  -5   5    3.50    0.30
  -1   5  -5   66.99    1.50
  -1   5  -5   63.79    1.50
   1  -5   5   66.09    1.50
   1  -5   5   62.19    1.50
  -2   5  -5    2.50    0.40
  -2   5  -5    2.40    0.30
   2  -5   5    2.50    0.30
   2  -5   5    2.70    0.40
  -3   5  -5    9.00    0.50
  -3   5  -5    8.10    0.70
   3  -5   5    9.40    0.60
   3  -5   5    8.80    0.50
  -4   5  -5    0.10    0.10
  -4   5  -5    0.20    0.30
   4  -5   5    0.10    0.10
   4  -5   5    0.20    0.30
  -5   5  -5   -0.10    0.30
  -5   5  -5   -0.30    0.10
   5  -5   5    0.00    0.10
   5  -5   5   -0.20    0.30
  -6   5  -5    2.80    0.60
  -6   5  -5    3.20    0.40
   6  -5   5    3.40    0.40
   6  -5   5    2.70    0.50
  -7   5  -5    1.20    0.50
   7  -5   5    0.80    0.30
   7  -5   5    1.10    0.50
  -8   5  -5    0.20    0.40
   8  -5   5   -0.30    0.40
  -9   5  -5    0.80    0.50
   9  -5   5   -0.80    0.50
   8   4  -5    0.80    0.60
  -8  -4   5    2.10    0.90
   7   4  -5   44.70    2.30
  -7  -4   5   45.10    2.50
   6   4  -5   78.59    2.10
   6   4  -5   79.49    2.90
  -6  -4   5   77.59    3.10
  -6  -4   5   78.19    1.90
   5   4  -5   26.50    1.10
  -5  -4   5   26.90    1.60
  -5  -4   5   24.90    1.20
  -5  -4   5   24.80    0.90
   4   4  -5   62.89    1.70
   4   4  -5   66.19    1.40
  -4  -4   5   64.79    2.40
  -4  -4   5   62.59    1.90
  -4  -4   5   63.09    1.50
   3   4  -5   63.09    1.30
  -3  -4   5   62.39    1.40
  -3  -4   5   60.89    2.10
  -3  -4   5   61.99    1.70
   2   4  -5    0.20    0.10
   2   4  -5    0.60    0.20
  -2  -4   5    0.50    0.30
  -2  -4   5    0.10    0.10
  -2  -4   5    0.20    0.20
   1   4  -5   93.89    1.80
   1   4  -5   94.99    1.80
  -1  -4   5   91.69    2.20
  -1  -4   5   83.79    2.00
  -1  -4   5   89.29    1.80
   0   4  -5   31.90    0.90
   0   4  -5   31.10    0.80
   0  -4   5   29.60    0.90
   0  -4   5   28.80    1.00
   0  -4   5   31.10    0.90
  -1   4  -5    0.10    0.20
  -1   4  -5    0.10    0.10
   1  -4   5   -0.20    0.20
   1  -4   5    0.10    0.10
  -2   4  -5    2.90    0.40
  -2   4  -5    2.30    0.30
   2  -4   5    2.50    0.30
   2  -4   5    3.00    0.40
  -3   4  -5   20.50    0.90
  -3   4  -5   21.80    0.70
   3  -4   5   21.20    0.80
   3  -4   5   22.00    0.70
  -4   4  -5   50.09    1.60
  -4   4  -5   51.29    1.20
   4  -4   5   51.19    1.50
   4  -4   5   51.89    1.20
   4  -4   5   48.80    1.30
  -5   4  -5   32.20    1.40
  -5   4  -5   32.70    1.00
   5  -4   5   33.20    1.20
   5  -4   5   33.30    0.90
   5  -4   5   33.90    1.30
  -6   4  -5    0.50    0.20
  -6   4  -5    0.70    0.40
   6  -4   5    0.70    0.20
   6  -4   5    0.90    0.40
   6  -4   5    0.50    0.40
  -7   4  -5   11.20    1.00
   7  -4   5    9.40    0.90
  -8   4  -5    0.10    0.30
   8  -4   5   -0.90    0.40
  -9   4  -5    0.30    0.40
   9  -4   5   -0.10    0.50
 -10   4  -5    0.60    0.50
  10  -4   5   -0.40    0.80
   8   3  -5   29.20    2.00
  -8  -3   5   31.90    2.30
   7   3  -5    0.00    0.20
   7   3  -5    0.10    0.40
  -7  -3   5   -0.10    0.50
   6   3  -5   17.00    0.90
   6   3  -5   16.50    1.30
  -6  -3   5   17.30    0.80
  -6  -3   5   16.30    1.50
   5   3  -5   61.59    1.70
  -5  -3   5   57.79    1.90
  -5  -3   5   57.69    1.50
  -5  -3   5   60.89    2.50
   4   3  -5   81.49    1.90
   4   3  -5   79.69    1.50
  -4  -3   5   78.09    1.70
  -4  -3   5   79.69    2.20
  -4  -3   5   80.09    2.70
   3   3  -5    5.00    0.30
   3   3  -5    4.50    0.40
  -3  -3   5    5.20    0.50
  -3  -3   5    5.40    0.80
  -3  -3   5    4.60    0.30
   2   3  -5   13.00    0.50
  -2  -3   5   13.10    0.50
  -2  -3   5   13.60    0.60
  -2  -3   5   14.30    0.70
  -2  -3   5   13.30    0.90
   1   3  -5   10.00    0.40
   1   3  -5    9.80    0.40
  -1  -3   5    8.50    0.50
  -1  -3   5    9.50    0.60
  -1  -3   5    9.40    0.50
   0   3  -5   98.09    1.70
   0   3  -5   92.79    1.80
   0  -3   5   92.39    1.80
   0  -3   5   96.29    2.00
   0  -3   5   89.59    2.00
  -1   3  -5  128.49    2.30
  -1   3  -5  128.59    2.30
   1  -3   5  131.39    2.30
   1  -3   5  124.19    2.40
   1  -3   5  125.09    2.30
  -2   3  -5   43.10    1.00
  -2   3  -5   42.90    1.20
   2  -3   5   42.80    0.90
   2  -3   5   43.70    1.10
   2  -3   5   43.30    1.00
  -3   3  -5   51.79    1.40
  -3   3  -5   54.09    1.20
   3  -3   5   52.39    1.20
   3  -3   5   52.59    1.40
   3  -3   5   53.69    1.20
  -4   3  -5   26.10    0.80
  -4   3  -5   26.60    1.10
   4  -3   5   27.00    1.00
   4  -3   5   27.40    0.80
   4  -3   5   26.40    0.90
  -5   3  -5   29.60    0.90
  -5   3  -5   29.50    1.30
   5  -3   5   29.40    0.80
   5  -3   5   29.10    1.20
   5  -3   5   30.40    1.20
  -6   3  -5   31.50    1.40
  -6   3  -5   28.90    0.90
   6  -3   5   31.60    1.30
   6  -3   5   30.00    1.40
   6  -3   5   30.50    0.80
  -7   3  -5   48.80    1.90
  -7   3  -5   51.09    1.30
   7  -3   5   49.50    1.80
   7  -3   5   50.39    2.10
  -8   3  -5   21.00    1.30
   8  -3   5   22.80    1.40
   8  -3   5   18.60    1.40
  -9   3  -5   12.80    1.20
   9  -3   5   10.80    1.20
 -10   3  -5    8.40    1.20
  10  -3   5    5.80    1.00
   8   2  -5    3.00    0.80
  -8  -2   5    4.30    1.20
   7   2  -5    2.00    0.40
   7   2  -5    2.40    0.70
  -7  -2   5    2.90    1.00
   6   2  -5   -0.10    0.20
   6   2  -5   -0.10    0.30
  -6  -2   5   -0.20    0.20
  -6  -2   5    0.00    0.50
   5   2  -5    1.60    0.30
  -5  -2   5    1.80    0.70
  -5  -2   5    1.80    0.30
   4   2  -5   22.30    0.90
   4   2  -5   21.20    0.60
  -4  -2   5   22.50    1.40
  -4  -2   5   21.50    0.70
  -4  -2   5   22.30    1.10
   3   2  -5   39.10    0.90
   3   2  -5   37.80    1.20
  -3  -2   5   36.20    1.60
  -3  -2   5   38.80    0.90
  -3  -2   5   39.80    1.30
   2   2  -5   77.99    1.80
   2   2  -5   76.49    1.50
  -2  -2   5   77.49    2.20
  -2  -2   5   78.09    1.80
  -2  -2   5   76.19    1.40
   1   2  -5   17.50    0.50
  -1  -2   5   17.80    0.90
  -1  -2   5   16.00    0.70
  -1  -2   5   17.20    0.60
   0   2  -5  536.65    8.10
   0  -2   5  512.95    8.30
   0  -2   5  534.15    8.10
   0  -2   5  545.95    8.50
  -1   2  -5  100.59    1.80
  -1   2  -5   93.99    1.80
   1  -2   5   99.69    1.80
   1  -2   5   98.19    2.00
   1  -2   5   98.99    2.00
  -2   2  -5  426.16    6.70
  -2   2  -5  427.26    6.60
   2  -2   5  439.96    6.80
   2  -2   5  420.86    6.70
   2  -2   5  430.76    6.60
  -3   2  -5  145.99    2.90
  -3   2  -5  150.18    2.60
   3  -2   5  151.98    2.50
   3  -2   5  151.88    2.80
   3  -2   5  144.89    2.80
  -4   2  -5   71.19    1.80
  -4   2  -5   71.19    1.50
   4  -2   5   72.29    1.40
   4  -2   5   72.09    1.80
   4  -2   5   69.69    1.80
  -5   2  -5   26.60    1.20
  -5   2  -5   27.70    0.80
   5  -2   5   27.10    1.20
   5  -2   5   28.20    1.10
   5  -2   5   27.00    0.70
  -6   2  -5   51.09    1.80
  -6   2  -5   50.89    1.20
   6  -2   5   47.80    1.90
   6  -2   5   50.29    1.10
   6  -2   5   49.70    1.70
  -7   2  -5   29.40    0.90
  -7   2  -5   30.00    1.40
   7  -2   5   29.30    1.60
   7  -2   5   30.80    1.40
  -8   2  -5    0.40    0.40
   8  -2   5    0.20    0.50
   8  -2   5    0.50    0.40
  -9   2  -5    5.30    0.90
   9  -2   5    3.70    0.90
   9  -2   5    4.40    0.90
 -10   2  -5    1.20    0.60
  10  -2   5    0.50    0.60
   8   1  -5    3.00    0.80
  -8  -1   5    5.00    1.20
   7   1  -5   10.00    1.30
   7   1  -5   11.40    0.80
  -7  -1   5   11.10    1.60
   6   1  -5   80.59    2.10
   6   1  -5   73.69    2.80
  -6  -1   5   79.99    2.00
  -6  -1   5   77.09    3.20
   5   1  -5   58.19    2.30
   5   1  -5   60.89    1.70
  -5  -1   5   58.99    1.60
  -5  -1   5   60.79    2.60
   4   1  -5   35.20    1.20
   4   1  -5   34.90    0.80
  -4  -1   5   32.20    1.70
  -4  -1   5   33.30    1.00
  -4  -1   5   33.30    1.30
   3   1  -5  111.79    1.90
   3   1  -5  111.89    2.40
  -3  -1   5  113.49    3.10
  -3  -1   5  113.29    2.50
  -3  -1   5  111.59    2.10
   2   1  -5   11.70    0.60
   2   1  -5   12.30    0.40
  -2  -1   5   12.20    0.90
  -2  -1   5   11.60    0.40
  -2  -1   5   12.50    0.60
   1   1  -5    0.30    0.10
   1   1  -5    0.40    0.10
  -1  -1   5    0.60    0.20
  -1  -1   5    0.80    0.30
   0   1  -5    4.40    0.30
   0  -1   5    3.60    0.30
   0  -1   5    3.50    0.30
   0  -1   5    4.00    0.40
  -1   1  -5  100.89    1.80
   1  -1   5  101.59    2.00
   1  -1   5  100.19    1.80
   1  -1   5   98.59    2.10
  -2   1  -5  290.27    4.70
  -2   1  -5  291.37    4.70
   2  -1   5  299.97    5.00
   2  -1   5  294.17    4.80
   2  -1   5  297.27    4.60
  -3   1  -5  120.09    2.20
  -3   1  -5  119.29    2.40
   3  -1   5  121.19    2.00
   3  -1   5  120.09    2.30
   3  -1   5  116.69    2.40
  -4   1  -5    3.20    0.30
  -4   1  -5    3.70    0.50
   4  -1   5    2.90    0.20
   4  -1   5    3.30    0.50
   4  -1   5    3.70    0.50
  -5   1  -5   29.80    1.20
  -5   1  -5   29.80    0.90
   5  -1   5   28.80    1.30
   5  -1   5   28.60    0.70
   5  -1   5   29.90    1.20
  -6   1  -5    1.10    0.40
  -6   1  -5    0.60    0.20
   6  -1   5    0.90    0.40
   6  -1   5    0.50    0.10
   6  -1   5    0.80    0.40
  -7   1  -5   59.79    2.00
  -7   1  -5   59.49    1.40
   7  -1   5   60.49    2.00
   7  -1   5   58.29    2.30
  -8   1  -5   12.30    1.00
   8  -1   5   11.00    1.00
   8  -1   5   12.50    1.20
  -9   1  -5    4.20    0.80
   9  -1   5    2.80    0.70
   9  -1   5    4.80    1.10
 -10   1  -5    1.30    0.60
  10  -1   5    1.00    0.70
  10  -1   5    1.30    0.70
   8   0  -5   20.20    1.70
  -8   0   5   18.90    1.90
   7   0  -5   22.70    1.10
   7   0  -5   23.70    1.70
  -7   0   5   22.80    1.90
   6   0  -5   23.40    1.00
   6   0  -5   23.70    1.60
  -6   0   5   22.50    1.00
  -6   0   5   21.80    1.70
   5   0  -5    1.80    0.50
   5   0  -5    1.70    0.30
  -5   0   5    1.30    0.30
  -5   0   5    1.60    0.60
   4   0  -5  166.48    3.20
  -4   0   5  160.78    3.10
  -4   0   5  162.28    4.30
  -4   0   5  156.98    3.40
   3   0  -5  105.29    2.20
   3   0  -5  103.69    1.70
  -3   0   5  102.29    3.00
  -3   0   5  102.69    2.00
  -3   0   5  101.99    2.40
   2   0  -5  396.96    6.00
   2   0  -5  390.46    6.40
  -2   0   5  391.76    6.10
  -2   0   5  403.36    6.60
  -2   0   5  405.96    7.40
   1   0  -5  282.67    4.40
   1   0  -5  289.97    4.70
  -1   0   5  277.17    5.30
  -1   0   5  286.07    4.80
   0   0  -5   10.90    0.50
   0   0  -5   11.90    0.40
   0   0   5   12.00    0.50
   0   0   5   11.70    0.70
  -1   0  -5  152.88    2.70
  -1   0  -5  155.58    2.70
   1   0   5  163.98    2.80
   1   0   5  161.28    3.10
  -2   0  -5  211.28    3.50
  -2   0  -5  214.98    3.60
   2   0   5  218.88    3.50
   2   0   5  222.08    3.60
   2   0   5  220.68    4.00
  -3   0  -5    2.50    0.30
  -3   0  -5    2.20    0.30
   3   0   5    2.80    0.40
   3   0   5    3.50    0.40
   3   0   5    2.50    0.20
  -4   0  -5  324.57    5.10
  -4   0  -5  319.57    5.50
   4   0   5  316.67    4.90
   4   0   5  316.77    5.80
   4   0   5  327.87    5.40
  -5   0  -5    0.00    0.20
  -5   0  -5    0.30    0.10
   5   0   5    0.20    0.10
   5   0   5    0.30    0.30
   5   0   5    0.90    0.40
  -6   0  -5   94.79    1.90
  -6   0  -5   95.89    2.50
   6   0   5   97.29    2.90
   6   0   5   97.19    2.50
  -7   0  -5   46.00    1.20
  -7   0  -5   45.30    1.70
   7   0   5   44.70    2.00
   7   0   5   44.50    1.70
  -8   0  -5    3.40    0.70
   8   0   5    3.20    0.70
   8   0   5    3.10    0.70
  -9   0  -5   18.80    1.30
   9   0   5   16.10    1.30
   9   0   5   17.80    1.60
 -10   0  -5    2.40    0.70
  10   0   5    0.50    0.60
  10   0   5    1.40    0.70
  11   0   5    7.20    1.30
   8  -1  -5   31.30    2.00
  -8   1   5   30.50    2.30
   7  -1  -5   45.90    1.50
   7  -1  -5   43.00    2.30
  -7   1   5   44.40    2.60
   6  -1  -5   27.20    1.10
   6  -1  -5   26.50    1.60
  -6   1   5   26.50    1.20
  -6   1   5   25.00    1.90
   5  -1  -5    3.80    0.50
   5  -1  -5    3.20    0.70
  -5   1   5    3.40    0.90
  -5   1   5    3.50    0.50
   4  -1  -5   64.69    1.70
  -4   1   5   62.39    1.90
  -4   1   5   65.09    1.60
  -4   1   5   66.89    2.60
   3  -1  -5    0.60    0.20
   3  -1  -5    0.50    0.10
  -3   1   5    0.70    0.20
  -3   1   5    0.60    0.30
  -3   1   5    0.60    0.40
   2  -1  -5   28.60    0.60
   2  -1  -5   26.60    0.90
  -2   1   5   27.10    0.70
  -2   1   5   28.60    1.00
  -2   1   5   29.20    1.40
   1  -1  -5   22.00    0.60
   1  -1  -5   21.60    0.70
  -1   1   5   21.60    1.10
  -1   1   5   22.30    0.80
   0  -1  -5    0.00    0.10
   0  -1  -5    0.10    0.10
   0   1   5   -0.20    0.20
   0   1   5    0.10    0.10
  -1  -1  -5   39.60    0.90
  -1  -1  -5   39.10    1.00
   1   1   5   42.30    1.40
   1   1   5   40.60    1.00
  -2  -1  -5  311.07    4.90
  -2  -1  -5  308.67    4.80
  -2  -1  -5  309.07    4.90
   2   1   5  317.37    5.00
   2   1   5  320.17    5.50
  -3  -1  -5  130.69    2.40
  -3  -1  -5  130.79    2.40
  -3  -1  -5  132.49    2.20
   3   1   5  131.19    2.80
   3   1   5  133.49    2.40
  -4  -1  -5   82.69    1.70
  -4  -1  -5   79.39    1.80
  -4  -1  -5   82.79    1.40
   4   1   5   80.09    1.80
   4   1   5   82.19    2.20
  -5  -1  -5    4.90    0.30
  -5  -1  -5    5.80    0.50
   5   1   5    5.40    0.60
   5   1   5    5.30    0.50
  -6  -1  -5    4.30    0.60
  -6  -1  -5    3.20    0.30
   6   1   5    3.80    0.60
   6   1   5    3.90    0.70
  -7  -1  -5   10.80    0.80
  -7  -1  -5   10.70    0.50
   7   1   5   10.20    1.00
   7   1   5   10.90    0.90
  -8  -1  -5    5.30    0.80
  -8  -1  -5    4.20    0.40
   8   1   5    6.10    0.80
   8   1   5    5.80    1.10
  -9  -1  -5    0.50    0.40
   9   1   5    0.40    0.50
   9   1   5    1.00    0.60
 -10  -1  -5    0.20    0.40
  10   1   5   -0.50    0.50
  10   1   5    0.70    0.60
  11   1   5   -1.30    0.70
  11   1   5    0.20    0.50
   8  -2  -5    1.40    0.60
  -8   2   5    2.20    0.90
   7  -2  -5    1.00    0.40
   7  -2  -5    1.10    0.50
  -7   2   5    2.00    0.90
   6  -2  -5    2.10    0.40
   6  -2  -5    2.00    0.60
  -6   2   5    2.30    0.50
  -6   2   5    2.90    0.90
   5  -2  -5    1.80    0.60
   5  -2  -5    1.90    0.40
  -5   2   5    2.70    0.80
  -5   2   5    1.60    0.40
   4  -2  -5    2.80    0.40
   4  -2  -5    2.10    0.50
  -4   2   5    3.60    0.80
  -4   2   5    2.10    0.40
   3  -2  -5    4.50    0.40
  -3   2   5    4.90    0.40
  -3   2   5    4.90    0.50
  -3   2   5    5.10    0.90
   2  -2  -5    0.00    0.10
   2  -2  -5    0.00    0.10
  -2   2   5   -0.20    0.20
  -2   2   5    0.00    0.10
  -2   2   5   -0.10    0.30
   1  -2  -5   45.50    0.90
   1  -2  -5   44.60    1.20
  -1   2   5   44.10    1.60
  -1   2   5   43.70    1.00
  -1   2   5   43.60    1.20
   0  -2  -5   50.89    1.20
   0  -2  -5   52.09    1.10
   0   2   5   52.59    1.20
   0   2   5   51.79    1.70
  -1  -2  -5  851.41   12.80
  -1  -2  -5  833.42   12.70
   1   2   5  862.01   13.60
   1   2   5  840.52   13.00
   1   2   5  884.91   12.80
  -2  -2  -5    2.70    0.20
  -2  -2  -5    2.90    0.20
  -2  -2  -5    3.10    0.20
   2   2   5    5.10    0.70
  -3  -2  -5  166.78    2.90
  -3  -2  -5  168.08    2.70
  -3  -2  -5  164.88    2.90
   3   2   5  165.68    3.50
   3   2   5  167.88    2.90
  -4  -2  -5    4.10    0.30
  -4  -2  -5    3.90    0.40
  -4  -2  -5    3.70    0.20
   4   2   5    4.00    0.60
   4   2   5    4.70    0.40
  -5  -2  -5   63.59    1.40
  -5  -2  -5   63.29    1.70
   5   2   5   63.79    1.70
   5   2   5   63.99    2.10
  -6  -2  -5  192.68    3.40
  -6  -2  -5  194.68    3.90
   6   2   5  193.58    4.60
   6   2   5  194.48    3.90
  -7  -2  -5    0.40    0.20
  -7  -2  -5    0.60    0.30
   7   2   5    0.40    0.40
   7   2   5    0.60    0.40
  -8  -2  -5   23.70    0.80
  -8  -2  -5   26.10    1.30
   8   2   5   25.80    1.70
   8   2   5   25.00    1.30
  -9  -2  -5   16.20    1.10
   9   2   5   15.50    1.20
   9   2   5   14.70    1.50
 -10  -2  -5   15.00    1.20
  10   2   5   14.20    1.30
  10   2   5   15.70    1.60
 -11  -2  -5   -0.30    0.40
  11   2   5   -0.50    0.50
  11   2   5   -1.70    0.60
   8  -3  -5   11.30    1.50
  -8   3   5   10.40    1.80
   7  -3  -5    0.40    0.40
   7  -3  -5    0.40    0.30
  -7   3   5    1.40    0.90
   6  -3  -5   16.50    0.90
   6  -3  -5   16.30    1.30
  -6   3   5   17.70    1.00
  -6   3   5   18.00    1.70
   5  -3  -5    2.50    0.60
   5  -3  -5    2.50    0.40
  -5   3   5    2.00    0.70
  -5   3   5    3.00    0.50
   4  -3  -5   32.60    1.60
   4  -3  -5   35.90    1.20
  -4   3   5   36.30    1.30
  -4   3   5   36.90    1.90
   3  -3  -5   23.70    0.90
  -3   3   5   22.00    1.40
  -3   3   5   22.80    0.90
   2  -3  -5   53.59    1.40
   2  -3  -5   54.09    1.00
  -2   3   5   54.69    1.50
  -2   3   5   53.29    1.30
  -2   3   5   53.49    2.00
   1  -3  -5    7.00    0.40
   1  -3  -5    6.40    0.30
  -1   3   5    6.60    0.40
  -1   3   5    5.90    0.70
  -1   3   5    6.10    0.40
   0  -3  -5   64.69    1.30
   0  -3  -5   66.19    1.50
   0   3   5   65.99    1.30
   0   3   5   63.19    1.40
   0   3   5   64.49    2.00
  -1  -3  -5   97.49    1.90
  -1  -3  -5   99.09    1.80
   1   3   5   98.89    2.60
   1   3   5   95.69    1.70
   1   3   5   96.39    1.80
  -2  -3  -5   34.50    0.80
  -2  -3  -5   33.30    0.90
  -2  -3  -5   35.00    0.80
   2   3   5   35.30    0.80
   2   3   5   35.10    1.40
  -3  -3  -5  534.55    8.20
  -3  -3  -5  535.45    8.20
  -3  -3  -5  542.35    8.00
   3   3   5  530.15    8.10
   3   3   5  534.55    9.10
  -4  -3  -5   46.60    1.20
  -4  -3  -5   46.10    1.10
   4   3   5   45.60    1.20
   4   3   5   46.70    1.70
  -5  -3  -5  663.33   10.10
  -5  -3  -5  657.93   10.40
   5   3   5  661.43   11.30
   5   3   5  662.83   10.40
  -6  -3  -5    1.80    0.40
  -6  -3  -5    1.70    0.30
   6   3   5    2.00    0.60
   6   3   5    2.30    0.50
  -7  -3  -5   24.00    0.80
  -7  -3  -5   23.00    1.10
   7   3   5   21.70    1.50
   7   3   5   22.00    1.20
  -8  -3  -5    2.30    0.50
  -8  -3  -5    2.70    0.30
   8   3   5    2.10    0.60
   8   3   5    2.70    0.80
  -9  -3  -5   16.70    1.10
   9   3   5   16.50    1.60
   9   3   5   14.40    1.20
 -10  -3  -5   46.90    1.90
  10   3   5   40.80    2.60
  10   3   5   42.30    2.00
 -11  -3  -5    1.60    0.70
  11   3   5    1.80    0.90
  11   3   5   -0.40    0.60
   8  -4  -5   -0.30    0.30
  -8   4   5    0.80    0.80
   7  -4  -5    0.70    0.50
   7  -4  -5    1.30    0.40
  -7   4   5    2.80    1.10
   6  -4  -5    4.90    0.60
   6  -4  -5    6.70    1.00
  -6   4   5    6.40    1.40
  -6   4   5    6.30    0.70
   5  -4  -5   11.30    0.80
   5  -4  -5   13.20    1.10
  -5   4   5   12.50    1.40
  -5   4   5   11.40    0.80
   4  -4  -5   51.39    1.50
   4  -4  -5   49.60    1.90
  -4   4   5   53.59    2.40
  -4   4   5   52.69    1.60
   3  -4  -5    1.30    0.30
   3  -4  -5    1.40    0.40
  -3   4   5    1.10    0.50
  -3   4   5    1.20    0.30
   2  -4  -5  160.98    2.50
   2  -4  -5  161.78    3.10
  -2   4   5  155.48    3.00
  -2   4   5  153.78    3.10
  -2   4   5  158.78    4.00
   1  -4  -5    7.00    0.50
   1  -4  -5    7.10    0.30
  -1   4   5    7.20    0.80
  -1   4   5    6.70    0.50
  -1   4   5    7.00    0.40
   0  -4  -5  566.94    8.70
   0  -4  -5  555.44    8.40
   0   4   5  552.34    8.50
   0   4   5  560.34    9.60
   0   4   5  554.24    8.50
  -1  -4  -5   27.50    0.80
  -1  -4  -5   27.90    0.80
   1   4   5   28.40    0.70
   1   4   5   28.50    0.80
   1   4   5   27.10    1.40
  -2  -4  -5  289.87    4.60
  -2  -4  -5  284.77    4.60
  -2  -4  -5  288.87    4.60
   2   4   5  286.57    5.50
   2   4   5  293.17    4.50
  -3  -4  -5   20.60    0.70
  -3  -4  -5   21.70    0.60
  -3  -4  -5   21.50    0.70
   3   4   5   23.60    1.20
   3   4   5   23.10    0.60
  -4  -4  -5   28.70    0.90
  -4  -4  -5   28.40    0.60
  -4  -4  -5   28.20    0.90
   4   4   5   29.10    0.90
   4   4   5   29.00    1.40
  -5  -4  -5  132.69    2.50
  -5  -4  -5  133.89    2.70
   5   4   5  133.09    3.50
   5   4   5  133.69    2.60
  -6  -4  -5    0.40    0.20
  -6  -4  -5    0.90    0.20
   6   4   5    0.50    0.40
   6   4   5    0.80    0.30
  -7  -4  -5  114.19    2.40
  -7  -4  -5  118.79    2.80
   7   4   5  120.59    3.70
   7   4   5  116.79    2.80
  -8  -4  -5   11.90    0.60
  -8  -4  -5   12.80    0.90
   8   4   5   11.30    1.00
   8   4   5   10.60    1.20
  -9  -4  -5   28.70    1.40
   9   4   5   26.20    2.00
   9   4   5   26.90    1.50
 -10  -4  -5    0.50    0.40
  10   4   5    1.90    0.90
  10   4   5   -0.10    0.60
   8  -5  -5    0.50    0.60
  -8   5   5    4.40    1.20
   7  -5  -5    3.50    0.60
   7  -5  -5    3.00    0.80
  -7   5   5    3.40    1.20
   6  -5  -5    0.10    0.30
   6  -5  -5   -0.20    0.30
  -6   5   5    0.50    0.40
  -6   5   5    0.80    0.80
   5  -5  -5   18.40    0.90
   5  -5  -5   17.70    1.20
  -5   5   5   16.40    1.00
  -5   5   5   17.60    1.70
   4  -5  -5    0.40    0.30
   4  -5  -5    0.50    0.20
  -4   5   5    0.50    0.50
  -4   5   5    0.20    0.20
   3  -5  -5    6.40    0.60
   3  -5  -5    6.90    0.60
  -3   5   5    6.90    0.60
  -3   5   5    7.60    1.00
   2  -5  -5    5.20    0.50
   2  -5  -5    5.40    0.50
   2  -5  -5    5.60    0.30
  -2   5   5    6.50    1.00
  -2   5   5    5.40    0.50
   1  -5  -5   12.40    0.60
   1  -5  -5   12.50    0.40
  -1   5   5   11.60    1.00
  -1   5   5   12.00    0.60
  -1   5   5   11.90    0.60
   0  -5  -5   25.90    0.70
   0  -5  -5   26.10    0.90
   0   5   5   24.50    0.80
   0   5   5   24.70    0.70
   0   5   5   26.80    1.40
  -1  -5  -5   23.60    0.70
  -1  -5  -5   25.80    0.80
   1   5   5   22.40    1.30
   1   5   5   24.50    0.70
   1   5   5   24.20    0.80
  -2  -5  -5  234.98    3.80
  -2  -5  -5  234.98    3.90
   2   5   5  228.98    3.70
   2   5   5  233.48    4.80
   2   5   5  227.48    3.80
  -3  -5  -5   21.50    0.70
  -3  -5  -5   22.80    0.70
  -3  -5  -5   21.60    0.60
   3   5   5   21.00    0.60
   3   5   5   22.70    1.30
  -4  -5  -5  124.09    2.10
  -4  -5  -5  127.19    2.50
  -4  -5  -5  125.79    2.40
   4   5   5  125.59    3.30
   4   5   5  124.59    2.30
  -5  -5  -5    0.60    0.20
  -5  -5  -5    0.80    0.30
   5   5   5    1.00    0.40
   5   5   5    0.90    0.30
  -6  -5  -5   35.40    1.20
  -6  -5  -5   36.70    1.10
   6   5   5   36.20    1.80
   6   5   5   37.80    1.30
  -7  -5  -5   10.70    0.80
  -7  -5  -5   10.40    0.60
   7   5   5   10.70    1.10
   7   5   5   10.90    0.80
  -8  -5  -5    1.90    0.50
  -8  -5  -5    1.50    0.30
   8   5   5    2.80    0.80
   8   5   5    1.30    0.50
  -9  -5  -5    5.60    0.80
  -9  -5  -5    5.00    0.50
   9   5   5    5.40    0.80
   9   5   5    4.80    1.10
 -10  -5  -5    1.70    0.60
  10   5   5    1.90    0.90
  10   5   5    0.40    0.60
   8  -6  -5    0.30    0.30
   7  -6  -5    1.00    0.50
   7  -6  -5    0.40    0.30
  -7   6   5    0.50    0.70
   6  -6  -5    1.10    0.40
   6  -6  -5    0.70    0.50
  -6   6   5    1.60    0.50
  -6   6   5    1.30    0.90
   5  -6  -5   27.50    1.20
   5  -6  -5   27.30    1.60
  -5   6   5   28.80    2.10
  -5   6   5   26.70    1.30
   4  -6  -5    1.10    0.40
   4  -6  -5    1.60    0.40
  -4   6   5    1.30    0.40
  -4   6   5    1.50    0.70
   3  -6  -5   34.80    1.50
   3  -6  -5   35.70    1.30
  -3   6   5   36.40    1.90
  -3   6   5   35.10    1.40
   2  -6  -5    0.60    0.10
   2  -6  -5    0.40    0.20
   2  -6  -5    0.70    0.30
  -2   6   5    0.40    0.50
  -2   6   5    0.70    0.30
   1  -6  -5   19.50    0.90
   1  -6  -5   20.30    0.80
   1  -6  -5   20.00    0.60
  -1   6   5   20.20    0.90
  -1   6   5   18.80    1.30
   0  -6  -5    1.90    0.20
   0  -6  -5    1.90    0.30
   0   6   5    1.70    0.70
   0   6   5    1.80    0.20
   0   6   5    2.50    0.40
  -1  -6  -5   48.40    1.10
  -1  -6  -5   48.30    1.20
   1   6   5   47.40    1.00
   1   6   5   47.90    1.30
   1   6   5   46.60    2.00
  -2  -6  -5    0.30    0.10
  -2  -6  -5    0.30    0.10
   2   6   5    0.20    0.10
   2   6   5    0.00    0.20
   2   6   5    0.20    0.60
  -3  -6  -5    6.30    0.30
  -3  -6  -5    6.80    0.50
  -3  -6  -5    6.90    0.40
   3   6   5    6.90    1.00
   3   6   5    6.00    0.30
  -4  -6  -5   48.10    1.00
  -4  -6  -5   47.90    1.20
  -4  -6  -5   49.30    1.30
   4   6   5   52.89    2.10
   4   6   5   49.80    1.10
  -5  -6  -5    2.00    0.30
  -5  -6  -5    2.40    0.40
   5   6   5    2.50    0.30
   5   6   5    2.20    0.60
  -6  -6  -5    7.20    0.50
  -6  -6  -5    9.00    0.70
   6   6   5    7.30    1.00
   6   6   5    7.20    0.60
  -7  -6  -5   16.50    0.70
  -7  -6  -5   15.40    0.90
   7   6   5   16.20    1.40
   7   6   5   17.40    0.90
  -8  -6  -5   10.20    0.60
  -8  -6  -5   10.10    0.80
   8   6   5   10.00    0.90
   8   6   5   10.20    1.30
  -9  -6  -5    3.90    0.70
  -9  -6  -5    3.70    0.40
   9   6   5    1.80    0.80
   9   6   5    1.80    0.60
 -10  -6  -5    2.80    0.60
  10   6   5    3.50    1.00
   7  -7  -5    2.90    0.70
   7  -7  -5    3.20    0.60
   6  -7  -5    0.10    0.30
   6  -7  -5    0.20    0.30
  -6   7   5    0.40    0.60
  -6   7   5    0.50    0.30
   5  -7  -5    0.10    0.20
   5  -7  -5    0.30    0.40
  -5   7   5   -0.10    0.60
  -5   7   5    0.60    0.40
   4  -7  -5   17.50    1.00
   4  -7  -5   17.10    1.10
  -4   7   5   19.80    1.80
  -4   7   5   18.60    1.10
   3  -7  -5    3.40    0.60
   3  -7  -5    2.80    0.50
  -3   7   5    3.00    0.50
  -3   7   5    3.20    0.80
   2  -7  -5    0.00    0.10
   2  -7  -5   -0.10    0.20
   2  -7  -5   -0.10    0.20
  -2   7   5    0.70    0.50
  -2   7   5    0.10    0.30
   1  -7  -5   16.40    0.80
   1  -7  -5   15.00    0.50
   1  -7  -5   14.50    0.70
  -1   7   5   13.90    1.20
  -1   7   5   15.70    0.80
   0  -7  -5    1.00    0.20
   0  -7  -5    0.30    0.10
   0  -7  -5    0.70    0.20
   0   7   5    0.10    0.50
   0   7   5    0.70    0.30
  -1  -7  -5   97.49    2.10
  -1  -7  -5   96.79    1.90
   1   7   5   95.29    2.10
   1   7   5   93.89    3.00
  -2  -7  -5   40.20    1.10
  -2  -7  -5   42.20    1.10
   2   7   5   43.10    2.00
   2   7   5   40.50    1.20
  -3  -7  -5   18.90    0.60
  -3  -7  -5   19.10    0.70
   3   7   5   19.30    1.40
   3   7   5   17.70    0.70
  -4  -7  -5    9.50    0.40
  -4  -7  -5    9.70    0.50
  -4  -7  -5   10.20    0.60
   4   7   5   11.10    1.20
  -5  -7  -5   38.70    1.10
  -5  -7  -5   38.00    1.30
   5   7   5   37.60    1.90
   5   7   5   35.50    1.20
  -6  -7  -5   11.00    0.70
  -6  -7  -5    9.70    0.60
   6   7   5    8.40    0.80
   6   7   5    9.80    1.10
  -7  -7  -5    8.70    0.60
  -7  -7  -5    9.10    0.70
   7   7   5    9.00    1.20
  -8  -7  -5   48.90    1.70
  -8  -7  -5   51.39    1.40
   8   7   5   47.80    2.50
  -9  -7  -5   -0.10    0.20
  -9  -7  -5    0.20    0.40
   9   7   5    0.00    0.60
 -10  -7  -5    3.60    0.70
  10   7   5    2.90    1.00
   6  -8  -5    4.40    0.70
  -6   8   5    5.40    0.90
  -6   8   5    4.70    1.20
   5  -8  -5   -0.20    0.40
   5  -8  -5    0.70    0.40
  -5   8   5    1.30    0.40
  -5   8   5    0.60    0.70
   4  -8  -5    5.60    0.70
   4  -8  -5    6.00    0.80
  -4   8   5    8.60    1.60
  -4   8   5    6.00    0.80
   3  -8  -5    0.30    0.30
   3  -8  -5    0.40    0.30
  -3   8   5    0.50    0.40
  -3   8   5    0.10    0.70
   2  -8  -5   -0.10    0.20
   2  -8  -5    0.00    0.10
  -2   8   5    0.30    0.50
  -2   8   5    0.00    0.30
   1  -8  -5    3.60    0.50
   1  -8  -5    4.30    0.30
  -1   8   5    3.50    0.60
  -1   8   5    3.70    0.80
   0  -8  -5   21.70    0.90
   0  -8  -5   20.40    0.70
   0   8   5   20.10    1.50
   0   8   5   20.90    1.00
  -1  -8  -5   94.29    1.90
  -1  -8  -5   94.29    2.10
   1   8   5   91.29    2.20
   1   8   5   87.89    3.00
  -2  -8  -5   82.19    1.80
  -2  -8  -5   83.69    1.80
   2   8   5   79.89    2.80
   2   8   5   81.09    2.00
  -3  -8  -5  392.56    6.50
  -3  -8  -5  397.66    6.40
   3   8   5  392.06    6.60
   3   8   5  407.06    7.80
  -4  -8  -5    3.60    0.30
  -4  -8  -5    3.60    0.40
  -4  -8  -5    3.80    0.50
   4   8   5    3.70    0.90
  -5  -8  -5  246.98    4.40
  -5  -8  -5  249.08    4.60
   5   8   5  250.17    5.80
  -6  -8  -5    2.90    0.40
  -6  -8  -5    4.60    0.60
   6   8   5    5.40    1.10
  -7  -8  -5   51.79    1.70
  -7  -8  -5   50.09    1.50
   7   8   5   52.59    2.50
  -8  -8  -5   22.40    0.90
  -8  -8  -5   21.90    1.20
   8   8   5   24.20    1.90
  -9  -8  -5    2.00    0.50
  -9  -8  -5    2.50    0.40
   9   8   5    1.40    0.90
 -10  -8  -5   29.70    1.50
  10   8   5   27.30    2.30
   6  -9  -5    0.00    0.30
   5  -9  -5    1.80    0.50
  -5   9   5    2.40    0.90
  -5   9   5    2.80    0.60
   4  -9  -5   15.90    1.00
  -4   9   5   14.60    1.10
  -4   9   5   14.70    1.80
   3  -9  -5    5.10    0.60
  -3   9   5    6.40    1.30
  -3   9   5    5.60    0.80
   2  -9  -5   98.29    2.50
  -2   9   5   98.99    3.40
  -2   9   5   94.09    2.60
   1  -9  -5    6.40    0.60
   1  -9  -5    6.20    0.40
  -1   9   5    5.90    0.70
  -1   9   5    7.20    1.10
   0  -9  -5  126.89    2.50
   0  -9  -5  129.39    2.80
   0   9   5  123.79    3.70
   0   9   5  127.49    2.90
  -1  -9  -5   22.90    0.80
  -1  -9  -5   22.90    0.90
   1   9   5   21.40    1.60
   1   9   5   22.90    1.10
  -2  -9  -5    5.30    0.40
  -2  -9  -5    5.10    0.40
   2   9   5    4.30    0.60
   2   9   5    4.80    1.00
  -3  -9  -5    0.00    0.10
  -3  -9  -5    0.00    0.10
   3   9   5    0.10    0.70
   3   9   5    0.10    0.30
  -4  -9  -5   18.90    0.70
  -4  -9  -5   19.10    0.80
   4   9   5   18.20    0.90
   4   9   5   18.50    1.60
  -5  -9  -5   28.50    1.10
  -5  -9  -5   27.80    1.00
   5   9   5   27.90    1.90
  -6  -9  -5    0.30    0.20
  -6  -9  -5    0.20    0.30
   6   9   5   -0.20    0.70
  -7  -9  -5   47.40    1.70
  -7  -9  -5   45.80    1.40
   7   9   5   48.60    2.50
  -8  -9  -5    0.30    0.40
  -8  -9  -5    0.00    0.20
   8   9   5   -0.40    0.70
  -9  -9  -5    2.30    0.60
  -9  -9  -5    1.70    0.40
   9   9   5    1.60    1.00
   5 -10  -5    0.80    0.40
  -5  10   5    2.40    0.50
   4 -10  -5   12.70    0.90
  -4  10   5   13.00    1.10
  -4  10   5   19.20    1.70
   3 -10  -5   10.90    0.80
  -3  10   5   13.90    1.60
  -3  10   5   11.90    1.10
   2 -10  -5    4.00    0.60
  -2  10   5    5.60    1.10
  -2  10   5    3.90    0.70
   1 -10  -5   42.00    1.10
   1 -10  -5   43.30    1.50
  -1  10   5   44.80    2.20
  -1  10   5   40.10    1.60
   0 -10  -5   65.79    1.60
   0 -10  -5   68.59    1.90
   0  10   5   66.79    2.60
   0  10   5   65.59    2.00
  -1 -10  -5    9.90    0.70
  -1 -10  -5   10.10    0.60
   1  10   5   10.90    1.40
   1  10   5    8.90    0.80
  -2 -10  -5  115.29    2.40
  -2 -10  -5  119.59    2.50
   2  10   5  117.99    3.70
   2  10   5  116.99    2.80
  -3 -10  -5   21.20    0.90
  -3 -10  -5   20.40    0.80
   3  10   5   19.40    1.70
   3  10   5   19.50    1.00
  -4 -10  -5   23.10    0.90
  -4 -10  -5   21.80    0.80
   4  10   5   20.70    1.00
   4  10   5   20.90    1.70
  -5 -10  -5   24.00    1.00
   5  10   5   23.80    1.10
   5  10   5   25.60    2.00
  -6 -10  -5    2.60    0.50
  -6 -10  -5    3.50    0.50
   6  10   5    2.20    1.00
  -7 -10  -5   20.40    0.90
  -7 -10  -5   20.50    1.20
   7  10   5   18.00    1.90
  -8 -10  -5    1.50    0.50
  -8 -10  -5    1.40    0.40
   8  10   5   -0.50    0.80
  -9 -10  -5    0.70    0.30
  -9 -10  -5    0.40    0.40
   9  10   5   -0.90    0.80
  -5  11   5   17.30    1.20
   4 -11  -5   -0.20    0.30
  -4  11   5    2.20    0.50
   3 -11  -5   22.10    1.20
  -3  11   5   20.50    1.40
  -3  11   5   27.00    2.00
   2 -11  -5    2.00    0.50
  -2  11   5    4.00    1.00
  -2  11   5    2.10    0.60
   1 -11  -5    1.30    0.40
   1 -11  -5    0.90    0.20
  -1  11   5    2.40    0.70
  -1  11   5    0.80    0.50
   0 -11  -5    3.10    0.50
   0 -11  -5    2.40    0.30
   0  11   5    3.30    0.70
   0  11   5    4.70    0.90
  -1 -11  -5    1.90    0.30
  -1 -11  -5    1.80    0.40
   1  11   5    2.30    0.60
   1  11   5    3.00    0.90
  -2 -11  -5    5.70    0.50
  -2 -11  -5    6.80    0.50
   2  11   5    8.70    1.40
   2  11   5    6.50    0.80
  -3 -11  -5    4.60    0.50
  -3 -11  -5    4.90    0.40
   3  11   5    5.00    1.20
   3  11   5    4.80    0.70
  -4 -11  -5    1.40    0.30
   4  11   5    1.60    0.50
   4  11   5    1.40    1.00
  -5 -11  -5    3.60    0.50
   5  11   5    5.20    1.30
   5  11   5    5.30    0.70
  -6 -11  -5    1.40    0.30
   6  11   5   -0.40    1.00
   6  11   5    1.50    0.40
  -7 -11  -5   31.70    1.40
  -7 -11  -5   32.40    1.20
   7  11   5   26.80    2.40
  -8 -11  -5    2.00    0.60
  -8 -11  -5    1.30    0.30
   8  11   5    0.00    1.00
  -9 -11  -5   15.60    0.90
  -4  12   5   11.00    1.00
   3 -12  -5   16.10    1.10
  -3  12   5   17.50    1.30
   2 -12  -5    6.00    0.80
  -2  12   5    6.30    0.90
   1 -12  -5    0.40    0.30
  -1  12   5    1.30    0.60
  -1  12   5    1.90    0.80
   0 -12  -5    0.10    0.20
   0 -12  -5   -0.10    0.20
   0  12   5    0.90    0.60
   0  12   5    0.70    0.50
  -1 -12  -5    1.00    0.30
  -1 -12  -5    0.70    0.30
   1  12   5    2.00    0.60
   1  12   5    1.30    0.80
  -2 -12  -5    0.30    0.20
  -2 -12  -5    0.20    0.20
   2  12   5   -0.40    0.40
   2  12   5    0.20    0.70
  -3 -12  -5    8.80    0.60
  -3 -12  -5    9.60    0.60
   3  12   5    9.40    1.50
   3  12   5    8.50    1.00
  -4 -12  -5   12.60    0.80
   4  12   5   11.40    1.00
   4  12   5   12.50    1.70
  -5 -12  -5   17.10    0.90
   5  12   5   16.50    1.90
   5  12   5   18.10    1.20
  -6 -12  -5    0.20    0.20
   6  12   5   -0.90    1.10
   6  12   5    0.30    0.40
  -7 -12  -5   17.80    1.00
   7  12   5   16.30    2.20
   7  12   5   19.90    1.20
  -8 -12  -5   -0.10    0.20
   2 -13  -5    0.70    0.30
  -2  13   5    1.70    0.60
   1 -13  -5    0.20    0.30
  -1  13   5    0.70    0.50
   0 -13  -5    3.00    0.50
   0 -13  -5    1.80    0.30
   0  13   5    3.10    0.70
  -1 -13  -5   24.00    1.00
  -1 -13  -5   25.10    1.20
   1  13   5   26.40    1.80
   1  13   5   25.50    1.50
  -2 -13  -5   24.50    1.00
  -2 -13  -5   24.00    1.10
   2  13   5   25.40    2.00
   2  13   5   23.30    1.40
  -3 -13  -5   23.00    1.00
  -3 -13  -5   25.80    1.10
   3  13   5   25.40    2.10
   3  13   5   23.70    1.40
  -4 -13  -5    8.80    0.70
   4  13   5    9.10    1.60
   4  13   5    7.70    1.00
  -5 -13  -5   22.80    1.00
   5  13   5   23.00    1.40
   5  13   5   21.10    2.20
  -6 -13  -5   22.50    1.10
   6  13   5   20.30    2.30
   6  13   5   22.50    1.40
  -7 -13  -5    1.90    0.40
   7  13   5   -2.30    1.10
   7  13   5    2.50    0.70
  -2  14   5    3.30    0.90
   1 -14  -5    1.50    0.50
  -1  14   5    2.30    0.70
   0 -14  -5    2.80    0.40
   0 -14  -5    2.20    0.50
   0  14   5    2.80    0.80
  -1 -14  -5    0.70    0.30
  -1 -14  -5    0.80    0.30
   1  14   5    1.20    0.70
  -2 -14  -5    0.10    0.20
  -2 -14  -5    0.10    0.20
   2  14   5   -0.60    0.50
  -3 -14  -5   13.40    0.80
   3  14   5   10.30    1.20
   3  14   5   15.80    1.80
  -4 -14  -5   -0.10    0.20
   4  14   5   -0.40    0.50
   4  14   5   -0.40    0.90
  -5 -14  -5   29.90    1.20
   5  14   5   25.50    1.60
   5  14   5   31.20    2.50
   6  14   5   10.50    1.80
  -1 -15  -5    0.00    0.20
  -1 -15  -5    0.40    0.30
   1  15   5    0.20    0.60
  -2 -15  -5    4.10    0.60
  -2 -15  -5    4.20    0.60
   2  15   5    3.90    0.90
  -3 -15  -5    2.10    0.40
   3  15   5    1.80    0.80
   2  14  -6    0.70    0.60
   1  14  -6    5.30    0.90
   0  14  -6    2.50    0.70
  -1  14  -6    5.70    0.90
  -2  14  -6    1.90    0.70
  -4 -13   6    5.00    0.60
   3  13  -6    2.90    0.50
  -3 -13   6    2.80    0.50
   2  13  -6    1.80    0.70
   2  13  -6    1.10    0.40
  -2 -13   6    2.10    0.50
   1  13  -6    4.70    0.80
   1  13  -6    3.80    0.60
  -1 -13   6    3.80    0.60
   0  13  -6    1.00    0.40
   0  13  -6    1.60    0.60
   0 -13   6    1.20    0.40
  -1  13  -6    3.80    0.60
  -1  13  -6    4.00    0.80
   1 -13   6    2.30    0.40
  -2  13  -6    2.60    0.70
  -2  13  -6    1.60    0.40
   2 -13   6    2.30    0.50
  -3  13  -6    0.00    0.30
  -3  13  -6    1.30    0.50
   3 -13   6    0.30    0.30
  -4  13  -6    3.20    0.50
   5  12  -6    2.10    0.50
   4  12  -6    4.30    0.60
  -4 -12   6    4.60    0.60
   3  12  -6    2.50    0.50
   3  12  -6    1.90    0.60
  -3 -12   6    2.90    0.50
   2  12  -6    6.40    0.70
   2  12  -6    5.20    0.80
  -2 -12   6    6.20    0.70
   1  12  -6   -0.20    0.50
   1  12  -6    1.10    0.30
  -1 -12   6    0.70    0.30
   0  12  -6   -0.10    0.50
   0  12  -6    0.40    0.30
   0 -12   6    0.70    0.30
  -1  12  -6    2.00    0.70
  -1  12  -6    1.70    0.40
   1 -12   6    1.60    0.40
  -2  12  -6    4.70    0.80
  -2  12  -6    4.50    0.60
   2 -12   6    3.80    0.60
  -3  12  -6    4.00    0.80
  -3  12  -6    3.10    0.50
   3 -12   6    3.30    0.50
  -4  12  -6    1.60    0.50
  -4  12  -6    1.00    0.40
   4 -12   6    0.60    0.30
  -5  12  -6    1.90    0.60
   5 -12   6    0.60    0.30
   5  11  -6    1.70    0.40
  -5 -11   6    1.90    0.40
   4  11  -6   -0.10    0.30
  -4 -11   6   -0.30    0.20
   3  11  -6   13.20    0.80
   3  11  -6   12.90    1.00
  -3 -11   6   12.50    0.80
   2  11  -6    4.90    0.70
   2  11  -6    4.00    0.50
  -2 -11   6    4.60    0.60
   1  11  -6   49.10    1.80
   1  11  -6   48.70    1.60
  -1 -11   6   49.80    1.60
   0  11  -6    4.40    0.60
   0  11  -6    3.90    0.70
   0 -11   6    4.00    0.50
  -1  11  -6   25.30    1.40
  -1  11  -6   26.40    1.10
   1 -11   6   27.00    1.20
  -2  11  -6    4.70    0.80
  -2  11  -6    3.00    0.50
   2 -11   6    3.60    0.50
  -3  11  -6    2.20    0.40
  -3  11  -6    4.10    0.80
   3 -11   6    3.10    0.50
  -4  11  -6    7.70    1.10
  -4  11  -6    6.00    0.60
   4 -11   6    6.80    0.70
  -5  11  -6    7.80    1.20
  -5  11  -6    6.00    0.60
   5 -11   6    7.90    0.70
  -6  11  -6    3.40    0.80
   6 -11   6    1.30    0.40
   5  10  -6    1.00    0.30
  -5 -10   6    0.70    0.30
   4  10  -6   12.20    1.60
   4  10  -6   14.20    0.80
  -4 -10   6   14.20    0.80
   3  10  -6    0.70    0.30
   3  10  -6    0.40    0.40
  -3 -10   6    0.50    0.30
   2  10  -6   11.70    0.80
   2  10  -6   12.10    0.90
  -2 -10   6   11.90    0.80
   1  10  -6    3.40    0.50
   1  10  -6    3.90    0.60
  -1 -10   6    3.50    0.50
   0  10  -6   19.20    0.90
   0  10  -6   18.00    1.10
   0 -10   6   18.90    1.20
   0 -10   6   16.10    0.90
  -1  10  -6   39.00    1.60
  -1  10  -6   39.20    1.30
   1 -10   6   41.10    1.40
   1 -10   6   40.70    1.40
  -2  10  -6    3.10    0.70
  -2  10  -6    2.70    0.40
   2 -10   6    2.90    0.40
   2 -10   6    2.60    0.40
  -3  10  -6    0.50    0.30
  -3  10  -6    1.20    0.50
   3 -10   6    1.50    0.40
   3 -10   6    0.70    0.30
  -4  10  -6    3.80    0.80
  -4  10  -6    3.00    0.50
   4 -10   6    2.70    0.50
   4 -10   6    3.00    0.50
  -5  10  -6    2.10    0.70
  -5  10  -6    1.10    0.30
   5 -10   6    1.10    0.30
   5 -10   6    1.50    0.50
  -6  10  -6    3.20    0.70
   6 -10   6    3.10    0.50
   6 -10   6    2.80    0.60
  -7  10  -6    0.80    0.50
   7 -10   6    0.30    0.20
   7 -10   6   -0.10    0.50
   5   9  -6    2.10    0.40
  -5  -9   6    1.10    0.50
   4   9  -6   28.10    1.10
   4   9  -6   27.30    1.20
  -4  -9   6   27.10    1.30
  -4  -9   6   26.70    1.10
   3   9  -6    7.70    0.70
   3   9  -6    7.30    0.60
  -3  -9   6    7.90    0.60
  -3  -9   6    7.30    0.70
   2   9  -6   13.60    0.70
   2   9  -6   13.80    0.90
  -2  -9   6   13.80    0.80
  -2  -9   6   12.70    0.70
   1   9  -6    0.60    0.30
   1   9  -6    0.90    0.40
  -1  -9   6    0.30    0.20
  -1  -9   6    0.60    0.30
   0   9  -6   25.70    1.20
   0   9  -6   25.70    1.00
   0  -9   6   26.00    1.00
   0  -9   6   27.50    1.10
  -1   9  -6   33.20    1.40
  -1   9  -6   32.30    1.20
   1  -9   6   34.30    1.20
   1  -9   6   31.60    1.20
  -2   9  -6    0.70    0.30
  -2   9  -6   -0.10    0.40
   2  -9   6   -0.10    0.20
   2  -9   6    0.10    0.20
  -3   9  -6   16.40    0.80
  -3   9  -6   17.80    1.20
   3  -9   6   17.90    0.90
   3  -9   6   17.70    0.90
  -4   9  -6    2.80    0.70
  -4   9  -6    3.20    0.40
   4  -9   6    3.30    0.50
   4  -9   6    3.10    0.50
  -5   9  -6   31.10    1.70
  -5   9  -6   33.50    1.20
   5  -9   6   34.60    1.40
   5  -9   6   32.60    1.20
  -6   9  -6   19.40    1.50
   6  -9   6   21.80    1.00
   6  -9   6   18.60    1.10
  -7   9  -6    2.70    0.70
   7  -9   6    1.20    0.60
   7  -9   6    2.60    0.40
   8  -9   6    2.00    0.70
   7   8  -6    4.70    1.00
  -7  -8   6    8.90    1.20
   6   8  -6    0.10    0.20
   6   8  -6    0.60    0.40
  -6  -8   6    0.60    0.60
   5   8  -6   11.50    0.70
   5   8  -6   11.00    0.80
  -5  -8   6   10.50    0.90
   4   8  -6   16.80    0.80
   4   8  -6   16.90    0.90
  -4  -8   6   16.90    0.80
  -4  -8   6   16.30    1.00
   3   8  -6    1.30    0.30
   3   8  -6    1.80    0.40
  -3  -8   6    1.50    0.30
  -3  -8   6    1.30    0.40
   2   8  -6    0.20    0.30
  -2  -8   6    0.50    0.20
  -2  -8   6    0.30    0.30
   1   8  -6   20.90    0.90
   1   8  -6   21.10    1.00
  -1  -8   6   19.90    0.90
  -1  -8   6   20.70    1.00
   0   8  -6    3.70    0.60
   0   8  -6    2.30    0.40
   0  -8   6    3.20    0.50
   0  -8   6    2.60    0.40
  -1   8  -6   18.90    0.80
  -1   8  -6   18.30    1.00
   1  -8   6   18.00    0.80
   1  -8   6   20.10    0.90
  -2   8  -6    7.40    0.60
  -2   8  -6    8.80    0.80
   2  -8   6    8.20    0.60
   2  -8   6    8.70    0.60
  -3   8  -6   25.00    1.30
  -3   8  -6   25.80    1.00
   3  -8   6   27.90    1.10
   3  -8   6   24.10    1.00
  -4   8  -6   35.00    1.60
  -4   8  -6   35.50    1.20
   4  -8   6   35.40    1.30
   4  -8   6   34.50    1.20
  -5   8  -6    1.80    0.40
  -5   8  -6    1.90    0.60
   5  -8   6    1.10    0.40
   5  -8   6    2.00    0.40
  -6   8  -6    1.80    0.60
  -6   8  -6    0.90    0.30
   6  -8   6    0.80    0.50
   6  -8   6    1.20    0.30
  -7   8  -6    2.50    0.70
   7  -8   6    2.00    0.60
   7  -8   6    2.40    0.40
  -8   8  -6    0.70    0.50
   8  -8   6   -0.80    0.50
   7   7  -6    0.20    0.50
  -7  -7   6    2.50    0.60
   6   7  -6    0.60    0.50
   6   7  -6    1.10    0.30
  -6  -7   6    0.80    0.60
   5   7  -6    0.30    0.20
   5   7  -6    0.70    0.30
  -5  -7   6    0.10    0.40
  -5  -7   6    0.40    0.50
   4   7  -6    1.00    0.30
   4   7  -6    1.10    0.30
  -4  -7   6    0.70    0.40
  -4  -7   6    0.90    0.30
  -4  -7   6    0.40    0.40
   3   7  -6   36.80    1.20
   3   7  -6   38.30    1.10
  -3  -7   6   36.70    1.60
  -3  -7   6   35.80    1.40
  -3  -7   6   37.90    1.20
   2   7  -6    0.70    0.20
   2   7  -6    1.00    0.30
  -2  -7   6    0.50    0.30
  -2  -7   6    0.50    0.20
   1   7  -6   52.59    1.50
   1   7  -6   51.39    1.40
  -1  -7   6   51.69    1.40
  -1  -7   6   51.99    1.50
   0   7  -6   79.09    1.80
   0   7  -6   79.69    1.90
   0  -7   6   77.49    1.90
   0  -7   6   78.89    2.00
  -1   7  -6    5.70    0.60
  -1   7  -6    4.40    0.50
   1  -7   6    5.00    0.50
   1  -7   6    5.50    0.50
  -2   7  -6  105.09    2.50
  -2   7  -6  102.49    2.20
   2  -7   6  100.09    2.30
   2  -7   6  107.19    2.30
  -3   7  -6    1.10    0.40
  -3   7  -6    0.70    0.30
   3  -7   6    1.30    0.30
   3  -7   6    0.60    0.30
  -4   7  -6   49.99    1.40
  -4   7  -6   49.80    1.80
   4  -7   6   49.80    1.50
   4  -7   6   50.29    1.40
  -5   7  -6   54.89    1.50
  -5   7  -6   53.39    2.10
   5  -7   6   55.39    1.50
   5  -7   6   53.69    1.70
  -6   7  -6    0.40    0.30
  -6   7  -6    1.00    0.50
   6  -7   6    1.10    0.30
   6  -7   6    1.00    0.40
  -7   7  -6   19.90    1.40
   7  -7   6   21.60    0.90
   7  -7   6   18.60    1.20
  -8   7  -6    3.60    0.80
   8  -7   6    1.90    0.60
  -8  -6   6   15.80    1.30
   7   6  -6    4.80    1.00
  -7  -6   6    6.40    1.30
   6   6  -6    3.90    0.90
   6   6  -6    4.40    0.60
  -6  -6   6    5.00    1.10
   5   6  -6    3.40    0.60
   5   6  -6    4.00    0.50
  -5  -6   6    3.70    0.90
  -5  -6   6    3.00    0.60
   4   6  -6    5.00    0.60
   4   6  -6    4.10    0.40
   4   6  -6    5.10    0.40
  -4  -6   6    4.90    0.90
  -4  -6   6    3.90    0.60
   3   6  -6   16.20    0.70
   3   6  -6   14.50    0.70
  -3  -6   6   14.20    1.00
  -3  -6   6   15.00    0.70
  -3  -6   6   14.30    0.90
   2   6  -6   25.00    0.90
   2   6  -6   24.20    0.90
  -2  -6   6   25.10    0.90
  -2  -6   6   23.70    1.00
  -2  -6   6   26.40    1.20
   1   6  -6  138.99    2.70
   1   6  -6  138.19    2.70
  -1  -6   6  140.79    2.90
  -1  -6   6  138.79    2.80
  -1  -6   6  135.89    2.80
   0   6  -6    0.00    0.20
   0   6  -6    0.60    0.30
   0  -6   6    0.30    0.20
   0  -6   6    0.30    0.30
  -1   6  -6   97.49    2.10
  -1   6  -6   97.49    2.20
   1  -6   6  101.49    2.10
   1  -6   6   97.79    2.20
  -2   6  -6    1.60    0.30
  -2   6  -6    1.30    0.40
   2  -6   6    2.30    0.30
   2  -6   6    1.90    0.40
  -3   6  -6  232.08    4.60
  -3   6  -6  235.38    4.10
   3  -6   6  230.58    4.30
   3  -6   6  246.08    4.20
  -4   6  -6  140.29    3.40
  -4   6  -6  148.89    2.80
   4  -6   6  140.49    3.00
   4  -6   6  144.99    2.80
  -5   6  -6   25.10    0.90
  -5   6  -6   25.80    1.40
   5  -6   6   26.90    1.00
   5  -6   6   27.50    1.20
  -6   6  -6   11.80    1.00
  -6   6  -6   11.70    0.60
   6  -6   6   11.70    0.90
   6  -6   6   11.00    0.60
  -7   6  -6   11.40    1.10
   7  -6   6   10.00    0.90
  -8   6  -6   15.60    1.30
   8  -6   6   16.80    1.20
  -9   6  -6    4.90    0.90
   9  -6   6    3.80    0.90
   8   5  -6   13.80    1.40
  -8  -5   6   20.20    1.70
   7   5  -6    0.40    0.50
  -7  -5   6   -0.80    0.50
   6   5  -6   22.40    1.60
   6   5  -6   24.20    1.10
  -6  -5   6   20.90    1.70
   5   5  -6    7.30    0.60
  -5  -5   6    8.10    1.20
  -5  -5   6    5.70    0.80
   4   5  -6    6.70    0.60
   4   5  -6    5.80    0.40
  -4  -5   6    6.60    0.80
  -4  -5   6    5.70    0.70
  -4  -5   6    6.40    0.50
   3   5  -6   21.00    0.70
   3   5  -6   21.30    0.70
  -3  -5   6   19.70    1.20
  -3  -5   6   19.20    1.00
  -3  -5   6   20.10    0.80
   2   5  -6    6.10    0.40
   2   5  -6    6.10    0.40
  -2  -5   6    5.80    0.50
  -2  -5   6    5.40    0.60
  -2  -5   6    5.60    0.50
   1   5  -6   89.09    1.90
   1   5  -6   89.59    1.80
  -1  -5   6   91.49    2.10
  -1  -5   6   91.69    2.00
  -1  -5   6   87.39    2.20
   0   5  -6    0.10    0.10
   0   5  -6    0.50    0.30
   0  -5   6    0.10    0.10
   0  -5   6    0.00    0.10
   0  -5   6    0.40    0.20
  -1   5  -6   29.30    1.00
  -1   5  -6   29.60    0.90
   1  -5   6   28.10    1.00
   1  -5   6   29.10    0.90
  -2   5  -6   18.40    0.90
  -2   5  -6   17.80    0.70
   2  -5   6   19.70    0.70
   2  -5   6   18.10    0.80
  -3   5  -6   94.39    2.30
  -3   5  -6   93.39    2.00
   3  -5   6   91.79    2.10
   3  -5   6   93.89    2.00
  -4   5  -6   20.60    1.10
  -4   5  -6   19.80    0.80
   4  -5   6   21.00    0.80
   4  -5   6   21.30    1.00
  -5   5  -6    3.80    0.60
  -5   5  -6    3.90    0.40
   5  -5   6    3.60    0.30
   5  -5   6    3.30    0.50
  -6   5  -6    3.00    0.40
  -6   5  -6    3.30    0.70
   6  -5   6    3.80    0.40
   6  -5   6    5.40    0.70
  -7   5  -6   16.40    0.70
  -7   5  -6   17.10    1.20
   7  -5   6   16.20    1.10
  -8   5  -6    5.00    0.90
   8  -5   6    3.60    0.80
  -9   5  -6    0.50    0.40
   9  -5   6   -0.70    0.50
   8   4  -6    4.80    1.00
  -8  -4   6    9.70    1.20
   7   4  -6   -0.10    0.50
  -7  -4   6    0.80    0.70
   6   4  -6   76.99    2.10
   6   4  -6   71.09    2.90
  -6  -4   6   79.99    3.20
   5   4  -6    0.20    0.20
  -5  -4   6    0.00    0.40
  -5  -4   6    0.10    0.30
   4   4  -6  161.08    2.80
   4   4  -6  161.88    3.30
  -4  -4   6  159.38    2.90
  -4  -4   6  158.38    4.20
  -4  -4   6  158.88    3.50
   3   4  -6    1.10    0.20
   3   4  -6    0.90    0.30
  -3  -4   6    1.60    0.50
  -3  -4   6    1.40    0.20
  -3  -4   6    0.80    0.30
   2   4  -6   95.39    1.80
   2   4  -6   95.29    1.90
  -2  -4   6   91.09    2.00
  -2  -4   6   90.69    2.60
  -2  -4   6   94.69    2.20
   1   4  -6   27.60    0.80
   1   4  -6   26.10    0.80
  -1  -4   6   26.50    0.90
  -1  -4   6   27.20    1.00
  -1  -4   6   27.40    1.10
   0   4  -6   63.39    1.40
   0   4  -6   64.49    1.40
   0  -4   6   68.69    1.50
   0  -4   6   62.39    1.60
   0  -4   6   60.59    1.60
  -1   4  -6   75.79    1.60
  -1   4  -6   75.39    1.60
   1  -4   6   77.99    1.70
   1  -4   6   75.09    1.50
   1  -4   6   74.29    1.80
  -2   4  -6   37.50    1.10
  -2   4  -6   37.10    1.00
   2  -4   6   38.80    1.00
   2  -4   6   38.40    1.10
  -3   4  -6  104.49    2.10
  -3   4  -6  105.59    2.40
   3  -4   6  102.09    2.20
   3  -4   6  107.79    2.10
  -4   4  -6    3.90    0.50
  -4   4  -6    3.20    0.40
   4  -4   6    4.10    0.50
   4  -4   6    3.60    0.30
  -5   4  -6   38.20    1.10
  -5   4  -6   36.50    1.50
   5  -4   6   36.50    1.30
   5  -4   6   39.30    1.10
  -6   4  -6    0.80    0.20
  -6   4  -6    0.10    0.30
   6  -4   6    0.30    0.40
   6  -4   6    1.00    0.20
  -7   4  -6   18.40    1.30
  -7   4  -6   19.90    0.80
   7  -4   6   17.40    1.10
  -8   4  -6    0.50    0.40
   8  -4   6    0.90    0.50
  -9   4  -6    2.30    0.70
   9  -4   6    1.30    0.70
 -10   4  -6    0.80    0.50
   8   3  -6    5.70    1.20
  -8  -3   6    7.80    1.50
   7   3  -6    0.80    0.60
   7   3  -6    0.50    0.30
  -7  -3   6    0.20    0.70
   6   3  -6   11.50    0.80
   6   3  -6   11.70    1.20
  -6  -3   6   11.20    1.40
   5   3  -6   11.00    0.70
  -5  -3   6   10.90    0.90
  -5  -3   6    8.60    1.10
   4   3  -6    5.50    0.50
   4   3  -6    6.10    0.40
  -4  -3   6    5.30    0.40
  -4  -3   6    5.60    0.70
  -4  -3   6    6.50    1.00
   3   3  -6   12.20    0.50
   3   3  -6   12.70    0.70
  -3  -3   6   11.90    1.00
  -3  -3   6   11.90    0.80
  -3  -3   6   12.80    0.50
   2   3  -6   12.20    0.40
   2   3  -6   13.10    0.70
   2   3  -6   11.40    0.50
  -2  -3   6   12.50    0.90
  -2  -3   6   11.30    0.70
   1   3  -6   17.90    0.60
  -1  -3   6   18.00    0.90
  -1  -3   6   17.60    0.80
  -1  -3   6   17.40    0.70
   0   3  -6   11.10    0.50
   0  -3   6   11.80    0.60
   0  -3   6   11.30    0.50
   0  -3   6   10.20    0.60
  -1   3  -6    1.70    0.20
  -1   3  -6    1.90    0.30
   1  -3   6    1.50    0.20
   1  -3   6    1.90    0.30
   1  -3   6    1.70    0.30
  -2   3  -6    0.90    0.30
  -2   3  -6    0.80    0.20
   2  -3   6    1.10    0.20
   2  -3   6    0.80    0.20
   2  -3   6    0.90    0.30
  -3   3  -6    7.50    0.40
  -3   3  -6    7.20    0.50
   3  -3   6    7.60    0.50
   3  -3   6    7.20    0.50
   3  -3   6    7.00    0.40
  -4   3  -6    0.30    0.20
  -4   3  -6    0.20    0.20
   4  -3   6    0.70    0.30
   4  -3   6    0.30    0.10
   4  -3   6    0.30    0.30
  -5   3  -6    2.10    0.30
  -5   3  -6    2.20    0.50
   5  -3   6    2.50    0.30
   5  -3   6    2.10    0.40
   5  -3   6    2.80    0.50
  -6   3  -6    1.70    0.50
  -6   3  -6    1.80    0.30
   6  -3   6    1.70    0.50
   6  -3   6    1.80    0.40
   6  -3   6    1.20    0.20
  -7   3  -6    1.30    0.30
  -7   3  -6    1.30    0.50
   7  -3   6    1.60    0.50
  -8   3  -6    1.30    0.50
   8  -3   6    1.70    0.60
  -9   3  -6    0.70    0.50
   9  -3   6    0.50    0.60
 -10   3  -6    0.60    0.50
  10  -3   6   -1.00    0.50
   8   2  -6   21.40    1.80
  -8  -2   6   24.30    2.10
   7   2  -6   33.50    2.00
   7   2  -6   32.00    1.30
  -7  -2   6   31.70    2.30
   6   2  -6   13.00    1.20
   6   2  -6   12.60    0.80
  -6  -2   6   12.80    1.50
   5   2  -6    6.50    0.60
  -5  -2   6    8.10    1.20
  -5  -2   6    7.30    0.80
   4   2  -6    3.80    0.40
   4   2  -6    4.00    0.50
  -4  -2   6    3.70    0.60
  -4  -2   6    3.50    0.30
  -4  -2   6    2.70    0.70
   3   2  -6   15.60    0.80
   3   2  -6   14.90    0.50
  -3  -2   6   14.70    1.10
  -3  -2   6   14.70    0.80
  -3  -2   6   15.40    0.50
   2   2  -6    3.30    0.30
   2   2  -6    3.10    0.40
  -2  -2   6    2.70    0.40
  -2  -2   6    3.90    0.60
   1   2  -6   17.60    0.70
   1   2  -6   16.40    0.60
  -1  -2   6   17.70    0.80
  -1  -2   6   15.80    0.90
   0   2  -6    0.60    0.20
   0  -2   6    0.60    0.20
   0  -2   6    0.60    0.20
   0  -2   6    0.40    0.20
  -1   2  -6    2.30    0.30
  -1   2  -6    2.60    0.20
   1  -2   6    2.60    0.40
   1  -2   6    2.90    0.30
   1  -2   6    2.70    0.40
  -2   2  -6   41.70    1.10
  -2   2  -6   44.50    1.10
   2  -2   6   43.60    1.20
   2  -2   6   43.70    1.20
   2  -2   6   43.40    1.00
  -3   2  -6    7.10    0.40
  -3   2  -6    6.20    0.50
   3  -2   6    6.90    0.50
   3  -2   6    7.10    0.60
   3  -2   6    7.10    0.40
  -4   2  -6   16.60    0.80
  -4   2  -6   16.40    0.60
   4  -2   6   15.90    0.50
   4  -2   6   15.50    0.80
   4  -2   6   17.50    0.80
  -5   2  -6    0.70    0.20
  -5   2  -6    0.50    0.30
   5  -2   6    0.60    0.10
   5  -2   6    0.70    0.30
   5  -2   6    0.80    0.40
  -6   2  -6   10.50    0.80
  -6   2  -6   10.00    0.50
   6  -2   6   10.20    0.40
   6  -2   6   10.40    0.80
   6  -2   6    9.30    0.80
  -7   2  -6    5.00    0.40
  -7   2  -6    6.10    0.80
   7  -2   6    5.70    0.80
   7  -2   6    5.30    0.80
  -8   2  -6    9.90    0.90
   8  -2   6    9.40    1.00
   8  -2   6    9.30    1.00
  -9   2  -6    4.70    0.90
   9  -2   6    2.10    0.70
 -10   2  -6    3.50    0.80
  10  -2   6    1.80    0.80
   8   1  -6    1.30    0.60
  -8  -1   6    1.20    0.70
   7   1  -6    3.60    0.90
   7   1  -6    3.10    0.50
  -7  -1   6    3.50    1.10
   6   1  -6   23.20    1.60
   6   1  -6   24.90    1.10
  -6  -1   6   24.60    1.90
   5   1  -6   25.80    1.10
  -5  -1   6   22.10    1.60
  -5  -1   6   23.30    1.20
   4   1  -6    0.40    0.20
  -4  -1   6    0.40    0.40
  -4  -1   6    0.30    0.30
  -4  -1   6    0.30    0.20
   3   1  -6   18.80    0.80
   3   1  -6   18.90    0.60
  -3  -1   6   19.20    0.60
  -3  -1   6   17.80    1.20
  -3  -1   6   18.50    0.90
   2   1  -6   10.60    0.40
   2   1  -6   10.10    0.60
  -2  -1   6    9.80    0.80
  -2  -1   6   10.00    0.60
   1   1  -6  155.18    2.60
   1   1  -6  157.98    3.00
  -1  -1   6  149.49    3.00
  -1  -1   6  149.49    3.40
   0   1  -6   86.29    1.90
   0   1  -6   84.69    1.70
   0  -1   6   85.79    2.20
   0  -1   6   87.39    1.90
  -1   1  -6  172.08    3.00
   1  -1   6  174.38    3.00
   1  -1   6  172.78    3.10
   1  -1   6  172.18    3.30
  -2   1  -6  123.59    2.30
  -2   1  -6  127.29    2.30
   2  -1   6  128.79    2.40
   2  -1   6  130.49    2.70
   2  -1   6  129.99    2.30
  -3   1  -6    1.70    0.30
  -3   1  -6    1.80    0.30
   3  -1   6    1.60    0.40
   3  -1   6    1.90    0.20
   3  -1   6    1.70    0.30
  -4   1  -6   97.39    2.00
  -4   1  -6   97.39    2.20
   4  -1   6   96.89    2.30
   4  -1   6   97.59    1.80
   4  -1   6   99.79    2.20
  -5   1  -6    0.20    0.20
  -5   1  -6    0.00    0.10
   5  -1   6    0.00    0.10
   5  -1   6    0.10    0.20
   5  -1   6   -0.10    0.30
  -6   1  -6   87.19    2.40
  -6   1  -6   87.29    1.90
   6  -1   6   83.49    2.50
   6  -1   6   85.59    2.20
   6  -1   6   85.89    1.80
  -7   1  -6    5.80    0.80
  -7   1  -6    5.70    0.40
   7  -1   6    5.80    0.80
   7  -1   6    5.80    0.80
  -8   1  -6   24.40    1.40
  -8   1  -6   22.70    0.80
   8  -1   6   23.20    1.30
   8  -1   6   23.30    1.50
  -9   1  -6    8.40    1.10
   9  -1   6    7.60    1.20
   9  -1   6    7.90    1.10
 -10   1  -6    1.80    0.60
  10  -1   6    1.90    1.00
  10  -1   6    2.20    0.80
   8   0  -6    0.80    0.50
  -8   0   6    0.40    0.60
   7   0  -6    2.70    0.50
   7   0  -6    2.50    0.80
  -7   0   6    3.90    1.10
   6   0  -6    6.30    0.70
   6   0  -6    6.60    1.10
  -6   0   6    7.20    1.30
   5   0  -6    7.50    0.60
   5   0  -6    7.60    1.10
  -5   0   6    9.00    1.30
   4   0  -6   -0.10    0.10
  -4   0   6    0.20    0.40
  -4   0   6   -0.10    0.30
  -4   0   6    0.10    0.10
   3   0  -6   25.90    1.00
   3   0  -6   26.80    0.60
  -3   0   6   26.30    0.80
  -3   0   6   26.30    1.10
  -3   0   6   24.80    1.50
   2   0  -6   25.20    0.90
   2   0  -6   25.40    0.70
  -2   0   6   24.50    1.30
  -2   0   6   26.70    1.00
   1   0  -6  203.58    3.60
   1   0  -6  201.48    3.30
  -1   0   6  198.68    4.20
  -1   0   6  193.08    3.60
   0   0  -6    3.00    0.30
   0   0  -6    3.50    0.30
   0   0   6    2.60    0.50
   0   0   6    3.30    0.40
  -1   0  -6  383.96    6.20
  -1   0  -6  388.86    6.10
   1   0   6  387.26    6.70
   1   0   6  394.86    6.30
  -2   0  -6  126.29    2.30
  -2   0  -6  124.39    2.20
   2   0   6  131.69    2.80
   2   0   6  131.29    2.40
  -3   0  -6  242.88    4.10
  -3   0  -6  242.48    4.10
   3   0   6  246.78    3.90
   3   0   6  245.58    4.60
   3   0   6  250.27    4.20
  -4   0  -6   29.20    1.00
  -4   0  -6   29.60    0.90
   4   0   6   30.00    0.70
   4   0   6   29.40    1.00
   4   0   6   29.40    1.20
  -5   0  -6  166.78    3.40
  -5   0  -6  168.58    3.00
   5   0   6  164.78    3.70
   5   0   6  164.28    2.70
   5   0   6  165.98    3.30
  -6   0  -6   65.79    1.90
  -6   0  -6   59.99    1.50
   6   0   6   61.99    2.20
   6   0   6   64.19    1.90
  -7   0  -6    7.60    0.50
  -7   0  -6    7.10    0.70
   7   0   6    6.70    0.80
   7   0   6    7.30    0.90
  -8   0  -6   29.60    1.00
  -8   0  -6   29.40    1.50
   8   0   6   29.40    1.50
   8   0   6   30.40    1.80
  -9   0  -6    1.90    0.60
   9   0   6    2.20    0.80
   9   0   6    1.20    0.60
 -10   0  -6   33.00    1.70
  10   0   6   30.90    1.80
  10   0   6   31.90    2.10
  11   0   6    0.80    0.70
   8  -1  -6    5.50    1.00
  -8   1   6    5.70    1.30
   7  -1  -6   16.60    1.50
   7  -1  -6   19.60    1.00
  -7   1   6   16.90    1.80
   6  -1  -6   34.00    1.30
   6  -1  -6   37.50    2.00
  -6   1   6   33.30    2.20
   5  -1  -6    4.50    0.60
   5  -1  -6    5.20    0.90
  -5   1   6    4.20    1.00
   4  -1  -6   36.50    1.30
  -4   1   6   34.10    1.90
  -4   1   6   33.30    1.40
  -4   1   6   34.60    1.10
   3  -1  -6    0.10    0.20
   3  -1  -6    0.10    0.10
  -3   1   6   -0.20    0.20
  -3   1   6    0.00    0.30
  -3   1   6    0.20    0.20
   2  -1  -6   14.00    0.40
   2  -1  -6   14.40    0.70
  -2   1   6   13.30    1.00
  -2   1   6   14.60    0.80
   1  -1  -6   44.90    1.00
   1  -1  -6   43.80    1.20
  -1   1   6   46.10    1.30
  -1   1   6   43.80    1.70
   0  -1  -6   35.20    0.90
   0  -1  -6   34.70    1.00
   0   1   6   35.90    1.40
   0   1   6   38.10    1.10
  -1  -1  -6  133.89    2.40
  -1  -1  -6  131.99    2.50
   1   1   6  138.59    2.60
   1   1   6  138.59    3.10
  -2  -1  -6    6.00    0.30
  -2  -1  -6    6.20    0.30
  -2  -1  -6    6.60    0.40
   2   1   6    7.40    0.70
   2   1   6    6.50    0.40
  -3  -1  -6    1.80    0.30
  -3  -1  -6    1.20    0.20
  -3  -1  -6    1.30    0.20
   3   1   6    1.60    0.50
   3   1   6    1.40    0.30
  -4  -1  -6   11.20    0.50
  -4  -1  -6   10.60    0.60
  -4  -1  -6   10.20    0.40
   4   1   6   11.10    0.80
   4   1   6   10.90    0.60
  -5  -1  -6   45.80    1.40
  -5  -1  -6   44.70    0.90
  -5  -1  -6   43.90    1.20
   5   1   6   46.10    1.70
   5   1   6   47.00    1.40
  -6  -1  -6   38.30    1.40
  -6  -1  -6   35.40    1.00
   6   1   6   35.10    1.30
   6   1   6   34.90    1.60
  -7  -1  -6    0.20    0.20
  -7  -1  -6   -0.20    0.20
   7   1   6   -0.30    0.40
   7   1   6   -0.30    0.20
  -8  -1  -6   13.70    0.60
  -8  -1  -6   15.30    1.00
   8   1   6   14.70    1.10
   8   1   6   13.90    1.30
  -9  -1  -6   11.20    1.00
   9   1   6    9.70    1.10
   9   1   6    9.80    1.20
 -10  -1  -6    0.70    0.50
  10   1   6    0.50    0.60
  10   1   6    0.30    0.60
  11   1   6   -1.10    1.20
  11   1   6   -0.70    0.50
   8  -2  -6    1.90    0.80
  -8   2   6    2.70    0.80
   7  -2  -6    5.20    0.70
   7  -2  -6    5.50    1.00
  -7   2   6    5.40    1.30
   6  -2  -6    0.30    0.30
   6  -2  -6    0.40    0.40
  -6   2   6   -0.10    0.50
   5  -2  -6   27.90    1.20
   5  -2  -6   27.60    1.60
  -5   2   6   28.90    2.00
   4  -2  -6   58.69    1.70
   4  -2  -6   54.99    2.20
  -4   2   6   54.89    1.50
  -4   2   6   59.49    2.60
   3  -2  -6   42.80    1.30
  -3   2   6   40.50    2.00
  -3   2   6   42.40    1.20
  -3   2   6   43.70    1.50
   2  -2  -6   47.00    1.00
   2  -2  -6   47.10    1.30
  -2   2   6   44.90    1.90
  -2   2   6   45.40    1.10
  -2   2   6   48.30    1.40
   1  -2  -6    4.70    0.40
   1  -2  -6    5.30    0.30
  -1   2   6    5.50    0.70
  -1   2   6    5.50    0.40
   0  -2  -6   43.50    1.20
   0  -2  -6   44.80    1.00
   0   2   6   45.00    1.70
   0   2   6   46.00    1.20
  -1  -2  -6  255.57    4.30
  -1  -2  -6  257.07    4.20
   1   2   6  259.97    5.10
   1   2   6  259.47    4.30
  -2  -2  -6   11.80    0.50
  -2  -2  -6   12.00    0.50
  -2  -2  -6   11.60    0.40
   2   2   6   11.90    0.50
   2   2   6   12.40    1.00
  -3  -2  -6  200.18    3.40
  -3  -2  -6  197.98    3.40
  -3  -2  -6  206.18    3.30
   3   2   6  204.38    4.20
   3   2   6  202.28    3.40
  -4  -2  -6    7.00    0.30
  -4  -2  -6    7.00    0.50
  -4  -2  -6    7.40    0.40
   4   2   6    7.60    0.50
   4   2   6    8.80    0.80
  -5  -2  -6   54.29    1.50
  -5  -2  -6   54.59    1.30
   5   2   6   54.19    1.50
   5   2   6   53.89    1.90
  -6  -2  -6   85.39    1.80
  -6  -2  -6   82.29    2.10
   6   2   6   83.29    2.10
   6   2   6   87.49    2.70
  -7  -2  -6   10.90    0.80
  -7  -2  -6   11.80    0.60
   7   2   6   12.30    0.90
   7   2   6   12.00    1.10
  -8  -2  -6   26.00    1.30
  -8  -2  -6   26.50    0.90
   8   2   6   26.30    1.70
   8   2   6   25.80    1.40
  -9  -2  -6    2.90    0.60
   9   2   6    1.20    0.60
   9   2   6    2.40    0.80
 -10  -2  -6    8.80    1.00
  10   2   6    7.10    1.30
  10   2   6    8.10    1.10
  11   2   6    3.70    1.00
  11   2   6    6.60    1.40
   7  -3  -6   17.30    1.00
   7  -3  -6   16.10    1.50
  -7   3   6   17.90    1.90
   6  -3  -6    0.30    0.30
   6  -3  -6    0.30    0.40
  -6   3   6    0.40    0.60
   5  -3  -6   26.80    1.20
   5  -3  -6   27.40    1.60
  -5   3   6   25.80    1.90
   4  -3  -6    1.30    0.40
   4  -3  -6    1.20    0.30
  -4   3   6    0.70    0.50
  -4   3   6    1.20    0.30
   3  -3  -6    4.50    0.50
  -3   3   6    4.50    0.40
  -3   3   6    5.20    0.90
  -3   3   6    4.40    0.60
   2  -3  -6   -0.10    0.10
   2  -3  -6    0.10    0.10
  -2   3   6    0.10    0.40
  -2   3   6   -0.10    0.10
  -2   3   6   -0.20    0.20
   1  -3  -6   20.30    0.60
   1  -3  -6   19.70    0.80
  -1   3   6   20.90    0.80
  -1   3   6   19.30    1.20
  -1   3   6   19.10    0.60
   0  -3  -6   17.40    0.70
   0  -3  -6   18.10    0.60
   0   3   6   17.90    1.10
   0   3   6   17.80    0.70
   0   3   6   17.40    0.50
  -1  -3  -6  206.58    3.60
  -1  -3  -6  210.08    3.50
   1   3   6  212.88    4.50
   1   3   6  211.08    3.40
   1   3   6  210.08    3.60
  -2  -3  -6   22.60    0.70
  -2  -3  -6   21.80    0.70
  -2  -3  -6   21.20    0.60
   2   3   6   21.00    1.20
   2   3   6   21.70    0.70
  -3  -3  -6   18.00    0.60
  -3  -3  -6   17.70    0.60
  -3  -3  -6   17.50    0.60
   3   3   6   19.10    0.70
   3   3   6   18.70    1.20
  -4  -3  -6    3.80    0.30
  -4  -3  -6    3.70    0.30
  -4  -3  -6    3.80    0.20
   4   3   6    5.30    0.80
   4   3   6    4.60    0.40
  -5  -3  -6   11.70    0.70
  -5  -3  -6   11.40    0.60
   5   3   6   12.50    0.70
   5   3   6   12.10    1.00
  -6  -3  -6   14.80    0.70
  -6  -3  -6   15.50    0.80
   6   3   6   15.90    0.90
   6   3   6   16.80    1.20
  -7  -3  -6   13.20    0.80
  -7  -3  -6   12.80    0.60
   7   3   6   13.00    1.20
   7   3   6   13.10    0.90
  -8  -3  -6    0.40    0.20
  -8  -3  -6    0.30    0.30
   8   3   6    0.30    0.50
   8   3   6   -0.30    0.40
  -9  -3  -6    0.50    0.40
   9   3   6    0.70    0.60
   9   3   6    0.60    0.50
 -10  -3  -6    1.70    0.50
  10   3   6    1.60    0.80
  10   3   6    0.10    0.60
 -11  -3  -6    3.80    1.00
  11   3   6    2.00    1.00
  11   3   6    3.00    0.90
   7  -4  -6    1.30    0.70
   7  -4  -6    2.00    0.50
  -7   4   6    3.80    1.20
   6  -4  -6   -0.10    0.30
   6  -4  -6   -0.20    0.20
  -6   4   6    0.10    0.60
   5  -4  -6    1.00    0.50
   5  -4  -6    1.50    0.40
  -5   4   6    2.10    0.80
   4  -4  -6    0.70    0.30
   4  -4  -6    1.00    0.40
  -4   4   6    0.90    0.60
  -4   4   6    1.30    0.30
   3  -4  -6    4.40    0.70
   3  -4  -6    4.10    0.50
  -3   4   6    4.20    0.50
  -3   4   6    3.40    0.80
   2  -4  -6   36.70    1.20
   2  -4  -6   37.00    0.80
  -2   4   6   36.90    1.10
  -2   4   6   35.60    1.80
  -2   4   6   37.00    1.20
   1  -4  -6   95.89    1.70
   1  -4  -6   95.59    2.10
  -1   4   6   91.39    2.80
  -1   4   6   96.49    2.10
  -1   4   6   93.89    1.90
   0  -4  -6  295.87    4.60
   0  -4  -6  285.17    4.90
   0   4   6  284.47    5.80
   0   4   6  286.37    4.80
   0   4   6  286.97    4.60
  -1  -4  -6    8.60    0.40
  -1  -4  -6    8.00    0.50
   1   4   6    8.90    1.00
   1   4   6    8.70    0.40
   1   4   6    8.50    0.40
  -2  -4  -6   67.79    1.50
  -2  -4  -6   66.89    1.50
   2   4   6   68.39    1.40
   2   4   6   66.29    2.30
  -3  -4  -6   10.80    0.50
  -3  -4  -6   11.30    0.40
   3   4   6   11.30    0.50
   3   4   6   13.00    1.10
  -4  -4  -6  174.98    3.20
  -4  -4  -6  173.48    2.80
  -4  -4  -6  175.88    3.20
   4   4   6  171.38    3.00
   4   4   6  176.78    4.10
  -5  -4  -6  237.88    4.20
  -5  -4  -6  247.48    4.30
   5   4   6  238.98    4.20
   5   4   6  239.48    5.20
  -6  -4  -6   33.60    1.20
  -6  -4  -6   32.50    1.00
   6   4   6   32.00    1.20
   6   4   6   33.50    1.70
  -7  -4  -6   11.70    0.60
  -7  -4  -6   12.40    0.80
   7   4   6   11.80    1.20
   7   4   6   12.90    0.90
  -8  -4  -6   42.40    1.30
  -8  -4  -6   42.80    1.60
   8   4   6   42.10    1.60
   8   4   6   41.10    2.20
  -9  -4  -6   12.10    1.00
  -9  -4  -6   11.90    0.70
   9   4   6   12.10    1.40
   9   4   6   11.80    1.10
 -10  -4  -6   -0.20    0.30
  10   4   6   -1.10    0.50
  10   4   6   -0.50    0.40
  11   4   6    1.30    0.80
  11   4   6    3.10    1.40
   7  -5  -6    4.30    0.90
   7  -5  -6    3.80    0.60
  -7   5   6    6.40    1.40
   6  -5  -6    0.60    0.50
   6  -5  -6    0.30    0.30
  -6   5   6    0.30    0.80
   5  -5  -6    9.70    1.00
   5  -5  -6   11.20    0.80
  -5   5   6   12.40    1.80
   4  -5  -6    0.20    0.20
   4  -5  -6    0.30    0.30
  -4   5   6    0.50    0.30
  -4   5   6    0.80    0.60
   3  -5  -6    8.70    0.80
   3  -5  -6    8.70    0.60
  -3   5   6    7.80    0.60
  -3   5   6    8.10    1.10
   2  -5  -6   26.00    0.70
   2  -5  -6   27.50    1.00
  -2   5   6   25.80    1.60
  -2   5   6   25.60    1.00
   1  -5  -6   36.70    0.90
   1  -5  -6   36.20    1.20
  -1   5   6   34.50    1.10
  -1   5   6   35.70    1.10
  -1   5   6   35.10    1.70
   0  -5  -6   44.70    1.30
   0  -5  -6   44.60    1.00
   0   5   6   43.20    1.10
   0   5   6   44.40    1.90
   0   5   6   43.60    1.10
  -1  -5  -6   39.60    1.10
  -1  -5  -6   40.70    1.00
   1   5   6   37.60    1.00
   1   5   6   40.30    1.10
   1   5   6   40.30    1.90
  -2  -5  -6  151.58    2.80
  -2  -5  -6  154.58    2.80
   2   5   6  155.48    3.80
   2   5   6  152.88    2.60
   2   5   6  150.28    2.70
  -3  -5  -6  320.97    5.10
  -3  -5  -6  314.97    5.20
  -3  -5  -6  324.07    5.30
   3   5   6  320.77    5.10
   3   5   6  320.87    6.30
  -4  -5  -6  283.57    4.80
  -4  -5  -6  284.77    4.40
  -4  -5  -6  287.87    4.80
   4   5   6  283.27    5.90
   4   5   6  283.67    4.60
  -5  -5  -6    2.90    0.40
  -5  -5  -6    3.20    0.40
   5   5   6    2.70    0.70
   5   5   6    2.70    0.40
  -6  -5  -6   15.60    0.80
  -6  -5  -6   15.40    0.70
   6   5   6   14.40    0.80
   6   5   6   15.00    1.20
  -7  -5  -6    1.20    0.40
  -7  -5  -6    1.10    0.20
   7   5   6    1.10    0.60
   7   5   6    1.00    0.40
  -8  -5  -6   63.39    1.60
  -8  -5  -6   64.49    2.00
   8   5   6   64.69    2.80
   8   5   6   63.99    2.00
  -9  -5  -6   26.80    1.30
  -9  -5  -6   25.20    1.00
   9   5   6   26.90    1.40
   9   5   6   26.10    1.90
 -10  -5  -6   11.40    1.00
  10   5   6   10.50    1.20
  10   5   6   10.80    1.70
   7  -6  -6    0.10    0.30
   7  -6  -6    0.80    0.50
   6  -6  -6    4.00    0.80
   6  -6  -6    4.60    0.70
  -6   6   6    4.10    1.20
   5  -6  -6   12.40    0.90
   5  -6  -6   13.30    1.10
  -5   6   6   13.50    1.60
   4  -6  -6    0.00    0.20
   4  -6  -6    0.40    0.30
  -4   6   6    0.40    0.30
  -4   6   6    1.60    0.80
   3  -6  -6   56.19    1.70
   3  -6  -6   54.79    2.00
  -3   6   6   55.79    2.60
  -3   6   6   51.79    1.70
   2  -6  -6    3.80    0.50
   2  -6  -6    3.60    0.20
   2  -6  -6    3.80    0.60
  -2   6   6    3.80    0.50
  -2   6   6    3.50    0.80
   1  -6  -6  156.48    3.10
   1  -6  -6  152.78    2.60
  -1   6   6  150.28    3.00
  -1   6   6  151.48    4.10
   0  -6  -6   40.90    1.20
   0  -6  -6   42.20    1.00
   0   6   6   41.20    1.20
   0   6   6   40.20    1.10
   0   6   6   41.70    1.90
  -1  -6  -6   67.49    1.50
  -1  -6  -6   66.89    1.60
   1   6   6   66.39    2.40
   1   6   6   64.89    1.60
   1   6   6   65.69    1.40
  -2  -6  -6    9.40    0.50
  -2  -6  -6   10.30    0.50
   2   6   6    9.90    0.40
   2   6   6   11.40    1.20
   2   6   6   10.90    0.50
  -3  -6  -6   72.49    1.60
  -3  -6  -6   73.69    1.50
  -3  -6  -6   70.39    1.60
   3   6   6   69.79    1.40
   3   6   6   68.99    2.50
  -4  -6  -6  147.49    2.80
  -4  -6  -6  146.29    2.80
  -4  -6  -6  146.79    2.50
   4   6   6  147.99    3.90
   4   6   6  145.09    2.50
  -5  -6  -6   60.99    1.50
  -5  -6  -6   61.29    1.60
   5   6   6   62.19    2.40
   5   6   6   58.39    1.40
  -6  -6  -6   85.89    1.90
  -6  -6  -6   82.99    2.10
   6   6   6   84.09    1.90
   6   6   6   82.89    2.90
  -7  -6  -6   58.89    1.60
  -7  -6  -6   61.79    1.80
   7   6   6   59.39    2.60
   7   6   6   58.09    1.70
  -8  -6  -6   35.50    1.20
   8   6   6   36.60    2.20
   8   6   6   33.50    1.40
  -9  -6  -6    0.00    0.20
  -9  -6  -6    0.00    0.30
   9   6   6   -1.20    0.40
   9   6   6   -0.60    0.50
 -10  -6  -6    3.50    0.70
  10   6   6    3.10    1.10
   7  -7  -6    1.20    0.60
   6  -7  -6    8.70    0.80
   6  -7  -6   10.30    1.30
  -6   7   6   13.30    1.80
   5  -7  -6    2.10    0.50
   5  -7  -6    1.70    0.50
  -5   7   6    1.80    0.90
   4  -7  -6    8.70    0.70
   4  -7  -6    8.70    0.90
  -4   7   6   10.60    0.90
  -4   7   6   12.50    1.90
   3  -7  -6    0.30    0.30
   3  -7  -6    0.30    0.30
  -3   7   6    0.60    0.40
  -3   7   6    0.90    0.70
   2  -7  -6    0.10    0.20
   2  -7  -6    0.00    0.20
  -2   7   6    0.50    0.60
  -2   7   6    0.20    0.20
   1  -7  -6    2.60    0.30
   1  -7  -6    2.10    0.40
   1  -7  -6    1.90    0.40
  -1   7   6    2.50    0.40
  -1   7   6    2.30    0.70
   0  -7  -6    0.70    0.20
   0  -7  -6    0.90    0.30
   0   7   6    0.20    0.30
   0   7   6    0.90    0.60
  -1  -7  -6   84.49    1.80
  -1  -7  -6   87.29    1.90
   1   7   6   81.79    2.90
   1   7   6   80.79    1.90
   1   7   6   81.39    1.60
  -2  -7  -6   14.40    0.60
  -2  -7  -6   16.30    0.70
   2   7   6   13.60    1.30
   2   7   6   14.40    0.70
  -3  -7  -6   43.20    1.10
  -3  -7  -6   43.80    1.20
   3   7   6   43.30    2.10
   3   7   6   42.70    1.20
  -4  -7  -6   31.30    0.80
  -4  -7  -6   31.20    1.00
  -4  -7  -6   33.20    1.10
   4   7   6   30.40    1.80
  -5  -7  -6    9.30    0.60
  -5  -7  -6    9.50    0.60
   5   7   6    9.40    1.30
  -6  -7  -6    0.60    0.20
  -6  -7  -6    0.90    0.30
   6   7   6    0.70    0.60
  -7  -7  -6    1.10    0.40
  -7  -7  -6    1.50    0.30
   7   7   6    1.00    0.70
  -8  -7  -6    6.60    0.70
  -8  -7  -6    6.90    0.50
   8   7   6    6.80    1.20
  -9  -7  -6    1.30    0.30
  -9  -7  -6    0.90    0.40
   9   7   6    0.60    0.70
 -10  -7  -6    0.80    0.50
  10   7   6    0.90    0.80
   6  -8  -6    2.30    0.50
   5  -8  -6    0.60    0.30
  -5   8   6    1.30    0.80
   4  -8  -6    8.60    0.80
  -4   8   6    7.80    1.60
  -4   8   6    9.90    0.90
   3  -8  -6    0.30    0.30
  -3   8   6    0.70    0.40
  -3   8   6    0.20    0.70
   2  -8  -6   10.60    0.70
  -2   8   6   10.80    1.30
  -2   8   6    9.40    0.80
   1  -8  -6    3.40    0.30
   1  -8  -6    3.60    0.50
  -1   8   6    3.10    0.50
  -1   8   6    3.30    0.90
   0  -8  -6   21.20    0.70
   0  -8  -6   20.90    0.90
   0   8   6   20.70    1.00
   0   8   6   20.90    1.50
  -1  -8  -6    1.00    0.20
  -1  -8  -6    1.30    0.30
   1   8   6    1.00    0.40
   1   8   6    1.40    0.80
  -2  -8  -6    0.80    0.20
  -2  -8  -6    1.00    0.20
   2   8   6    0.30    0.30
   2   8   6    0.80    0.70
  -3  -8  -6    9.10    0.50
  -3  -8  -6    9.00    0.50
   3   8   6    9.00    1.30
   3   8   6    8.70    0.60
  -4  -8  -6    0.30    0.10
  -4  -8  -6    0.10    0.10
   4   8   6    0.40    0.70
  -5  -8  -6    2.40    0.40
  -5  -8  -6    2.40    0.50
   5   8   6    2.60    0.90
  -6  -8  -6    1.00    0.30
  -6  -8  -6    1.20    0.40
   6   8   6    0.60    0.80
  -7  -8  -6    3.20    0.40
  -7  -8  -6    3.40    0.60
   7   8   6    2.90    0.90
  -8  -8  -6    0.60    0.40
  -8  -8  -6    0.60    0.30
   8   8   6   -0.20    0.70
  -9  -8  -6    8.70    0.60
  -9  -8  -6    9.90    0.90
   9   8   6    8.60    1.40
 -10  -8  -6   -0.70    0.30
  10   8   6   -1.30    0.70
   5  -9  -6    0.90    0.40
  -5   9   6    2.00    0.70
   4  -9  -6    4.50    0.70
  -4   9   6    6.80    1.50
  -4   9   6    3.70    0.70
   3  -9  -6    0.70    0.30
  -3   9   6    1.20    0.40
  -3   9   6    1.30    0.80
   2  -9  -6   19.70    1.00
  -2   9   6   21.60    1.80
  -2   9   6   21.50    1.20
   1  -9  -6    1.70    0.40
   1  -9  -6    1.90    0.30
  -1   9   6    2.00    0.80
  -1   9   6    1.40    0.50
   0  -9  -6   27.80    0.90
   0  -9  -6   28.70    1.10
   0   9   6   26.10    1.20
   0   9   6   28.30    1.80
  -1  -9  -6   18.60    0.70
  -1  -9  -6   18.30    0.90
   1   9   6   17.20    1.00
   1   9   6   17.60    1.50
  -2  -9  -6    6.40    0.50
  -2  -9  -6    6.30    0.50
   2   9   6    5.70    0.60
   2   9   6    5.20    1.10
  -3  -9  -6    2.00    0.30
  -3  -9  -6    1.30    0.30
   3   9   6    2.40    0.90
   3   9   6    1.70    0.40
  -4  -9  -6    1.00    0.20
  -4  -9  -6    0.90    0.30
   4   9   6    0.50    0.30
   4   9   6    0.70    0.80
  -5  -9  -6   12.00    0.70
  -5  -9  -6    9.70    0.70
   5   9   6   11.40    1.50
  -6  -9  -6   15.20    0.90
  -6  -9  -6   17.20    0.80
   6   9   6   16.40    1.80
  -7  -9  -6    9.90    0.70
  -7  -9  -6    9.10    0.80
   7   9   6    9.00    1.50
  -8  -9  -6    7.30    0.80
  -8  -9  -6    8.40    0.60
   8   9   6    8.30    1.50
  -9  -9  -6    0.00    0.20
  -9  -9  -6   -0.30    0.40
   9   9   6   -0.90    0.70
   4 -10  -6    3.70    0.60
  -4  10   6    4.20    1.00
   3 -10  -6   -0.10    0.30
  -3  10   6    0.90    0.80
  -3  10   6    1.30    0.50
   2 -10  -6    8.10    0.80
  -2  10   6   10.20    1.50
  -2  10   6    9.10    0.90
   1 -10  -6    5.10    0.60
   1 -10  -6    5.60    0.40
  -1  10   6    5.00    0.70
  -1  10   6    7.70    1.30
   0 -10  -6   34.10    1.10
   0 -10  -6   34.00    1.30
   0  10   6   36.60    2.10
   0  10   6   32.40    1.40
  -1 -10  -6    3.40    0.40
  -1 -10  -6    3.30    0.50
   1  10   6    4.00    0.60
   1  10   6    4.40    1.00
  -2 -10  -6  148.29    2.90
  -2 -10  -6  146.79    3.00
   2  10   6  153.08    4.40
   2  10   6  143.79    3.20
  -3 -10  -6    2.90    0.40
  -3 -10  -6    2.80    0.40
   3  10   6    3.60    0.60
   3  10   6    2.90    1.00
  -4 -10  -6   61.69    1.70
   4  10   6   57.99    1.80
   4  10   6   61.39    2.70
  -5 -10  -6    0.10    0.20
   5  10   6    0.40    0.30
   5  10   6    0.20    0.90
  -6 -10  -6   24.90    1.20
  -6 -10  -6   25.70    1.00
   6  10   6   23.00    2.10
  -7 -10  -6   39.20    1.60
  -7 -10  -6   37.80    1.30
   7  10   6   35.00    2.50
  -8 -10  -6   13.10    0.80
  -8 -10  -6   11.30    1.00
   8  10   6   11.90    1.80
  -9 -10  -6   21.40    1.00
  -9 -10  -6   23.00    1.30
   9  10   6   20.50    2.20
   3 -11  -6   40.30    1.70
  -3  11   6   39.20    1.90
  -3  11   6   49.30    2.70
   2 -11  -6    9.00    0.80
  -2  11   6   10.60    1.00
  -2  11   6   14.00    1.70
   1 -11  -6   62.49    2.00
  -1  11   6   59.39    2.10
  -1  11   6   67.29    3.00
   0 -11  -6   21.60    1.10
   0 -11  -6   21.10    0.80
   0  11   6   19.80    1.20
   0  11   6   22.90    1.70
  -1 -11  -6   11.50    0.70
  -1 -11  -6   12.60    0.80
   1  11   6   12.00    1.00
   1  11   6   12.20    1.40
  -2 -11  -6    0.20    0.20
  -2 -11  -6    0.00    0.20
   2  11   6    1.20    0.80
   2  11   6   -0.30    0.40
  -3 -11  -6    2.20    0.40
  -3 -11  -6    2.40    0.40
   3  11   6    2.30    0.60
   3  11   6    3.00    1.10
  -4 -11  -6   18.60    0.90
   4  11   6   19.90    1.90
   4  11   6   19.50    1.10
  -5 -11  -6   29.00    1.10
   5  11   6   27.70    1.30
   5  11   6   28.50    2.20
  -6 -11  -6   36.00    1.30
   6  11   6   34.90    2.50
   6  11   6   37.60    1.50
  -7 -11  -6    5.70    0.60
   7  11   6    3.70    1.40
  -8 -11  -6    7.80    0.70
  -8 -11  -6    7.20    0.90
   8  11   6    4.30    1.50
  -9 -11  -6    0.90    0.30
   3 -12  -6    1.30    0.40
  -3  12   6    2.60    0.50
   2 -12  -6    9.60    0.90
  -2  12   6   10.60    1.00
   1 -12  -6    5.40    0.70
  -1  12   6    8.10    1.00
   0 -12  -6    1.80    0.30
   0 -12  -6    1.50    0.40
   0  12   6    2.50    0.90
   0  12   6    1.60    0.60
  -1 -12  -6   23.00    1.10
  -1 -12  -6   24.10    1.00
   1  12   6   22.00    1.30
   1  12   6   22.80    1.80
  -2 -12  -6    3.40    0.50
  -2 -12  -6    3.60    0.50
   2  12   6    3.80    1.10
   2  12   6    3.40    0.70
  -3 -12  -6    4.00    0.50
  -3 -12  -6    3.90    0.50
   3  12   6    4.00    0.70
   3  12   6    4.20    1.20
  -4 -12  -6    2.90    0.40
   4  12   6    2.50    1.10
   4  12   6    2.20    0.60
  -5 -12  -6    0.90    0.30
   5  12   6    1.70    0.60
   5  12   6    0.20    1.10
  -6 -12  -6    5.00    0.60
   6  12   6    6.60    0.90
   6  12   6    5.70    1.50
  -7 -12  -6    1.30    0.30
   7  12   6   -1.20    1.10
   7  12   6    2.40    0.50
  -8 -12  -6    0.20    0.30
   8  12   6   -2.30    1.20
   2 -13  -6    0.90    0.40
  -2  13   6    1.60    0.50
   1 -13  -6    0.40    0.30
  -1  13   6    0.40    0.50
   0 -13  -6   10.90    0.90
   0 -13  -6   10.40    0.70
   0  13   6   13.00    1.20
  -1 -13  -6    2.00    0.40
  -1 -13  -6    1.50    0.30
   1  13   6    1.90    0.70
   1  13   6    3.60    0.90
  -2 -13  -6    5.90    0.50
  -2 -13  -6    7.40    0.70
   2  13   6    7.00    0.90
   2  13   6    8.70    1.40
  -3 -13  -6    1.50    0.30
  -3 -13  -6    1.60    0.40
   3  13   6    2.60    1.00
   3  13   6    1.40    0.60
  -4 -13  -6    1.30    0.30
   4  13   6    0.60    1.00
   4  13   6    1.10    0.60
  -5 -13  -6    1.00    0.30
   5  13   6   -0.10    1.10
   5  13   6    1.30    0.60
  -6 -13  -6   11.20    0.80
   6  13   6   12.60    1.10
   6  13   6   10.40    1.80
  -7 -13  -6   -0.10    0.30
   7  13   6   -1.30    1.20
   7  13   6    0.60    0.70
  -1  14   6    0.40    0.40
   0 -14  -6    2.10    0.50
   0  14   6    2.90    0.70
  -1 -14  -6    0.30    0.30
  -1 -14  -6    0.00    0.20
   1  14   6    0.30    0.50
  -2 -14  -6    6.60    0.60
  -2 -14  -6    4.50    0.60
   2  14   6    5.10    0.90
  -3 -14  -6    2.20    0.40
   3  14   6    2.70    0.80
   3  14   6    5.50    1.20
  -4 -14  -6    7.60    0.70
   4  14   6    5.80    1.30
   4  14   6    5.60    1.00
  -5 -14  -6    0.80    0.30
   5  14   6   -0.10    0.50
   5  14   6    0.10    1.00
   6  14   6    2.10    1.30
  -1 -15  -6    9.70    0.70
  -2 -15  -6   12.40    0.80
  -2 -15  -6   11.50    0.80
   2  15   6   10.70    1.90
   4  15   6   17.10    1.80
   5  15   6   12.10    2.60
  -1  14  -7   17.90    1.30
   2  13  -7    4.20    0.90
  -2 -13   7    3.80    0.60
   1  13  -7    0.20    0.30
  -1 -13   7    0.30    0.30
   0  13  -7    5.60    0.70
   0  13  -7    6.10    0.90
   0 -13   7    5.30    0.70
  -1  13  -7   12.00    1.10
  -1  13  -7   11.10    0.90
   1 -13   7   10.70    0.80
  -2  13  -7    5.20    0.70
  -2  13  -7    8.80    1.00
   2 -13   7    6.20    0.80
  -3  13  -7    5.40    0.80
   4  12  -7    1.60    0.40
  -4 -12   7    1.80    0.40
   3  12  -7    7.10    0.70
  -3 -12   7    8.20    0.70
   2  12  -7   16.00    1.00
  -2 -12   7   17.30    1.00
   1  12  -7    0.70    0.40
   1  12  -7    1.00    0.70
  -1 -12   7    0.90    0.30
   0  12  -7    4.30    0.60
   0  12  -7    4.90    0.80
   0 -12   7    4.10    0.60
  -1  12  -7    0.10    0.40
  -1  12  -7    0.20    0.30
   1 -12   7    0.00    0.20
  -2  12  -7    4.80    0.60
  -2  12  -7    6.30    0.90
   2 -12   7    4.80    0.60
  -3  12  -7    2.10    0.60
  -3  12  -7    0.50    0.30
   3 -12   7    0.80    0.40
  -4  12  -7    0.80    0.40
  -4  12  -7    2.10    0.60
   4 -12   7    1.30    0.40
  -5  12  -7    3.80    0.60
  -5  12  -7    5.00    1.10
   5  11  -7    0.40    0.30
   4  11  -7   11.90    0.80
  -4 -11   7   11.70    0.80
   3  11  -7    0.40    0.30
  -3 -11   7    0.60    0.30
   2  11  -7    6.20    0.70
  -2 -11   7    5.80    0.70
   1  11  -7   -0.30    0.40
   1  11  -7    0.00    0.30
  -1 -11   7    0.10    0.20
   0  11  -7    0.40    0.50
   0  11  -7   -0.20    0.30
   0 -11   7    0.40    0.30
  -1  11  -7    5.30    0.80
  -1  11  -7    6.00    0.70
   1 -11   7    6.30    0.70
  -2  11  -7    0.80    0.50
  -2  11  -7    0.00    0.30
   2 -11   7    0.50    0.30
  -3  11  -7   14.70    0.90
  -3  11  -7   15.80    1.20
   3 -11   7   15.20    0.90
  -4  11  -7   -0.30    0.20
  -4  11  -7    1.20    0.50
   4 -11   7    0.30    0.30
  -5  11  -7    3.30    0.70
  -5  11  -7    1.70    0.40
   5 -11   7    2.50    0.50
  -6  11  -7    1.80    0.60
   5  10  -7   14.50    0.90
   5  10  -7   14.70    1.00
   4  10  -7    0.80    0.30
  -4 -10   7    0.70    0.30
   3  10  -7   10.10    0.80
  -3 -10   7   10.30    0.70
   2  10  -7    3.60    0.50
  -2 -10   7    4.70    0.60
   1  10  -7    1.40    0.50
   1  10  -7    1.90    0.40
  -1 -10   7    2.30    0.60
  -1 -10   7    1.60    0.40
   0  10  -7   25.80    1.30
   0  10  -7   26.30    1.10
   0 -10   7   26.40    1.10
   0 -10   7   25.90    1.10
  -1  10  -7    0.50    0.40
  -1  10  -7    0.30    0.30
   1 -10   7    0.10    0.20
   1 -10   7   -0.10    0.20
  -2  10  -7   17.10    0.90
  -2  10  -7   19.00    1.20
   2 -10   7   18.50    1.00
   2 -10   7   19.20    1.00
  -3  10  -7    0.50    0.30
  -3  10  -7    0.60    0.50
   3 -10   7    0.90    0.30
   3 -10   7    0.10    0.30
  -4  10  -7    2.70    0.50
  -4  10  -7    4.00    0.70
   4 -10   7    3.40    0.50
   4 -10   7    2.70    0.50
  -5  10  -7    2.40    0.50
  -5  10  -7    2.60    0.70
   5 -10   7    2.30    0.40
   5 -10   7    2.30    0.50
  -6  10  -7    3.40    0.80
   6 -10   7    3.20    0.60
   6 -10   7    2.40    0.50
   7 -10   7    8.30    0.90
   5   9  -7    0.70    0.40
   5   9  -7    0.20    0.20
  -5  -9   7    0.80    0.40
   4   9  -7    6.90    0.60
  -4  -9   7    7.80    0.80
  -4  -9   7    5.70    0.60
   3   9  -7   21.70    1.00
  -3  -9   7   22.90    1.20
  -3  -9   7   23.40    1.10
   2   9  -7   24.50    1.00
   2   9  -7   20.10    1.30
  -2  -9   7   26.60    1.20
  -2  -9   7   23.30    1.00
   1   9  -7   23.10    1.00
   1   9  -7   21.80    1.10
  -1  -9   7   21.60    1.00
  -1  -9   7   22.50    1.00
   0   9  -7   18.90    1.00
   0   9  -7   20.80    1.00
   0  -9   7   20.70    1.00
   0  -9   7   22.10    1.00
  -1   9  -7    1.40    0.50
  -1   9  -7    0.80    0.30
   1  -9   7    1.00    0.30
   1  -9   7    1.30    0.30
  -2   9  -7   18.30    1.10
  -2   9  -7   19.30    0.90
   2  -9   7   19.00    0.90
   2  -9   7   19.30    1.00
  -3   9  -7    1.70    0.50
  -3   9  -7    2.10    0.40
   3  -9   7    2.00    0.40
   3  -9   7    2.00    0.40
  -4   9  -7   28.40    1.10
  -4   9  -7   28.70    1.50
   4  -9   7   27.00    1.10
   4  -9   7   28.90    1.20
  -5   9  -7    0.20    0.40
  -5   9  -7    0.30    0.30
   5  -9   7    0.20    0.30
   5  -9   7    0.50    0.30
  -6   9  -7    2.20    0.70
  -6   9  -7    1.50    0.40
   6  -9   7    1.40    0.50
   6  -9   7    1.60    0.40
  -7   9  -7    1.10    0.50
   7  -9   7   -0.10    0.40
   7   8  -7   19.40    1.70
   6   8  -7    1.50    0.40
   6   8  -7    1.30    0.60
   5   8  -7   11.60    0.90
  -5  -8   7   11.30    1.00
   4   8  -7    4.90    0.50
  -4  -8   7    4.20    0.50
  -4  -8   7    4.40    0.70
   3   8  -7   20.30    0.90
  -3  -8   7   20.10    1.10
  -3  -8   7   19.90    0.90
   2   8  -7    4.80    0.50
   2   8  -7    4.70    0.60
  -2  -8   7    4.60    0.50
  -2  -8   7    5.10    0.60
   1   8  -7   72.79    1.80
   1   8  -7   72.69    1.90
  -1  -8   7   72.49    1.90
  -1  -8   7   75.19    2.00
   0   8  -7   37.00    1.20
   0   8  -7   39.80    1.40
   0  -8   7   39.00    1.30
   0  -8   7   39.60    1.40
  -1   8  -7   28.50    1.20
  -1   8  -7   31.20    1.10
   1  -8   7   29.60    1.20
   1  -8   7   29.80    1.10
  -2   8  -7    0.70    0.40
  -2   8  -7    1.00    0.30
   2  -8   7    0.80    0.30
   2  -8   7    1.00    0.30
  -3   8  -7    6.40    0.60
  -3   8  -7    6.70    0.80
   3  -8   7    6.20    0.50
   3  -8   7    5.70    0.60
  -4   8  -7   22.40    1.00
  -4   8  -7   23.30    1.30
   4  -8   7   24.00    1.00
   4  -8   7   21.50    1.00
  -5   8  -7    2.00    0.60
  -5   8  -7    1.00    0.30
   5  -8   7    1.00    0.30
   5  -8   7    1.50    0.50
  -6   8  -7   13.70    0.80
  -6   8  -7   13.70    1.20
   6  -8   7   15.10    1.00
   6  -8   7   13.10    0.80
  -7   8  -7   23.70    1.60
   7  -8   7   22.60    1.30
  -8   8  -7    7.70    1.10
   8  -8   7    7.10    0.90
   6   7  -7    0.10    0.30
   6   7  -7   -0.20    0.40
  -6  -7   7    1.10    0.50
   5   7  -7   14.80    0.90
  -5  -7   7   15.00    1.30
  -5  -7   7   15.20    1.10
   4   7  -7    0.00    0.20
   4   7  -7   -0.10    0.20
  -4  -7   7    0.10    0.30
   3   7  -7    5.90    0.50
  -3  -7   7    6.10    0.60
  -3  -7   7    5.30    0.70
   2   7  -7    3.60    0.50
   2   7  -7    3.60    0.40
  -2  -7   7    3.40    0.50
  -2  -7   7    3.00    0.40
   1   7  -7   20.20    0.90
   1   7  -7   18.50    0.80
  -1  -7   7   17.90    0.80
  -1  -7   7   20.90    1.00
   0   7  -7   18.80    0.80
   0   7  -7   20.60    0.90
   0  -7   7   21.60    1.00
   0  -7   7   19.80    0.90
  -1   7  -7    0.30    0.20
  -1   7  -7    0.60    0.30
   1  -7   7    0.70    0.30
   1  -7   7    0.20    0.20
  -2   7  -7    2.70    0.40
  -2   7  -7    3.20    0.50
   2  -7   7    2.50    0.40
   2  -7   7    2.00    0.40
  -3   7  -7    8.00    0.80
  -3   7  -7    8.30    0.60
   3  -7   7    7.90    0.60
   3  -7   7    8.60    0.60
  -4   7  -7   12.00    0.70
  -4   7  -7   12.00    1.00
   4  -7   7   12.00    0.70
   4  -7   7   11.80    0.80
  -5   7  -7   56.69    2.10
  -5   7  -7   58.39    1.60
   5  -7   7   59.19    1.60
   5  -7   7   54.69    1.70
  -6   7  -7    8.10    0.60
  -6   7  -7    8.00    1.00
   6  -7   7    9.70    0.90
   6  -7   7    8.90    0.60
  -7   7  -7   13.40    1.20
   7  -7   7   12.00    1.00
  -8   7  -7    0.80    0.50
   8  -7   7   -1.10    0.50
   7   6  -7    0.20    0.50
  -7  -6   7    3.40    0.80
   6   6  -7   12.00    0.90
   6   6  -7   10.40    1.40
  -6  -6   7   12.50    1.30
   5   6  -7   14.30    0.90
  -5  -6   7   14.90    1.10
  -5  -6   7   17.40    1.40
   4   6  -7    1.90    0.30
   4   6  -7    1.80    0.40
  -4  -6   7    2.10    0.60
  -4  -6   7    2.20    0.50
   3   6  -7    1.00    0.30
  -3  -6   7    1.20    0.30
  -3  -6   7    0.90    0.40
  -3  -6   7    1.10    0.40
   2   6  -7   10.90    0.60
   2   6  -7   11.70    0.60
  -2  -6   7   10.60    0.60
  -2  -6   7   10.10    0.70
  -2  -6   7   11.70    0.80
   1   6  -7   19.20    0.80
   1   6  -7   17.70    0.80
  -1  -6   7   18.70    0.80
  -1  -6   7   17.40    0.90
   0   6  -7    5.10    0.50
   0   6  -7    4.50    0.50
   0  -6   7    4.80    0.40
   0  -6   7    4.00    0.50
  -1   6  -7   25.10    1.00
   1  -6   7   22.40    1.00
   1  -6   7   23.90    0.90
  -2   6  -7   21.20    1.00
  -2   6  -7   21.40    0.90
   2  -6   7   23.10    0.90
   2  -6   7   21.10    0.90
  -3   6  -7   70.99    1.70
  -3   6  -7   71.69    2.00
   3  -6   7   72.19    1.70
   3  -6   7   71.09    1.80
  -4   6  -7   11.30    0.90
  -4   6  -7   10.40    0.60
   4  -6   7   10.80    0.60
   4  -6   7   10.30    0.70
  -5   6  -7    0.50    0.40
  -5   6  -7    0.40    0.20
   5  -6   7    0.60    0.20
   5  -6   7    0.40    0.40
  -6   6  -7    1.30    0.30
  -6   6  -7    1.50    0.50
   6  -6   7    1.40    0.50
   6  -6   7    2.10    0.30
  -7   6  -7    0.10    0.20
  -7   6  -7    0.60    0.40
   7  -6   7   -0.70    0.40
  -8   6  -7    1.30    0.50
   8  -6   7    0.60    0.60
  -9   6  -7    3.30    0.80
   9  -6   7    1.30    0.70
   7   5  -7    1.80    0.70
  -7  -5   7    3.00    0.90
   6   5  -7    1.60    0.60
   6   5  -7    0.80    0.30
  -6  -5   7    1.10    0.70
   5   5  -7    1.90    0.40
  -5  -5   7    2.70    0.80
  -5  -5   7    1.70    0.50
   4   5  -7   20.30    1.00
   4   5  -7   20.50    0.80
  -4  -5   7   19.90    1.40
  -4  -5   7   17.00    1.10
   3   5  -7    4.70    0.40
   3   5  -7    4.30    0.60
  -3  -5   7    5.80    0.90
  -3  -5   7    3.70    0.60
   2   5  -7   47.40    1.20
   2   5  -7   43.90    1.20
  -2  -5   7   45.40    1.50
  -2  -5   7   46.00    1.70
  -2  -5   7   48.50    1.40
   1   5  -7  131.39    2.50
   1   5  -7  127.29    2.40
  -1  -5   7  131.19    2.90
  -1  -5   7  131.39    3.00
  -1  -5   7  131.79    2.70
   0   5  -7   45.00    1.20
   0   5  -7   43.30    1.20
   0  -5   7   47.20    1.80
   0  -5   7   43.20    1.20
   0  -5   7   42.70    1.40
  -1   5  -7  136.59    2.70
  -1   5  -7  137.29    2.70
   1  -5   7  135.79    2.90
   1  -5   7  137.89    2.70
  -2   5  -7    2.90    0.40
  -2   5  -7    3.90    0.50
   2  -5   7    3.20    0.50
   2  -5   7    4.20    0.40
  -3   5  -7   39.50    1.40
  -3   5  -7   37.40    1.20
   3  -5   7   41.90    1.30
   3  -5   7   40.60    1.20
  -4   5  -7   49.60    1.70
  -4   5  -7   49.20    1.40
   4  -5   7   51.89    1.30
   4  -5   7   48.80    1.50
  -5   5  -7    9.90    0.90
  -5   5  -7    9.60    0.60
   5  -5   7   10.20    0.80
   5  -5   7   10.50    0.60
  -6   5  -7   10.40    0.60
  -6   5  -7   11.10    1.00
   6  -5   7   12.10    0.60
   6  -5   7   10.50    0.90
  -7   5  -7   18.20    0.80
  -7   5  -7   21.30    1.40
   7  -5   7   20.40    1.20
  -8   5  -7    3.90    0.80
   8  -5   7    2.90    0.70
  -9   5  -7    2.80    0.70
   9  -5   7    1.20    0.70
   7   4  -7    4.30    1.00
   7   4  -7    2.80    0.80
  -7  -4   7    5.60    1.20
   6   4  -7    0.00    0.20
   6   4  -7    0.20    0.40
  -6  -4   7    0.20    0.50
   5   4  -7   23.10    1.10
  -5  -4   7   23.50    1.70
  -5  -4   7   21.20    1.30
   4   4  -7    3.40    0.40
   4   4  -7    3.40    0.50
  -4  -4   7    3.10    0.80
  -4  -4   7    2.60    0.50
   3   4  -7  128.99    2.40
   3   4  -7  130.29    2.90
  -3  -4   7  126.89    3.50
  -3  -4   7  124.69    3.00
   2   4  -7   72.99    1.60
   2   4  -7   65.89    1.50
  -2  -4   7   71.19    1.70
  -2  -4   7   68.19    2.30
  -2  -4   7   69.89    2.00
   1   4  -7   20.60    0.70
  -1  -4   7   20.00    1.00
  -1  -4   7   20.30    0.80
  -1  -4   7   18.00    0.90
   0   4  -7  106.09    2.00
   0   4  -7  106.09    2.10
   0  -4   7  106.59    2.40
   0  -4   7  108.39    2.20
   0  -4   7  103.19    2.40
  -1   4  -7    6.50    0.40
  -1   4  -7    7.00    0.50
   1  -4   7    5.80    0.60
   1  -4   7    7.00    0.50
   1  -4   7    7.40    0.50
  -2   4  -7  558.84    8.90
  -2   4  -7  558.54    8.80
   2  -4   7  566.34    8.80
   2  -4   7  559.24    9.00
  -3   4  -7  176.18    3.50
  -3   4  -7  174.88    3.30
   3  -4   7  176.18    3.40
   3  -4   7  184.88    3.20
  -4   4  -7  109.49    2.30
  -4   4  -7  110.49    2.60
   4  -4   7  112.19    2.20
   4  -4   7  108.29    2.40
  -5   4  -7    6.40    0.80
  -5   4  -7    6.10    0.50
   5  -4   7    6.60    0.70
   5  -4   7    6.80    0.40
  -6   4  -7    4.30    0.50
  -6   4  -7    5.00    0.70
   6  -4   7    4.20    0.40
   6  -4   7    3.90    0.60
  -7   4  -7   52.89    1.50
  -7   4  -7   50.99    2.00
   7  -4   7   53.39    1.90
  -8   4  -7   21.20    1.40
   8  -4   7   20.80    1.30
  -9   4  -7   64.09    2.50
   9  -4   7   59.59    2.30
   7   3  -7    4.60    1.10
   7   3  -7    5.10    0.70
  -7  -3   7    7.10    1.50
   6   3  -7    2.00    0.40
   6   3  -7    2.30    0.70
  -6  -3   7    3.20    1.00
   5   3  -7    2.40    0.40
  -5  -3   7    1.90    0.50
  -5  -3   7    1.90    0.80
   4   3  -7    6.00    0.60
  -4  -3   7    5.60    1.00
  -4  -3   7    5.80    0.70
   3   3  -7   39.50    1.00
   3   3  -7   39.50    1.30
  -3  -3   7   38.70    1.80
  -3  -3   7   38.60    1.50
   2   3  -7   36.40    1.20
   2   3  -7   37.60    1.00
  -2  -3   7   37.50    1.30
  -2  -3   7   33.10    1.60
   1   3  -7   67.79    1.50
  -1  -3   7   62.99    1.80
  -1  -3   7   66.19    1.60
  -1  -3   7   67.89    2.10
   0   3  -7    0.40    0.20
   0  -3   7    0.10    0.20
   0  -3   7    0.00    0.10
   0  -3   7    0.40    0.20
  -1   3  -7  198.18    3.40
  -1   3  -7  196.38    3.30
   1  -3   7  198.78    3.50
   1  -3   7  188.18    3.70
   1  -3   7  197.48    3.70
  -2   3  -7  101.59    2.10
  -2   3  -7  101.19    2.10
   2  -3   7  106.29    2.10
   2  -3   7  102.99    2.20
   2  -3   7  100.59    2.10
  -3   3  -7    3.60    0.40
  -3   3  -7    3.30    0.40
   3  -3   7    3.90    0.40
   3  -3   7    3.70    0.30
   3  -3   7    3.00    0.40
  -4   3  -7   82.09    2.10
  -4   3  -7   83.99    1.80
   4  -3   7   84.29    1.70
   4  -3   7   83.39    2.00
   4  -3   7   80.19    1.90
  -5   3  -7    5.90    0.70
  -5   3  -7    5.70    0.50
   5  -3   7    6.50    0.40
   5  -3   7    6.80    0.70
  -6   3  -7  137.69    3.40
  -6   3  -7  139.29    2.80
   6  -3   7  139.29    2.60
   6  -3   7  142.79    3.20
  -7   3  -7    8.50    0.60
  -7   3  -7    9.30    0.90
   7  -3   7    6.90    0.80
  -8   3  -7    1.00    0.50
   8  -3   7    0.70    0.50
  -9   3  -7   13.90    1.20
   9  -3   7   10.90    1.10
 -10   3  -7    1.20    0.60
  10  -3   7    1.90    0.70
   7   2  -7   25.70    1.90
   7   2  -7   26.10    1.30
  -7  -2   7   27.70    2.20
   6   2  -7    6.60    0.70
   6   2  -7    5.80    1.00
  -6  -2   7   10.20    1.60
   5   2  -7   41.90    1.50
  -5  -2   7   39.30    2.20
  -5  -2   7   40.40    1.70
   4   2  -7    0.50    0.20
  -4  -2   7   -0.10    0.30
  -4  -2   7    0.20    0.40
   3   2  -7   36.20    0.90
   3   2  -7   35.50    1.30
  -3  -2   7   35.60    1.80
  -3  -2   7   34.80    1.40
   2   2  -7   25.00    1.00
   2   2  -7   24.40    0.70
  -2  -2   7   23.70    1.30
  -2  -2   7   26.80    1.10
   1   2  -7   38.40    1.00
   1   2  -7   39.10    1.20
  -1  -2   7   37.90    1.50
  -1  -2   7   36.10    1.20
   0   2  -7   27.70    0.80
   0  -2   7   27.80    0.90
   0  -2   7   26.60    1.00
   0  -2   7   26.50    1.10
  -1   2  -7   60.79    1.40
   1  -2   7   60.39    1.60
   1  -2   7   61.29    1.40
   1  -2   7   60.19    1.60
  -2   2  -7   44.90    1.20
  -2   2  -7   43.10    1.10
   2  -2   7   43.90    1.30
   2  -2   7   44.80    1.10
   2  -2   7   45.00    1.30
  -3   2  -7    0.00    0.10
  -3   2  -7    0.20    0.20
   3  -2   7    0.10    0.30
   3  -2   7    0.20    0.10
   3  -2   7    0.20    0.30
  -4   2  -7   23.00    1.00
  -4   2  -7   21.70    0.80
   4  -2   7   21.10    1.00
   4  -2   7   22.70    0.70
   4  -2   7   21.60    0.90
  -5   2  -7    3.20    0.50
  -5   2  -7    3.10    0.40
   5  -2   7    3.90    0.50
   5  -2   7    3.00    0.30
   5  -2   7    2.20    0.50
  -6   2  -7   52.79    1.40
  -6   2  -7   48.50    1.70
   6  -2   7   51.99    1.20
   6  -2   7   52.09    1.80
   6  -2   7   53.69    1.70
  -7   2  -7    8.80    0.60
  -7   2  -7    8.70    0.80
   7  -2   7    9.00    0.90
   7  -2   7    9.40    0.90
  -8   2  -7   16.60    1.20
  -8   2  -7   18.80    0.80
   8  -2   7   16.80    1.20
  -9   2  -7    0.30    0.40
   9  -2   7   -0.40    0.50
 -10   2  -7    0.30    0.60
  10  -2   7    0.50    0.60
   7   1  -7    0.90    0.50
   7   1  -7    0.90    0.40
  -7  -1   7    1.50    0.80
   6   1  -7    2.40    0.70
   6   1  -7    1.20    0.40
  -6  -1   7    0.50    0.70
   5   1  -7    5.50    0.70
  -5  -1   7    6.30    0.80
  -5  -1   7    6.10    1.20
   4   1  -7    4.60    0.60
  -4  -1   7    4.20    0.90
  -4  -1   7    4.70    0.60
   3   1  -7    1.30    0.30
   3   1  -7    1.40    0.20
  -3  -1   7    1.40    0.40
  -3  -1   7    1.70    0.50
   2   1  -7   22.90    0.90
   2   1  -7   22.00    0.70
  -2  -1   7   22.50    1.00
  -2  -1   7   21.60    1.30
   1   1  -7   26.50    0.80
   1   1  -7   26.10    1.00
  -1  -1   7   26.20    1.00
  -1  -1   7   25.10    1.30
   0   1  -7    2.70    0.30
   0   1  -7    2.20    0.30
   0  -1   7    2.80    0.40
   0  -1   7    2.10    0.40
  -1   1  -7   28.90    0.80
   1  -1   7   29.20    1.20
   1  -1   7   29.50    1.00
  -2   1  -7   49.20    1.20
  -2   1  -7   48.00    1.10
   2  -1   7   49.70    1.30
   2  -1   7   50.89    1.20
   2  -1   7   52.09    1.60
  -3   1  -7    6.40    0.40
  -3   1  -7    6.90    0.40
   3  -1   7    7.00    0.70
   3  -1   7    7.60    0.40
   3  -1   7    6.70    0.50
  -4   1  -7   31.00    1.00
  -4   1  -7   31.00    1.10
   4  -1   7   32.90    0.80
   4  -1   7   32.80    1.10
   4  -1   7   32.20    1.30
  -5   1  -7    3.00    0.50
  -5   1  -7    3.70    0.40
   5  -1   7    3.70    0.50
   5  -1   7    4.10    0.60
   5  -1   7    3.40    0.20
  -6   1  -7    6.60    0.60
  -6   1  -7    7.40    0.50
   6  -1   7    6.90    0.70
   6  -1   7    7.80    0.80
  -7   1  -7    2.90    0.60
  -7   1  -7    3.00    0.40
   7  -1   7    3.50    0.60
   7  -1   7    2.60    0.60
  -8   1  -7    4.20    0.50
  -8   1  -7    3.80    0.70
   8  -1   7    3.50    0.70
   8  -1   7    3.90    0.80
  -9   1  -7   -0.10    0.40
   9  -1   7   -0.20    0.40
   9  -1   7    0.00    0.50
 -10   1  -7   11.00    1.10
  10  -1   7    9.20    1.10
   7   0  -7    3.10    0.80
   7   0  -7    2.20    0.50
  -7   0   7    3.20    1.10
   6   0  -7    0.50    0.30
   6   0  -7    0.30    0.40
  -6   0   7   -0.10    0.50
   5   0  -7    0.50    0.30
   5   0  -7    0.10    0.30
  -5   0   7    0.40    0.50
   4   0  -7   17.00    0.90
  -4   0   7   15.30    1.40
  -4   0   7   15.90    1.00
   3   0  -7    4.30    0.30
   3   0  -7    4.00    0.50
  -3   0   7    4.10    0.90
  -3   0   7    3.80    0.60
   2   0  -7   13.90    0.50
   2   0  -7   13.60    0.70
  -2   0   7   12.80    0.80
  -2   0   7   13.50    1.10
   1   0  -7   11.20    0.50
   1   0  -7   11.40    0.60
  -1   0   7   12.30    0.90
  -1   0   7   11.50    0.70
   0   0  -7  102.69    1.90
   0   0  -7  101.69    2.20
   0   0   7  100.89    2.20
   0   0   7   97.29    2.60
  -1   0  -7   42.60    1.10
  -1   0  -7   41.30    1.20
   1   0   7   43.80    1.20
   1   0   7   43.60    1.50
  -2   0  -7   36.20    1.00
  -2   0  -7   35.60    1.00
   2   0   7   37.00    1.40
   2   0   7   36.90    1.10
  -3   0  -7    1.90    0.30
  -3   0  -7    2.10    0.30
   3   0   7    1.90    0.50
   3   0   7    1.40    0.30
  -4   0  -7    1.30    0.30
  -4   0  -7    1.50    0.30
   4   0   7    1.80    0.50
   4   0   7    1.20    0.20
   4   0   7    0.90    0.30
  -5   0  -7   26.80    0.90
  -5   0  -7   28.10    1.10
   5   0   7   28.00    1.30
   5   0   7   28.90    1.10
   5   0   7   27.90    0.70
  -6   0  -7    2.60    0.30
  -6   0  -7    2.50    0.50
   6   0   7    2.20    0.50
   6   0   7    1.90    0.50
  -7   0  -7   57.29    1.50
  -7   0  -7   55.19    1.90
   7   0   7   57.79    1.90
   7   0   7   57.39    2.20
  -8   0  -7    0.00    0.20
  -8   0  -7    0.70    0.40
   8   0   7   -0.40    0.30
   8   0   7   -0.50    0.40
  -9   0  -7   16.00    1.20
   9   0   7   13.90    1.30
   9   0   7   16.10    1.20
 -10   0  -7   -0.10    0.40
  10   0   7   -0.40    0.50
  10   0   7   -1.10    0.50
   7  -1  -7    8.50    0.80
   7  -1  -7    6.50    1.10
  -7   1   7    9.20    1.70
   6  -1  -7    2.10    0.50
   6  -1  -7    3.30    0.80
  -6   1   7    2.50    1.00
   5  -1  -7    3.00    0.50
   5  -1  -7    2.90    0.70
  -5   1   7    3.50    1.00
   4  -1  -7    3.20    0.50
  -4   1   7    2.40    0.50
  -4   1   7    3.40    0.90
   3  -1  -7    0.10    0.20
  -3   1   7    0.80    0.30
  -3   1   7    0.80    0.40
   2  -1  -7   29.90    1.10
   2  -1  -7   31.00    0.80
  -2   1   7   30.10    1.60
  -2   1   7   30.70    1.20
   1  -1  -7   12.80    0.50
   1  -1  -7   11.90    0.60
  -1   1   7   12.90    0.70
  -1   1   7   11.90    1.00
   0  -1  -7   77.99    1.60
   0  -1  -7   75.79    1.80
   0   1   7   81.99    1.80
   0   1   7   76.09    2.30
  -1  -1  -7  128.89    2.50
  -1  -1  -7  129.79    2.40
   1   1   7  133.69    2.60
   1   1   7  132.79    3.10
  -2  -1  -7   40.00    1.10
  -2  -1  -7   39.20    1.10
   2   1   7   41.10    1.10
   2   1   7   40.40    1.60
  -3  -1  -7   90.19    1.80
  -3  -1  -7   89.49    1.80
  -3  -1  -7   91.39    1.90
   3   1   7   93.69    2.50
   3   1   7   90.59    1.90
  -4  -1  -7   34.60    1.00
  -4  -1  -7   34.60    0.90
  -4  -1  -7   33.40    1.00
   4   1   7   35.30    1.50
   4   1   7   35.10    1.10
  -5  -1  -7   66.29    1.60
  -5  -1  -7   68.79    1.30
  -5  -1  -7   69.69    1.80
   5   1   7   67.89    2.20
   5   1   7   70.79    1.80
  -6  -1  -7    0.10    0.20
  -6  -1  -7    0.10    0.20
   6   1   7    0.10    0.30
   6   1   7    0.00    0.30
  -7  -1  -7   45.90    1.30
  -7  -1  -7   47.20    1.70
   7   1   7   48.00    2.00
   7   1   7   46.60    1.60
  -8  -1  -7    2.90    0.40
  -8  -1  -7    3.60    0.60
   8   1   7    3.20    0.80
   8   1   7    4.10    0.70
  -9  -1  -7   22.30    1.30
   9   1   7   20.00    1.60
   9   1   7   22.40    1.40
 -10  -1  -7   -0.30    0.30
  10   1   7   -0.50    0.50
  10   1   7    0.00    0.50
  11   1   7    9.60    1.60
   7  -2  -7    1.70    0.70
   7  -2  -7    2.80    0.50
  -7   2   7    3.90    1.20
   6  -2  -7    4.40    0.60
   6  -2  -7    5.30    1.00
  -6   2   7    9.30    1.60
   5  -2  -7    7.40    0.70
   5  -2  -7    7.70    1.10
  -5   2   7    8.50    1.50
   4  -2  -7    9.30    0.70
  -4   2   7   10.20    1.50
  -4   2   7    7.40    0.80
   3  -2  -7   64.79    1.80
  -3   2   7   64.19    1.90
  -3   2   7   63.49    2.60
   2  -2  -7   77.69    1.50
   2  -2  -7   78.09    2.00
  -2   2   7   76.59    2.00
  -2   2   7   76.29    2.70
   1  -2  -7   25.20    0.70
   1  -2  -7   23.60    0.90
  -1   2   7   25.50    1.40
  -1   2   7   25.10    1.00
   0  -2  -7  253.97    4.50
   0  -2  -7  254.87    4.20
   0   2   7  256.57    5.30
   0   2   7  255.37    4.40
  -1  -2  -7    4.30    0.30
  -1  -2  -7    5.30    0.40
   1   2   7    5.70    0.80
   1   2   7    4.60    0.40
  -2  -2  -7  272.07    4.30
  -2  -2  -7  275.37    4.60
  -2  -2  -7  283.57    4.60
   2   2   7  278.77    5.50
   2   2   7  285.17    4.70
  -3  -2  -7    1.20    0.20
  -3  -2  -7    1.00    0.20
  -3  -2  -7    1.00    0.20
   3   2   7    1.30    0.30
   3   2   7    1.00    0.50
  -4  -2  -7  256.37    4.30
  -4  -2  -7  257.87    4.10
  -4  -2  -7  252.77    4.30
   4   2   7  252.27    4.30
   4   2   7  249.68    5.10
  -5  -2  -7   53.49    1.30
  -5  -2  -7   54.49    1.40
  -5  -2  -7   54.29    1.50
   5   2   7   54.19    2.00
   5   2   7   55.19    1.50
  -6  -2  -7   41.50    1.40
  -6  -2  -7   42.10    1.20
   6   2   7   41.20    1.80
   6   2   7   42.40    1.40
  -7  -2  -7   38.20    1.20
  -7  -2  -7   37.60    1.40
   7   2   7   37.30    1.90
   7   2   7   36.70    1.40
  -8  -2  -7    8.20    0.50
  -8  -2  -7    7.90    0.80
   8   2   7    8.60    0.90
   8   2   7    8.40    1.10
  -9  -2  -7   37.70    1.70
  -9  -2  -7   36.30    1.20
   9   2   7   37.10    2.20
   9   2   7   39.40    1.80
 -10  -2  -7   -0.30    0.30
  10   2   7   -1.00    0.50
  10   2   7   -0.50    0.50
  11   2   7   11.50    1.70
  11   2   7   12.10    1.40
   7  -3  -7    3.50    0.90
   7  -3  -7    3.90    0.60
  -7   3   7    4.40    1.20
   6  -3  -7    0.60    0.50
   6  -3  -7    0.00    0.20
  -6   3   7    0.00    0.60
   5  -3  -7    1.30    0.40
   5  -3  -7    1.80    0.60
  -5   3   7    2.00    0.90
   4  -3  -7   -0.10    0.20
   4  -3  -7   -0.10    0.30
  -4   3   7    0.30    0.50
   3  -3  -7   20.20    1.00
  -3   3   7   21.50    1.10
  -3   3   7   21.10    1.60
   2  -3  -7    3.90    0.30
   2  -3  -7    2.90    0.40
  -2   3   7    3.00    0.70
  -2   3   7    4.50    0.60
  -2   3   7    2.80    0.40
   1  -3  -7   75.99    1.90
   1  -3  -7   78.69    1.50
  -1   3   7   76.69    2.60
  -1   3   7   77.59    1.90
   0  -3  -7   14.70    0.70
   0  -3  -7   13.90    0.50
   0   3   7   13.80    0.70
   0   3   7   14.90    1.10
  -1  -3  -7    0.80    0.20
  -1  -3  -7    0.80    0.20
   1   3   7    0.50    0.50
   1   3   7    0.80    0.20
  -2  -3  -7    6.00    0.40
  -2  -3  -7    6.30    0.40
   2   3   7    6.30    0.40
   2   3   7    7.80    1.00
  -3  -3  -7    6.10    0.40
  -3  -3  -7    6.00    0.30
  -3  -3  -7    6.10    0.40
   3   3   7    6.00    0.50
   3   3   7    7.60    1.00
  -4  -3  -7  113.69    2.30
  -4  -3  -7  112.19    2.20
  -4  -3  -7  110.89    2.00
   4   3   7  113.09    3.10
   4   3   7  110.99    2.20
  -5  -3  -7    0.40    0.20
  -5  -3  -7    0.40    0.20
   5   3   7    0.40    0.30
   5   3   7    0.80    0.50
  -6  -3  -7   11.00    0.60
  -6  -3  -7   10.70    0.70
   6   3   7   10.50    0.70
   6   3   7    9.80    1.00
  -7  -3  -7   32.00    1.10
  -7  -3  -7   31.90    1.30
   7   3   7   27.50    1.70
   7   3   7   29.50    1.30
  -8  -3  -7   28.20    1.30
  -8  -3  -7   28.50    1.00
   8   3   7   26.90    1.30
   8   3   7   28.00    1.80
  -9  -3  -7    0.00    0.30
  -9  -3  -7    0.10    0.20
   9   3   7   -0.20    0.50
   9   3   7   -0.10    0.50
 -10  -3  -7    3.30    0.70
  10   3   7    2.80    1.00
  10   3   7    0.80    0.60
  11   3   7   -1.30    0.50
   7  -4  -7    1.10    0.60
   7  -4  -7    0.40    0.30
  -7   4   7    1.40    0.70
   6  -4  -7    1.00    0.40
   6  -4  -7    0.80    0.50
  -6   4   7    2.50    1.00
   5  -4  -7   13.30    0.90
   5  -4  -7   10.40    1.10
  -5   4   7   12.60    1.50
   4  -4  -7    3.10    0.50
   4  -4  -7    3.00    0.60
  -4   4   7    2.60    0.80
   3  -4  -7    3.90    0.50
  -3   4   7    3.60    0.90
  -3   4   7    3.50    0.60
   2  -4  -7    3.80    0.30
   2  -4  -7    3.90    0.50
  -2   4   7    5.00    1.00
  -2   4   7    4.10    0.40
  -2   4   7    3.80    0.50
   1  -4  -7   37.00    1.20
   1  -4  -7   38.20    0.90
  -1   4   7   35.40    1.00
  -1   4   7   38.70    1.20
  -1   4   7   37.20    1.80
   0  -4  -7   81.59    1.90
   0  -4  -7   81.29    1.60
   0   4   7   83.49    1.80
   0   4   7   76.89    2.60
   0   4   7   80.59    1.60
  -1  -4  -7   26.00    0.80
  -1  -4  -7   24.60    0.90
   1   4   7   24.80    0.80
   1   4   7   24.40    0.70
   1   4   7   26.40    1.50
  -2  -4  -7   25.60    0.80
  -2  -4  -7   27.00    0.80
   2   4   7   27.00    0.80
   2   4   7   26.30    0.70
   2   4   7   26.20    1.50
  -3  -4  -7    4.60    0.40
  -3  -4  -7    4.80    0.30
  -3  -4  -7    4.10    0.30
   3   4   7    4.40    0.40
   3   4   7    5.60    0.90
  -4  -4  -7   21.80    0.60
  -4  -4  -7   22.10    0.80
  -4  -4  -7   22.60    0.80
   4   4   7   23.60    1.50
   4   4   7   22.10    0.80
  -5  -4  -7  103.89    2.20
  -5  -4  -7  106.39    2.20
   5   4   7  101.09    2.20
   5   4   7  108.89    3.20
  -6  -4  -7   12.40    0.70
  -6  -4  -7   12.60    0.60
   6   4   7   13.20    0.80
   6   4   7   12.50    1.20
  -7  -4  -7   16.70    0.80
  -7  -4  -7   16.50    0.90
   7   4   7   15.30    0.90
   7   4   7   16.90    1.40
  -8  -4  -7    2.80    0.40
  -8  -4  -7    2.40    0.50
   8   4   7    1.70    0.50
   8   4   7    1.80    0.70
  -9  -4  -7    4.90    0.50
  -9  -4  -7    5.00    0.70
   9   4   7    3.90    1.00
   9   4   7    3.80    0.70
 -10  -4  -7   11.50    1.00
  10   4   7    9.30    1.50
  10   4   7    8.70    1.10
  11   4   7    1.90    0.80
   7  -5  -7    0.00    0.30
   7  -5  -7    0.00    0.40
   6  -5  -7    9.00    0.80
   6  -5  -7    6.70    1.10
  -6   5   7   10.30    1.80
   5  -5  -7    2.00    0.60
   5  -5  -7    1.40    0.40
  -5   5   7    3.00    1.00
   4  -5  -7    0.00    0.30
   4  -5  -7   -0.10    0.20
  -4   5   7    0.90    0.60
   3  -5  -7    0.10    0.20
   3  -5  -7    0.20    0.20
  -3   5   7   -0.10    0.40
   2  -5  -7   24.10    1.00
  -2   5   7   23.30    1.00
  -2   5   7   24.70    1.70
  -2   5   7   23.70    0.90
   1  -5  -7    0.60    0.20
   1  -5  -7    0.50    0.20
  -1   5   7    0.70    0.20
  -1   5   7    0.60    0.20
  -1   5   7    1.00    0.50
   0  -5  -7   51.59    1.20
   0  -5  -7   50.69    1.40
   0   5   7   49.40    2.10
   0   5   7   50.99    1.30
   0   5   7   50.69    1.30
  -1  -5  -7    2.60    0.30
  -1  -5  -7    1.90    0.30
   1   5   7    2.50    0.30
   1   5   7    2.60    0.80
   1   5   7    2.20    0.30
  -2  -5  -7    0.30    0.10
  -2  -5  -7    0.00    0.10
   2   5   7   -0.30    0.50
   2   5   7    0.20    0.20
   2   5   7    0.20    0.20
  -3  -5  -7   14.40    0.60
  -3  -5  -7   14.60    0.60
  -3  -5  -7   13.90    0.60
   3   5   7   14.30    0.60
   3   5   7   15.30    1.40
  -4  -5  -7   33.90    0.80
  -4  -5  -7   34.20    1.10
  -4  -5  -7   34.50    1.00
   4   5   7   32.80    1.00
   4   5   7   33.90    1.80
  -5  -5  -7    8.60    0.60
  -5  -5  -7    8.40    0.50
   5   5   7    9.60    1.20
   5   5   7    8.60    0.50
  -6  -5  -7    9.10    0.60
  -6  -5  -7    8.80    0.60
   6   5   7   10.30    1.20
   6   5   7   10.30    0.70
  -7  -5  -7    4.20    0.50
  -7  -5  -7    4.10    0.60
   7   5   7    5.10    0.60
   7   5   7    5.40    1.00
  -8  -5  -7    0.60    0.20
  -8  -5  -7    0.60    0.40
   8   5   7    0.20    0.60
   8   5   7    0.30    0.40
  -9  -5  -7   28.30    1.40
  -9  -5  -7   25.60    1.00
   9   5   7   25.50    1.90
   9   5   7   26.00    1.40
 -10  -5  -7    7.20    0.90
  10   5   7    4.70    0.80
  10   5   7    4.30    1.20
   6  -6  -7   -0.50    0.30
   6  -6  -7    0.30    0.30
  -6   6   7    1.00    0.80
   5  -6  -7    0.00    0.20
   5  -6  -7    0.10    0.40
  -5   6   7    0.00    0.60
   4  -6  -7    8.00    0.70
   4  -6  -7    9.00    0.90
  -4   6   7    9.10    1.60
   3  -6  -7    8.60    0.70
   3  -6  -7    7.70    0.80
  -3   6   7   10.20    1.30
   2  -6  -7   63.29    2.10
   2  -6  -7   59.59    1.80
  -2   6   7   63.39    2.70
  -2   6   7   62.39    1.70
   1  -6  -7   56.19    1.30
   1  -6  -7   55.59    1.60
  -1   6   7   56.79    1.60
  -1   6   7   59.39    2.40
  -1   6   7   55.99    1.50
   0  -6  -7    0.20    0.20
   0  -6  -7    0.10    0.10
   0   6   7    0.40    0.20
   0   6   7    0.00    0.50
   0   6   7    0.20    0.20
  -1  -6  -7   30.10    1.00
  -1  -6  -7   29.10    0.90
   1   6   7   26.90    1.70
   1   6   7   30.10    0.90
   1   6   7   28.50    0.90
  -2  -6  -7   22.10    0.80
  -2  -6  -7   21.20    0.80
   2   6   7   21.20    1.50
   2   6   7   21.80    0.70
   2   6   7   20.90    0.80
  -3  -6  -7  189.88    3.40
  -3  -6  -7  187.18    3.30
   3   6   7  187.78    4.60
   3   6   7  186.28    3.20
   3   6   7  182.28    3.30
  -4  -6  -7   98.79    2.10
  -4  -6  -7   97.39    1.90
  -4  -6  -7   97.99    2.10
   4   6   7  102.89    3.20
   4   6   7   99.99    1.90
  -5  -6  -7   36.50    1.10
  -5  -6  -7   38.90    1.20
   5   6   7   37.70    2.00
   5   6   7   37.10    1.00
  -6  -6  -7    0.00    0.20
  -6  -6  -7   -0.10    0.10
   6   6   7   -0.40    0.50
   6   6   7    0.00    0.30
  -7  -6  -7   20.40    0.90
  -7  -6  -7   20.90    1.00
   7   6   7   19.60    0.90
   7   6   7   21.90    1.70
  -8  -6  -7    6.30    0.50
  -8  -6  -7    6.90    0.70
   8   6   7    5.10    0.70
   8   6   7    7.00    1.30
  -9  -6  -7    0.00    0.30
  -9  -6  -7   -0.10    0.20
   9   6   7    0.20    0.70
 -10  -6  -7   14.40    1.10
  10   6   7   12.80    1.60
   6  -7  -7    0.80    0.50
   6  -7  -7    0.70    0.40
  -6   7   7    2.00    0.90
   5  -7  -7    2.80    0.70
   5  -7  -7    2.90    0.60
  -5   7   7    3.50    1.10
   4  -7  -7    0.30    0.30
   4  -7  -7   -0.30    0.20
  -4   7   7    0.20    0.70
   3  -7  -7   15.30    1.10
   3  -7  -7   14.70    0.90
  -3   7   7   14.90    1.60
   2  -7  -7   34.50    1.30
   2  -7  -7   31.90    1.40
  -2   7   7   33.10    2.10
  -2   7   7   31.10    1.20
   1  -7  -7    9.40    0.70
   1  -7  -7   10.90    0.80
   1  -7  -7   10.70    0.50
  -1   7   7   10.50    1.20
  -1   7   7   10.50    0.70
   0  -7  -7  123.59    2.70
   0  -7  -7  121.79    2.30
   0   7   7  120.79    3.70
   0   7   7  117.69    2.50
   0   7   7  121.09    2.40
  -1  -7  -7    4.30    0.50
  -1  -7  -7    3.70    0.40
   1   7   7    3.70    0.40
   1   7   7    4.20    0.90
   1   7   7    4.70    0.50
  -2  -7  -7  333.07    5.50
  -2  -7  -7  335.47    5.60
   2   7   7  331.07    7.10
   2   7   7  328.97    5.60
  -3  -7  -7   81.99    1.80
  -3  -7  -7   82.59    1.80
   3   7   7   81.59    2.90
   3   7   7   78.49    1.80
  -4  -7  -7    4.70    0.30
  -4  -7  -7    5.50    0.40
  -4  -7  -7    5.40    0.50
   4   7   7    5.30    1.10
  -5  -7  -7   29.40    1.10
  -5  -7  -7   30.40    1.00
   5   7   7   32.00    1.90
  -6  -7  -7    6.70    0.50
  -6  -7  -7    6.80    0.60
   6   7   7    6.80    1.20
  -7  -7  -7  132.79    3.10
  -7  -7  -7  135.79    2.90
   7   7   7  137.99    4.30
  -8  -7  -7    0.10    0.20
  -8  -7  -7    0.10    0.30
   8   7   7   -0.90    0.60
  -9  -7  -7   16.60    1.10
  -9  -7  -7   18.50    0.90
   9   7   7   18.00    1.80
 -10  -7  -7    6.60    0.90
  10   7   7    5.90    1.40
   5  -8  -7    0.00    0.30
  -5   8   7    1.30    0.80
   4  -8  -7    4.70    0.70
  -4   8   7    7.50    1.60
   3  -8  -7   10.40    0.80
  -3   8   7   13.50    1.70
   2  -8  -7    6.10    0.70
  -2   8   7    8.00    0.70
  -2   8   7    7.40    1.30
   1  -8  -7   22.20    0.70
   1  -8  -7   20.80    1.00
  -1   8   7   22.30    1.70
  -1   8   7   21.90    1.00
   0  -8  -7    1.40    0.30
   0  -8  -7    0.80    0.30
   0   8   7    0.60    0.40
   0   8   7    1.80    0.70
  -1  -8  -7    7.10    0.50
  -1  -8  -7    7.60    0.50
   1   8   7    6.90    0.60
   1   8   7    8.50    1.20
  -2  -8  -7   74.09    1.80
  -2  -8  -7   73.99    1.70
   2   8   7   78.19    3.00
   2   8   7   72.89    1.90
  -3  -8  -7   37.20    1.10
  -3  -8  -7   36.90    1.10
   3   8   7   35.30    1.20
   3   8   7   35.10    2.00
  -4  -8  -7   66.79    1.50
  -4  -8  -7   70.19    1.70
   4   8   7   68.09    1.70
   4   8   7   66.69    2.80
  -5  -8  -7    8.50    0.60
  -5  -8  -7    8.20    0.60
   5   8   7    7.40    1.30
  -6  -8  -7   42.80    1.40
  -6  -8  -7   41.20    1.40
   6   8   7   43.10    2.40
  -7  -8  -7   30.40    1.10
  -7  -8  -7   31.00    1.30
   7   8   7   28.10    2.10
  -8  -8  -7    0.50    0.40
  -8  -8  -7    0.00    0.20
   8   8   7    0.20    0.90
  -9  -8  -7   13.00    0.80
  -9  -8  -7   13.10    1.00
   9   8   7   12.40    1.80
 -10  -8  -7    0.00    0.40
 -10  -8  -7   -0.20    0.20
   5  -9  -7    2.60    0.60
  -4   9   7    1.90    0.90
   3  -9  -7    0.00    0.30
  -3   9   7    1.80    0.80
   2  -9  -7    1.40    0.40
  -2   9   7    1.90    0.40
  -2   9   7    2.20    0.90
   1  -9  -7    8.70    0.70
  -1   9   7   10.00    0.80
  -1   9   7   11.60    1.40
   0  -9  -7   18.40    0.70
   0  -9  -7   17.60    0.90
   0   9   7   16.70    1.00
   0   9   7   17.80    1.60
  -1  -9  -7   46.40    1.50
  -1  -9  -7   45.70    1.30
   1   9   7   47.70    2.40
   1   9   7   45.10    1.50
  -2  -9  -7    7.40    0.60
  -2  -9  -7    8.60    0.50
   2   9   7    8.20    0.70
   2   9   7    8.90    1.30
  -3  -9  -7   48.30    1.40
  -3  -9  -7   48.00    1.30
   3   9   7   47.20    1.50
   3   9   7   46.30    2.40
  -4  -9  -7    5.70    0.50
   4   9   7    5.70    1.20
   4   9   7    5.10    0.50
  -5  -9  -7    4.20    0.50
   5   9   7    4.70    1.10
  -6  -9  -7    6.00    0.50
  -6  -9  -7    7.70    0.70
   6   9   7    5.70    1.30
  -7  -9  -7   -0.10    0.30
  -7  -9  -7    0.00    0.20
   7   9   7   -0.80    0.80
  -8  -9  -7    2.40    0.60
  -8  -9  -7    1.70    0.40
   8   9   7    2.00    1.20
  -9  -9  -7   -0.10    0.20
  -9  -9  -7   -0.50    0.30
   9   9   7   -1.30    0.90
 -10  -9  -7    0.30    0.30
   4 -10  -7   -0.20    0.20
   3 -10  -7    0.60    0.30
  -3  10   7    2.20    0.80
   2 -10  -7    9.30    0.80
  -2  10   7    8.40    0.90
  -2  10   7   11.60    1.80
   1 -10  -7    0.30    0.30
  -1  10   7    0.20    0.40
  -1  10   7    1.30    0.70
   0 -10  -7    2.60    0.50
   0 -10  -7    2.30    0.30
   0  10   7    4.10    1.00
   0  10   7    1.70    0.50
  -1 -10  -7   17.30    0.80
  -1 -10  -7   17.10    0.90
   1  10   7   18.10    1.00
   1  10   7   18.50    1.60
  -2 -10  -7    1.00    0.30
  -2 -10  -7    1.00    0.30
   2  10   7    1.70    0.50
   2  10   7    1.40    0.80
  -3 -10  -7    1.00    0.30
  -3 -10  -7    0.70    0.20
   3  10   7    0.50    0.40
   3  10   7    0.00    0.80
  -4 -10  -7    6.50    0.50
   4  10   7    6.30    1.30
   4  10   7    7.20    0.70
  -5 -10  -7    0.00    0.20
   5  10   7    0.20    0.30
   5  10   7   -0.40    0.90
  -6 -10  -7    2.10    0.40
   6  10   7    2.40    1.20
  -7 -10  -7    0.40    0.40
  -7 -10  -7    0.50    0.30
   7  10   7    0.00    1.10
  -8 -10  -7   14.00    0.80
  -8 -10  -7   12.20    1.00
   8  10   7   10.30    1.90
  -9 -10  -7    1.20    0.30
  -9 -10  -7    1.00    0.50
   9  10   7   -0.70    1.30
   3 -11  -7    2.00    0.50
   2 -11  -7    2.20    0.50
  -2  11   7    4.70    1.10
   1 -11  -7    0.20    0.30
  -1  11   7    2.10    0.90
  -1  11   7    0.90    0.40
   0 -11  -7    1.20    0.30
   0 -11  -7    0.90    0.40
   0  11   7    1.10    0.50
   0  11   7    2.10    0.90
  -1 -11  -7    0.10    0.20
  -1 -11  -7    0.00    0.20
   1  11   7    0.40    0.50
   1  11   7    1.10    0.70
  -2 -11  -7   17.30    0.90
  -2 -11  -7   17.20    0.80
   2  11   7   18.80    1.80
   2  11   7   18.40    1.10
  -3 -11  -7    4.30    0.50
  -3 -11  -7    5.60    0.50
   3  11   7    4.20    0.70
   3  11   7    6.00    1.30
  -4 -11  -7    2.60    0.40
   4  11   7    2.40    0.60
   4  11   7    2.80    1.20
  -5 -11  -7   39.00    1.30
   5  11   7   38.80    1.50
   5  11   7   37.40    2.50
  -6 -11  -7   -0.10    0.20
   6  11   7   -0.30    0.30
   6  11   7   -0.60    1.00
  -7 -11  -7    7.00    0.60
   7  11   7    4.90    1.60
  -8 -11  -7    0.20    0.20
  -8 -11  -7    0.20    0.40
   8  11   7   -2.00    0.90
   2 -12  -7   -0.30    0.30
   1 -12  -7   12.50    0.90
  -1  12   7   19.80    1.80
  -1  12   7   13.10    1.10
   0 -12  -7    9.30    0.80
   0 -12  -7    8.50    0.60
   0  12   7   14.40    1.70
   0  12   7    9.60    1.00
  -1 -12  -7   19.10    0.90
  -1 -12  -7   20.00    1.10
   1  12   7   21.40    1.80
   1  12   7   18.90    1.20
  -2 -12  -7    8.70    0.70
  -2 -12  -7    8.20    0.60
   2  12   7    9.00    1.00
   2  12   7    9.60    1.50
  -3 -12  -7    2.20    0.40
  -3 -12  -7    2.00    0.40
   3  12   7    2.40    1.00
   3  12   7    2.00    0.60
  -4 -12  -7    0.00    0.20
   4  12   7   -0.50    0.40
   4  12   7    0.00    0.90
  -5 -12  -7   14.80    0.90
   5  12   7   14.20    1.10
   5  12   7   14.30    1.90
  -6 -12  -7    5.50    0.60
   6  12   7    8.30    1.00
   6  12   7    6.40    1.60
  -7 -12  -7   14.80    0.90
   7  12   7   16.30    1.10
   7  12   7   13.10    2.10
  -2  13   7   56.99    1.90
   0 -13  -7    3.10    0.60
   0  13   7    3.70    0.70
  -1 -13  -7    1.00    0.40
  -1 -13  -7    0.70    0.30
   1  13   7    0.10    0.50
   1  13   7    2.30    0.80
  -2 -13  -7    8.80    0.70
  -2 -13  -7   10.00    0.80
   2  13   7    8.20    1.00
   2  13   7   12.50    1.60
  -3 -13  -7    6.30    0.70
   3  13   7    8.70    1.50
   3  13   7    5.10    0.90
  -4 -13  -7   31.50    1.30
   4  13   7   32.30    2.40
   4  13   7   28.50    1.50
  -5 -13  -7   17.30    0.90
   5  13   7   16.20    1.30
   5  13   7   15.20    2.00
  -6 -13  -7    4.50    0.60
   6  13   7    5.80    1.60
   6  13   7    5.20    0.90
  -2 -14  -7    0.40    0.30
  -2 -14  -7    0.50    0.30
   2  14   7    0.50    0.60
  -3 -14  -7    3.10    0.50
   3  14   7    3.90    0.80
   3  14   7    6.20    1.30
  -4 -14  -7    0.40    0.30
   4  14   7    2.10    1.10
   4  14   7   -1.00    0.50
   5  14   7    1.90    1.20
   5  14   7    0.00    0.60
  -2 -15  -7    2.00    0.70
   3  15   7   13.10    1.30
  -3  13  -8   19.70    1.30
   3  12  -8    6.40    0.90
  -3 -12   8    6.70    0.90
   2  12  -8    4.60    0.70
  -2 -12   8    5.10    0.70
   1  12  -8   18.10    1.10
  -1 -12   8   17.40    1.10
   0  12  -8   48.30    1.70
   0 -12   8   50.09    1.80
  -1  12  -8    0.30    0.30
   1 -12   8    0.40    0.30
  -2  12  -8    4.80    0.80
  -2  12  -8    4.00    0.60
   2 -12   8    4.00    0.60
  -3  12  -8    0.10    0.30
   3 -12   8    0.30    0.30
  -4  12  -8    0.60    0.40
   4  11  -8    4.30    0.60
  -4 -11   8    3.50    0.60
   3  11  -8    6.90    0.70
  -3 -11   8    8.20    0.70
   2  11  -8   -0.20    0.30
  -2 -11   8   -0.10    0.20
   1  11  -8    1.60    0.40
  -1 -11   8    1.20    0.40
   0  11  -8   29.90    1.30
   0 -11   8   28.80    1.30
  -1  11  -8    1.40    0.40
   1 -11   8    1.80    0.40
  -2  11  -8   10.20    0.80
  -2  11  -8   11.80    1.00
   2 -11   8    9.10    0.80
  -3  11  -8   12.30    1.10
  -3  11  -8   10.20    0.80
   3 -11   8   10.10    0.80
  -4  11  -8    7.90    0.80
  -4  11  -8   11.40    1.10
   4 -11   8    8.60    0.70
  -5  11  -8    1.90    0.50
  -5  11  -8    3.80    0.70
   5 -11   8    1.20    0.40
   5  10  -8   13.80    1.00
   4  10  -8    6.70    0.70
  -4 -10   8    6.40    0.70
   3  10  -8   28.30    1.20
  -3 -10   8   26.40    1.20
   2  10  -8    1.00    0.40
  -2 -10   8    0.90    0.40
   1  10  -8    1.70    0.40
  -1 -10   8    0.90    0.30
  -1 -10   8    1.30    0.40
   0  10  -8    0.50    0.30
   0 -10   8   -0.30    0.20
   0 -10   8    0.30    0.30
  -1  10  -8   17.80    1.00
  -1  10  -8   17.10    1.10
   1 -10   8   20.10    1.00
   1 -10   8   17.80    1.00
  -2  10  -8    0.30    0.30
  -2  10  -8    1.40    0.50
   2 -10   8    1.20    0.40
   2 -10   8    0.90    0.30
  -3  10  -8    3.00    0.60
  -3  10  -8    1.80    0.40
   3 -10   8    2.40    0.50
   3 -10   8    2.30    0.50
  -4  10  -8    2.50    0.60
  -4  10  -8    1.20    0.40
   4 -10   8    2.40    0.50
   4 -10   8    2.30    0.50
  -5  10  -8    1.10    0.40
  -5  10  -8    0.60    0.30
   5 -10   8    0.50    0.40
   5 -10   8   -0.20    0.20
  -6  10  -8    0.80    0.40
   6 -10   8    0.50    0.30
   6 -10   8    0.70    0.40
   5   9  -8   14.30    1.00
  -5  -9   8   16.10    1.20
   4   9  -8    1.80    0.40
  -4  -9   8    2.50    0.50
   3   9  -8    0.50    0.30
  -3  -9   8    0.60    0.30
  -3  -9   8    0.10    0.30
   2   9  -8    2.90    0.50
  -2  -9   8    2.70    0.50
  -2  -9   8    2.70    0.50
   1   9  -8    2.70    0.50
  -1  -9   8    3.80    0.60
  -1  -9   8    3.00    0.50
   0   9  -8    7.60    0.70
   0  -9   8    8.30    0.70
   0  -9   8    8.00    0.70
  -1   9  -8    0.10    0.30
  -1   9  -8    0.40    0.40
   1  -9   8   -0.20    0.20
   1  -9   8    0.20    0.30
  -2   9  -8   18.40    1.10
  -2   9  -8   19.40    1.00
   2  -9   8   19.70    1.00
   2  -9   8   18.80    1.00
  -3   9  -8    3.30    0.70
  -3   9  -8    2.60    0.50
   3  -9   8    3.00    0.50
   3  -9   8    2.80    0.50
  -4   9  -8    2.20    0.50
  -4   9  -8    1.30    0.50
   4  -9   8    1.70    0.40
   4  -9   8    1.20    0.30
  -5   9  -8    2.80    0.70
  -5   9  -8    1.70    0.40
   5  -9   8    1.30    0.30
   5  -9   8    1.30    0.40
  -6   9  -8    1.60    0.60
  -6   9  -8    1.00    0.40
   6  -9   8    1.40    0.40
   6  -9   8    1.20    0.50
  -7   9  -8    1.20    0.60
   7  -9   8    0.30    0.40
   6   8  -8    9.20    1.40
   6   8  -8    9.20    0.90
   5   8  -8    0.20    0.30
  -5  -8   8    0.70    0.40
   4   8  -8    8.60    0.80
   4   8  -8    9.20    0.70
  -4  -8   8   10.60    1.00
   3   8  -8   17.90    0.90
  -3  -8   8   17.10    1.10
  -3  -8   8   18.40    0.90
   2   8  -8   20.20    0.90
  -2  -8   8   19.10    1.10
  -2  -8   8   18.90    1.00
   1   8  -8   51.69    1.50
  -1  -8   8   54.39    1.80
  -1  -8   8   49.40    1.60
   0   8  -8    9.10    0.70
   0  -8   8    9.80    0.70
   0  -8   8    9.80    0.80
  -1   8  -8   26.10    1.20
  -1   8  -8   27.80    1.10
   1  -8   8   28.40    1.10
   1  -8   8   28.40    1.20
  -2   8  -8    0.50    0.30
  -2   8  -8    0.80    0.40
   2  -8   8    0.10    0.20
   2  -8   8    0.90    0.30
  -3   8  -8   11.30    0.70
  -3   8  -8   13.40    1.00
   3  -8   8   12.00    0.80
   3  -8   8   12.90    0.80
  -4   8  -8    7.60    0.80
  -4   8  -8    8.20    0.70
   4  -8   8    7.80    0.60
   4  -8   8    8.50    0.70
  -5   8  -8   20.80    1.00
  -5   8  -8   19.50    1.30
   5  -8   8   21.60    1.00
   5  -8   8   19.60    1.10
  -6   8  -8   15.90    1.30
  -6   8  -8   16.30    0.90
   6  -8   8   16.20    0.90
   6  -8   8   16.80    1.10
  -7   8  -8    7.20    1.10
   7  -8   8    5.80    0.80
  -8   8  -8    2.70    0.70
   8  -8   8    2.60    0.90
   6   7  -8    1.30    0.60
   6   7  -8    2.10    0.50
   5   7  -8    0.70    0.30
  -5  -7   8    0.70    0.40
   4   7  -8   26.30    1.00
   4   7  -8   26.50    1.30
  -4  -7   8   24.50    1.40
   3   7  -8    0.80    0.30
  -3  -7   8    0.70    0.30
  -3  -7   8    1.00    0.40
   2   7  -8   31.40    1.10
  -2  -7   8   30.20    1.30
  -2  -7   8   29.40    1.20
   1   7  -8   17.00    0.80
  -1  -7   8   16.90    0.80
  -1  -7   8   17.30    1.00
   0   7  -8    4.10    0.50
   0  -7   8    4.30    0.50
   0  -7   8    4.50    0.60
  -1   7  -8   46.70    1.40
  -1   7  -8   46.80    1.50
   1  -7   8   48.70    1.50
   1  -7   8   50.19    1.60
  -2   7  -8   15.90    0.90
  -2   7  -8   16.20    0.80
   2  -7   8   16.90    0.90
   2  -7   8   16.10    0.80
  -3   7  -8   39.90    1.30
  -3   7  -8   39.80    1.50
   3  -7   8   39.60    1.30
   3  -7   8   38.90    1.40
  -4   7  -8   21.30    1.00
  -4   7  -8   21.30    1.20
   4  -7   8   20.90    0.90
   4  -7   8   20.00    1.00
  -5   7  -8    2.50    0.40
  -5   7  -8    2.90    0.60
   5  -7   8    2.30    0.50
   5  -7   8    2.70    0.40
  -6   7  -8    0.70    0.50
  -6   7  -8   -0.40    0.20
   6  -7   8   -0.20    0.40
   6  -7   8    0.20    0.20
  -7   7  -8    1.00    0.30
  -7   7  -8    1.50    0.60
   7  -7   8    1.10    0.50
  -8   7  -8    8.30    1.20
   8  -7   8    7.10    0.90
  -7  -6   8   18.80    1.00
   6   6  -8    2.10    0.70
   6   6  -8    3.50    0.60
  -6  -6   8    3.90    0.80
   5   6  -8    6.50    0.80
  -5  -6   8    6.90    1.20
  -5  -6   8    5.40    0.80
   4   6  -8   19.00    0.80
   4   6  -8   18.90    1.10
  -4  -6   8   19.80    1.40
  -4  -6   8   17.90    1.10
   3   6  -8    0.20    0.20
   3   6  -8   -0.40    0.20
  -3  -6   8    0.30    0.30
   2   6  -8  102.69    2.20
  -2  -6   8  102.49    2.70
  -2  -6   8  100.79    2.40
   1   6  -8    5.30    0.50
  -1  -6   8    5.00    0.50
  -1  -6   8    5.00    0.60
   0   6  -8   32.80    1.10
   0  -6   8   32.60    1.10
   0  -6   8   33.60    1.30
  -1   6  -8    0.00    0.20
  -1   6  -8    0.40    0.30
   1  -6   8    0.10    0.30
   1  -6   8    0.10    0.20
  -2   6  -8    4.10    0.50
  -2   6  -8    4.80    0.50
   2  -6   8    3.50    0.40
   2  -6   8    3.60    0.50
  -3   6  -8   71.59    1.80
  -3   6  -8   73.29    2.00
   3  -6   8   72.29    1.80
   3  -6   8   68.89    1.90
  -4   6  -8    0.10    0.30
  -4   6  -8    0.50    0.30
   4  -6   8    0.20    0.20
   4  -6   8   -0.10    0.30
  -5   6  -8   54.69    2.00
  -5   6  -8   54.39    1.60
   5  -6   8   55.69    1.70
   5  -6   8   57.79    1.60
  -6   6  -8   54.49    2.10
  -6   6  -8   53.49    1.60
   6  -6   8   55.09    1.80
   6  -6   8   54.29    1.50
  -7   6  -8   11.20    0.70
  -7   6  -8    9.40    1.00
   7  -6   8   10.40    1.00
  -8   6  -8   16.80    1.30
   8  -6   8   14.60    1.20
  -9   6  -8    1.30    0.40
   7   5  -8    0.30    0.50
   6   5  -8    4.80    0.70
   6   5  -8    3.90    0.90
  -6  -5   8    5.10    1.10
   5   5  -8    4.10    0.60
  -5  -5   8    3.50    0.70
  -5  -5   8    4.00    1.00
   4   5  -8    0.90    0.30
  -4  -5   8    0.50    0.50
  -4  -5   8    1.00    0.40
   3   5  -8   11.30    0.80
   3   5  -8   13.00    0.60
  -3  -5   8   10.60    1.00
  -3  -5   8   10.60    0.90
   2   5  -8   20.10    0.80
  -2  -5   8   21.80    0.90
  -2  -5   8   20.10    1.20
  -2  -5   8   21.00    1.10
   1   5  -8    5.40    0.50
  -1  -5   8    5.50    0.60
  -1  -5   8    5.30    0.50
   0   5  -8   11.30    0.60
   0  -5   8   12.40    0.80
   0  -5   8   12.60    0.70
  -1   5  -8    9.80    0.60
  -1   5  -8   10.60    0.60
   1  -5   8    9.40    0.60
   1  -5   8   10.60    0.70
  -2   5  -8   31.80    1.10
  -2   5  -8   30.80    1.10
   2  -5   8   32.40    1.10
   2  -5   8   31.40    1.20
  -3   5  -8    1.30    0.40
  -3   5  -8    1.10    0.30
   3  -5   8    1.70    0.30
   3  -5   8    1.40    0.40
  -4   5  -8   94.69    2.10
  -4   5  -8   91.79    2.40
   4  -5   8   90.99    2.00
   4  -5   8   90.79    2.30
  -5   5  -8   22.20    1.20
  -5   5  -8   19.50    0.90
   5  -5   8   21.50    0.80
   5  -5   8   22.90    1.10
  -6   5  -8   20.10    0.90
  -6   5  -8   19.90    1.20
   6  -5   8   18.70    1.10
   6  -5   8   18.90    0.80
  -7   5  -8    0.50    0.30
  -7   5  -8    0.70    0.40
   7  -5   8    0.80    0.50
  -8   5  -8    0.90    0.50
   8  -5   8    0.90    0.50
  -9   5  -8    2.60    0.70
   9  -5   8    1.10    0.70
   7   4  -8    5.30    1.10
   6   4  -8    6.20    1.10
   6   4  -8    5.90    0.70
  -6  -4   8    8.00    1.40
   5   4  -8    0.00    0.20
  -5  -4   8    0.40    0.50
  -5  -4   8    0.30    0.40
   4   4  -8    0.30    0.30
  -4  -4   8    0.20    0.40
  -4  -4   8    1.20    0.60
   3   4  -8    3.00    0.40
   3   4  -8    3.00    0.50
  -3  -4   8    2.80    0.50
  -3  -4   8    3.00    0.70
   2   4  -8   16.20    0.70
   2   4  -8   18.40    0.90
  -2  -4   8   16.60    1.10
  -2  -4   8   18.20    1.00
   1   4  -8    0.30    0.20
  -1  -4   8    0.80    0.20
  -1  -4   8    0.90    0.30
  -1  -4   8    1.00    0.40
   0   4  -8    6.70    0.50
   0  -4   8    7.90    0.60
   0  -4   8    7.60    0.50
   0  -4   8    7.60    0.60
  -1   4  -8    0.00    0.20
  -1   4  -8    0.40    0.20
   1  -4   8   -0.40    0.20
   1  -4   8    0.30    0.20
  -2   4  -8   94.29    2.10
  -2   4  -8   94.59    2.10
   2  -4   8   95.89    2.00
   2  -4   8   91.09    2.20
  -3   4  -8   79.39    1.80
  -3   4  -8   73.39    1.90
   3  -4   8   79.89    2.00
   3  -4   8   81.39    1.80
  -4   4  -8    2.30    0.40
  -4   4  -8    3.10    0.50
   4  -4   8    3.10    0.40
   4  -4   8    2.90    0.50
  -5   4  -8    5.70    0.70
  -5   4  -8    4.90    0.50
   5  -4   8    5.20    0.40
   5  -4   8    5.60    0.70
  -6   4  -8   -0.10    0.30
  -6   4  -8    0.20    0.20
   6  -4   8    0.10    0.40
   6  -4   8    0.30    0.20
  -7   4  -8    2.50    0.60
  -7   4  -8    2.50    0.40
   7  -4   8    2.70    0.60
  -8   4  -8    6.20    0.90
  -8   4  -8    5.70    0.80
   8  -4   8    5.00    0.80
  -9   4  -8   10.40    1.10
   9  -4   8   10.10    1.10
   7   3  -8   -0.10    0.40
   7   3  -8    0.00    0.20
   6   3  -8    0.60    0.50
   6   3  -8    1.00    0.40
  -6  -3   8    1.10    0.70
   5   3  -8    1.10    0.40
  -5  -3   8    1.60    0.70
  -5  -3   8    2.10    0.60
   4   3  -8    7.40    0.70
  -4  -3   8    7.60    1.20
  -4  -3   8    7.90    0.80
   3   3  -8   17.90    0.70
   3   3  -8   18.10    1.00
  -3  -3   8   20.60    1.40
  -3  -3   8   19.30    1.10
   2   3  -8   82.19    2.10
   2   3  -8   82.49    1.80
  -2  -3   8   78.49    2.60
  -2  -3   8   82.09    2.20
   1   3  -8   30.60    1.20
   1   3  -8   31.20    1.00
  -1  -3   8   32.60    1.50
  -1  -3   8   30.10    1.20
   0   3  -8   75.69    1.70
   0  -3   8   73.49    2.00
   0  -3   8   75.99    1.80
   0  -3   8   73.29    2.10
  -1   3  -8    0.40    0.20
   1  -3   8    0.60    0.30
   1  -3   8    0.70    0.20
   1  -3   8    0.70    0.30
  -2   3  -8   44.90    1.20
  -2   3  -8   41.30    1.10
   2  -3   8   43.50    1.40
   2  -3   8   45.70    1.20
   2  -3   8   44.90    1.30
  -3   3  -8   27.50    0.90
  -3   3  -8   25.80    1.00
   3  -3   8   25.90    1.30
   3  -3   8   27.50    0.90
   3  -3   8   27.60    1.10
  -4   3  -8   58.89    1.70
  -4   3  -8   61.49    1.60
   4  -3   8   61.29    1.40
   4  -3   8   58.69    1.70
  -5   3  -8    2.10    0.40
  -5   3  -8    2.30    0.40
   5  -3   8    2.20    0.30
   5  -3   8    1.90    0.50
  -6   3  -8   59.89    1.60
  -6   3  -8   62.29    2.00
   6  -3   8   63.99    1.90
   6  -3   8   62.59    1.40
  -7   3  -8   54.59    1.50
  -7   3  -8   53.39    2.00
   7  -3   8   57.29    1.90
  -8   3  -8   13.30    0.80
  -8   3  -8   13.20    1.10
   8  -3   8   13.20    1.10
  -9   3  -8   32.30    1.70
   9  -3   8   33.80    1.70
 -10   3  -8    0.40    0.40
   7   2  -8    0.10    0.40
   7   2  -8   -0.20    0.30
   6   2  -8   38.70    2.20
   6   2  -8   39.60    1.60
  -6  -2   8   40.40    2.50
   5   2  -8    0.00    0.20
  -5  -2   8    0.10    0.30
  -5  -2   8   -0.10    0.50
   4   2  -8  177.98    3.80
  -4  -2   8  174.68    4.00
  -4  -2   8  180.68    5.00
   3   2  -8   29.20    0.90
   3   2  -8   27.80    1.20
  -3  -2   8   28.50    1.30
  -3  -2   8   30.20    1.70
   2   2  -8   36.40    1.30
   2   2  -8   36.80    1.00
  -2  -2   8   36.00    1.40
  -2  -2   8   34.20    1.70
   1   2  -8  133.09    2.90
   1   2  -8  133.39    2.50
  -1  -2   8  130.09    3.40
  -1  -2   8  129.39    2.90
   0   2  -8    2.30    0.30
   0   2  -8    1.80    0.30
   0  -2   8    2.00    0.40
   0  -2   8    2.20    0.50
  -1   2  -8  750.02   11.50
   1  -2   8  751.92   11.80
   1  -2   8  746.73   12.00
   1  -2   8  752.72   11.50
  -2   2  -8   21.00    0.80
   2  -2   8   19.60    0.90
   2  -2   8   21.20    0.80
   2  -2   8   19.20    0.90
  -3   2  -8  109.79    2.30
  -3   2  -8  109.79    2.30
   3  -2   8  106.69    2.40
   3  -2   8  112.69    2.50
   3  -2   8  108.79    2.10
  -4   2  -8   10.70    0.60
  -4   2  -8   10.80    0.70
   4  -2   8   10.00    0.80
   4  -2   8   10.90    0.50
   4  -2   8   11.40    0.70
  -5   2  -8    2.10    0.40
  -5   2  -8    1.50    0.30
   5  -2   8    2.30    0.50
   5  -2   8    2.50    0.30
   5  -2   8    2.30    0.60
  -6   2  -8   69.59    2.10
  -6   2  -8   69.49    1.70
   6  -2   8   71.39    2.00
  -7   2  -8   29.40    1.40
  -7   2  -8   30.00    1.10
   7  -2   8   31.00    1.40
  -8   2  -8  117.79    2.50
  -8   2  -8  110.99    3.20
   8  -2   8  111.89    3.00
  -9   2  -8    5.70    0.90
   9  -2   8    3.70    0.80
 -10   2  -8   58.09    2.40
  10  -2   8   59.69    2.30
   7   1  -8    0.20    0.50
   7   1  -8   -0.10    0.30
  -7  -1   8    2.30    0.60
   6   1  -8    1.80    0.40
   6   1  -8    1.50    0.60
  -6  -1   8    2.20    1.00
   5   1  -8    0.10    0.20
  -5  -1   8   -0.10    0.40
  -5  -1   8    0.10    0.40
   4   1  -8   41.00    1.50
  -4  -1   8   40.30    2.30
  -4  -1   8   41.70    1.70
   3   1  -8    1.00    0.30
   3   1  -8   -0.10    0.20
  -3  -1   8    0.80    0.50
  -3  -1   8    1.10    0.40
   2   1  -8   99.09    2.40
   2   1  -8   99.29    1.90
  -2  -1   8   93.29    3.00
  -2  -1   8   93.69    2.40
   1   1  -8   28.20    0.90
   1   1  -8   28.30    1.10
  -1  -1   8   27.30    1.40
  -1  -1   8   30.00    1.20
   0   1  -8  212.08    3.60
   0   1  -8  211.28    4.00
   0  -1   8  203.78    4.40
   0  -1   8  214.88    4.00
  -1   1  -8  141.49    2.70
  -1   1  -8  145.79    2.90
   1  -1   8  146.39    3.00
   1  -1   8  139.39    3.20
  -2   1  -8    1.30    0.30
   2  -1   8    2.20    0.50
   2  -1   8    2.20    0.40
  -3   1  -8  376.96    6.10
  -3   1  -8  380.56    6.20
   3  -1   8  384.36    6.80
   3  -1   8  384.06    6.40
   3  -1   8  382.26    6.10
  -4   1  -8   79.19    1.90
  -4   1  -8   80.59    1.80
   4  -1   8   79.89    1.90
   4  -1   8   82.39    2.20
   4  -1   8   81.49    1.70
  -5   1  -8  412.46    6.80
  -5   1  -8  410.76    7.00
   5  -1   8  414.66    7.00
   5  -1   8  417.86    6.50
   5  -1   8  408.76    7.40
  -6   1  -8   85.69    2.30
  -6   1  -8   86.79    2.00
   6  -1   8   86.59    2.50
   6  -1   8   87.99    2.30
  -7   1  -8   11.40    0.90
  -7   1  -8   10.50    0.60
   7  -1   8    9.70    1.00
   7  -1   8   11.80    0.90
  -8   1  -8   28.20    1.50
  -8   1  -8   28.50    1.10
   8  -1   8   28.90    2.50
   8  -1   8   30.30    1.40
  -9   1  -8   -0.10    0.40
   9  -1   8   -1.10    0.50
 -10   1  -8    0.60    0.50
  10  -1   8   -0.60    0.50
   7   0  -8    6.70    0.80
   7   0  -8    8.20    1.30
  -7   0   8    6.50    1.40
   6   0  -8    5.50    0.70
   6   0  -8    5.40    1.00
  -6   0   8    7.50    1.50
   5   0  -8    0.20    0.20
  -5   0   8   -0.20    0.40
  -5   0   8    0.10    0.60
   4   0  -8    8.60    0.70
  -4   0   8    9.50    1.40
  -4   0   8    7.00    0.90
   3   0  -8    5.00    0.60
  -3   0   8    4.40    0.60
  -3   0   8    3.90    0.90
   2   0  -8   19.10    0.90
   2   0  -8   19.30    0.70
  -2   0   8   19.40    1.30
  -2   0   8   17.80    1.00
   1   0  -8    8.90    0.50
   1   0  -8    8.80    0.60
  -1   0   8    8.90    0.70
  -1   0   8    8.40    0.90
   0   0  -8   80.29    2.00
   0   0  -8   83.39    1.70
   0   0   8   81.59    2.00
   0   0   8   79.49    2.40
  -1   0  -8   15.90    0.70
  -1   0  -8   15.10    0.60
   1   0   8   16.00    1.00
   1   0   8   15.80    0.80
  -2   0  -8    1.00    0.20
  -2   0  -8    0.60    0.20
   2   0   8    0.90    0.40
   2   0   8    0.70    0.30
  -3   0  -8   11.80    0.50
  -3   0  -8   11.10    0.60
  -3   0  -8   12.90    0.60
   3   0   8   12.00    1.00
   3   0   8   12.80    0.70
  -4   0  -8   25.80    0.80
  -4   0  -8   26.50    0.90
  -4   0  -8   25.00    0.90
   4   0   8   26.40    1.30
   4   0   8   26.40    1.00
  -5   0  -8   36.60    1.30
  -5   0  -8   38.60    1.00
  -5   0  -8   38.50    1.20
   5   0   8   39.30    1.60
   5   0   8   39.40    1.30
  -6   0  -8   24.10    1.10
  -6   0  -8   23.60    0.90
   6   0   8   22.30    1.30
   6   0   8   23.30    1.10
  -7   0  -8   23.20    0.90
  -7   0  -8   24.40    1.20
   7   0   8   23.10    1.20
   7   0   8   21.70    1.40
  -8   0  -8   -0.20    0.30
  -8   0  -8    0.20    0.20
   8   0   8   -0.30    0.40
   8   0   8   -0.10    0.40
  -9   0  -8    0.60    0.40
   9   0   8   -0.20    0.50
   9   0   8   -0.30    0.50
 -10   0  -8    0.20    0.50
  10   0   8    0.70    0.60
   7  -1  -8    4.10    0.70
   7  -1  -8    4.10    1.00
  -7   1   8    5.50    1.20
   6  -1  -8    0.70    0.60
   6  -1  -8    1.00    0.40
  -6   1   8    0.60    0.60
   5  -1  -8    3.50    0.80
   5  -1  -8    3.70    0.60
  -5   1   8    4.30    1.20
   4  -1  -8    0.10    0.20
  -4   1   8   -0.30    0.30
  -4   1   8   -0.40    0.50
   3  -1  -8    1.00    0.30
  -3   1   8    0.00    0.30
  -3   1   8    0.20    0.40
   2  -1  -8   32.70    1.20
   2  -1  -8   33.10    0.90
  -2   1   8   30.20    1.70
  -2   1   8   31.60    1.30
   1  -1  -8    0.50    0.20
   1  -1  -8    0.60    0.20
  -1   1   8    0.30    0.30
  -1   1   8    0.70    0.40
   0  -1  -8   60.29    1.40
   0  -1  -8   59.79    1.60
   0   1   8   60.19    2.10
   0   1   8   62.59    1.70
  -1  -1  -8   21.20    0.80
  -1  -1  -8   19.30    0.70
   1   1   8   21.30    0.90
   1   1   8   19.30    1.10
  -2  -1  -8   26.00    0.90
  -2  -1  -8   27.90    0.90
   2   1   8   28.90    1.00
   2   1   8   28.30    1.40
  -3  -1  -8   18.20    0.70
  -3  -1  -8   18.00    0.70
  -3  -1  -8   18.30    0.60
   3   1   8   18.50    1.20
   3   1   8   18.10    0.80
  -4  -1  -8    1.90    0.30
  -4  -1  -8    2.00    0.30
  -4  -1  -8    2.00    0.30
   4   1   8    3.00    0.70
   4   1   8    2.40    0.40
  -5  -1  -8    6.00    0.30
  -5  -1  -8    6.00    0.50
  -5  -1  -8    5.00    0.50
   5   1   8    7.80    1.00
   5   1   8    6.30    0.60
  -6  -1  -8   -0.20    0.20
  -6  -1  -8   -0.30    0.20
   6   1   8    0.30    0.50
   6   1   8   -0.20    0.30
  -7  -1  -8    6.90    0.70
  -7  -1  -8    7.50    0.50
   7   1   8    7.50    1.00
   7   1   8    8.00    0.80
  -8  -1  -8    0.60    0.40
  -8  -1  -8    0.20    0.20
   8   1   8    0.10    0.50
   8   1   8    0.00    0.40
  -9  -1  -8   25.10    1.00
  -9  -1  -8   24.60    1.40
   9   1   8   23.10    1.40
   9   1   8   21.80    1.70
 -10  -1  -8   -0.20    0.30
  10   1   8    0.30    0.60
  10   1   8   -0.60    0.50
   7  -2  -8    0.50    0.30
   7  -2  -8    0.00    0.50
   6  -2  -8    0.10    0.40
   6  -2  -8    0.00    0.30
  -6   2   8    0.50    0.70
   5  -2  -8    0.60    0.50
   5  -2  -8    0.90    0.40
  -5   2   8    1.60    0.90
   4  -2  -8   20.70    1.10
  -4   2   8   21.00    1.20
  -4   2   8   23.30    1.80
   3  -2  -8    5.90    0.70
  -3   2   8    4.70    0.70
  -3   2   8    6.10    1.10
   2  -2  -8   30.60    0.80
   2  -2  -8   31.90    1.20
  -2   2   8   31.90    1.80
  -2   2   8   31.40    1.30
   1  -2  -8  123.79    2.70
   1  -2  -8  127.89    2.30
  -1   2   8  123.69    2.70
  -1   2   8  126.49    3.60
   0  -2  -8   29.00    0.90
   0  -2  -8   28.70    1.00
   0   2   8   28.60    1.50
   0   2   8   29.50    1.10
  -1  -2  -8   48.20    1.30
  -1  -2  -8   48.00    1.20
   1   2   8   48.30    1.30
   1   2   8   46.90    1.80
  -2  -2  -8    7.90    0.50
  -2  -2  -8    8.80    0.50
   2   2   8    9.20    0.60
   2   2   8    8.90    1.00
  -3  -2  -8    5.70    0.30
  -3  -2  -8    6.80    0.50
  -3  -2  -8    6.10    0.40
   3   2   8    5.70    0.90
   3   2   8    6.10    0.50
  -4  -2  -8  103.89    2.10
  -4  -2  -8  101.39    2.00
   4   2   8  103.19    2.20
   4   2   8  105.19    3.00
  -5  -2  -8    8.60    0.60
  -5  -2  -8    7.60    0.50
   5   2   8    8.40    1.00
   5   2   8    9.60    0.70
  -6  -2  -8  126.09    2.60
  -6  -2  -8  126.99    2.80
   6   2   8  128.19    2.80
   6   2   8  129.59    3.60
  -7  -2  -8   14.20    0.90
  -7  -2  -8   15.40    0.70
   7   2   8   14.90    0.90
   7   2   8   14.20    1.20
  -8  -2  -8   37.10    1.50
  -8  -2  -8   38.60    1.30
   8   2   8   38.50    2.00
   8   2   8   35.90    1.50
  -9  -2  -8    1.30    0.50
  -9  -2  -8    1.30    0.30
   9   2   8    0.30    0.50
   9   2   8    1.60    0.80
 -10  -2  -8    6.10    0.90
  10   2   8    5.30    0.90
  10   2   8    5.40    1.20
  11   2   8    3.60    1.20
   7  -3  -8    0.40    0.30
   6  -3  -8   14.50    1.00
   6  -3  -8   16.20    1.50
  -6   3   8   16.90    1.90
   5  -3  -8    0.00    0.20
   5  -3  -8    0.50    0.40
  -5   3   8    1.30    0.80
   4  -3  -8   19.70    1.40
   4  -3  -8   18.00    1.00
  -4   3   8   18.00    1.70
   3  -3  -8    0.20    0.30
  -3   3   8    0.40    0.50
  -3   3   8    0.50    0.30
   2  -3  -8    0.10    0.20
   2  -3  -8    0.40    0.20
  -2   3   8    0.10    0.40
  -2   3   8    0.30    0.30
   1  -3  -8   24.40    1.00
   1  -3  -8   25.60    0.80
  -1   3   8   25.00    1.60
  -1   3   8   25.60    1.00
   0  -3  -8   28.90    0.80
   0  -3  -8   26.70    1.00
   0   3   8   28.40    1.00
   0   3   8   26.90    1.50
  -1  -3  -8   72.39    1.60
  -1  -3  -8   73.89    1.80
   1   3   8   73.39    2.50
   1   3   8   74.29    1.80
  -2  -3  -8    1.70    0.30
  -2  -3  -8    1.00    0.20
   2   3   8    1.40    0.30
   2   3   8    2.20    0.70
   2   3   8    1.60    0.20
  -3  -3  -8   64.09    1.50
  -3  -3  -8   61.29    1.30
  -3  -3  -8   61.49    1.50
   3   3   8   62.39    2.30
   3   3   8   64.89    1.60
  -4  -3  -8    6.80    0.50
  -4  -3  -8    7.10    0.40
  -4  -3  -8    7.90    0.40
   4   3   8    7.20    0.50
   4   3   8    6.90    1.00
  -5  -3  -8    3.40    0.40
  -5  -3  -8    3.60    0.40
   5   3   8    3.90    0.50
   5   3   8    4.00    0.90
  -6  -3  -8   56.69    1.50
  -6  -3  -8   54.19    1.60
   6   3   8   53.29    2.30
   6   3   8   54.99    1.60
  -7  -3  -8    0.30    0.20
  -7  -3  -8    0.20    0.30
   7   3   8    0.00    0.40
   7   3   8   -0.20    0.50
  -8  -3  -8   52.79    1.80
  -8  -3  -8   56.29    1.60
   8   3   8   52.09    1.80
   8   3   8   54.99    2.50
  -9  -3  -8    9.60    0.60
  -9  -3  -8   10.30    0.90
   9   3   8   10.10    1.00
   9   3   8   10.50    1.50
 -10  -3  -8   30.80    1.60
  10   3   8   29.00    2.10
  10   3   8   29.30    1.60
  11   3   8   -0.70    0.60
  11   3   8   -1.20    0.60
   6  -4  -8    0.50    0.40
   6  -4  -8    0.80    0.60
  -6   4   8    2.50    1.10
   5  -4  -8    6.00    1.00
   5  -4  -8    6.40    0.80
  -5   4   8    6.70    1.40
   4  -4  -8   41.10    2.00
   4  -4  -8   39.80    1.50
  -4   4   8   38.10    2.40
   3  -4  -8   24.50    1.10
  -3   4   8   25.20    1.80
  -3   4   8   23.60    1.20
   2  -4  -8   40.40    1.40
  -2   4   8   41.70    2.20
  -2   4   8   42.30    1.50
   1  -4  -8   83.89    2.10
   1  -4  -8   83.69    1.70
  -1   4   8   86.09    2.10
  -1   4   8   86.29    3.00
   0  -4  -8    2.50    0.40
   0  -4  -8    2.30    0.30
   0   4   8    2.70    0.70
   0   4   8    3.00    0.40
  -1  -4  -8  132.39    2.70
  -1  -4  -8  131.79    2.50
   1   4   8  136.09    2.70
   1   4   8  130.89    3.60
  -2  -4  -8    1.60    0.30
  -2  -4  -8    1.70    0.30
   2   4   8    1.80    0.30
   2   4   8    2.10    0.80
   2   4   8    2.20    0.30
  -3  -4  -8  232.68    3.90
  -3  -4  -8  236.98    4.10
  -3  -4  -8  240.18    4.20
   3   4   8  239.48    4.10
   3   4   8  237.68    5.30
  -4  -4  -8    8.80    0.50
  -4  -4  -8    8.70    0.40
  -4  -4  -8    8.70    0.50
   4   4   8    9.30    0.60
   4   4   8    9.40    1.20
  -5  -4  -8   89.69    2.00
  -5  -4  -8   90.49    2.10
   5   4   8   92.09    2.00
   5   4   8   89.09    3.00
  -6  -4  -8    6.40    0.50
  -6  -4  -8    6.20    0.50
   6   4   8    6.00    1.00
   6   4   8    6.80    0.60
  -7  -4  -8   18.20    0.90
  -7  -4  -8   15.30    0.80
   7   4   8   16.90    0.90
   7   4   8   17.60    1.50
  -8  -4  -8   17.00    0.80
  -8  -4  -8   16.70    1.00
   8   4   8   14.40    1.50
   8   4   8   15.60    1.00
  -9  -4  -8    0.60    0.40
  -9  -4  -8    1.10    0.30
   9   4   8    0.50    0.60
   9   4   8    0.00    0.50
 -10  -4  -8   12.80    1.10
  10   4   8   15.50    1.70
  10   4   8   13.20    1.20
   6  -5  -8    0.00    0.30
   6  -5  -8   -0.20    0.50
  -6   5   8    1.90    0.80
   5  -5  -8    2.90    0.70
   5  -5  -8    2.30    0.50
  -5   5   8    3.10    1.10
   4  -5  -8    9.00    0.80
   4  -5  -8    9.20    1.20
  -4   5   8   10.40    1.60
   3  -5  -8    3.00    0.50
   3  -5  -8    2.70    0.60
  -3   5   8    4.20    1.00
   2  -5  -8   44.70    1.50
  -2   5   8   45.80    1.60
  -2   5   8   45.50    2.40
   1  -5  -8   -0.10    0.10
   1  -5  -8    0.00    0.20
  -1   5   8   -0.20    0.40
  -1   5   8    0.20    0.20
   0  -5  -8    7.50    0.60
   0  -5  -8    7.70    0.40
   0   5   8    8.10    0.60
   0   5   8    8.20    1.00
  -1  -5  -8    0.90    0.20
  -1  -5  -8    1.10    0.20
   1   5   8    0.80    0.20
   1   5   8    0.90    0.20
   1   5   8    0.10    0.50
  -2  -5  -8   41.00    1.20
  -2  -5  -8   40.70    1.10
   2   5   8   42.30    1.20
   2   5   8   42.30    1.10
   2   5   8   37.50    2.00
  -3  -5  -8   77.19    1.80
  -3  -5  -8   75.69    1.70
   3   5   8   74.99    1.70
   3   5   8   76.39    2.70
  -4  -5  -8    7.70    0.50
  -4  -5  -8    8.20    0.40
  -4  -5  -8    8.40    0.50
   4   5   8    8.70    0.50
   4   5   8    7.90    1.20
  -5  -5  -8   17.30    0.80
  -5  -5  -8   18.60    0.80
   5   5   8   17.40    0.70
   5   5   8   19.00    1.50
  -6  -5  -8   35.10    1.20
  -6  -5  -8   34.50    1.20
   6   5   8   32.90    2.00
   6   5   8   36.70    1.20
  -7  -5  -8   42.80    1.40
  -7  -5  -8   44.30    1.50
   7   5   8   43.30    1.40
   7   5   8   47.80    2.40
  -8  -5  -8   -0.30    0.30
  -8  -5  -8    0.20    0.20
   8   5   8   -0.50    0.30
   8   5   8   -0.70    0.60
  -9  -5  -8    7.40    0.60
  -9  -5  -8    8.70    0.80
   9   5   8    7.50    0.90
   9   5   8    7.90    1.40
 -10  -5  -8    0.10    0.40
  10   5   8   -0.40    0.50
  10   5   8   -0.40    0.70
   6  -6  -8    0.00    0.40
   6  -6  -8    0.80    0.40
  -6   6   8    2.50    1.10
   5  -6  -8    1.40    0.60
   5  -6  -8    0.50    0.40
  -5   6   8    1.20    0.80
   4  -6  -8    0.20    0.30
   4  -6  -8   -0.40    0.20
  -4   6   8    0.30    0.60
   3  -6  -8    1.70    0.50
   3  -6  -8    1.80    0.40
  -3   6   8    1.90    0.80
   2  -6  -8   19.10    1.20
   2  -6  -8   23.20    1.10
  -2   6   8   23.10    1.70
   1  -6  -8    7.90    0.60
   1  -6  -8    6.70    0.40
  -1   6   8    6.70    1.10
  -1   6   8    6.50    0.60
   0  -6  -8    8.30    0.60
   0  -6  -8    8.10    0.50
   0   6   8    8.60    0.60
   0   6   8    9.30    0.80
   0   6   8    8.90    1.20
  -1  -6  -8    2.50    0.30
  -1  -6  -8    2.80    0.40
   1   6   8    2.20    0.40
   1   6   8    2.90    0.80
   1   6   8    2.50    0.30
  -2  -6  -8    0.00    0.10
  -2  -6  -8    0.10    0.10
   2   6   8   -0.10    0.20
   2   6   8    0.20    0.70
   2   6   8    0.10    0.20
  -3  -6  -8    4.40    0.40
  -3  -6  -8    4.60    0.40
   3   6   8    4.00    1.00
   3   6   8    3.80    0.40
   3   6   8    3.70    0.30
  -4  -6  -8   71.19    1.50
  -4  -6  -8   68.89    1.60
  -4  -6  -8   71.79    1.70
   4   6   8   69.69    1.60
   4   6   8   66.49    2.60
  -5  -6  -8   14.10    0.70
  -5  -6  -8   13.60    0.70
   5   6   8   15.50    0.70
   5   6   8   14.90    1.50
  -6  -6  -8    2.80    0.50
  -6  -6  -8    2.90    0.40
   6   6   8    2.40    0.40
   6   6   8    0.90    0.80
  -7  -6  -8    1.80    0.30
  -7  -6  -8    1.90    0.40
   7   6   8    1.80    0.40
   7   6   8    1.90    0.90
  -8  -6  -8    1.70    0.50
  -8  -6  -8    1.30    0.30
   8   6   8    1.30    0.90
  -9  -6  -8    8.60    0.70
  -9  -6  -8    6.90    0.80
   9   6   8    9.20    1.60
 -10  -6  -8    4.30    0.80
 -10  -6  -8    3.80    0.50
  10   6   8    3.80    1.20
   5  -7  -8    1.10    0.60
   5  -7  -8    0.40    0.40
  -5   7   8    1.60    0.80
   4  -7  -8    0.30    0.30
   4  -7  -8    0.80    0.40
  -4   7   8    0.10    0.60
   3  -7  -8    6.70    0.80
   3  -7  -8    6.50    0.90
  -3   7   8    8.00    1.40
   2  -7  -8    0.00    0.20
   2  -7  -8    0.20    0.20
  -2   7   8    0.20    0.60
   1  -7  -8    0.90    0.30
   1  -7  -8    1.10    0.20
  -1   7   8    1.50    0.70
   0  -7  -8    6.80    0.60
   0  -7  -8    6.60    0.40
   0   7   8    6.40    0.50
   0   7   8    7.70    1.20
   0   7   8    6.50    0.60
  -1  -7  -8    5.20    0.60
  -1  -7  -8    3.90    0.40
   1   7   8    4.60    1.00
   1   7   8    3.60    0.50
  -2  -7  -8   30.10    1.10
  -2  -7  -8   30.70    1.00
   2   7   8   32.20    2.00
   2   7   8   28.80    1.00
  -3  -7  -8   24.40    0.90
  -3  -7  -8   22.90    0.90
   3   7   8   24.90    1.80
   3   7   8   23.40    0.90
  -4  -7  -8    0.00    0.20
  -4  -7  -8    0.60    0.20
   4   7   8    0.30    0.70
  -5  -7  -8    4.90    0.50
  -5  -7  -8    5.50    0.50
   5   7   8    6.10    1.20
  -6  -7  -8   20.70    1.00
  -6  -7  -8   21.40    0.90
   6   7   8   22.50    1.90
  -7  -7  -8   -0.30    0.30
  -7  -7  -8    0.30    0.20
   7   7   8   -0.50    0.80
  -8  -7  -8   59.39    1.80
  -8  -7  -8   65.49    2.00
   8   7   8   61.89    3.10
  -9  -7  -8    8.20    0.60
  -9  -7  -8    8.50    0.80
   9   7   8    7.70    1.60
 -10  -7  -8   25.10    1.40
 -10  -7  -8   26.70    1.10
  10   7   8   21.30    2.20
   5  -8  -8    2.10    0.60
  -5   8   8    5.10    1.20
   4  -8  -8    1.00    0.40
  -4   8   8    1.70    0.90
   3  -8  -8   12.50    0.90
  -3   8   8   13.20    1.70
   2  -8  -8   19.40    1.10
  -2   8   8   19.50    1.90
   1  -8  -8    1.80    0.40
  -1   8   8    2.30    0.90
   0  -8  -8   25.90    0.90
   0  -8  -8   25.30    1.10
   0   8   8   26.90    1.90
   0   8   8   24.10    1.10
  -1  -8  -8    4.80    0.40
  -1  -8  -8    5.60    0.50
   1   8   8    5.70    1.10
   1   8   8    5.10    0.60
  -2  -8  -8   85.49    2.00
  -2  -8  -8   85.29    1.90
   2   8   8   81.19    3.10
   2   8   8   84.99    2.00
  -3  -8  -8    8.60    0.50
  -3  -8  -8    8.60    0.60
   3   8   8    9.90    1.40
   3   8   8    9.20    0.60
  -4  -8  -8    3.10    0.40
   4   8   8    3.10    1.00
   4   8   8    3.80    0.50
  -5  -8  -8   14.20    0.80
  -5  -8  -8   14.00    0.80
   5   8   8   12.80    1.70
  -6  -8  -8    0.60    0.30
  -6  -8  -8    0.90    0.40
   6   8   8    1.10    1.00
  -7  -8  -8    0.50    0.20
  -7  -8  -8    0.10    0.30
   7   8   8   -0.60    0.80
  -8  -8  -8    0.20    0.30
  -8  -8  -8   -0.30    0.30
   8   8   8   -0.60    0.80
  -9  -8  -8    7.40    0.80
  -9  -8  -8    8.80    0.70
   9   8   8    8.00    1.70
 -10  -8  -8    4.30    0.60
 -10  -8  -8    5.10    1.10
   4  -9  -8    7.80    0.90
   3  -9  -8   23.00    1.20
  -3   9   8   25.30    2.20
   2  -9  -8    0.10    0.30
  -2   9   8   -0.10    0.70
   1  -9  -8   69.79    2.10
  -1   9   8   71.79    3.20
   0  -9  -8    5.20    0.40
   0  -9  -8    5.70    0.70
   0   9   8    6.30    1.20
   0   9   8    5.10    0.80
  -1  -9  -8  135.79    3.00
  -1  -9  -8  137.59    2.70
   1   9   8  128.99    4.20
   1   9   8  131.29    2.90
  -2  -9  -8   34.90    1.10
  -2  -9  -8   36.40    1.20
   2   9   8   33.30    1.30
   2   9   8   35.20    2.20
  -3  -9  -8    0.70    0.20
  -3  -9  -8    0.60    0.20
   3   9   8    1.10    0.80
   3   9   8    0.80    0.40
  -4  -9  -8   46.80    1.40
   4   9   8   44.40    2.50
   4   9   8   44.80    1.50
  -5  -9  -8   29.40    1.10
   5   9   8   30.20    1.20
   5   9   8   30.10    2.20
  -6  -9  -8  132.49    2.90
  -6  -9  -8  132.39    3.00
   6   9   8  129.79    4.40
  -7  -9  -8   22.20    1.00
  -7  -9  -8   20.90    1.10
   7   9   8   20.60    2.10
  -8  -9  -8   16.50    1.10
  -8  -9  -8   17.50    0.90
   8   9   8   17.50    2.10
  -9  -9  -8   23.00    1.30
  -9  -9  -8   22.20    1.10
   9   9   8   18.40    2.20
  -4  10   8   29.40    2.10
  -3  10   8    3.80    1.00
   2 -10  -8    5.30    0.70
  -2  10   8   10.20    1.70
   1 -10  -8    1.20    0.40
  -1  10   8    2.20    0.90
   0 -10  -8   16.60    0.70
   0 -10  -8   16.30    1.00
   0  10   8   19.20    1.80
  -1 -10  -8   51.79    1.40
  -1 -10  -8   52.59    1.70
   1  10   8   50.39    2.60
   1  10   8   50.39    1.70
  -2 -10  -8    1.70    0.30
  -2 -10  -8    2.20    0.40
   2  10   8    2.70    0.60
   2  10   8    1.00    0.90
  -3 -10  -8   21.90    0.90
  -3 -10  -8   22.60    0.90
   3  10   8   25.30    2.00
   3  10   8   21.00    1.10
  -4 -10  -8   11.20    0.70
   4  10   8   10.00    0.80
   4  10   8   13.00    1.70
  -5 -10  -8    8.90    0.60
   5  10   8    7.80    0.70
   5  10   8    7.30    1.50
  -6 -10  -8    6.80    0.60
   6  10   8   10.10    0.80
   6  10   8    9.20    1.70
  -7 -10  -8    0.90    0.30
  -7 -10  -8    0.80    0.40
   7  10   8    0.30    1.10
  -8 -10  -8    7.10    0.90
  -8 -10  -8    5.50    0.60
   8  10   8    2.80    1.40
  -9 -10  -8    0.10    0.50
  -9 -10  -8    0.40    0.30
   2 -11  -8    2.30    0.50
  -2  11   8    5.30    1.20
  -1  11   8    3.60    1.00
   0 -11  -8   15.30    1.00
   0  11   8   19.50    1.90
  -1 -11  -8    2.00    0.40
  -1 -11  -8    1.20    0.30
   1  11   8    1.20    0.50
   1  11   8    2.70    1.00
  -2 -11  -8   14.70    0.90
  -2 -11  -8   15.10    0.80
   2  11   8   14.70    1.00
   2  11   8   15.90    1.70
  -3 -11  -8    9.70    0.70
  -3 -11  -8    8.90    0.60
   3  11   8    7.50    0.80
   3  11   8    9.70    1.60
  -4 -11  -8    7.70    0.60
   4  11   8    8.60    1.60
   4  11   8    6.80    0.80
  -5 -11  -8   19.30    1.00
   5  11   8   18.60    2.10
   5  11   8   18.10    1.10
  -6 -11  -8    0.00    0.20
   6  11   8    0.80    0.40
   6  11   8    0.40    1.10
  -7 -11  -8    5.10    0.60
   7  11   8    6.20    1.60
   7  11   8    6.60    0.70
  -8 -11  -8   -0.80    0.40
  -8 -11  -8    0.00    0.20
   8  11   8   -1.30    1.20
   0 -12  -8   14.70    1.00
   0  12   8   20.20    1.90
  -1 -12  -8    3.80    0.60
  -1 -12  -8    3.20    0.50
   1  12   8    2.20    0.60
   1  12   8    4.40    1.10
  -2 -12  -8    0.50    0.20
  -2 -12  -8    0.20    0.20
   2  12   8    0.20    0.70
   2  12   8   -0.80    0.40
  -3 -12  -8   -0.20    0.20
   3  12   8   -0.50    0.40
   3  12   8    1.40    1.00
  -4 -12  -8    0.20    0.20
   4  12   8    0.60    1.00
   4  12   8   -0.20    0.50
  -5 -12  -8    9.90    0.70
   5  12   8   10.80    1.00
   5  12   8   13.60    2.00
  -6 -12  -8    0.00    0.20
   6  12   8   -0.80    1.00
   6  12   8    0.20    0.40
  -7 -12  -8   14.20    0.90
   7  12   8   12.10    2.00
   7  12   8   15.40    1.10
   0 -13  -8   -0.40    0.30
  -1 -13  -8    4.00    0.50
  -1 -13  -8    5.50    0.70
   1  13   8    4.60    1.10
  -2 -13  -8    6.30    0.70
  -2 -13  -8    4.80    0.60
   2  13   8    8.10    1.40
   2  13   8    5.00    0.90
  -3 -13  -8    2.80    0.50
   3  13   8    5.10    1.30
   3  13   8    2.80    0.70
  -4 -13  -8   11.10    0.80
   4  13   8   12.10    1.80
   4  13   8   10.90    1.10
  -5 -13  -8    5.30    0.70
   5  13   8    4.70    1.40
   5  13   8    4.70    0.90
   6  13   8   -0.50    0.40
   6  13   8   -0.10    1.20
  -1 -14  -8    1.00    0.40
  -2 -14  -8    0.10    0.30
  -2 -14  -8    0.20    0.20
   2  14   8    0.40    0.50
  -3 -14  -8    0.30    0.30
   3  14   8   -0.50    0.50
   4  14   8   22.10    2.10
   4  14   8   15.20    1.30
   0  12  -9   10.50    1.40
  -1  12  -9   -0.10    0.40
   1 -12   9   -0.10    0.30
   3  11  -9   17.30    1.00
  -3 -11   9   17.00    1.40
   2  11  -9   33.90    1.40
  -2 -11   9   33.20    1.40
   1  11  -9   12.90    0.90
  -1 -11   9   12.80    0.90
   0  11  -9   45.00    1.60
   0 -11   9   42.20    1.60
  -1  11  -9    0.70    0.40
   1 -11   9    0.40    0.30
  -2  11  -9   27.90    1.30
   2 -11   9   26.60    1.30
  -3  11  -9    1.20    0.40
   3 -11   9    0.30    0.30
  -4  11  -9   13.40    0.90
   4 -11   9   12.70    0.90
  -5  11  -9    0.70    0.50
  -5  11  -9    3.10    0.60
   5 -11   9    0.40    0.40
   4  10  -9   21.10    1.30
   4  10  -9   23.10    1.10
   3  10  -9   16.80    1.00
  -3 -10   9   13.90    0.90
   2  10  -9   37.90    1.40
  -2 -10   9   36.20    1.50
   1  10  -9  106.99    2.70
  -1 -10   9  110.09    2.90
  -1 -10   9  107.89    2.80
   0  10  -9    0.10    0.30
   0 -10   9    0.70    0.40
   0 -10   9    0.00    0.20
  -1  10  -9   21.00    1.10
   1 -10   9   18.70    1.00
   1 -10   9   19.70    1.10
  -2  10  -9   -0.10    0.30
   2 -10   9    0.40    0.30
   2 -10   9    0.00    0.20
  -3  10  -9    2.40    0.50
   3 -10   9    3.80    0.60
   3 -10   9    3.40    0.60
  -4  10  -9   14.50    1.20
  -4  10  -9   13.10    0.90
   4 -10   9   14.30    0.90
   4 -10   9   14.90    1.00
  -5  10  -9    0.50    0.30
   5 -10   9    0.50    0.30
   5 -10   9    1.00    0.40
  -6  10  -9    3.60    0.60
   6 -10   9    4.60    0.60
   6 -10   9    4.60    0.70
   5   9  -9    0.00    0.30
   4   9  -9    5.00    0.70
   4   9  -9    5.30    0.70
  -4  -9   9    8.20    0.90
   3   9  -9    2.70    0.50
  -3  -9   9    2.30    0.50
  -3  -9   9    3.00    0.60
   2   9  -9    0.90    0.30
  -2  -9   9    0.60    0.30
  -2  -9   9    1.00    0.40
   1   9  -9   26.70    1.20
  -1  -9   9   28.70    1.30
  -1  -9   9   26.20    1.20
   0   9  -9   -0.40    0.20
   0  -9   9   -0.20    0.20
   0  -9   9    0.40    0.30
  -1   9  -9   17.30    1.00
   1  -9   9   19.10    1.10
   1  -9   9   16.50    0.90
  -2   9  -9   15.20    0.90
   2  -9   9   15.80    1.00
   2  -9   9   14.80    0.90
  -3   9  -9   30.40    1.30
   3  -9   9   29.50    1.20
   3  -9   9   30.50    1.30
  -4   9  -9    3.70    0.70
  -4   9  -9    2.00    0.40
   4  -9   9    2.90    0.50
   4  -9   9    3.40    0.50
  -5   9  -9    1.20    0.40
  -5   9  -9    1.80    0.50
   5  -9   9    1.10    0.30
   5  -9   9    1.50    0.50
  -6   9  -9    2.50    0.50
  -6   9  -9    3.50    0.70
   6  -9   9    1.70    0.40
   6  -9   9    2.60    0.60
   7  -9   9    0.70    0.60
   5   8  -9    3.30    0.60
  -5  -8   9    5.20    0.70
   4   8  -9   16.60    1.10
  -4  -8   9   19.90    1.30
   3   8  -9    2.20    0.40
  -3  -8   9    2.80    0.50
  -3  -8   9    2.60    0.60
   2   8  -9    0.70    0.30
  -2  -8   9    0.50    0.40
  -2  -8   9    0.10    0.20
   1   8  -9    0.00    0.30
  -1  -8   9    0.10    0.30
  -1  -8   9   -0.10    0.20
   0   8  -9   16.30    0.90
   0  -8   9   15.70    0.90
   0  -8   9   17.20    1.00
  -1   8  -9    1.60    0.40
   1  -8   9    1.30    0.40
   1  -8   9    1.10    0.30
  -2   8  -9    1.70    0.40
   2  -8   9    1.40    0.30
   2  -8   9    2.20    0.50
  -3   8  -9   -0.30    0.20
  -3   8  -9    0.60    0.30
   3  -8   9    0.40    0.30
   3  -8   9   -0.20    0.20
  -4   8  -9    2.00    0.40
  -4   8  -9    2.10    0.50
   4  -8   9    2.20    0.40
   4  -8   9    2.10    0.50
  -5   8  -9    1.20    0.40
  -5   8  -9    2.00    0.50
   5  -8   9    1.70    0.50
   5  -8   9    1.00    0.30
  -6   8  -9    0.00    0.30
  -6   8  -9    0.70    0.40
   6  -8   9    0.40    0.20
   6  -8   9    0.20    0.40
  -7   8  -9    2.20    0.50
  -7   8  -9    2.90    0.60
   7  -8   9    3.20    0.60
   6   7  -9    8.20    0.90
   6   7  -9    6.50    1.90
   5   7  -9    4.70    0.70
  -5  -7   9    3.90    0.80
   4   7  -9    0.50    0.30
  -4  -7   9    1.40    0.50
   3   7  -9    5.40    0.70
   3   7  -9    5.70    0.60
  -3  -7   9    5.50    0.80
   2   7  -9    5.20    0.60
  -2  -7   9    5.20    0.60
  -2  -7   9    3.80    0.60
   1   7  -9    1.30    0.30
  -1  -7   9    1.40    0.40
  -1  -7   9    0.90    0.30
   0   7  -9    1.50    0.30
   0  -7   9    1.60    0.40
   0  -7   9    1.60    0.40
  -1   7  -9    3.40    0.50
   1  -7   9    4.10    0.60
   1  -7   9    3.20    0.50
  -2   7  -9    7.80    0.70
   2  -7   9    8.80    0.70
   2  -7   9    8.50    0.60
  -3   7  -9   -0.20    0.20
  -3   7  -9    0.40    0.30
   3  -7   9   -0.10    0.30
   3  -7   9    0.20    0.20
  -4   7  -9    5.40    0.60
  -4   7  -9    5.80    0.80
   4  -7   9    6.10    0.50
   4  -7   9    5.70    0.70
  -5   7  -9    4.70    0.70
  -5   7  -9    3.00    0.50
   5  -7   9    4.30    0.50
   5  -7   9    4.90    0.70
  -6   7  -9    4.50    0.60
  -6   7  -9    4.30    0.80
   6  -7   9    4.00    0.50
   6  -7   9    4.60    0.70
  -7   7  -9   13.60    1.20
  -7   7  -9   12.80    0.80
   7  -7   9   13.10    1.00
  -8   7  -9    1.20    0.50
   8  -7   9    0.20    0.50
   6   6  -9    0.50    0.40
   5   6  -9    4.40    0.70
  -5  -6   9    4.30    0.80
   4   6  -9   15.20    1.00
  -4  -6   9   15.10    1.20
   3   6  -9   38.20    1.20
   3   6  -9   37.60    1.50
  -3  -6   9   36.10    1.60
   2   6  -9   32.00    1.10
  -2  -6   9   29.70    1.20
  -2  -6   9   28.80    1.40
   1   6  -9   25.20    1.00
  -1  -6   9   25.40    1.10
  -1  -6   9   25.00    1.20
   0   6  -9   18.60    0.90
   0  -6   9   18.00    0.90
   0  -6   9   18.00    1.00
  -1   6  -9    0.30    0.20
   1  -6   9    0.80    0.30
   1  -6   9    0.20    0.20
  -2   6  -9   32.40    1.20
   2  -6   9   30.70    1.10
   2  -6   9   29.10    1.20
  -3   6  -9    1.30    0.40
  -3   6  -9    1.50    0.40
   3  -6   9    2.10    0.50
   3  -6   9    1.20    0.30
  -4   6  -9   61.89    1.70
  -4   6  -9   60.09    2.00
   4  -6   9   64.49    1.70
   4  -6   9   63.19    1.90
  -5   6  -9    3.50    0.50
  -5   6  -9    3.80    0.60
   5  -6   9    3.60    0.60
   5  -6   9    3.20    0.40
  -6   6  -9   17.80    1.20
  -6   6  -9   19.30    1.00
   6  -6   9   20.30    1.10
   6  -6   9   19.70    0.90
  -7   6  -9    1.00    0.30
  -7   6  -9    1.20    0.50
   7  -6   9    1.20    0.50
  -8   6  -9    6.60    1.00
   8  -6   9    7.00    0.90
  -9   6  -9    2.20    0.80
   6   5  -9    9.60    0.90
   6   5  -9    7.40    1.30
   5   5  -9   10.70    0.90
  -5  -5   9    8.90    1.10
  -5  -5   9   14.60    1.40
   4   5  -9    3.90    0.60
  -4  -5   9    3.20    0.70
  -4  -5   9    4.30    0.90
   3   5  -9   23.50    0.90
   3   5  -9   24.40    1.20
  -3  -5   9   22.00    1.30
  -3  -5   9   23.80    1.60
   2   5  -9    8.70    0.60
   2   5  -9    8.60    0.70
  -2  -5   9   10.30    0.90
   1   5  -9   42.70    1.30
  -1  -5   9   39.60    1.30
  -1  -5   9   38.60    1.50
   0   5  -9   34.00    1.10
   0  -5   9   33.10    1.30
   0  -5   9   34.30    1.20
  -1   5  -9   90.19    2.10
   1  -5   9   86.89    2.10
   1  -5   9   87.69    2.30
  -2   5  -9   15.60    0.80
   2  -5   9   15.10    0.70
   2  -5   9   16.10    0.90
  -3   5  -9   46.10    1.40
  -3   5  -9   46.80    1.50
   3  -5   9   45.90    1.50
   3  -5   9   47.40    1.40
  -4   5  -9   10.50    0.70
  -4   5  -9   10.40    0.80
   4  -5   9   11.20    0.80
   4  -5   9   10.20    0.60
  -5   5  -9    0.10    0.20
  -5   5  -9    0.30    0.30
   5  -5   9   -0.10    0.10
   5  -5   9   -0.10    0.30
  -6   5  -9    7.10    0.80
  -6   5  -9    6.70    0.60
   6  -5   9    6.10    0.50
   6  -5   9    7.10    0.80
  -7   5  -9    0.20    0.40
  -7   5  -9    0.10    0.20
   7  -5   9    0.60    0.40
  -8   5  -9   20.10    1.20
  -8   5  -9   18.40    1.30
   8  -5   9   18.70    1.30
  -9   5  -9    0.50    0.40
   6   4  -9    5.30    0.70
   6   4  -9    3.30    0.90
   5   4  -9   11.30    0.90
  -5  -4   9   10.80    1.10
  -5  -4   9   11.70    1.40
   4   4  -9    8.70    0.80
  -4  -4   9    9.10    1.20
  -4  -4   9    9.00    0.90
   3   4  -9   53.99    1.80
   3   4  -9   56.99    1.40
  -3  -4   9   52.09    2.30
  -3  -4   9   49.90    1.90
   2   4  -9    4.90    0.60
   2   4  -9    5.40    0.50
  -2  -4   9    3.90    0.60
  -2  -4   9    4.90    0.80
   1   4  -9    7.70    0.70
   1   4  -9    7.20    0.50
  -1  -4   9    7.60    0.70
  -1  -4   9    6.50    0.70
   0   4  -9    0.90    0.30
   0  -4   9    0.40    0.20
   0  -4   9    0.50    0.30
  -1   4  -9    7.70    0.50
   1  -4   9    7.90    0.70
   1  -4   9    6.70    0.50
  -2   4  -9   69.49    1.70
   2  -4   9   67.89    1.90
   2  -4   9   68.49    1.70
  -3   4  -9   17.90    0.80
  -3   4  -9   19.20    0.80
   3  -4   9   19.80    0.80
   3  -4   9   17.30    0.90
  -4   4  -9   29.50    1.10
  -4   4  -9   28.70    1.20
   4  -4   9   28.60    1.00
   4  -4   9   30.10    1.20
  -5   4  -9   59.89    1.70
  -5   4  -9   60.09    1.90
   5  -4   9   61.79    1.50
   5  -4   9   61.89    1.80
  -6   4  -9    1.20    0.40
  -6   4  -9    1.00    0.30
   6  -4   9    0.70    0.20
   6  -4   9    1.20    0.40
  -7   4  -9    4.40    0.50
  -7   4  -9    4.80    0.80
   7  -4   9    6.00    0.80
  -8   4  -9    0.70    0.30
  -8   4  -9    1.60    0.50
   8  -4   9    0.20    0.50
  -9   4  -9    3.90    0.80
   9  -4   9    1.90    0.70
   7   3  -9    0.40    0.30
   6   3  -9    1.50    0.70
   6   3  -9    2.30    0.50
  -6  -3   9    2.50    0.90
   5   3  -9   -0.30    0.20
  -5  -3   9    0.40    0.60
  -5  -3   9   -0.20    0.40
   4   3  -9    7.40    0.70
  -4  -3   9    5.70    0.80
  -4  -3   9    6.40    1.20
   3   3  -9   27.40    0.90
   3   3  -9   27.70    1.30
  -3  -3   9   26.00    1.70
  -3  -3   9   30.30    1.40
   2   3  -9    0.20    0.20
   2   3  -9    0.30    0.20
  -2  -3   9    0.10    0.30
  -2  -3   9    0.00    0.30
   1   3  -9   28.90    1.00
   1   3  -9   29.80    1.20
  -1  -3   9   29.10    1.20
  -1  -3   9   28.30    1.50
   0   3  -9   59.49    1.70
   0   3  -9   60.29    1.50
   0  -3   9   57.29    1.90
   0  -3   9   59.29    1.80
  -1   3  -9   31.70    1.00
   1  -3   9   30.20    1.20
   1  -3   9   29.70    1.00
   1  -3   9   30.00    1.20
  -2   3  -9    8.40    0.60
   2  -3   9    7.90    0.50
   2  -3   9    7.50    0.70
  -3   3  -9   78.49    1.90
  -3   3  -9   83.59    1.90
   3  -3   9   83.69    2.10
   3  -3   9   83.09    1.90
  -4   3  -9   10.00    0.70
  -4   3  -9    9.80    0.60
   4  -3   9   10.50    0.70
   4  -3   9   10.10    0.50
  -5   3  -9    3.00    0.50
  -5   3  -9    3.30    0.40
   5  -3   9    3.60    0.60
   5  -3   9    3.40    0.40
  -6   3  -9    0.30    0.20
  -6   3  -9    0.10    0.30
   6  -3   9    0.40    0.30
   6  -3   9    0.40    0.40
  -7   3  -9    0.80    0.40
  -7   3  -9    0.10    0.20
   7  -3   9    0.20    0.40
  -8   3  -9    9.60    0.70
  -8   3  -9    9.60    0.90
   8  -3   9   10.20    1.00
  -9   3  -9    0.10    0.40
   9  -3   9   -0.40    0.50
 -10   3  -9    3.20    0.80
   7   2  -9    1.10    0.40
   6   2  -9    0.10    0.30
   6   2  -9    0.30    0.50
  -6  -2   9    2.20    0.80
   5   2  -9    0.60    0.30
  -5  -2   9    0.60    0.50
  -5  -2   9    0.60    0.70
   4   2  -9    1.10    0.40
  -4  -2   9    1.10    0.40
  -4  -2   9    1.80    0.70
   3   2  -9    0.80    0.30
  -3  -2   9    0.80    0.40
  -3  -2   9    1.10    0.50
   2   2  -9   16.00    0.90
   2   2  -9   15.50    0.70
  -2  -2   9   14.60    1.20
  -2  -2   9   15.50    1.00
   1   2  -9   -0.10    0.20
   1   2  -9    0.20    0.20
  -1  -2   9    0.30    0.30
  -1  -2   9    0.10    0.30
   0   2  -9   18.60    0.90
   0   2  -9   19.10    0.80
   0  -2   9   17.80    1.10
   0  -2   9   18.80    1.00
  -1   2  -9   96.69    2.30
  -1   2  -9  100.59    2.10
   1  -2   9   99.39    2.40
   1  -2   9   95.29    2.50
  -2   2  -9  131.99    2.70
   2  -2   9  137.09    2.90
   2  -2   9  135.89    2.70
   2  -2   9  132.89    3.00
  -3   2  -9    0.60    0.20
  -3   2  -9    0.40    0.20
   3  -2   9    1.10    0.20
   3  -2   9    0.80    0.30
   3  -2   9    1.00    0.30
  -4   2  -9    8.50    0.60
  -4   2  -9    9.60    0.60
   4  -2   9    9.90    0.50
   4  -2   9    9.50    0.70
   4  -2   9   10.90    0.90
  -5   2  -9    4.30    0.50
  -5   2  -9    4.40    0.60
   5  -2   9    3.50    0.30
   5  -2   9    5.10    0.60
  -6   2  -9   17.20    1.00
  -6   2  -9   17.10    0.80
   6  -2   9   14.40    0.90
  -7   2  -9   23.70    1.30
  -7   2  -9   25.40    1.00
   7  -2   9   23.40    1.20
  -8   2  -9    1.20    0.30
  -8   2  -9    1.70    0.50
   8  -2   9    1.00    0.60
  -9   2  -9    0.50    0.40
   9  -2   9    0.40    0.60
 -10   2  -9    5.00    0.90
   7   1  -9    0.80    0.40
   6   1  -9    0.50    0.40
   6   1  -9    0.20    0.30
  -6  -1   9    1.00    0.80
   5   1  -9    1.20    0.40
  -5  -1   9    2.80    0.90
   4   1  -9    1.40    0.40
  -4  -1   9    1.90    0.90
  -4  -1   9    0.90    0.40
   3   1  -9   12.30    0.80
  -3  -1   9   10.50    0.90
  -3  -1   9   11.00    1.20
   2   1  -9    0.50    0.30
   2   1  -9    0.60    0.20
  -2  -1   9    0.30    0.30
  -2  -1   9    0.60    0.40
   1   1  -9   19.80    1.00
   1   1  -9   18.80    0.70
  -1  -1   9   19.20    1.30
  -1  -1   9   18.60    1.00
   0   1  -9   19.70    0.90
   0   1  -9   20.30    0.80
   0  -1   9   21.80    1.00
   0  -1   9   18.30    1.10
  -1   1  -9   28.50    0.90
  -1   1  -9   26.80    1.00
   1  -1   9   26.70    1.30
   1  -1   9   25.80    1.10
  -2   1  -9    2.80    0.40
  -2   1  -9    3.30    0.40
   2  -1   9    2.80    0.40
   2  -1   9    3.50    0.60
  -3   1  -9   54.89    1.30
  -3   1  -9   56.89    1.50
   3  -1   9   55.49    1.80
   3  -1   9   58.59    1.60
  -4   1  -9   34.90    1.10
  -4   1  -9   37.30    1.20
   4  -1   9   36.50    1.30
   4  -1   9   36.40    1.00
   4  -1   9   34.60    1.50
  -5   1  -9   41.00    1.30
  -5   1  -9   41.10    1.30
   5  -1   9   42.00    1.40
   5  -1   9   41.70    1.10
   5  -1   9   41.60    1.70
  -6   1  -9  101.49    2.30
  -6   1  -9   96.99    2.50
   6  -1   9   97.49    2.80
   6  -1   9  101.49    2.50
  -7   1  -9   26.60    1.00
  -7   1  -9   26.20    1.30
   7  -1   9   27.50    1.30
  -8   1  -9   35.50    1.60
  -8   1  -9   31.80    1.20
   8  -1   9   32.30    1.50
  -9   1  -9   15.10    1.20
  -9   1  -9   17.20    0.90
   9  -1   9   14.90    1.20
 -10   1  -9    0.10    0.40
  10  -1   9   -0.90    0.50
   7   0  -9   19.70    1.20
   6   0  -9    0.10    0.30
   6   0  -9    0.60    0.50
  -6   0   9    1.40    0.70
   5   0  -9   83.19    2.50
  -5   0   9   79.79    2.70
  -5   0   9   86.39    3.70
   4   0  -9   21.30    1.10
  -4   0   9   23.90    1.90
  -4   0   9   23.00    1.40
   3   0  -9   21.80    1.10
  -3   0   9   21.90    1.20
  -3   0   9   20.70    1.60
   2   0  -9  153.38    3.40
   2   0  -9  156.28    2.80
  -2   0   9  145.89    4.20
  -2   0   9  157.98    3.50
   1   0  -9   51.89    1.60
   1   0  -9   48.40    1.20
  -1   0   9   45.50    2.00
  -1   0   9   48.40    1.60
   0   0  -9  557.14    8.70
   0   0  -9  561.44    9.20
   0   0   9  539.35    9.90
   0   0   9  573.54    9.20
  -1   0  -9   33.90    1.00
  -1   0  -9   32.20    1.10
   1   0   9   33.70    1.20
   1   0   9   33.60    1.50
  -2   0  -9   38.70    1.20
  -2   0  -9   37.80    1.10
   2   0   9   39.60    1.60
   2   0   9   39.20    1.30
  -3   0  -9   60.79    1.50
  -3   0  -9   57.99    1.50
   3   0   9   59.99    1.60
   3   0   9   60.49    2.10
  -4   0  -9    0.80    0.20
  -4   0  -9    0.80    0.30
  -4   0  -9    0.80    0.20
   4   0   9    1.00    0.30
   4   0   9    2.00    0.60
  -5   0  -9   34.40    1.00
  -5   0  -9   36.30    1.20
  -5   0  -9   34.70    1.20
   5   0   9   34.60    1.60
   5   0   9   34.10    1.20
  -6   0  -9    0.00    0.20
  -6   0  -9    0.10    0.20
   6   0   9    0.00    0.40
   6   0   9   -0.40    0.50
  -7   0  -9   44.20    1.60
  -7   0  -9   45.40    1.40
   7   0   9   42.10    2.00
   7   0   9   45.60    1.60
  -8   0  -9   33.10    1.20
  -8   0  -9   31.90    1.50
   8   0   9   30.90    1.80
   8   0   9   32.50    1.50
  -9   0  -9   27.30    1.10
  -9   0  -9   28.60    1.50
   9   0   9   29.50    1.60
 -10   0  -9    2.40    0.60
  10   0   9    1.60    0.70
   7  -1  -9    2.10    0.80
   6  -1  -9    6.20    1.20
   6  -1  -9    5.90    0.80
  -6   1   9    7.60    1.40
   5  -1  -9   22.00    1.20
   5  -1  -9   21.40    1.70
  -5   1   9   25.30    2.20
   4  -1  -9   22.20    1.10
  -4   1   9   21.30    1.30
  -4   1   9   21.30    1.90
   3  -1  -9   30.00    1.30
  -3   1   9   27.70    1.30
  -3   1   9   28.40    1.90
   2  -1  -9   97.69    2.50
   2  -1  -9   93.89    1.90
  -2   1   9   94.49    2.50
  -2   1   9   92.79    3.30
   1  -1  -9   59.49    1.40
   1  -1  -9   57.39    1.70
  -1   1   9   59.49    1.80
  -1   1   9   54.99    2.30
   0  -1  -9  137.49    3.00
   0  -1  -9  139.79    2.60
   0   1   9  140.79    3.00
   0   1   9  135.39    3.60
  -1  -1  -9    2.10    0.40
  -1  -1  -9    2.10    0.30
   1   1   9    1.50    0.40
   1   1   9    2.20    0.60
  -2  -1  -9  440.16    7.30
  -2  -1  -9  449.95    7.20
   2   1   9  445.26    8.20
   2   1   9  446.26    7.40
  -3  -1  -9  178.08    3.30
  -3  -1  -9  180.18    3.30
   3   1   9  176.28    4.20
   3   1   9  178.18    3.50
  -4  -1  -9  380.36    6.20
  -4  -1  -9  376.16    6.10
  -4  -1  -9  378.96    6.30
   4   1   9  378.96    6.40
   4   1   9  388.96    7.30
  -5  -1  -9  108.59    2.40
  -5  -1  -9  113.29    2.40
  -5  -1  -9  110.99    2.20
   5   1   9  112.89    3.10
   5   1   9  111.09    2.50
  -6  -1  -9   15.70    0.80
  -6  -1  -9   16.00    0.90
   6   1   9   14.80    1.30
   6   1   9   17.10    0.90
  -7  -1  -9   15.30    0.90
  -7  -1  -9   15.80    0.80
   7   1   9   16.50    1.00
   7   1   9   14.80    1.30
  -8  -1  -9   16.00    1.00
  -8  -1  -9   16.10    0.80
   8   1   9   14.50    1.40
   8   1   9   15.20    1.10
  -9  -1  -9    1.60    0.40
  -9  -1  -9    1.50    0.50
   9   1   9    0.20    0.70
   9   1   9    1.00    0.60
 -10  -1  -9   20.60    1.30
  10   1   9   23.30    1.50
   6  -2  -9    0.60    0.40
   6  -2  -9    0.60    0.50
  -6   2   9    1.40    0.80
   5  -2  -9    3.00    0.80
   5  -2  -9    4.00    0.60
  -5   2   9    3.10    1.10
   4  -2  -9    2.20    0.50
  -4   2   9    2.50    1.00
  -4   2   9    1.20    0.50
   3  -2  -9   18.90    1.00
  -3   2   9   21.10    1.20
  -3   2   9   20.40    1.60
   2  -2  -9   71.89    2.10
  -2   2   9   72.79    2.90
  -2   2   9   70.79    2.10
   1  -2  -9   97.59    1.90
   1  -2  -9   94.89    2.40
  -1   2   9   91.79    3.10
  -1   2   9   96.89    2.40
   0  -2  -9  138.39    2.60
   0  -2  -9  136.89    3.00
   0   2   9  135.29    3.70
   0   2   9  137.09    2.90
  -1  -2  -9    1.00    0.30
  -1  -2  -9    1.60    0.30
   1   2   9    1.10    0.30
   1   2   9    1.60    0.60
  -2  -2  -9   88.29    2.10
  -2  -2  -9   89.19    2.00
   2   2   9   98.09    2.20
   2   2   9   91.79    2.80
  -3  -2  -9   14.20    0.70
  -3  -2  -9   17.50    0.70
  -3  -2  -9   13.40    0.50
   3   2   9   15.80    1.30
   3   2   9   16.40    0.80
  -4  -2  -9   12.60    0.70
  -4  -2  -9   13.40    0.60
  -4  -2  -9   13.30    0.60
   4   2   9   14.50    1.20
   4   2   9   12.60    0.70
  -5  -2  -9    4.10    0.40
  -5  -2  -9    5.40    0.50
   5   2   9    4.80    0.50
   5   2   9    5.60    1.00
  -6  -2  -9    4.90    0.50
  -6  -2  -9    4.30    0.50
   6   2   9    5.20    1.00
   6   2   9    4.50    0.60
  -7  -2  -9    1.40    0.40
  -7  -2  -9    2.00    0.40
   7   2   9    1.60    0.50
   7   2   9    1.30    0.70
  -8  -2  -9    5.40    0.60
  -8  -2  -9    5.00    0.70
   8   2   9    4.20    1.00
   8   2   9    3.70    0.70
  -9  -2  -9    1.10    0.30
  -9  -2  -9    1.10    0.40
   9   2   9    0.20    0.70
   9   2   9   -0.40    0.50
 -10  -2  -9   -0.10    0.40
  10   2   9   -0.40    0.60
  10   2   9   -1.20    0.50
   6  -3  -9    0.60    0.40
   6  -3  -9    0.70    0.40
   5  -3  -9    1.40    0.40
   5  -3  -9    2.10    0.70
  -5   3   9    1.20    0.80
   4  -3  -9    5.30    0.70
  -4   3   9    4.20    1.20
   3  -3  -9    4.50    0.60
  -3   3   9    3.90    0.60
  -3   3   9    4.80    1.10
   2  -3  -9   16.70    0.90
  -2   3   9   17.40    1.00
  -2   3   9   16.40    1.40
   1  -3  -9   24.80    0.80
   1  -3  -9   22.50    1.00
  -1   3   9   26.00    1.10
  -1   3   9   24.00    1.60
   0  -3  -9    1.00    0.30
   0  -3  -9    1.50    0.30
   0   3   9    2.00    0.60
   0   3   9    1.70    0.40
  -1  -3  -9   27.50    0.90
  -1  -3  -9   29.20    1.10
   1   3   9   28.10    1.60
   1   3   9   29.50    1.10
  -2  -3  -9    1.00    0.30
  -2  -3  -9    0.70    0.20
   2   3   9    1.10    0.60
   2   3   9    0.70    0.30
  -3  -3  -9    9.80    0.60
  -3  -3  -9    8.90    0.40
  -3  -3  -9    9.50    0.50
   3   3   9   10.90    0.60
   3   3   9    9.00    1.10
  -4  -3  -9    0.60    0.20
  -4  -3  -9    0.40    0.20
  -4  -3  -9    0.10    0.20
   4   3   9    0.60    0.60
   4   3   9    0.30    0.30
  -5  -3  -9   -0.20    0.20
  -5  -3  -9    0.00    0.20
   5   3   9    0.00    0.50
   5   3   9    0.10    0.30
  -6  -3  -9    0.10    0.20
  -6  -3  -9    0.10    0.20
   6   3   9    0.30    0.60
   6   3   9    0.50    0.30
  -7  -3  -9    2.50    0.40
  -7  -3  -9    3.30    0.50
   7   3   9    2.60    0.50
   7   3   9    1.80    0.80
  -8  -3  -9   13.30    0.90
  -8  -3  -9   14.40    0.80
   8   3   9   14.00    1.00
   8   3   9   12.50    1.50
  -9  -3  -9    0.10    0.20
  -9  -3  -9    0.40    0.40
   9   3   9   -0.80    0.60
   9   3   9   -0.80    0.40
 -10  -3  -9    7.30    0.90
  10   3   9    6.00    1.30
  10   3   9    5.40    0.90
   6  -4  -9    1.40    0.60
   6  -4  -9    1.10    0.50
   5  -4  -9   15.40    1.00
   5  -4  -9   15.30    1.40
  -5   4   9   18.30    1.90
   4  -4  -9    0.10    0.30
   4  -4  -9    0.20    0.30
  -4   4   9    0.80    0.70
   3  -4  -9   11.40    0.80
  -3   4   9   14.60    1.60
  -3   4   9   12.00    0.90
   2  -4  -9   33.50    1.30
  -2   4   9   33.00    2.10
  -2   4   9   33.70    1.40
   1  -4  -9   13.60    0.80
   1  -4  -9   16.50    0.60
  -1   4   9   14.40    1.40
  -1   4   9   15.70    0.90
   0  -4  -9    8.20    0.50
   0  -4  -9    6.80    0.60
   0   4   9    6.60    0.60
   0   4   9    7.00    1.10
  -1  -4  -9   23.90    0.80
  -1  -4  -9   24.40    1.00
   1   4   9   24.20    0.90
   1   4   9   22.60    1.50
  -2  -4  -9    7.20    0.50
  -2  -4  -9    7.60    0.50
   2   4   9    7.50    0.50
   2   4   9    7.70    1.20
  -3  -4  -9  118.09    2.40
  -3  -4  -9  119.89    2.50
   3   4   9  117.49    3.50
   3   4   9  119.09    2.50
  -4  -4  -9   37.70    1.00
  -4  -4  -9   36.30    1.20
  -4  -4  -9   35.20    1.00
   4   4   9   36.00    1.10
   4   4   9   34.60    1.90
  -5  -4  -9  112.99    2.50
  -5  -4  -9  111.59    2.30
   5   4   9  111.89    2.40
   5   4   9  110.59    3.40
  -6  -4  -9   37.20    1.20
  -6  -4  -9   37.20    1.20
   6   4   9   38.90    2.10
   6   4   9   37.30    1.20
  -7  -4  -9   59.39    1.80
  -7  -4  -9   57.19    1.60
   7   4   9   56.79    2.60
   7   4   9   59.39    1.70
  -8  -4  -9    4.40    0.60
  -8  -4  -9    4.10    0.50
   8   4   9    2.70    0.60
   8   4   9    3.60    1.10
  -9  -4  -9   25.50    1.30
  -9  -4  -9   25.90    1.10
   9   4   9   26.20    1.40
   9   4   9   26.30    2.00
 -10  -4  -9    0.20    0.40
 -10  -4  -9    0.90    0.30
  10   4   9   -0.90    0.50
  10   4   9   -1.30    0.70
   6  -5  -9    0.50    0.60
   5  -5  -9   14.50    1.00
   5  -5  -9   14.80    1.40
  -5   5   9   18.50    1.90
   4  -5  -9    2.10    0.50
   4  -5  -9    2.00    0.60
  -4   5   9    2.90    0.90
   3  -5  -9    5.10    0.70
   3  -5  -9    4.70    0.80
  -3   5   9    6.40    1.40
   2  -5  -9   20.90    1.10
  -2   5   9   22.00    1.10
  -2   5   9   21.10    1.70
   1  -5  -9    1.60    0.30
   1  -5  -9    1.10    0.30
  -1   5   9    0.90    0.30
  -1   5   9    1.70    0.70
   0  -5  -9   59.29    1.40
   0  -5  -9   58.39    1.70
   0   5   9   59.69    1.70
   0   5   9   57.39    2.50
  -1  -5  -9   43.50    1.40
  -1  -5  -9   43.60    1.20
   1   5   9   44.90    2.10
   1   5   9   44.50    1.30
  -2  -5  -9   32.80    1.10
  -2  -5  -9   32.30    1.00
   2   5   9   33.70    1.10
   2   5   9   30.80    1.80
  -3  -5  -9    6.60    0.50
  -3  -5  -9    6.80    0.50
   3   5   9    7.50    1.20
   3   5   9    7.30    0.50
   3   5   9    6.40    0.40
  -4  -5  -9    6.60    0.50
  -4  -5  -9    6.90    0.50
  -4  -5  -9    7.10    0.40
   4   5   9    5.10    1.10
   4   5   9    7.20    0.50
  -5  -5  -9   26.60    1.00
  -5  -5  -9   27.70    1.00
   5   5   9   24.70    1.70
   5   5   9   27.20    1.00
  -6  -5  -9   16.60    0.80
  -6  -5  -9   17.60    0.80
   6   5   9   18.20    0.90
   6   5   9   17.00    1.60
  -7  -5  -9   37.90    1.30
  -7  -5  -9   38.70    1.40
   7   5   9   37.10    1.30
   7   5   9   37.00    2.20
  -8  -5  -9   37.40    1.40
  -8  -5  -9   36.30    1.30
   8   5   9   32.80    2.20
   8   5   9   37.80    1.40
  -9  -5  -9   33.70    1.30
  -9  -5  -9   35.90    1.50
   9   5   9   33.80    1.50
   9   5   9   31.40    2.30
 -10  -5  -9    1.80    0.50
 -10  -5  -9    2.50    0.40
  10   5   9    0.80    1.00
   5  -6  -9    9.20    1.30
   5  -6  -9    8.60    1.00
  -5   6   9   13.20    1.70
   4  -6  -9    0.70    0.50
   4  -6  -9    1.90    0.50
  -4   6   9    1.40    0.80
   3  -6  -9   10.40    1.00
   3  -6  -9   10.30    0.80
  -3   6   9   12.80    1.60
   2  -6  -9    9.30    0.80
  -2   6   9    8.80    0.80
  -2   6   9   10.60    1.40
   1  -6  -9    0.30    0.20
  -1   6   9    0.40    0.50
  -1   6   9   -0.20    0.20
   0  -6  -9   47.20    1.20
   0  -6  -9   44.80    1.50
   0   6   9   45.40    2.30
   0   6   9   44.90    1.40
  -1  -6  -9    2.60    0.40
  -1  -6  -9    2.70    0.40
   1   6   9    2.40    0.80
   1   6   9    2.50    0.40
  -2  -6  -9  159.38    3.20
  -2  -6  -9  158.98    3.00
   2   6   9  158.28    3.00
   2   6   9  151.08    4.40
  -3  -6  -9    5.10    0.40
  -3  -6  -9    5.90    0.50
   3   6   9    4.90    0.40
   3   6   9    5.40    0.40
   3   6   9    6.80    1.20
  -4  -6  -9   75.09    1.70
  -4  -6  -9   73.09    1.80
   4   6   9   72.09    2.90
   4   6   9   71.89    1.70
  -5  -6  -9    4.90    0.50
  -5  -6  -9    4.70    0.50
   5   6   9    4.90    0.50
   5   6   9    5.10    1.10
  -6  -6  -9   17.20    0.90
  -6  -6  -9   17.70    0.90
   6   6   9   18.40    0.80
   6   6   9   16.70    1.70
  -7  -6  -9    1.20    0.40
  -7  -6  -9    1.50    0.30
   7   6   9    0.80    0.90
  -8  -6  -9   13.10    0.90
  -8  -6  -9   12.50    0.80
   8   6   9   16.20    2.00
  -9  -6  -9    6.40    0.80
  -9  -6  -9    7.50    0.60
   9   6   9    8.30    1.60
 -10  -6  -9    1.70    0.60
 -10  -6  -9    1.00    0.30
  10   6   9   -0.80    0.80
   4  -7  -9    5.80    0.80
  -4   7   9    8.20    1.50
   3  -7  -9   23.30    1.20
  -3   7   9   26.50    2.20
   2  -7  -9    5.70    0.70
  -2   7   9    6.50    1.30
   1  -7  -9   10.00    0.80
  -1   7   9   10.00    0.90
  -1   7   9   11.10    1.40
   0  -7  -9    5.20    0.40
   0  -7  -9    5.60    0.70
   0   7   9    7.10    1.20
  -1  -7  -9   29.50    1.00
  -1  -7  -9   27.90    1.10
   1   7   9   28.70    1.90
  -2  -7  -9   18.10    0.80
  -2  -7  -9   17.80    0.80
   2   7   9   16.20    1.50
  -3  -7  -9    5.90    0.50
  -3  -7  -9    5.90    0.50
   3   7   9    7.00    1.20
   3   7   9    5.00    0.50
  -4  -7  -9   11.00    0.60
   4   7   9   10.30    1.40
   4   7   9   10.50    0.60
  -5  -7  -9   24.30    1.00
  -5  -7  -9   24.40    1.00
   5   7   9   22.60    1.80
  -6  -7  -9   32.90    1.20
  -6  -7  -9   33.00    1.20
   6   7   9   33.90    2.20
  -7  -7  -9    1.30    0.30
  -7  -7  -9    1.00    0.40
   7   7   9    1.30    1.00
  -8  -7  -9    6.60    0.70
  -8  -7  -9    6.00    0.70
   8   7   9    5.00    1.40
  -9  -7  -9    0.30    0.30
  -9  -7  -9    0.50    0.40
   9   7   9   -1.30    0.90
 -10  -7  -9    0.30    0.20
 -10  -7  -9    0.40    0.50
   4  -8  -9    0.60    0.40
  -4   8   9    4.00    1.00
   3  -8  -9    4.00    0.60
  -3   8   9    8.00    1.50
   2  -8  -9    0.00    0.20
  -2   8   9   -0.10    0.70
   1  -8  -9    0.70    0.30
  -1   8   9    1.00    0.70
   0  -8  -9   10.50    0.80
   0  -8  -9   10.00    0.60
   0   8   9   10.50    1.40
  -1  -8  -9    0.20    0.20
  -1  -8  -9    0.00    0.20
   1   8   9    0.20    0.60
  -2  -8  -9    0.00    0.20
  -2  -8  -9    0.00    0.20
   2   8   9    0.00    0.70
  -3  -8  -9   21.30    0.90
  -3  -8  -9   23.10    0.90
   3   8   9   21.80    0.90
   3   8   9   20.40    1.80
  -4  -8  -9   16.60    0.80
   4   8   9   15.60    1.70
   4   8   9   16.10    0.80
  -5  -8  -9    0.10    0.20
   5   8   9    0.40    0.20
   5   8   9   -1.00    0.80
  -6  -8  -9    2.30    0.50
  -6  -8  -9    1.80    0.40
   6   8   9    1.00    1.00
  -7  -8  -9    0.60    0.30
  -7  -8  -9    0.90    0.40
   7   8   9   -0.70    1.00
  -8  -8  -9    4.00    0.60
  -8  -8  -9    3.10    0.60
   8   8   9    0.60    1.10
  -9  -8  -9    2.00    0.40
  -9  -8  -9    2.30    0.60
   9   8   9    0.50    1.20
 -10  -8  -9    0.10    0.30
   3  -9  -9    0.10    0.30
   2  -9  -9    1.80    0.50
  -2   9   9    1.90    0.90
   1  -9  -9    5.50    0.70
  -1   9   9    5.90    1.20
   0  -9  -9    2.30    0.30
   0  -9  -9    2.10    0.40
   0   9   9    4.30    1.10
  -1  -9  -9   17.90    0.80
  -1  -9  -9   17.00    0.90
   1   9   9   18.90    1.70
  -2  -9  -9   16.60    0.90
  -2  -9  -9   17.50    0.80
   2   9   9   17.20    1.70
  -3  -9  -9    1.50    0.30
  -3  -9  -9    2.10    0.40
   3   9   9    1.90    0.90
   3   9   9    1.20    0.40
  -4  -9  -9    5.10    0.60
   4   9   9    5.20    0.60
   4   9   9    8.40    1.50
  -5  -9  -9   20.40    1.00
   5   9   9   20.80    2.00
   5   9   9   19.10    0.90
  -6  -9  -9    0.10    0.20
   6   9   9   -0.40    0.90
  -7  -9  -9   63.19    2.00
  -7  -9  -9   60.79    1.80
   7   9   9   59.99    3.20
  -8  -9  -9    7.10    0.80
  -8  -9  -9    8.10    0.70
   8   9   9    4.30    1.50
  -9  -9  -9   30.90    1.50
  -9  -9  -9   32.80    1.30
  -3  10   9   22.20    1.90
   2 -10  -9    3.00    0.60
  -2  10   9    5.20    1.20
   1 -10  -9   11.40    0.90
  -1  10   9   13.80    1.80
   0 -10  -9    0.70    0.30
   0  10   9    1.10    0.80
  -1 -10  -9   16.00    0.80
  -1 -10  -9   14.10    0.90
   1  10   9   15.80    1.70
  -2 -10  -9    0.00    0.20
  -2 -10  -9    0.00    0.20
   2  10   9    0.50    0.70
  -3 -10  -9    1.90    0.40
  -3 -10  -9    2.20    0.40
   3  10   9    1.60    0.50
   3  10   9    1.20    0.90
  -4 -10  -9   19.40    0.90
   4  10   9   18.40    1.10
   4  10   9   22.10    2.00
  -5 -10  -9    1.20    0.30
   5  10   9    0.70    0.40
   5  10   9    1.40    1.10
  -6 -10  -9    7.50    0.70
   6  10   9    6.90    0.70
   6  10   9    5.30    1.40
  -7 -10  -9    0.00    0.20
   7  10   9   -0.60    1.00
  -8 -10  -9    0.40    0.40
  -8 -10  -9   -0.20    0.20
   8  10   9   -1.30    1.00
  -9 -10  -9    6.20    1.20
  -2  11   9   31.20    2.20
   1 -11  -9    8.40    0.80
   0 -11  -9   26.80    1.30
   0  11   9   32.00    2.30
  -1 -11  -9   19.80    1.10
  -1 -11  -9   19.80    0.90
   1  11   9   22.50    1.90
  -2 -11  -9    0.30    0.30
  -2 -11  -9   -0.10    0.20
   2  11   9    0.70    0.80
  -3 -11  -9   23.60    1.00
   3  11   9   25.50    2.20
   3  11   9   22.80    1.20
  -4 -11  -9   20.20    1.00
   4  11   9   22.30    2.10
   4  11   9   18.90    1.10
  -5 -11  -9   53.19    1.70
   5  11   9   49.99    1.80
   5  11   9   53.39    3.10
  -6 -11  -9   17.30    1.00
   6  11   9   18.40    1.10
   6  11   9   15.90    2.10
  -7 -11  -9    7.60    0.70
   7  11   9    9.30    0.80
   7  11   9    7.60    1.70
  -1  12   9   41.70    2.40
   0 -12  -9   25.60    1.30
   0  12   9   34.90    2.30
  -1 -12  -9   17.00    0.90
  -1 -12  -9   18.00    1.10
   1  12   9   20.40    1.90
  -2 -12  -9    3.00    0.50
  -2 -12  -9    3.00    0.40
   2  12   9    4.40    1.10
  -3 -12  -9   27.20    1.10
   3  12   9   30.90    2.40
  -4 -12  -9    1.90    0.40
   4  12   9    3.20    1.20
   4  12   9    1.00    0.60
  -5 -12  -9    0.00    0.20
   5  12   9    0.10    1.00
   5  12   9   -0.90    0.40
  -6 -12  -9    0.30    0.20
   6  12   9    0.50    1.20
   6  12   9   -0.10    0.40
   7  12   9    1.40    0.40
  -1 -13  -9   -0.10    0.30
  -2 -13  -9    3.30    0.60
  -2 -13  -9    4.00    0.50
  -3 -13  -9    1.90    0.40
   3  13   9    4.70    1.10
  -4 -13  -9    8.50    0.70
   4  13   9   14.50    1.90
   4  13   9    8.10    1.00
  -5 -13  -9   -0.30    0.20
   5  13   9    0.00    0.90
   5  13   9   -0.50    0.50
   6  13   9    3.40    0.80
  -2 -14  -9    2.60    0.50
   1  11 -10    3.20    0.90
   0  11 -10   14.30    1.00
   0 -11  10   13.00    1.00
  -1  11 -10    9.80    0.90
   1 -11  10   13.00    0.90
  -2  11 -10    0.80    0.40
   2 -11  10    1.30    0.40
   3 -11  10    0.80    0.40
   3  10 -10    1.20    0.40
   2  10 -10    0.90    0.40
  -2 -10  10    0.60    0.40
   1  10 -10    5.50    0.70
  -1 -10  10    8.90    0.80
  -1 -10  10    6.00    0.70
   0  10 -10    2.70    0.50
   0 -10  10    2.80    0.60
   0 -10  10    2.80    0.50
  -1  10 -10    0.90    0.40
   1 -10  10    0.90    0.30
  -2  10 -10    0.10    0.30
   2 -10  10    0.10    0.20
   2 -10  10    0.70    0.30
  -3  10 -10    2.00    0.50
   3 -10  10    2.50    0.50
   3 -10  10    2.40    0.50
  -4  10 -10    0.50    0.30
   4 -10  10    2.40    0.50
   4 -10  10    1.20    0.40
  -5  10 -10   12.10    1.00
   5 -10  10   14.20    0.90
   5 -10  10   16.40    1.00
  -4  -9  10   21.00    1.20
   3   9 -10    8.50    1.00
   3   9 -10    9.80    0.80
  -3  -9  10   11.40    1.00
   2   9 -10    9.50    0.80
  -2  -9  10   12.30    1.00
  -2  -9  10    9.70    0.80
   1   9 -10   22.10    1.10
  -1  -9  10   23.10    1.30
  -1  -9  10   18.70    1.10
   0   9 -10    2.20    0.50
   0  -9  10    3.10    0.60
   0  -9  10    2.60    0.50
  -1   9 -10   13.60    0.90
   1  -9  10   13.90    0.90
   1  -9  10   14.30    1.00
  -2   9 -10    1.70    0.40
   2  -9  10    1.90    0.40
   2  -9  10    3.30    0.60
  -3   9 -10    3.10    0.50
   3  -9  10    3.10    0.60
   3  -9  10    3.20    0.50
  -4   9 -10    1.70    0.40
   4  -9  10    1.00    0.30
   4  -9  10    2.00    0.50
  -5   9 -10    4.80    0.70
   5  -9  10    5.90    0.70
   5  -9  10    4.80    0.60
  -6   9 -10    1.50    0.40
   6  -9  10    1.10    0.40
   6  -9  10    1.50    0.40
   4   8 -10   14.20    1.10
  -4  -8  10   16.10    1.20
   3   8 -10   46.00    1.90
   3   8 -10   51.29    1.60
  -3  -8  10   49.50    2.00
   2   8 -10  107.69    2.60
  -2  -8  10  106.39    3.00
  -2  -8  10  102.79    2.70
   1   8 -10    0.70    0.30
  -1  -8  10    0.80    0.40
  -1  -8  10    1.20    0.40
   0   8 -10   30.00    1.20
   0  -8  10   30.50    1.30
   0  -8  10   31.20    1.40
  -1   8 -10    0.00    0.30
   1  -8  10    0.00    0.20
   1  -8  10    0.30    0.30
  -2   8 -10   20.20    1.00
   2  -8  10   21.70    1.00
   2  -8  10   22.00    1.20
  -3   8 -10   10.30    0.80
   3  -8  10   10.70    0.80
   3  -8  10   10.40    0.90
  -4   8 -10    2.10    0.50
   4  -8  10    2.60    0.60
   4  -8  10    2.40    0.40
  -5   8 -10    0.20    0.30
   5  -8  10    0.40    0.30
   5  -8  10    0.80    0.40
  -6   8 -10    9.90    0.80
   6  -8  10    9.30    0.70
   6  -8  10   12.10    1.00
  -7   8 -10    4.60    0.80
  -7   8 -10    2.70    0.50
   7  -8  10    3.40    0.70
   5   7 -10    0.90    0.40
  -5  -7  10    1.60    0.60
   4   7 -10    9.90    0.90
  -4  -7  10   12.70    1.20
   3   7 -10   11.90    0.80
   3   7 -10   14.20    1.00
  -3  -7  10   13.50    1.10
   2   7 -10   12.40    0.80
  -2  -7  10   11.70    1.00
   1   7 -10    2.20    0.40
  -1  -7  10    2.20    0.50
  -1  -7  10    2.00    0.40
   0   7 -10   11.10    0.80
   0  -7  10   11.70    0.90
   0  -7  10    9.80    0.70
  -1   7 -10   24.00    1.10
   1  -7  10   23.00    1.10
   1  -7  10   23.60    1.20
  -2   7 -10   37.40    1.40
   2  -7  10   36.20    1.50
   2  -7  10   37.70    1.40
  -3   7 -10    2.30    0.40
   3  -7  10    2.50    0.50
   3  -7  10    2.30    0.40
  -4   7 -10    0.80    0.30
   4  -7  10    1.10    0.40
   4  -7  10    1.20    0.30
  -5   7 -10    2.50    0.50
   5  -7  10    2.20    0.50
   5  -7  10    1.90    0.40
  -6   7 -10    0.40    0.40
  -6   7 -10   -0.20    0.20
   6  -7  10    0.50    0.40
   6  -7  10    0.00    0.20
  -7   7 -10    0.40    0.30
  -7   7 -10    1.60    0.50
   7  -7  10    1.10    0.40
   5   6 -10    4.50    0.70
  -5  -6  10    4.60    0.80
   4   6 -10    1.00    0.40
  -4  -6  10    1.70    0.60
   3   6 -10    1.20    0.40
   3   6 -10    0.80    0.40
  -3  -6  10    1.20    0.50
   2   6 -10    0.30    0.30
   2   6 -10    0.10    0.30
  -2  -6  10    0.50    0.40
   1   6 -10    7.00    0.70
  -1  -6  10    6.80    0.80
  -1  -6  10    7.20    0.60
   0   6 -10    8.80    0.70
   0  -6  10    8.20    0.60
   0  -6  10    8.60    0.80
  -1   6 -10    1.30    0.30
   1  -6  10    1.30    0.40
   1  -6  10    1.60    0.40
  -2   6 -10    0.30    0.30
   2  -6  10    0.20    0.20
   2  -6  10    0.60    0.30
  -3   6 -10    3.60    0.50
   3  -6  10    4.20    0.60
   3  -6  10    4.50    0.50
  -4   6 -10    0.30    0.30
   4  -6  10    0.60    0.30
   4  -6  10    0.60    0.20
  -5   6 -10    0.50    0.30
   5  -6  10    0.40    0.20
   5  -6  10    0.50    0.40
  -6   6 -10    5.60    0.60
  -6   6 -10    4.80    0.80
   6  -6  10    6.30    0.80
   6  -6  10    5.70    0.50
  -7   6 -10    6.40    0.90
  -7   6 -10    5.60    0.60
   7  -6  10    6.30    0.80
  -8   6 -10    1.20    0.40
   8  -6  10    0.60    0.40
   6   5 -10    2.20    0.90
   5   5 -10    1.50    0.40
  -5  -5  10    2.30    0.70
   4   5 -10    4.40    0.70
  -4  -5  10    4.30    0.80
   3   5 -10    1.30    0.40
   3   5 -10    2.30    0.50
  -3  -5  10    1.50    0.50
   2   5 -10    2.80    0.40
   2   5 -10    3.90    0.60
  -2  -5  10    4.00    0.70
   1   5 -10    4.40    0.60
   1   5 -10    2.90    0.40
  -1  -5  10    3.50    0.60
   0   5 -10    1.60    0.40
   0  -5  10    1.00    0.40
   0  -5  10    1.30    0.30
  -1   5 -10    8.30    0.60
   1  -5  10    9.10    0.60
   1  -5  10    7.70    0.70
  -2   5 -10    0.10    0.20
   2  -5  10   -0.10    0.30
   2  -5  10   -0.10    0.20
  -3   5 -10   19.60    0.90
   3  -5  10   19.20    0.90
   3  -5  10   19.50    1.00
  -4   5 -10    6.30    0.60
   4  -5  10    6.00    0.70
   4  -5  10    5.70    0.50
  -5   5 -10   32.40    1.20
  -5   5 -10   29.00    1.60
   5  -5  10   31.60    1.40
   5  -5  10   30.60    1.10
  -6   5 -10   21.00    1.00
  -6   5 -10   21.70    1.20
   6  -5  10   20.90    0.90
   6  -5  10   21.40    1.20
  -7   5 -10    4.90    0.80
  -7   5 -10    4.50    0.60
   7  -5  10    5.00    0.70
  -8   5 -10    6.20    0.70
  -8   5 -10    6.30    1.00
   8  -5  10    6.20    0.80
  -9   5 -10    4.00    0.80
   6   4 -10    2.20    0.60
   5   4 -10    3.20    0.60
  -5  -4  10    2.60    0.70
   4   4 -10   22.10    1.20
  -4  -4  10   21.40    1.40
  -4  -4  10   26.30    1.80
   3   4 -10    4.70    0.70
  -3  -4  10    4.90    0.70
  -3  -4  10    5.40    0.90
   2   4 -10   21.30    1.10
   2   4 -10   18.40    0.80
  -2  -4  10   17.90    1.60
  -2  -4  10   18.90    1.10
   1   4 -10    9.20    0.70
   1   4 -10    8.90    0.60
  -1  -4  10    9.40    0.80
   0   4 -10    5.80    0.50
   0  -4  10    6.40    0.70
  -1   4 -10   34.50    1.20
   1  -4  10   36.20    1.20
   1  -4  10   34.70    1.40
  -2   4 -10   13.50    0.70
   2  -4  10   13.30    0.90
   2  -4  10   13.90    0.70
  -3   4 -10   73.49    1.90
   3  -4  10   75.49    2.10
   3  -4  10   73.89    1.80
  -4   4 -10    6.50    0.60
   4  -4  10    7.60    0.70
   4  -4  10    8.00    0.50
  -5   4 -10   29.20    1.30
  -5   4 -10   33.60    1.20
   5  -4  10   36.00    1.40
   5  -4  10   34.60    1.10
  -6   4 -10    1.00    0.30
  -6   4 -10    0.70    0.30
   6  -4  10    1.00    0.40
  -7   4 -10   14.50    0.90
  -7   4 -10   14.60    1.10
   7  -4  10   14.90    1.10
  -8   4 -10    1.10    0.50
  -8   4 -10    1.30    0.40
   8  -4  10    1.20    0.60
  -9   4 -10    9.70    1.00
   6   3 -10    1.70    0.50
   5   3 -10    5.50    0.80
  -5  -3  10    5.80    0.90
   4   3 -10   16.90    1.10
  -4  -3  10   15.50    1.50
  -4  -3  10   16.00    1.20
   3   3 -10    0.40    0.30
  -3  -3  10    0.80    0.40
  -3  -3  10    0.90    0.50
   2   3 -10   57.19    1.50
   2   3 -10   57.09    1.90
  -2  -3  10   54.29    2.30
  -2  -3  10   57.19    2.00
   1   3 -10    1.40    0.30
   1   3 -10    1.60    0.40
  -1  -3  10    1.20    0.50
  -1  -3  10    1.20    0.40
   0   3 -10   91.19    2.10
   0   3 -10   89.49    2.30
   0  -3  10   90.79    2.50
   0  -3  10   86.89    2.60
  -1   3 -10    0.20    0.20
   1  -3  10   -0.20    0.20
  -2   3 -10   39.20    1.30
   2  -3  10   40.00    1.20
   2  -3  10   39.40    1.40
  -3   3 -10   22.40    0.90
   3  -3  10   22.00    0.90
   3  -3  10   20.70    1.00
  -4   3 -10    3.00    0.40
   4  -3  10    2.40    0.50
   4  -3  10    2.70    0.40
  -5   3 -10   34.00    1.30
  -5   3 -10   34.90    1.20
   5  -3  10   37.90    1.10
   5  -3  10   35.00    1.40
  -6   3 -10    9.60    0.80
  -6   3 -10   11.70    0.70
   6  -3  10   10.80    0.90
  -7   3 -10   43.30    1.50
  -7   3 -10   41.60    1.70
   7  -3  10   45.30    1.70
  -8   3 -10    1.50    0.40
  -8   3 -10    2.40    0.60
   8  -3  10    1.60    0.60
  -9   3 -10    5.10    0.80
   9  -3  10    5.60    0.90
   6   2 -10    1.80    0.50
   5   2 -10   16.50    1.10
  -5  -2  10   17.10    1.30
  -5  -2  10   20.60    1.80
   4   2 -10    8.60    0.80
  -4  -2  10   10.60    1.60
  -4  -2  10    9.00    0.90
   3   2 -10   10.70    0.80
  -3  -2  10   10.70    1.20
  -3  -2  10   10.50    0.90
   2   2 -10    0.00    0.20
   2   2 -10    0.00    0.20
  -2  -2  10    0.20    0.40
  -2  -2  10    0.30    0.30
   1   2 -10    0.80    0.30
   1   2 -10    0.80    0.30
  -1  -2  10    0.70    0.40
  -1  -2  10    0.90    0.40
   0   2 -10   26.00    1.10
   0   2 -10   25.80    0.90
   0  -2  10   26.30    1.40
   0  -2  10   25.70    1.20
  -1   2 -10   10.20    0.60
  -1   2 -10   11.20    0.70
   1  -2  10   11.20    0.80
   1  -2  10   10.00    0.80
  -2   2 -10   59.29    1.70
  -2   2 -10   60.59    1.60
   2  -2  10   60.59    1.80
   2  -2  10   60.19    1.90
  -3   2 -10    1.70    0.30
   3  -2  10    1.10    0.20
   3  -2  10    1.50    0.40
  -4   2 -10   34.80    1.20
   4  -2  10   34.00    1.30
   4  -2  10   35.90    1.10
  -5   2 -10    5.40    0.50
  -5   2 -10    4.90    0.50
   5  -2  10    5.80    0.70
   5  -2  10    5.50    0.40
  -6   2 -10    2.30    0.40
  -6   2 -10    2.30    0.50
   6  -2  10    2.80    0.60
  -7   2 -10    2.00    0.40
  -7   2 -10    1.30    0.40
   7  -2  10    1.70    0.50
  -8   2 -10    0.00    0.30
  -8   2 -10    0.40    0.30
   8  -2  10    0.50    0.50
  -9   2 -10    0.90    0.30
  -9   2 -10    1.20    0.50
   9  -2  10    1.10    0.60
 -10   2 -10    0.70    0.40
   6   1 -10   -0.10    0.30
   5   1 -10    2.70    0.60
  -5  -1  10    3.80    1.00
  -5  -1  10    2.10    0.60
   4   1 -10   19.00    1.10
  -4  -1  10   21.20    1.90
  -4  -1  10   17.10    1.20
   3   1 -10    1.40    0.40
  -3  -1  10    1.80    0.50
  -3  -1  10    1.50    0.70
   2   1 -10    8.90    0.70
   2   1 -10    8.60    0.50
  -2  -1  10    7.80    1.00
  -2  -1  10    6.50    0.80
   1   1 -10   58.39    1.50
   1   1 -10   61.49    1.90
  -1  -1  10   57.09    2.30
  -1  -1  10   60.79    1.90
   0   1 -10    6.30    0.50
   0   1 -10    6.10    0.60
   0  -1  10    5.70    0.70
   0  -1  10    5.50    0.60
  -1   1 -10    0.40    0.20
  -1   1 -10    0.30    0.20
   1  -1  10    0.30    0.30
   1  -1  10    0.30    0.30
  -2   1 -10   38.30    1.20
  -2   1 -10   35.30    1.30
   2  -1  10   35.90    1.30
   2  -1  10   36.60    1.50
  -3   1 -10    0.10    0.10
  -3   1 -10    0.40    0.20
   3  -1  10    0.20    0.30
   3  -1  10    0.10    0.30
  -4   1 -10    2.30    0.40
  -4   1 -10    2.20    0.30
   4  -1  10    3.10    0.60
   4  -1  10    3.00    0.50
  -5   1 -10    0.30    0.20
  -5   1 -10    0.40    0.20
  -5   1 -10    0.50    0.30
   5  -1  10    0.90    0.40
   5  -1  10    0.90    0.60
  -6   1 -10    2.70    0.40
  -6   1 -10    3.10    0.50
   6  -1  10    2.50    0.50
  -7   1 -10    6.60    0.70
  -7   1 -10    6.90    0.60
   7  -1  10    6.30    0.80
  -8   1 -10   -0.30    0.20
  -8   1 -10   -0.10    0.30
   8  -1  10   -0.10    0.50
  -9   1 -10    1.30    0.50
  -9   1 -10    2.10    0.40
   9  -1  10    1.70    0.60
 -10   1 -10    1.30    0.50
  -6   0  10    9.60    1.30
   5   0 -10    0.60    0.40
  -5   0  10    2.20    1.00
  -5   0  10    0.30    0.40
   4   0 -10    0.10    0.30
  -4   0  10    0.00    0.40
  -4   0  10   -0.10    0.60
   3   0 -10   17.50    1.00
  -3   0  10   14.30    1.50
  -3   0  10   14.40    1.00
   2   0 -10    0.10    0.20
  -2   0  10    0.10    0.30
  -2   0  10    0.10    0.30
   1   0 -10    6.00    0.70
   1   0 -10    6.80    0.50
  -1   0  10    6.80    0.70
  -1   0  10    7.20    0.90
   0   0 -10   73.49    1.70
   0   0 -10   70.39    2.00
   0   0  10   69.09    2.50
   0   0  10   69.59    2.00
  -1   0 -10   68.29    1.90
  -1   0 -10   65.79    1.60
   1   0  10   64.99    1.90
   1   0  10   63.09    2.20
  -2   0 -10    4.80    0.50
  -2   0 -10    3.90    0.40
   2   0  10    4.00    0.50
   2   0  10    5.10    0.80
  -3   0 -10    6.70    0.50
  -3   0 -10    6.00    0.50
   3   0  10    6.90    0.80
   3   0  10    6.20    0.60
  -4   0 -10   26.40    1.00
  -4   0 -10   27.00    1.00
   4   0  10   26.90    1.10
   4   0  10   27.60    1.50
  -5   0 -10   39.30    1.30
  -5   0 -10   36.80    1.20
  -5   0 -10   39.10    1.10
   5   0  10   36.90    1.70
   5   0  10   36.50    1.30
  -6   0 -10   60.49    1.80
  -6   0 -10   62.49    1.70
   6   0  10   61.69    2.30
   6   0  10   62.59    1.90
  -7   0 -10    2.40    0.50
  -7   0 -10    3.10    0.50
   7   0  10    2.30    0.50
   7   0  10    1.70    1.00
  -8   0 -10   11.90    0.80
  -8   0 -10   11.40    0.90
   8   0  10   10.50    1.00
  -9   0 -10   -0.20    0.30
  -9   0 -10    0.10    0.20
   9   0  10   -0.60    0.40
 -10   0 -10    1.10    0.50
  10   0  10    0.80    0.60
   6  -1 -10    0.20    0.40
   5  -1 -10    0.70    0.60
   5  -1 -10    0.30    0.30
  -5   1  10    0.40    0.70
   4  -1 -10    0.60    0.30
  -4   1  10    0.40    0.60
  -4   1  10   -0.10    0.40
   3  -1 -10    2.80    0.60
  -3   1  10    2.50    0.50
  -3   1  10    3.50    1.00
   2  -1 -10    2.70    0.50
  -2   1  10    2.60    0.50
  -2   1  10    2.00    0.70
   1  -1 -10   19.00    0.80
   1  -1 -10   19.60    1.00
  -1   1  10   19.20    1.40
  -1   1  10   19.20    1.10
   0  -1 -10    0.20    0.20
   0  -1 -10    0.40    0.20
   0   1  10    0.10    0.30
   0   1  10    0.60    0.30
  -1  -1 -10    5.20    0.60
  -1  -1 -10    4.80    0.40
   1   1  10    6.20    0.80
   1   1  10    5.30    0.50
  -2  -1 -10   -0.10    0.10
  -2  -1 -10   -0.20    0.10
   2   1  10    0.00    0.40
   2   1  10    0.10    0.20
  -3  -1 -10   50.99    1.40
  -3  -1 -10   53.69    1.50
   3   1  10   50.29    2.00
   3   1  10   51.69    1.60
  -4  -1 -10    1.50    0.30
  -4  -1 -10    2.30    0.30
   4   1  10    1.50    0.40
   4   1  10    1.90    0.70
  -5  -1 -10   75.29    1.80
  -5  -1 -10   74.89    1.90
   5   1  10   77.49    2.00
   5   1  10   73.79    2.60
  -6  -1 -10   12.50    0.70
  -6  -1 -10   12.50    0.70
   6   1  10   12.60    1.20
   6   1  10   13.10    0.90
  -7  -1 -10   21.50    1.00
  -7  -1 -10   21.20    1.10
   7   1  10   20.40    1.10
   7   1  10   17.30    1.50
  -8  -1 -10   42.30    1.40
  -8  -1 -10   43.50    1.70
   8   1  10   41.40    2.20
   8   1  10   44.90    1.70
  -9  -1 -10   -0.10    0.30
  -9  -1 -10    0.10    0.20
   9   1  10    0.20    0.50
 -10  -1 -10    6.30    0.90
  10   1  10    6.20    0.90
   5  -2 -10   19.30    1.20
   5  -2 -10   18.40    1.60
  -5   2  10   23.00    2.10
   4  -2 -10    5.90    0.80
  -4   2  10    4.50    0.80
  -4   2  10    5.70    1.40
   3  -2 -10   87.49    2.50
  -3   2  10   87.39    3.50
  -3   2  10   85.49    2.60
   2  -2 -10   54.49    1.80
  -2   2  10   52.59    1.90
  -2   2  10   55.19    2.60
   1  -2 -10  176.98    3.80
   1  -2 -10  185.48    3.30
  -1   2  10  179.28    3.80
  -1   2  10  177.08    4.80
   0  -2 -10   35.50    1.10
   0  -2 -10   34.40    1.30
   0   2  10   35.40    1.30
   0   2  10   31.80    1.80
  -1  -2 -10    4.60    0.50
  -1  -2 -10    4.80    0.50
   1   2  10    4.50    0.50
   1   2  10    5.60    0.90
  -2  -2 -10   24.40    0.90
  -2  -2 -10   24.10    1.00
   2   2  10   22.20    1.40
   2   2  10   23.80    1.00
  -3  -2 -10   12.70    0.70
  -3  -2 -10   11.60    0.60
   3   2  10   12.10    1.20
   3   2  10   11.30    0.70
  -4  -2 -10    1.30    0.30
  -4  -2 -10    1.60    0.30
   4   2  10    1.20    0.30
   4   2  10    1.70    0.70
  -5  -2 -10   52.79    1.50
  -5  -2 -10   53.09    1.40
   5   2  10   54.19    2.30
   5   2  10   53.69    1.60
  -6  -2 -10    0.70    0.30
  -6  -2 -10    0.50    0.30
   6   2  10    0.80    0.40
   6   2  10    1.00    0.70
  -7  -2 -10   83.49    2.10
  -7  -2 -10   84.29    2.20
   7   2  10   79.69    3.00
   7   2  10   82.99    2.20
  -8  -2 -10    3.80    0.50
  -8  -2 -10    3.30    0.60
   8   2  10    3.40    0.70
   8   2  10    1.90    0.90
  -9  -2 -10    5.90    0.60
  -9  -2 -10    6.80    0.80
   9   2  10    5.30    0.80
   9   2  10    5.70    1.30
 -10  -2 -10    5.00    0.80
  10   2  10    5.60    2.20
  10   2  10    4.30    0.80
   5  -3 -10   46.20    2.40
   5  -3 -10   43.80    1.80
  -5   3  10   46.90    3.00
   4  -3 -10    1.80    0.50
  -4   3  10    2.90    1.10
   3  -3 -10   81.39    2.40
  -3   3  10   83.49    3.60
  -3   3  10   81.19    2.50
   2  -3 -10   18.90    1.10
  -2   3  10   20.50    1.10
  -2   3  10   19.20    1.60
   1  -3 -10   65.29    2.00
   1  -3 -10   67.49    1.50
  -1   3  10   64.79    2.80
  -1   3  10   64.29    2.00
   0  -3 -10    3.30    0.50
   0  -3 -10    4.60    0.40
   0   3  10    3.80    0.90
   0   3  10    3.30    0.50
  -1  -3 -10  121.09    2.70
  -1  -3 -10  120.89    2.50
   1   3  10  121.39    3.60
   1   3  10  123.59    2.70
  -2  -3 -10  170.08    3.20
  -2  -3 -10  165.08    3.30
   2   3  10  158.88    3.30
   2   3  10  158.98    4.20
  -3  -3 -10   84.99    2.00
  -3  -3 -10   83.19    2.00
   3   3  10   83.29    2.00
   3   3  10   82.19    2.90
  -4  -3 -10   40.20    1.20
  -4  -3 -10   41.80    1.30
   4   3  10   42.90    2.10
   4   3  10   41.50    1.30
  -5  -3 -10    3.50    0.50
  -5  -3 -10    3.50    0.40
   5   3  10    3.30    0.50
   5   3  10    3.40    0.90
  -6  -3 -10    5.50    0.50
  -6  -3 -10    5.70    0.60
   6   3  10    6.00    1.10
   6   3  10    5.90    0.60
  -7  -3 -10   37.10    1.30
  -7  -3 -10   34.60    1.30
   7   3  10   38.60    1.40
   7   3  10   35.10    2.10
  -8  -3 -10   -0.20    0.30
  -8  -3 -10   -0.10    0.20
   8   3  10    0.00    0.40
   8   3  10   -1.00    0.70
  -9  -3 -10   29.30    1.20
  -9  -3 -10   28.70    1.40
   9   3  10   29.50    1.40
   9   3  10   25.00    2.10
 -10  -3 -10   -0.40    0.30
 -10  -3 -10   -0.20    0.20
  10   3  10   -1.10    0.50
   5  -4 -10    2.30    0.50
   5  -4 -10    2.30    0.80
  -5   4  10    5.00    1.20
   4  -4 -10    7.90    1.20
   4  -4 -10    8.50    0.90
  -4   4  10   11.30    1.80
   3  -4 -10   71.09    2.20
  -3   4  10   70.09    3.30
  -3   4  10   68.29    2.30
   2  -4 -10   49.50    1.70
  -2   4  10   47.40    2.60
  -2   4  10   47.20    1.80
   1  -4 -10  101.29    2.60
  -1   4  10  100.09    2.60
  -1   4  10  100.79    3.60
   0  -4 -10    1.10    0.30
   0  -4 -10    1.00    0.20
   0   4  10    1.20    0.60
   0   4  10    0.70    0.30
  -1  -4 -10   60.19    1.50
  -1  -4 -10   59.19    1.70
   1   4  10   59.59    1.70
   1   4  10   58.99    2.50
  -2  -4 -10    0.40    0.20
  -2  -4 -10    0.30    0.20
   2   4  10    0.40    0.20
   2   4  10    0.00    0.50
  -3  -4 -10    6.50    0.50
  -3  -4 -10    5.50    0.50
   3   4  10    5.60    0.50
   3   4  10    6.40    1.10
  -4  -4 -10    5.70    0.50
  -4  -4 -10    5.80    0.40
   4   4  10    5.60    1.10
   4   4  10    5.60    0.50
  -5  -4 -10    0.30    0.20
  -5  -4 -10    0.40    0.20
   5   4  10    0.50    0.30
   5   4  10    0.40    0.70
  -6  -4 -10   11.40    0.70
  -6  -4 -10   10.00    0.60
   6   4  10   11.40    0.80
   6   4  10   11.40    1.50
  -7  -4 -10   14.00    0.80
  -7  -4 -10   14.10    0.80
   7   4  10   12.60    1.60
   7   4  10   14.80    0.90
  -8  -4 -10    3.60    0.50
  -8  -4 -10    3.30    0.60
   8   4  10    2.60    1.10
   8   4  10    3.30    0.60
  -9  -4 -10   -0.40    0.30
  -9  -4 -10   -0.10    0.20
   9   4  10   -0.30    0.40
   9   4  10   -1.00    0.80
 -10  -4 -10    0.10    0.40
 -10  -4 -10   -0.10    0.20
  10   4  10    0.00    0.50
  10   4  10   -1.40    0.80
   5  -5 -10    6.00    1.10
   5  -5 -10    5.30    1.00
   4  -5 -10    1.10    0.60
   4  -5 -10    1.00    0.40
  -4   5  10    1.30    0.60
   3  -5 -10   17.50    1.10
   3  -5 -10   17.40    1.40
  -3   5  10   18.00    1.80
   2  -5 -10    2.60    0.50
  -2   5  10    2.00    0.50
  -2   5  10    1.60    0.80
   1  -5 -10    8.30    0.70
  -1   5  10    8.10    0.70
  -1   5  10    8.40    1.30
   0  -5 -10    5.20    0.40
   0  -5 -10    5.70    0.70
   0   5  10    5.70    0.60
   0   5  10    5.00    1.00
  -1  -5 -10    0.00    0.20
  -1  -5 -10   -0.20    0.10
   1   5  10    0.00    0.20
   1   5  10   -0.10    0.50
  -2  -5 -10    0.80    0.30
  -2  -5 -10    0.70    0.20
   2   5  10    0.40    0.60
   2   5  10    1.00    0.30
  -3  -5 -10    0.40    0.20
  -3  -5 -10    0.50    0.20
   3   5  10    0.60    0.20
   3   5  10    0.70    0.70
  -4  -5 -10    7.70    0.50
  -4  -5 -10    7.10    0.60
   4   5  10    7.90    0.60
   4   5  10    7.40    1.20
  -5  -5 -10    4.70    0.40
  -5  -5 -10    6.20    0.60
   5   5  10    4.90    1.10
   5   5  10    4.70    0.50
  -6  -5 -10   16.90    0.90
  -6  -5 -10   15.00    0.80
   6   5  10   13.30    1.60
   6   5  10   15.50    0.80
  -7  -5 -10    1.00    0.30
  -7  -5 -10    1.70    0.40
   7   5  10    1.90    1.00
   7   5  10    1.70    0.40
  -8  -5 -10    0.20    0.30
  -8  -5 -10    1.00    0.30
   8   5  10   -0.20    0.90
   8   5  10    0.30    0.40
  -9  -5 -10    1.70    0.40
  -9  -5 -10    1.20    0.50
   9   5  10    0.90    1.10
   9   5  10    1.60    0.70
 -10  -5 -10    6.20    0.90
 -10  -5 -10    5.30    0.60
  10   5  10    4.70    1.50
   5  -6 -10    1.80    0.70
   4  -6 -10    0.30    0.30
   4  -6 -10    0.40    0.50
  -4   6  10    1.50    0.70
   3  -6 -10    1.00    0.40
   3  -6 -10    1.00    0.50
  -3   6  10    1.20    0.80
   2  -6 -10    3.40    0.60
  -2   6  10    4.10    0.60
  -2   6  10    4.40    1.10
   1  -6 -10    0.20    0.20
  -1   6  10    0.10    0.30
  -1   6  10    0.90    0.70
   0  -6 -10   11.40    0.80
   0  -6 -10   10.70    0.60
   0   6  10   11.30    1.30
   0   6  10   12.20    0.80
  -1  -6 -10    6.10    0.70
  -1  -6 -10    5.20    0.40
   1   6  10    6.00    1.10
   1   6  10    6.50    0.60
  -2  -6 -10   32.60    1.10
  -2  -6 -10   32.50    1.20
   2   6  10   31.00    2.00
   2   6  10   31.30    1.10
  -3  -6 -10   25.30    1.00
  -3  -6 -10   24.50    1.00
   3   6  10   25.30    1.00
   3   6  10   24.60    1.80
  -4  -6 -10   33.50    1.60
  -4  -6 -10   30.80    1.10
   4   6  10   31.70    1.10
   4   6  10   29.60    2.00
  -5  -6 -10   24.20    1.00
  -5  -6 -10   23.80    0.90
   5   6  10   26.40    1.30
   5   6  10   23.90    1.90
  -6  -6 -10   53.29    1.60
  -6  -6 -10   48.60    1.50
   6   6  10   49.50    2.60
  -7  -6 -10    5.40    0.60
  -7  -6 -10    5.70    0.60
   7   6  10    4.90    1.30
  -8  -6 -10   43.70    1.50
  -8  -6 -10   41.10    1.50
   8   6  10   37.70    2.60
  -9  -6 -10    1.40    0.50
  -9  -6 -10    2.10    0.40
   9   6  10    0.30    1.10
 -10  -6 -10   22.00    1.30
 -10  -6 -10   21.20    1.10
   4  -7 -10    3.30    0.90
  -4   7  10    4.70    1.10
   3  -7 -10   17.30    1.10
  -3   7  10   19.30    1.90
   2  -7 -10   10.80    0.90
  -2   7  10   12.30    1.60
   1  -7 -10   19.70    1.10
  -1   7  10   21.70    1.90
   0  -7 -10   56.39    1.80
   0  -7 -10   57.79    1.50
   0   7  10   56.79    2.70
  -1  -7 -10   13.40    0.70
  -1  -7 -10   12.50    0.80
   1   7  10   12.50    1.40
  -2  -7 -10   13.60    0.70
  -2  -7 -10   13.50    0.80
   2   7  10   13.70    1.50
  -3  -7 -10   19.10    0.90
  -3  -7 -10   19.20    0.90
   3   7  10   18.90    1.70
  -4  -7 -10    1.00    0.30
   4   7  10    0.80    0.80
  -5  -7 -10   47.70    1.50
   5   7  10   49.00    2.60
  -6  -7 -10    2.40    0.40
  -6  -7 -10    1.90    0.40
   6   7  10    0.80    0.90
  -7  -7 -10   46.40    1.50
  -7  -7 -10   45.30    1.60
   7   7  10   44.80    2.70
  -8  -7 -10   15.60    1.00
  -8  -7 -10   13.90    0.80
   8   7  10   15.20    2.00
  -9  -7 -10    5.80    0.60
  -9  -7 -10    6.60    0.80
   9   7  10    5.10    1.50
 -10  -7 -10   18.20    1.50
   3  -8 -10   -0.20    0.20
   2  -8 -10    2.90    0.60
  -2   8  10    4.20    1.20
   1  -8 -10    7.20    0.80
  -1   8  10    9.50    1.60
   0  -8 -10    2.00    0.50
   0   8  10    3.30    1.00
  -1  -8 -10   41.00    1.30
  -1  -8 -10   42.30    1.50
   1   8  10   40.80    2.40
  -2  -8 -10   16.70    0.90
  -2  -8 -10   17.30    0.80
   2   8  10   15.70    1.60
  -3  -8 -10   17.10    0.80
  -3  -8 -10   16.00    0.80
   3   8  10   16.70    1.70
  -4  -8 -10   11.00    0.70
   4   8  10   13.30    1.80
  -5  -8 -10   10.60    0.70
   5   8  10   10.60    1.60
   5   8  10    9.70    0.70
  -6  -8 -10    1.60    0.40
  -6  -8 -10    1.80    0.40
   6   8  10    1.40    1.00
  -7  -8 -10   29.10    1.30
  -7  -8 -10   28.70    1.20
   7   8  10   28.90    2.40
  -8  -8 -10   -0.20    0.20
  -8  -8 -10   -0.60    0.30
   8   8  10   -2.00    0.90
  -9  -8 -10    7.90    0.90
  -9  -8 -10    7.40    0.70
   9   8  10    6.30    1.80
   2  -9 -10    6.50    0.80
  -2   9  10    8.50    1.70
   1  -9 -10    9.20    0.80
  -1   9  10   12.90    1.70
   0  -9 -10   10.20    0.80
   0   9  10   12.60    1.50
  -1  -9 -10    1.10    0.30
  -1  -9 -10    0.90    0.30
   1   9  10    2.10    0.90
  -2  -9 -10    1.90    0.40
  -2  -9 -10    1.60    0.40
   2   9  10    3.20    1.00
  -3  -9 -10    0.80    0.30
  -3  -9 -10    0.80    0.30
   3   9  10    0.90    0.90
  -4  -9 -10   14.20    0.80
   4   9  10   13.50    1.70
  -5  -9 -10    5.10    0.60
   5   9  10    5.60    0.90
   5   9  10    4.70    1.30
  -6  -9 -10    2.70    0.50
   6   9  10    3.60    0.50
   6   9  10    2.00    1.20
  -7  -9 -10    1.00    0.30
  -7  -9 -10    0.80    0.40
   7   9  10    0.60    1.10
  -8  -9 -10    0.20    0.40
  -8  -9 -10    0.50    0.30
   8   9  10   -1.40    0.90
  -9  -9 -10    0.20    0.40
   2 -10 -10    0.70    0.40
   1 -10 -10    4.60    0.70
  -1  10  10    6.20    1.30
   0 -10 -10    0.70    0.30
   0  10  10    1.60    0.70
  -1 -10 -10    0.20    0.20
  -1 -10 -10    0.00    0.20
   1  10  10    0.90    0.70
  -2 -10 -10    5.80    0.60
  -2 -10 -10    5.90    0.70
   2  10  10    7.20    1.40
  -3 -10 -10   11.70    0.80
  -3 -10 -10   10.00    0.70
   3  10  10   14.70    2.00
  -4 -10 -10   -0.10    0.20
   4  10  10    0.60    0.90
  -5 -10 -10   -0.10    0.20
   5  10  10    0.30    1.00
  -6 -10 -10    0.10    0.20
   6  10  10    0.60    0.40
   6  10  10   -0.20    1.00
  -7 -10 -10    0.90    0.40
   7  10  10    0.20    1.10
   7  10  10    2.00    0.40
  -8 -10 -10    1.00    0.50
  -8 -10 -10    1.20    0.50
   1 -11 -10    0.90    0.40
   0 -11 -10    3.70    0.60
   0  11  10    6.80    1.40
  -1 -11 -10    9.60    0.80
   1  11  10   12.80    1.60
  -2 -11 -10    2.20    0.40
  -2 -11 -10    2.90    0.50
   2  11  10    3.30    1.00
  -3 -11 -10    3.20    0.50
   3  11  10    4.20    1.20
  -4 -11 -10    9.10    0.70
   4  11  10    9.40    1.60
  -5 -11 -10    1.30    0.40
   5  11  10    0.70    1.00
  -6 -11 -10   38.50    1.50
   6  11  10   39.50    2.80
   6  11  10   35.90    1.60
  -7 -11 -10    1.00    0.40
   7  11  10    1.60    0.50
  -1 -12 -10    0.20    0.30
   1  12  10    2.30    0.80
  -2 -12 -10    4.30    0.50
  -2 -12 -10    4.90    0.70
   2  12  10    5.40    1.20
  -3 -12 -10   10.90    0.70
   3  12  10   15.30    1.80
  -4 -12 -10    2.10    0.40
   4  12  10    3.10    1.20
  -5 -12 -10   11.50    0.80
   5  12  10   10.50    1.70
   7  12  10    3.10    0.70
  -2 -13 -10    3.30    0.50
  -3 -13 -10    4.30    0.60
   1  10 -11    0.20    0.40
   0  10 -11    0.20    0.40
   0 -10  11    0.50    0.30
  -1  10 -11    7.10    0.90
   1 -10  11    9.50    0.80
   1 -10  11    7.20    0.80
  -2  10 -11    0.10    0.40
   2 -10  11   -0.10    0.20
   3 -10  11    0.00    0.30
   4 -10  11    0.80    0.50
   4 -10  11    3.00    0.50
   3   9 -11    0.10    0.40
   2   9 -11    2.60    0.50
  -2  -9  11    2.90    0.50
   1   9 -11   25.60    1.20
  -1  -9  11   26.50    1.30
  -1  -9  11   28.40    1.50
   0   9 -11   10.70    0.90
   0  -9  11   11.40    0.90
   0  -9  11   13.20    1.00
  -1   9 -11    2.60    0.50
   1  -9  11    3.10    0.60
   1  -9  11    3.00    0.50
  -2   9 -11    6.50    0.70
   2  -9  11    8.40    0.80
   2  -9  11    7.60    0.70
  -3   9 -11    1.20    0.40
   3  -9  11    1.70    0.40
   3  -9  11    2.30    0.50
  -4   9 -11   16.10    1.00
   4  -9  11   16.00    1.00
   4  -9  11   19.60    1.20
  -5   9 -11    0.00    0.30
   5  -9  11    0.10    0.20
   5  -9  11    0.60    0.30
   6  -9  11    2.30    0.60
   3   8 -11    0.90    0.50
  -3  -8  11    3.80    0.50
   2   8 -11   16.70    1.00
   2   8 -11   13.80    1.10
  -2  -8  11   18.10    1.20
   1   8 -11    3.60    0.60
  -1  -8  11    2.80    0.50
  -1  -8  11    3.80    0.70
   0   8 -11   -0.30    0.30
   0  -8  11   -0.10    0.20
   0  -8  11    0.40    0.40
  -1   8 -11   -0.20    0.30
   1  -8  11    0.70    0.40
   1  -8  11    0.70    0.30
  -2   8 -11    2.90    0.50
   2  -8  11    3.70    0.60
   2  -8  11    2.20    0.50
  -3   8 -11    4.50    0.60
   3  -8  11    4.60    0.70
   3  -8  11    4.70    0.60
  -4   8 -11   30.90    1.30
   4  -8  11   29.30    1.40
   4  -8  11   28.70    1.20
  -5   8 -11    0.40    0.40
   5  -8  11    0.70    0.30
   5  -8  11    0.90    0.40
  -6   8 -11    4.70    0.60
   6  -8  11    5.10    0.70
   6  -8  11    4.40    0.70
   4   7 -11    3.60    1.00
  -4  -7  11    4.20    0.90
   3   7 -11   12.10    1.00
  -3  -7  11   14.40    1.20
   2   7 -11    6.30    0.70
   2   7 -11    6.20    0.80
  -2  -7  11    7.10    0.90
   1   7 -11   31.90    1.30
  -1  -7  11   32.10    1.60
  -1  -7  11   31.90    1.30
   0   7 -11   -0.30    0.30
   0  -7  11    0.60    0.40
   0  -7  11    0.20    0.30
  -1   7 -11   16.00    0.90
   1  -7  11   16.80    1.00
   1  -7  11   16.00    1.10
  -2   7 -11    1.70    0.40
   2  -7  11    1.60    0.40
   2  -7  11    1.50    0.50
  -3   7 -11    4.80    0.60
   3  -7  11    5.60    0.60
   3  -7  11    5.20    0.70
  -4   7 -11   11.90    0.90
   4  -7  11   10.50    0.70
   4  -7  11   10.20    0.90
  -5   7 -11    8.80    0.80
   5  -7  11    9.30    0.70
   5  -7  11    7.70    0.80
  -6   7 -11   49.90    1.70
   6  -7  11   50.69    1.90
  -7   7 -11    0.50    0.30
   7  -7  11    0.50    0.70
   4   6 -11   41.30    1.80
  -4  -6  11   46.50    2.10
   3   6 -11   35.90    1.60
  -3  -6  11   33.00    1.70
   2   6 -11    0.00    0.30
   2   6 -11    0.30    0.30
  -2  -6  11    0.30    0.40
   1   6 -11   15.40    0.90
   1   6 -11   16.70    1.10
  -1  -6  11   17.90    1.20
   0   6 -11    0.40    0.30
   0  -6  11    0.60    0.40
   0  -6  11    0.80    0.30
  -1   6 -11   47.50    1.50
   1  -6  11   44.70    1.50
   1  -6  11   44.20    1.70
  -2   6 -11    0.60    0.30
   2  -6  11    1.00    0.40
   2  -6  11    0.60    0.30
  -3   6 -11   15.50    0.90
   3  -6  11   17.40    0.90
   3  -6  11   16.30    1.00
  -4   6 -11    8.10    0.80
   4  -6  11    7.40    0.80
   4  -6  11    7.70    0.60
  -5   6 -11   21.00    1.10
   5  -6  11   19.00    1.10
   5  -6  11   20.30    1.00
  -6   6 -11    3.60    0.60
   6  -6  11    3.90    0.60
  -7   6 -11    4.00    0.60
   7  -6  11    5.00    0.70
  -8   6 -11    6.60    0.70
   4   5 -11   29.20    1.50
  -4  -5  11   29.40    1.70
   3   5 -11    3.80    0.70
  -3  -5  11    3.40    0.70
   2   5 -11   12.50    0.80
   2   5 -11   12.40    1.00
  -2  -5  11   14.80    1.10
   1   5 -11    2.40    0.50
   1   5 -11    1.60    0.40
  -1  -5  11    1.10    0.50
   0   5 -11   28.50    1.10
   0   5 -11   27.30    1.30
   0  -5  11   29.30    1.40
  -1   5 -11   19.60    1.00
   1  -5  11   20.20    1.10
   1  -5  11   18.90    0.90
  -2   5 -11    0.60    0.30
   2  -5  11    1.10    0.40
   2  -5  11    0.60    0.30
  -3   5 -11    0.10    0.30
   3  -5  11    0.50    0.30
   3  -5  11    0.40    0.20
  -4   5 -11    3.20    0.50
   4  -5  11    4.70    0.50
   4  -5  11    4.20    0.60
  -5   5 -11   -0.10    0.20
   5  -5  11    0.40    0.40
   5  -5  11    0.10    0.20
  -6   5 -11    4.90    0.60
   6  -5  11    4.40    0.70
  -7   5 -11    0.20    0.30
   7  -5  11    0.80    0.40
  -8   5 -11    1.00    0.40
   8  -5  11    0.50    0.50
   5   4 -11    1.20    0.50
   4   4 -11    0.30    0.30
  -4  -4  11    0.30    0.40
   3   4 -11    0.50    0.40
  -3  -4  11    0.30    0.40
   2   4 -11    2.70    0.40
   2   4 -11    2.90    0.50
  -2  -4  11    3.00    0.60
   1   4 -11   11.00    0.90
   1   4 -11   11.20    0.70
  -1  -4  11    9.70    0.90
   0   4 -11    0.60    0.30
   0   4 -11    0.30    0.20
   0  -4  11    0.40    0.30
  -1   4 -11    0.40    0.30
   1  -4  11    0.40    0.30
  -2   4 -11    4.00    0.50
   2  -4  11    4.50    0.60
   2  -4  11    4.40    0.50
  -3   4 -11    1.00    0.30
   3  -4  11    0.20    0.30
   3  -4  11    0.10    0.20
  -4   4 -11    1.90    0.40
   4  -4  11    1.80    0.30
   4  -4  11    1.70    0.50
  -5   4 -11    8.50    0.70
   5  -4  11    8.40    0.60
   5  -4  11    8.80    0.80
  -6   4 -11    2.00    0.40
   6  -4  11    1.40    0.50
  -7   4 -11    1.50    0.40
   7  -4  11    0.80    0.40
  -8   4 -11    0.10    0.30
   8  -4  11    0.10    0.40
   4   3 -11    0.40    0.40
  -4  -3  11    2.60    0.70
  -4  -3  11    0.50    0.50
   3   3 -11   13.20    1.00
  -3  -3  11   11.70    1.10
  -3  -3  11   13.20    1.30
   2   3 -11    0.80    0.30
   2   3 -11    0.30    0.30
  -2  -3  11    1.00    0.40
  -2  -3  11    1.10    0.50
   1   3 -11    5.40    0.70
   1   3 -11    3.30    0.50
  -1  -3  11    4.00    0.60
   0   3 -11    4.70    0.50
   0   3 -11    4.30    0.60
   0  -3  11    4.10    0.60
  -1   3 -11    0.20    0.20
  -1   3 -11   -0.20    0.20
   1  -3  11   -0.10    0.30
  -2   3 -11   35.00    1.40
  -2   3 -11   38.80    1.30
   2  -3  11   38.20    1.50
  -3   3 -11    0.20    0.20
   3  -3  11    0.30    0.30
   3  -3  11    0.10    0.20
  -4   3 -11   67.49    1.90
   4  -3  11   67.29    1.70
   4  -3  11   66.89    2.00
  -5   3 -11   12.10    0.80
   5  -3  11   12.10    0.60
   5  -3  11   10.80    0.90
  -6   3 -11   15.00    0.90
   6  -3  11   14.50    1.00
  -7   3 -11    7.30    0.70
   7  -3  11    7.30    0.80
  -8   3 -11   17.00    1.00
   8  -3  11   17.50    1.20
  -9   3 -11   19.20    1.30
  -9   3 -11   23.00    1.10
   5   2 -11    4.50    0.80
  -5  -2  11    4.30    0.90
   4   2 -11   -0.20    0.30
  -4  -2  11   -0.30    0.40
  -4  -2  11    0.80    0.50
   3   2 -11    9.70    0.90
  -3  -2  11   12.10    1.40
  -3  -2  11    9.10    0.90
   2   2 -11    1.40    0.40
  -2  -2  11    2.30    0.70
  -2  -2  11    2.10    0.50
   1   2 -11   24.00    0.90
   1   2 -11   23.00    1.20
  -1  -2  11   21.50    1.50
  -1  -2  11   24.30    1.30
   0   2 -11   11.50    0.80
   0   2 -11   10.70    0.70
   0  -2  11    9.00    0.90
   0  -2  11   11.00    0.80
  -1   2 -11   57.79    1.80
  -1   2 -11   54.39    1.50
   1  -2  11   54.39    2.10
   1  -2  11   54.69    1.80
  -2   2 -11   35.60    1.30
  -2   2 -11   37.60    1.20
   2  -2  11   35.90    1.40
  -3   2 -11   37.90    1.30
  -3   2 -11   38.40    1.40
   3  -2  11   35.60    1.40
  -4   2 -11   44.60    1.40
  -4   2 -11   40.20    1.40
   4  -2  11   42.70    1.50
  -5   2 -11   11.90    0.80
   5  -2  11   11.70    0.90
  -6   2 -11   36.90    1.40
   6  -2  11   38.10    1.50
  -7   2 -11    0.50    0.30
   7  -2  11    0.90    0.40
  -8   2 -11   35.90    1.40
  -8   2 -11   31.80    1.70
   8  -2  11   36.80    1.60
  -9   2 -11    3.90    0.60
  -9   2 -11    3.00    0.60
   9  -2  11    5.50    0.80
 -10   2 -11   12.00    1.90
   5   1 -11    5.60    0.80
  -5  -1  11    6.70    1.00
   4   1 -11    0.90    0.40
  -4  -1  11    3.00    0.90
  -4  -1  11    0.50    0.50
   3   1 -11   28.70    1.40
  -3  -1  11   21.00    1.40
  -3  -1  11   27.70    2.10
   2   1 -11    5.70    0.70
  -2  -1  11    5.40    0.70
  -2  -1  11    6.30    1.10
   1   1 -11   31.50    1.10
   1   1 -11   29.60    1.30
  -1  -1  11   27.70    1.70
  -1  -1  11   30.00    1.40
   0   1 -11    6.00    0.50
   0   1 -11    6.70    0.70
   0  -1  11    6.90    0.70
   0  -1  11    6.60    0.80
  -1   1 -11   27.40    1.00
  -1   1 -11   24.10    1.10
   1  -1  11   24.90    1.40
   1  -1  11   26.30    1.20
  -2   1 -11    9.50    0.70
  -2   1 -11    9.50    0.60
   2  -1  11   10.00    0.80
   2  -1  11   10.50    0.80
  -3   1 -11   17.20    0.80
  -3   1 -11   16.10    0.80
   3  -1  11   16.70    1.10
   3  -1  11   17.60    1.00
  -4   1 -11   19.70    0.90
  -4   1 -11   19.40    0.90
   4  -1  11   20.80    1.10
  -5   1 -11   44.60    1.40
  -5   1 -11   45.10    1.50
   5  -1  11   44.00    1.60
  -6   1 -11   24.00    1.00
   6  -1  11   22.80    1.20
  -7   1 -11    7.00    0.60
   7  -1  11    7.70    0.80
  -8   1 -11    3.00    0.60
  -8   1 -11    4.00    0.50
   8  -1  11    3.80    0.70
  -9   1 -11    0.30    0.30
  -9   1 -11    0.20    0.40
   9  -1  11    0.30    0.40
 -10   1 -11    2.20    0.50
   5   0 -11   -0.10    0.30
  -5   0  11    0.40    0.40
   4   0 -11    2.50    0.50
  -4   0  11    5.00    1.30
  -4   0  11    2.10    0.60
   3   0 -11   -0.10    0.30
  -3   0  11    0.40    0.40
  -3   0  11    0.60    0.50
   2   0 -11    0.90    0.40
  -2   0  11    1.00    0.50
  -2   0  11    1.00    0.40
   1   0 -11   35.80    1.50
   1   0 -11   34.20    1.10
  -1   0  11   32.30    1.50
  -1   0  11   31.50    1.90
   0   0 -11    3.30    0.50
   0   0 -11    3.80    0.40
   0   0  11    4.80    0.90
   0   0  11    3.70    0.60
  -1   0 -11   47.00    1.60
  -1   0 -11   48.60    1.40
   1   0  11   44.60    1.60
   1   0  11   46.20    2.00
  -2   0 -11   26.10    1.00
  -2   0 -11   26.00    1.10
   2   0  11   26.90    1.40
   2   0  11   26.50    1.20
  -3   0 -11   12.00    0.70
  -3   0 -11    9.70    0.70
   3   0  11   11.20    0.90
   3   0  11   10.60    0.80
  -4   0 -11    8.40    0.60
  -4   0 -11    7.40    0.50
   4   0  11    7.90    0.70
   4   0  11    8.90    0.90
  -5   0 -11   12.10    0.80
   5   0  11   14.50    1.20
   5   0  11   14.50    0.90
  -6   0 -11    1.50    0.40
   6   0  11    2.50    0.50
  -7   0 -11   10.20    0.70
   7   0  11   12.90    1.00
  -8   0 -11    0.10    0.20
  -8   0 -11    0.20    0.30
   8   0  11    0.50    0.40
  -9   0 -11    6.80    0.90
  -9   0 -11    7.30    0.70
   9   0  11    6.10    0.90
 -10   0 -11    0.60    0.40
   4  -1 -11    3.00    0.60
  -4   1  11    2.60    0.70
  -4   1  11    4.10    1.10
   3  -1 -11    0.70    0.30
  -3   1  11    0.20    0.40
  -3   1  11    1.60    0.80
   2  -1 -11   15.00    1.00
  -2   1  11   17.80    1.10
  -2   1  11   15.60    1.50
   1  -1 -11    0.10    0.20
   1  -1 -11    0.10    0.20
  -1   1  11    0.10    0.30
  -1   1  11    0.30    0.30
   0  -1 -11   11.70    0.80
   0  -1 -11   13.20    0.70
   0   1  11   11.80    0.80
   0   1  11   11.90    1.10
  -1  -1 -11    8.90    0.70
  -1  -1 -11    9.20    0.60
   1   1  11    9.50    0.80
   1   1  11    9.00    1.00
  -2  -1 -11    0.30    0.20
  -2  -1 -11    1.20    0.30
   2   1  11    1.60    0.50
   2   1  11    1.20    0.30
  -3  -1 -11    0.10    0.20
  -3  -1 -11    0.40    0.20
   3   1  11    0.50    0.40
   3   1  11    0.30    0.30
  -4  -1 -11    0.30    0.20
  -4  -1 -11    0.00    0.20
   4   1  11    0.00    0.50
   4   1  11    0.30    0.30
  -5  -1 -11    3.60    0.50
   5   1  11    3.60    0.60
   5   1  11    3.70    0.90
  -6  -1 -11    0.00    0.20
   6   1  11   -0.60    0.50
   6   1  11    0.20    0.30
  -7  -1 -11    4.40    0.50
   7   1  11    2.90    0.90
   7   1  11    3.50    0.60
  -8  -1 -11    0.10    0.30
  -8  -1 -11    0.40    0.30
   8   1  11    0.40    0.40
  -9  -1 -11    1.10    0.30
  -9  -1 -11    0.30    0.30
   9   1  11    0.70    0.50
 -10  -1 -11    0.10    0.40
 -10  -1 -11    0.10    0.40
   5  -2 -11   -0.30    0.30
   5  -2 -11    0.00    0.40
   4  -2 -11    4.60    0.70
  -4   2  11    4.30    0.80
  -4   2  11    6.80    1.60
   3  -2 -11   -0.10    0.30
  -3   2  11    0.20    0.50
  -3   2  11    0.60    0.40
   2  -2 -11    0.60    0.30
  -2   2  11    0.70    0.50
  -2   2  11    0.90    0.40
   1  -2 -11   41.30    1.30
   1  -2 -11   38.80    1.50
  -1   2  11   40.20    1.60
  -1   2  11   39.30    2.20
   0  -2 -11   14.40    0.70
   0  -2 -11   14.10    0.90
   0   2  11   14.50    0.90
   0   2  11   14.10    1.30
  -1  -2 -11    2.20    0.40
  -1  -2 -11    2.40    0.40
   1   2  11    3.70    0.80
   1   2  11    3.00    0.50
  -2  -2 -11    1.80    0.30
  -2  -2 -11    1.30    0.30
   2   2  11    1.30    0.50
   2   2  11    1.80    0.40
  -3  -2 -11    9.40    0.60
  -3  -2 -11    9.20    0.60
   3   2  11   10.20    1.10
   3   2  11    9.50    0.70
  -4  -2 -11   26.80    1.10
  -4  -2 -11   26.80    1.00
   4   2  11   24.70    1.60
   4   2  11   26.70    1.10
  -5  -2 -11   50.59    1.50
   5   2  11   50.29    1.60
   5   2  11   48.40    2.20
  -6  -2 -11    6.50    0.60
   6   2  11    7.20    0.70
   6   2  11    6.50    1.20
  -7  -2 -11   21.50    1.50
  -7  -2 -11   23.90    1.10
   7   2  11   18.90    1.70
   7   2  11   23.40    1.20
  -8  -2 -11    4.90    0.70
  -8  -2 -11    4.40    0.60
   8   2  11    4.30    0.70
   8   2  11    2.80    1.10
  -9  -2 -11    5.20    0.60
  -9  -2 -11    3.80    0.70
   9   2  11    4.40    0.70
 -10  -2 -11    2.70    0.60
 -10  -2 -11    2.70    0.50
  10   2  11    2.40    0.70
   4  -3 -11    1.30    0.40
  -4   3  11    2.50    0.90
   3  -3 -11    0.90    0.40
  -3   3  11    1.30    0.50
  -3   3  11    0.60    0.60
   2  -3 -11    2.80    0.60
  -2   3  11    4.60    1.10
  -2   3  11    2.80    0.60
   1  -3 -11    4.40    0.60
  -1   3  11    5.10    1.10
  -1   3  11    5.90    0.70
   0  -3 -11   27.90    1.20
   0  -3 -11   24.60    0.90
   0   3  11   25.30    1.70
   0   3  11   25.20    1.20
  -1  -3 -11   29.90    1.20
  -1  -3 -11   29.20    1.00
   1   3  11   29.70    1.20
   1   3  11   29.90    1.80
  -2  -3 -11   39.80    1.40
  -2  -3 -11   42.10    1.30
   2   3  11   41.80    1.40
   2   3  11   39.20    2.00
  -3  -3 -11   54.09    1.50
  -3  -3 -11   54.39    1.60
   3   3  11   55.09    1.60
   3   3  11   53.29    2.40
  -4  -3 -11   53.79    1.60
  -4  -3 -11   54.59    1.50
   4   3  11   54.29    1.60
   4   3  11   49.90    2.30
  -5  -3 -11    0.10    0.20
   5   3  11    0.70    0.70
   5   3  11    0.40    0.30
  -6  -3 -11   28.70    1.20
   6   3  11   29.20    1.20
   6   3  11   27.80    1.90
  -7  -3 -11   24.60    1.60
  -7  -3 -11   25.10    1.10
   7   3  11   24.80    1.90
   7   3  11   27.90    1.20
  -8  -3 -11    8.00    0.70
  -8  -3 -11    7.40    0.70
   8   3  11    7.90    1.40
   8   3  11    8.90    0.90
  -9  -3 -11    1.50    0.40
  -9  -3 -11    1.50    0.50
   9   3  11    1.20    0.50
   9   3  11   -0.20    1.00
 -10  -3 -11    9.10    0.90
 -10  -3 -11   10.50    0.80
  10   3  11   12.00    1.10
  10   3  11    7.00    1.70
   4  -4 -11   15.80    1.10
   4  -4 -11   13.40    1.40
  -4   4  11   17.50    1.80
   3  -4 -11   18.30    1.10
  -3   4  11   19.90    1.90
  -3   4  11   19.70    1.30
   2  -4 -11    8.80    0.80
  -2   4  11    9.50    0.90
  -2   4  11   11.90    1.50
   1  -4 -11    0.80    0.30
  -1   4  11    0.70    0.40
  -1   4  11    1.00    0.70
   0  -4 -11    1.20    0.30
   0  -4 -11    1.40    0.40
   0   4  11    2.20    0.80
   0   4  11    1.40    0.40
  -1  -4 -11    0.30    0.20
  -1  -4 -11    0.00    0.20
   1   4  11    0.20    0.30
   1   4  11    0.60    0.50
  -2  -4 -11   21.90    0.90
  -2  -4 -11   23.10    1.00
   2   4  11   21.70    1.60
   2   4  11   23.20    1.00
  -3  -4 -11    8.00    0.60
  -3  -4 -11    7.70    0.60
   3   4  11    7.70    0.60
   3   4  11   10.20    1.40
  -4  -4 -11   62.69    1.70
  -4  -4 -11   63.29    1.60
   4   4  11   63.69    1.80
   4   4  11   61.49    2.70
  -5  -4 -11   36.90    1.30
   5   4  11   34.90    2.10
   5   4  11   38.10    1.30
  -6  -4 -11   65.29    1.80
   6   4  11   64.29    1.80
   6   4  11   59.99    2.80
  -7  -4 -11    1.70    0.40
  -7  -4 -11    2.20    0.60
   7   4  11    0.50    0.80
   7   4  11    1.80    0.40
  -8  -4 -11   12.00    0.80
  -8  -4 -11   12.70    0.80
   8   4  11   10.50    1.70
   8   4  11   13.40    0.90
  -9  -4 -11   13.60    1.00
  -9  -4 -11   14.60    0.90
   9   4  11   13.90    1.00
   9   4  11   14.10    2.00
 -10  -4 -11   17.50    1.00
 -10  -4 -11   17.60    1.20
  10   4  11   15.30    2.10
  10   4  11   19.30    1.20
   4  -5 -11   19.30    1.30
   4  -5 -11   20.30    1.60
  -4   5  11   23.20    2.10
   3  -5 -11   22.00    1.30
  -3   5  11   25.00    2.20
   2  -5 -11   22.10    1.20
  -2   5  11   20.10    1.90
  -2   5  11   20.60    1.20
   1  -5 -11   23.10    1.20
  -1   5  11   22.10    1.90
  -1   5  11   23.40    1.20
   0  -5 -11    1.90    0.40
   0  -5 -11    1.70    0.30
   0   5  11    1.60    0.70
   0   5  11    1.40    0.40
  -1  -5 -11   78.79    2.20
  -1  -5 -11   79.49    1.90
   1   5  11   77.89    2.10
   1   5  11   77.69    3.10
  -2  -5 -11    0.70    0.30
  -2  -5 -11    1.00    0.30
   2   5  11    1.20    0.70
   2   5  11    1.10    0.30
  -3  -5 -11    6.40    0.50
  -3  -5 -11    7.50    0.60
   3   5  11    8.70    1.40
   3   5  11    7.40    0.60
  -4  -5 -11    0.00    0.20
  -4  -5 -11   -0.10    0.20
   4   5  11    0.00    0.20
   4   5  11    0.60    0.70
  -5  -5 -11   20.00    1.00
   5   5  11   23.60    1.00
   5   5  11   23.70    1.90
  -6  -5 -11   19.00    1.00
   6   5  11   21.70    1.00
   6   5  11   21.50    1.90
  -7  -5 -11   19.40    1.40
  -7  -5 -11   20.90    1.00
   7   5  11   20.80    1.00
   7   5  11   18.70    1.90
  -8  -5 -11    4.60    0.60
  -8  -5 -11    4.70    0.60
   8   5  11    5.60    0.80
   8   5  11    4.30    1.30
  -9  -5 -11    1.20    0.50
  -9  -5 -11    1.60    0.40
   9   5  11   -0.60    1.10
 -10  -5 -11    0.70    0.30
 -10  -5 -11    0.40    0.40
   3  -6 -11    3.50    0.80
   3  -6 -11    4.50    0.70
  -3   6  11    6.70    1.40
   2  -6 -11   24.00    1.30
  -2   6  11   22.20    1.30
  -2   6  11   23.30    2.00
   1  -6 -11    0.90    0.30
  -1   6  11    1.40    0.80
  -1   6  11    1.80    0.50
   0  -6 -11   12.00    0.70
   0  -6 -11   13.10    0.90
   0   6  11   13.80    1.50
   0   6  11   12.80    0.90
  -1  -6 -11    7.10    0.70
  -1  -6 -11    8.00    0.60
   1   6  11    8.40    1.30
   1   6  11    7.70    0.70
  -2  -6 -11    1.40    0.30
  -2  -6 -11    1.80    0.30
   2   6  11    3.60    0.90
   2   6  11    2.60    0.40
  -3  -6 -11    4.80    0.50
  -3  -6 -11    4.20    0.50
   3   6  11    5.20    1.10
   3   6  11    4.40    0.70
  -4  -6 -11    2.40    0.40
   4   6  11    3.30    1.00
  -5  -6 -11    1.80    0.40
   5   6  11    2.50    1.00
  -6  -6 -11    2.40    0.40
   6   6  11    2.30    1.00
  -7  -6 -11    7.10    0.70
   7   6  11    5.80    1.40
  -8  -6 -11    2.30    0.50
  -8  -6 -11    2.90    0.60
   8   6  11    2.70    1.30
  -9  -6 -11    3.20    0.50
  -9  -6 -11    1.70    0.50
   9   6  11   -0.30    1.00
 -10  -6 -11   -0.10    0.40
   3  -7 -11    0.30    0.30
   2  -7 -11    1.50    0.50
  -2   7  11    1.20    0.80
   1  -7 -11    0.00    0.20
  -1   7  11    0.40    0.60
   0  -7 -11    2.60    0.50
   0   7  11    2.10    0.80
  -1  -7 -11    0.50    0.20
  -1  -7 -11    0.40    0.30
   1   7  11    0.50    0.60
  -2  -7 -11   -0.20    0.20
  -2  -7 -11    0.00    0.10
   2   7  11    0.00    0.50
  -3  -7 -11   10.40    0.70
  -3  -7 -11   11.20    0.70
   3   7  11   12.50    1.70
  -4  -7 -11    3.80    0.50
   4   7  11    4.90    1.20
  -5  -7 -11   25.50    1.10
   5   7  11   25.90    2.10
  -6  -7 -11    1.30    0.30
   6   7  11    0.30    0.90
  -7  -7 -11    5.10    0.60
   7   7  11    5.20    1.30
  -8  -7 -11   -0.20    0.20
  -8  -7 -11   -0.30    0.30
   8   7  11   -0.30    1.00
  -9  -7 -11   17.30    1.10
  -9  -7 -11   15.40    0.90
   9   7  11   15.80    2.30
   2  -8 -11    0.10    0.30
  -2   8  11    2.00    0.70
   1  -8 -11    1.60    0.40
  -1   8  11    2.20    0.80
   0  -8 -11    7.80    0.70
   0   8  11    9.30    1.50
  -1  -8 -11    0.40    0.30
  -1  -8 -11   -0.20    0.20
   1   8  11    0.40    0.70
  -2  -8 -11   10.10    0.60
  -2  -8 -11    9.20    0.70
   2   8  11   10.60    1.50
  -3  -8 -11    0.20    0.20
  -3  -8 -11   -0.10    0.20
   3   8  11    0.50    0.70
  -4  -8 -11   12.10    0.80
   4   8  11   13.40    1.70
  -5  -8 -11   18.90    1.00
   5   8  11   17.80    1.90
  -6  -8 -11   11.00    0.80
   6   8  11    9.70    1.70
  -7  -8 -11   19.50    1.00
   7   8  11   18.70    2.10
  -8  -8 -11   12.80    1.00
  -8  -8 -11   13.40    0.90
   8   8  11   12.20    1.90
  -9  -8 -11   16.00    1.10
   1  -9 -11   11.20    0.90
  -1   9  11   17.80    1.80
   0  -9 -11    3.80    0.60
   0   9  11    4.70    1.20
  -1  -9 -11    3.50    0.60
  -1  -9 -11    3.50    0.40
   1   9  11    3.90    1.10
  -2  -9 -11   23.70    1.00
  -2  -9 -11   24.90    1.20
   2   9  11   24.50    2.00
  -3  -9 -11    3.50    0.50
  -3  -9 -11    2.10    0.40
   3   9  11    4.00    1.10
  -4  -9 -11   36.30    1.30
   4   9  11   31.10    2.30
  -5  -9 -11    4.10    0.60
   5   9  11    3.30    1.20
  -6  -9 -11   26.60    1.20
   6   9  11   24.60    2.30
  -7  -9 -11    5.10    0.60
   7   9  11    5.50    1.50
  -8  -9 -11   13.30    0.90
  -9  -9 -11   17.50    1.20
   1 -10 -11    3.30    0.80
   0 -10 -11    0.70    0.30
   0  10  11    2.10    0.80
  -1 -10 -11    8.40    0.80
   1  10  11   13.30    1.60
  -2 -10 -11   -0.20    0.20
  -2 -10 -11   -0.20    0.20
   2  10  11    0.40    0.70
  -3 -10 -11    5.10    0.60
   3  10  11    5.60    1.30
  -4 -10 -11    3.50    0.50
   4  10  11    4.00    1.20
  -5 -10 -11   11.80    0.80
   5  10  11   11.10    1.80
  -6 -10 -11   20.40    1.10
   6  10  11   20.80    2.30
  -7 -10 -11    6.40    0.70
   7  10  11    6.10    1.70
   0 -11 -11    0.00    0.30
  -1 -11 -11    0.10    0.30
   1  11  11    3.00    0.80
  -2 -11 -11    0.60    0.30
  -2 -11 -11   -0.30    0.20
   2  11  11    1.90    0.70
  -3 -11 -11    4.50    0.60
   3  11  11    5.30    1.30
  -4 -11 -11    0.30    0.20
   4  11  11    1.60    0.90
  -5 -11 -11    0.60    0.30
   5  11  11    2.20    1.10
  -6 -11 -11    0.10    0.30
  -2 -12 -11    3.00    0.60
  -3 -12 -11    0.10    0.20
  -4 -12 -11    0.20    0.30
   1 -10  12   11.20    1.00
   0   9 -12   14.80    1.10
   0  -9  12   19.80    1.20
  -1   9 -12   10.20    0.90
   1  -9  12   12.50    1.00
   1  -9  12    9.20    0.90
  -2   9 -12   -0.40    0.30
   2  -9  12    0.10    0.30
   3  -9  12   24.60    1.20
   3  -9  12   28.00    1.40
   4  -9  12   10.50    0.90
   4  -9  12   14.80    1.10
  -2  -8  12    3.40    0.60
   1   8 -12    0.40    0.30
   1   8 -12    0.50    0.40
  -1  -8  12    0.40    0.40
   0   8 -12   -0.30    0.30
   0  -8  12    0.00    0.20
   0  -8  12    0.50    0.40
  -1   8 -12    4.00    0.60
   1  -8  12    4.40    0.70
   1  -8  12    4.30    0.60
  -2   8 -12   12.50    0.90
   2  -8  12   12.10    0.90
   2  -8  12   11.20    1.00
  -3   8 -12    7.90    0.80
   3  -8  12    9.50    0.90
   3  -8  12   11.30    0.80
  -4   8 -12    7.40    0.80
   4  -8  12    9.30    0.90
   4  -8  12    8.80    0.70
  -5   8 -12   37.20    2.30
   5  -8  12   36.60    1.50
   5  -8  12   38.30    1.70
   2   7 -12   14.00    0.90
   2   7 -12   12.60    1.10
  -2  -7  12   13.20    1.10
   1   7 -12    4.20    0.60
   1   7 -12    4.40    0.70
  -1  -7  12    5.00    0.80
   0   7 -12    0.00    0.30
   0  -7  12    0.10    0.20
   0  -7  12    0.20    0.40
  -1   7 -12   22.70    1.20
   1  -7  12   21.70    1.30
   1  -7  12   23.00    1.10
  -2   7 -12    0.20    0.30
   2  -7  12    0.20    0.20
   2  -7  12   -0.20    0.40
  -3   7 -12   69.59    2.10
   3  -7  12   69.29    2.30
   3  -7  12   68.09    2.00
  -4   7 -12    1.00    0.40
   4  -7  12    1.00    0.30
   4  -7  12    1.80    0.50
  -5   7 -12   21.10    1.20
   5  -7  12   23.10    1.30
   5  -7  12   21.10    1.10
  -6   7 -12    1.10    0.40
   6  -7  12    1.90    0.60
   3   6 -12   28.70    1.70
  -3  -6  12   32.60    1.80
   2   6 -12    7.40    0.70
   2   6 -12    7.60    0.90
  -2  -6  12    6.60    0.90
   1   6 -12    5.40    0.70
   1   6 -12    6.40    0.70
  -1  -6  12    5.80    0.90
   0   6 -12    0.70    0.40
   0   6 -12    0.20    0.30
   0  -6  12    0.30    0.40
  -1   6 -12    1.20    0.40
   1  -6  12    1.50    0.40
   1  -6  12    1.30    0.40
  -2   6 -12   14.60    0.90
   2  -6  12   14.50    1.00
   2  -6  12   13.90    0.90
  -3   6 -12   10.20    0.80
   3  -6  12   10.80    0.80
   3  -6  12   10.20    0.90
  -4   6 -12    3.20    0.60
   4  -6  12    2.70    0.60
   4  -6  12    2.90    0.50
  -5   6 -12    3.40    0.60
   5  -6  12    3.70    0.50
   5  -6  12    4.20    0.70
  -6   6 -12    0.00    0.20
   6  -6  12    0.60    0.40
  -7   6 -12    0.00    0.30
   3   5 -12    1.90    0.60
  -3  -5  12    1.80    0.60
   2   5 -12   38.40    1.70
   2   5 -12   38.20    1.60
  -2  -5  12   39.30    1.90
   1   5 -12    2.60    0.60
   1   5 -12    3.10    0.50
  -1  -5  12    2.80    0.60
   0   5 -12   14.20    0.90
   0   5 -12   14.10    1.00
   0  -5  12   14.50    1.10
  -1   5 -12    5.10    0.70
  -1   5 -12    4.60    0.60
   1  -5  12    6.00    0.80
  -2   5 -12   13.70    0.90
   2  -5  12   13.40    0.80
   2  -5  12   14.00    1.00
  -3   5 -12   18.70    1.00
   3  -5  12   18.80    0.90
   3  -5  12   18.50    1.20
  -4   5 -12   42.60    1.50
   4  -5  12   39.80    1.70
   4  -5  12   40.50    1.40
  -5   5 -12   61.29    1.90
   5  -5  12   59.49    1.70
   5  -5  12   60.39    2.10
  -6   5 -12   10.00    0.80
   6  -5  12    8.90    0.90
  -7   5 -12    0.80    0.40
   7  -5  12    1.10    0.50
  -8   5 -12    1.40    0.40
   3   4 -12    0.10    0.30
  -3  -4  12   -0.10    0.40
   2   4 -12    5.40    0.80
  -2  -4  12    5.20    0.80
   1   4 -12    0.40    0.30
   1   4 -12    0.50    0.30
  -1  -4  12    0.30    0.40
   0   4 -12   38.60    1.40
   0   4 -12   36.70    1.60
   0  -4  12   36.50    1.60
  -1   4 -12   13.80    0.80
  -1   4 -12   12.60    0.90
   1  -4  12   13.70    1.00
  -2   4 -12    8.20    0.80
  -2   4 -12    8.10    0.70
   2  -4  12    8.10    0.80
  -3   4 -12   38.10    1.40
   3  -4  12   36.60    1.30
   3  -4  12   36.50    1.60
  -4   4 -12   12.90    0.90
   4  -4  12   15.20    1.00
   4  -4  12   14.50    0.80
  -5   4 -12    8.10    0.70
   5  -4  12    9.50    0.90
   5  -4  12    8.50    0.60
  -6   4 -12   10.90    0.80
   6  -4  12   13.00    1.00
  -7   4 -12   13.60    0.90
   7  -4  12   14.10    1.10
  -8   4 -12   28.60    1.30
   4   3 -12    0.90    0.40
   3   3 -12   12.80    1.00
  -3  -3  12   13.30    1.20
   2   3 -12   -0.10    0.30
  -2  -3  12    0.20    0.40
   1   3 -12   12.60    1.00
   1   3 -12   12.60    0.80
  -1  -3  12   12.50    1.00
   0   3 -12    9.80    0.70
   0   3 -12    9.90    0.80
   0  -3  12    9.40    0.90
  -1   3 -12   -0.50    0.20
  -1   3 -12    0.30    0.30
   1  -3  12    0.30    0.30
  -2   3 -12    0.50    0.30
  -2   3 -12    0.60    0.30
   2  -3  12    0.50    0.40
  -3   3 -12   18.50    1.00
  -3   3 -12   17.40    1.00
   3  -3  12   16.90    1.10
  -4   3 -12    0.30    0.30
  -4   3 -12   -0.10    0.20
   4  -3  12    0.20    0.30
  -5   3 -12   23.10    1.10
   5  -3  12   23.80    1.20
  -6   3 -12    3.60    0.50
   6  -3  12    4.20    0.70
  -7   3 -12    5.40    0.60
   7  -3  12    5.60    0.80
  -8   3 -12    0.40    0.30
   8  -3  12   -0.10    0.40
  -9   3 -12    0.60    0.30
   4   2 -12    0.10    0.40
  -4  -2  12    0.80    0.50
   3   2 -12    1.10    0.40
  -3  -2  12    1.40    0.50
   2   2 -12    7.00    0.80
  -2  -2  12    9.20    1.10
  -2  -2  12    7.30    0.90
   1   2 -12   -0.30    0.20
   1   2 -12   -0.50    0.20
  -1  -2  12   -0.30    0.30
  -1  -2  12    0.50    0.40
   0   2 -12    1.10    0.30
   0   2 -12    2.50    0.50
   0  -2  12    1.10    0.40
  -1   2 -12    6.00    0.60
  -1   2 -12    5.90    0.70
   1  -2  12    6.20    0.70
  -2   2 -12    1.70    0.40
  -2   2 -12    1.60    0.40
   2  -2  12    1.20    0.40
  -3   2 -12   16.20    0.90
  -3   2 -12   14.70    0.90
   3  -2  12   15.30    1.00
  -4   2 -12    2.70    0.40
  -4   2 -12    3.40    0.50
   4  -2  12    3.70    0.60
  -5   2 -12    1.10    0.30
  -5   2 -12    0.70    0.30
   5  -2  12    0.70    0.40
  -6   2 -12    0.90    0.40
   6  -2  12    1.20    0.50
  -7   2 -12    0.90    0.40
   7  -2  12    0.40    0.40
  -8   2 -12   10.80    0.80
   8  -2  12   11.20    1.00
  -9   2 -12    1.10    0.30
   4   1 -12   12.70    1.00
  -4  -1  12   10.90    1.10
   3   1 -12    0.60    0.40
  -3  -1  12    1.50    0.60
  -3  -1  12   -0.20    0.40
   2   1 -12    0.30    0.40
  -2  -1  12    0.60    0.50
  -2  -1  12    1.10    0.60
   1   1 -12    1.30    0.30
   1   1 -12    0.80    0.40
  -1  -1  12    1.50    0.50
  -1  -1  12    1.20    0.50
   0   1 -12    0.70    0.40
   0   1 -12    0.80    0.30
   0  -1  12    0.60    0.40
   0  -1  12    0.20    0.30
  -1   1 -12   24.60    1.20
  -1   1 -12   24.40    1.00
   1  -1  12   24.20    1.20
   1  -1  12   22.70    1.40
  -2   1 -12    5.80    0.60
  -2   1 -12    6.90    0.60
   2  -1  12    6.40    0.70
  -3   1 -12   64.19    1.90
  -3   1 -12   62.69    1.80
   3  -1  12   59.09    1.90
  -4   1 -12    1.80    0.40
  -4   1 -12    1.70    0.40
   4  -1  12    1.50    0.40
  -5   1 -12   25.40    1.10
   5  -1  12   22.60    1.20
  -6   1 -12    0.10    0.20
   6  -1  12    1.20    0.40
  -7   1 -12   46.80    1.60
   7  -1  12   47.10    1.80
  -8   1 -12   12.00    0.80
   8  -1  12   13.40    1.10
  -9   1 -12    0.00    0.30
   4   0 -12    6.40    0.90
  -4   0  12    5.30    0.90
   3   0 -12   -0.30    0.30
  -3   0  12   -0.10    0.40
  -3   0  12    2.10    0.70
   2   0 -12   28.80    1.40
  -2   0  12   26.80    1.90
  -2   0  12   28.10    1.50
   1   0 -12    0.40    0.30
   1   0 -12    0.30    0.20
  -1   0  12    0.20    0.40
  -1   0  12    0.40    0.30
   0   0 -12   50.39    1.50
   0   0 -12   51.89    1.80
   0   0  12   50.89    1.80
   0   0  12   49.20    2.30
  -1   0 -12    5.50    0.60
  -1   0 -12    5.80    0.60
   1   0  12    6.20    0.80
   1   0  12    5.90    0.70
  -2   0 -12   46.30    1.60
  -2   0 -12   49.60    1.50
   2   0  12   49.99    1.70
   2   0  12   50.49    2.10
  -3   0 -12   30.30    1.20
  -3   0 -12   30.70    1.20
   3   0  12   30.20    1.30
   3   0  12   30.90    1.60
  -4   0 -12   30.40    1.20
  -4   0 -12   30.50    1.20
   4   0  12   30.70    1.90
   4   0  12   28.70    1.30
  -5   0 -12   32.90    1.30
   5   0  12   35.20    1.40
  -6   0 -12    7.80    0.70
   6   0  12    9.20    0.80
  -7   0 -12   83.69    2.30
   7   0  12   84.99    2.40
  -8   0 -12    2.50    0.50
   8   0  12    2.70    0.60
  -9   0 -12   40.10    1.50
   9   0  12   43.80    1.80
   4  -1 -12    2.90    0.60
  -4   1  12    1.20    0.60
   3  -1 -12    9.00    1.00
  -3   1  12   11.40    1.50
  -3   1  12    6.50    0.90
   2  -1 -12    3.30    0.60
  -2   1  12    5.00    1.10
  -2   1  12    4.50    0.70
   1  -1 -12   12.50    0.90
  -1   1  12   11.10    1.30
  -1   1  12   10.80    0.90
   0  -1 -12   18.30    1.10
   0  -1 -12   18.00    0.80
   0   1  12   18.30    1.10
   0   1  12   18.20    1.50
  -1  -1 -12    0.30    0.20
  -1  -1 -12   -0.20    0.20
   1   1  12    0.10    0.30
   1   1  12    0.10    0.30
  -2  -1 -12   32.10    1.30
  -2  -1 -12   31.50    1.20
   2   1  12   31.20    1.70
   2   1  12   30.90    1.30
  -3  -1 -12    0.10    0.20
  -3  -1 -12    0.10    0.20
   3   1  12    0.00    0.30
   3   1  12    0.70    0.40
  -4  -1 -12   68.89    1.90
  -4  -1 -12   72.29    1.90
   4   1  12   67.09    2.00
   4   1  12   66.39    2.50
  -5  -1 -12    0.00    0.20
   5   1  12    0.00    0.30
   5   1  12    0.10    0.50
  -6  -1 -12   19.80    1.00
   6   1  12   21.20    2.00
   6   1  12   21.80    1.20
  -7  -1 -12    0.40    0.30
   7   1  12    0.50    0.40
  -8  -1 -12   -0.10    0.20
   8   1  12    0.00    0.40
  -9  -1 -12    0.60    0.30
   9   1  12    0.50    0.50
   4  -2 -12   -0.80    0.40
  -4   2  12    0.10    0.50
   3  -2 -12    0.30    0.30
  -3   2  12    1.50    0.70
  -3   2  12    0.70    0.50
   2  -2 -12    9.80    0.90
  -2   2  12    9.90    0.90
  -2   2  12    9.60    1.30
   1  -2 -12   12.00    0.90
  -1   2  12   12.50    1.30
  -1   2  12   10.90    0.90
   0  -2 -12    6.00    0.50
   0  -2 -12    5.10    0.70
   0   2  12    6.90    1.20
   0   2  12    5.90    0.70
  -1  -2 -12   12.30    0.70
  -1  -2 -12   12.20    0.80
   1   2  12   13.10    0.90
   1   2  12   12.00    1.20
  -2  -2 -12    0.50    0.30
  -2  -2 -12    0.70    0.30
   2   2  12    0.80    0.50
   2   2  12    0.60    0.30
  -3  -2 -12    0.60    0.30
  -3  -2 -12    0.60    0.30
   3   2  12    0.80    0.50
   3   2  12    0.70    0.30
  -4  -2 -12   27.80    1.10
  -4  -2 -12   29.80    1.10
   4   2  12   29.50    1.20
   4   2  12   29.00    1.80
  -5  -2 -12    3.20    0.50
   5   2  12    3.80    0.90
   5   2  12    4.20    0.60
  -6  -2 -12   30.40    1.20
   6   2  12   33.40    1.40
   6   2  12   31.00    2.00
  -7  -2 -12    0.70    0.30
   7   2  12    1.20    0.40
   7   2  12    0.40    0.80
  -8  -2 -12   15.50    0.90
   8   2  12   16.30    1.10
  -9  -2 -12    0.50    0.30
   9   2  12   -0.20    0.40
   3  -3 -12    2.20    0.60
  -3   3  12    2.90    0.80
  -3   3  12    2.10    0.60
   2  -3 -12   -0.20    0.30
  -2   3  12   -0.20    0.40
  -2   3  12    1.20    0.70
   1  -3 -12    4.90    0.70
  -1   3  12    5.80    1.20
  -1   3  12    4.80    0.70
   0  -3 -12    1.90    0.40
   0  -3 -12    3.60    0.50
   0   3  12    3.00    0.80
   0   3  12    2.90    0.60
  -1  -3 -12    1.10    0.30
  -1  -3 -12    1.40    0.30
   1   3  12    1.60    0.60
   1   3  12    1.80    0.40
  -2  -3 -12    7.70    0.60
  -2  -3 -12    6.90    0.60
   2   3  12    8.90    0.70
   2   3  12    8.80    1.10
  -3  -3 -12    0.40    0.20
  -3  -3 -12    0.40    0.20
   3   3  12    0.80    0.30
   3   3  12    1.40    0.60
  -4  -3 -12   27.30    1.10
  -4  -3 -12   29.60    1.20
   4   3  12   27.80    1.20
   4   3  12   27.20    1.80
  -5  -3 -12    3.40    0.50
   5   3  12    3.30    0.90
   5   3  12    3.30    0.50
  -6  -3 -12   13.40    0.80
   6   3  12   14.70    0.90
   6   3  12   12.60    1.50
  -7  -3 -12    0.50    0.30
   7   3  12    0.70    0.40
   7   3  12    0.30    0.80
  -8  -3 -12    5.10    0.70
   8   3  12    3.50    0.60
   8   3  12    2.80    1.10
  -9  -3 -12    0.00    0.20
   9   3  12    0.80    0.40
   9   3  12   -1.50    1.10
   3  -4 -12    2.00    0.50
  -3   4  12    2.30    0.60
  -3   4  12    4.30    0.90
   2  -4 -12   23.70    1.30
  -2   4  12   24.10    2.10
  -2   4  12   21.40    1.30
   1  -4 -12    6.50    0.80
  -1   4  12    7.10    0.90
  -1   4  12   10.20    1.60
   0  -4 -12    1.30    0.40
   0  -4 -12    1.40    0.30
   0   4  12    1.20    0.70
   0   4  12    1.90    0.50
  -1  -4 -12    1.00    0.30
  -1  -4 -12    1.40    0.40
   1   4  12    0.70    0.30
   1   4  12    2.00    0.70
  -2  -4 -12    3.00    0.50
  -2  -4 -12    2.90    0.40
   2   4  12    4.20    0.90
   2   4  12    3.20    0.50
  -3  -4 -12   14.00    0.80
  -3  -4 -12   14.30    0.80
   3   4  12   13.60    0.80
   3   4  12   14.20    1.40
  -4  -4 -12    8.20    1.00
  -4  -4 -12    7.20    0.60
   4   4  12    7.60    0.70
   4   4  12    8.10    1.30
  -5  -4 -12   12.70    0.80
   5   4  12   12.00    0.80
   5   4  12   13.00    1.50
  -6  -4 -12    7.20    0.60
   6   4  12    8.40    1.40
   6   4  12    7.60    0.70
  -7  -4 -12   13.80    0.90
   7   4  12   13.60    1.60
   7   4  12   14.30    0.90
  -8  -4 -12    0.40    0.30
   8   4  12    0.60    0.40
   8   4  12   -0.20    0.90
  -9  -4 -12    4.00    0.60
   9   4  12    2.10    1.30
   9   4  12    3.80    0.70
   3  -5 -12    0.50    0.40
   3  -5 -12    0.00    0.40
  -3   5  12    2.90    0.80
   2  -5 -12    1.90    0.50
  -2   5  12    2.30    0.60
  -2   5  12    2.40    0.90
   1  -5 -12   14.70    1.00
  -1   5  12   16.90    1.70
  -1   5  12   15.90    1.10
   0  -5 -12   19.40    1.10
   0   5  12   19.50    1.10
   0   5  12   23.20    1.90
  -1  -5 -12   13.10    0.90
  -1  -5 -12   12.40    0.70
   1   5  12   15.70    1.50
   1   5  12   13.30    0.90
  -2  -5 -12   48.70    1.50
  -2  -5 -12   47.50    1.60
   2   5  12   47.20    2.40
   2   5  12   47.90    1.60
  -3  -5 -12   29.90    1.20
  -3  -5 -12   31.90    1.20
   3   5  12   31.20    2.00
   3   5  12   30.70    1.20
  -4  -5 -12    0.50    0.30
   4   5  12    1.50    0.80
   4   5  12    0.90    0.30
  -5  -5 -12   39.30    1.40
   5   5  12   36.70    2.30
   5   5  12   39.60    1.40
  -6  -5 -12    7.40    0.70
   6   5  12    7.60    0.70
   6   5  12    7.40    1.40
  -7  -5 -12   35.60    1.40
   7   5  12   33.30    2.40
  -8  -5 -12    1.60    0.40
   8   5  12    0.90    1.00
  -9  -5 -12   44.20    1.60
   9   5  12   36.60    2.70
   2  -6 -12    1.80    0.50
  -2   6  12    4.20    0.90
   1  -6 -12    6.60    0.80
  -1   6  12    5.90    1.20
   0  -6 -12    0.00    0.20
   0   6  12    0.20    0.60
   0   6  12    0.30    0.60
  -1  -6 -12    3.50    0.50
  -1  -6 -12    2.50    0.50
   1   6  12    4.50    1.10
  -2  -6 -12   27.70    1.10
  -2  -6 -12   28.20    1.20
   2   6  12   29.20    2.00
  -3  -6 -12    6.50    0.60
  -3  -6 -12    5.50    0.60
   3   6  12    6.30    1.20
  -4  -6 -12   50.59    1.60
   4   6  12   47.00    2.60
  -5  -6 -12    7.30    0.70
   5   6  12    6.70    1.30
  -6  -6 -12    3.00    0.50
   6   6  12    3.30    1.20
  -7  -6 -12    3.90    0.60
   7   6  12    4.40    1.30
  -8  -6 -12   17.00    1.00
   8   6  12   15.90    1.90
  -9  -6 -12   23.40    1.80
   9   6  12   19.00    2.30
   2  -7 -12    9.10    1.00
  -2   7  12   14.50    1.60
   1  -7 -12    1.70    0.50
  -1   7  12    2.50    1.00
   0  -7 -12   11.80    0.90
   0   7  12   10.90    1.70
  -1  -7 -12    0.00    0.20
  -1  -7 -12    0.20    0.20
   1   7  12    1.20    0.70
  -2  -7 -12    1.70    0.40
  -2  -7 -12    1.70    0.40
   2   7  12    1.30    0.80
  -3  -7 -12    0.30    0.30
  -3  -7 -12    0.30    0.20
   3   7  12    0.30    0.70
  -4  -7 -12   68.49    1.90
   4   7  12   66.49    3.20
  -5  -7 -12    4.50    0.60
   5   7  12    4.60    1.20
  -6  -7 -12   69.19    2.00
   6   7  12   69.39    3.40
  -7  -7 -12    0.20    0.30
   7   7  12    0.20    1.00
  -8  -7 -12    8.60    0.70
   8   7  12    5.80    1.50
   1  -8 -12    6.10    0.80
  -1   8  12    6.40    1.30
   0  -8 -12    1.90    0.50
   0   8  12    2.30    0.80
  -1  -8 -12    0.20    0.30
   1   8  12    0.60    0.60
  -2  -8 -12    3.90    0.60
  -2  -8 -12    3.90    0.50
   2   8  12    7.10    1.40
  -3  -8 -12    1.10    0.40
  -3  -8 -12    1.20    0.30
   3   8  12    2.10    0.90
  -4  -8 -12    5.00    0.60
   4   8  12    6.70    1.40
  -5  -8 -12    0.20    0.20
   5   8  12    0.90    0.90
  -6  -8 -12    3.10    0.50
   6   8  12    3.10    1.20
  -7  -8 -12    5.60    0.70
   7   8  12    5.70    1.50
   0   9  12    2.40    0.80
  -1  -9 -12    0.80    0.40
   1   9  12    1.60    0.80
  -2  -9 -12    1.50    0.40
  -2  -9 -12    1.20    0.40
   2   9  12    2.90    1.00
   3   9  12    1.60    0.80
  -4  -9 -12   14.10    0.90
   4   9  12   16.00    1.80
  -5  -9 -12    3.10    0.50
   5   9  12    3.40    1.10
  -6  -9 -12    7.90    0.70
   6   9  12    9.70    1.80
  -7  -9 -12   -0.20    0.30
   7   9  12   -1.00    1.10
  -1 -10 -12    4.00    0.60
   1  10  12    7.10    1.40
  -2 -10 -12    2.40    0.50
  -2 -10 -12    1.70    0.40
   2  10  12    3.50    1.00
  -3 -10 -12   10.80    0.70
   3  10  12   13.00    1.60
  -4 -10 -12    2.80    0.50
   4  10  12    3.90    1.10
  -5 -10 -12   17.80    1.00
   5  10  12   20.20    2.10
  -6 -10 -12    2.10    0.50
  -2 -11 -12    6.40    1.10
  -3 -11 -12    4.20    0.60
  -4 -11 -12    4.30    0.60
   1  -8  13    1.50    0.50
   2  -8  13    1.10    0.60
   2  -8  13    2.20    0.50
   3  -8  13   17.70    1.50
   3  -8  13   17.80    1.10
   4  -8  13    0.50    0.30
   1   7 -13    7.80    0.80
   0   7 -13   39.70    1.60
   0   7 -13   37.40    1.80
   0  -7  13   39.20    1.80
  -1   7 -13    7.30    0.80
   1  -7  13    6.80    0.90
  -2   7 -13   36.40    1.50
   2  -7  13   35.80    1.70
   2  -7  13   35.50    1.50
  -3   7 -13   30.00    1.40
   3  -7  13   29.10    1.30
   3  -7  13   31.20    1.60
  -4   7 -13    0.90    0.40
   4  -7  13    0.40    0.30
   4  -7  13    0.60    0.40
   5  -7  13    8.40    0.70
   1   6 -13    4.70    0.70
   1   6 -13    4.50    0.60
  -1  -6  13    4.30    0.80
   0   6 -13   11.00    0.80
   0   6 -13   10.10    0.90
   0  -6  13    9.80    0.90
  -1   6 -13   38.10    1.70
  -1   6 -13   37.70    1.50
   1  -6  13   39.80    1.80
  -2   6 -13   14.70    1.00
   2  -6  13   15.10    0.90
   2  -6  13   15.90    1.20
  -3   6 -13   13.10    0.90
   3  -6  13   11.40    0.80
   3  -6  13   11.00    1.00
  -4   6 -13   29.20    1.40
   4  -6  13   29.20    1.50
   4  -6  13   26.90    1.20
  -5   6 -13    2.90    0.60
   5  -6  13    3.10    0.60
   5  -6  13    2.10    0.40
   2   5 -13    0.30    0.40
  -2  -5  13    0.80    0.50
   1   5 -13    8.60    1.00
   1   5 -13    7.10    0.70
  -1  -5  13    6.90    0.90
   0   5 -13   24.60    1.40
   0   5 -13   24.90    1.20
   0  -5  13   23.90    1.40
  -1   5 -13   -0.10    0.20
  -1   5 -13    0.30    0.30
   1  -5  13   -0.20    0.30
  -2   5 -13   84.99    2.30
  -2   5 -13   82.09    2.50
   2  -5  13   83.29    2.60
  -3   5 -13    4.00    0.60
   3  -5  13    4.70    0.70
  -4   5 -13   30.50    1.40
   4  -5  13   32.30    1.60
   4  -5  13   32.00    1.30
  -5   5 -13    0.70    0.40
   5  -5  13    1.20    0.50
   5  -5  13    1.00    0.30
  -6   5 -13   10.20    0.90
   6  -5  13   12.80    1.00
   2   4 -13   14.30    1.10
  -2  -4  13   13.70    1.20
   1   4 -13   10.00    0.70
   1   4 -13    9.00    1.00
  -1  -4  13   10.00    1.00
   0   4 -13   22.10    1.10
   0   4 -13   22.10    1.30
   0  -4  13   22.30    1.30
  -1   4 -13   36.00    1.60
  -1   4 -13   35.70    1.40
   1  -4  13   36.50    1.70
  -2   4 -13    0.00    0.20
  -2   4 -13    0.30    0.30
   2  -4  13   -0.10    0.30
  -3   4 -13   16.00    0.90
  -3   4 -13   16.10    1.00
   3  -4  13   15.10    1.10
  -4   4 -13    0.40    0.30
  -4   4 -13    0.30    0.20
   4  -4  13    0.90    0.40
  -5   4 -13    5.60    0.70
   5  -4  13    5.60    0.80
  -6   4 -13    0.40    0.30
   6  -4  13    0.60    0.40
  -7   4 -13    3.80    0.60
   7  -4  13    5.80    1.20
   2   3 -13    1.40    0.40
  -2  -3  13    1.90    0.60
   1   3 -13    0.60    0.30
   1   3 -13    0.30    0.40
  -1  -3  13    0.70    0.50
   0   3 -13    1.30    0.40
   0   3 -13    1.50    0.50
   0  -3  13    1.10    0.40
  -1   3 -13   12.80    1.00
  -1   3 -13   12.90    0.80
   1  -3  13   11.60    1.00
  -2   3 -13   11.90    0.80
  -2   3 -13   12.70    0.90
   2  -3  13   11.90    1.00
  -3   3 -13   59.09    2.00
  -3   3 -13   61.79    1.90
   3  -3  13   60.29    2.10
  -4   3 -13   32.60    1.30
  -4   3 -13   32.20    1.40
   4  -3  13   31.50    1.50
  -5   3 -13   16.70    1.00
   5  -3  13   17.70    1.10
  -6   3 -13   -0.30    0.30
   6  -3  13    0.80    0.40
  -7   3 -13    5.50    0.70
   7  -3  13    6.70    0.80
  -8   3 -13    0.90    0.60
   3   2 -13    3.00    1.00
   2   2 -13   10.10    1.00
  -2  -2  13    8.70    1.10
   1   2 -13   13.40    1.00
  -1  -2  13   13.50    1.10
   0   2 -13   55.59    1.70
   0   2 -13   56.59    2.00
   0  -2  13   53.69    2.00
  -1   2 -13    0.10    0.30
  -1   2 -13   -0.20    0.20
   1  -2  13    0.10    0.30
  -2   2 -13   53.99    1.90
  -2   2 -13   52.79    1.70
   2  -2  13   50.79    1.90
  -3   2 -13    8.40    0.70
  -3   2 -13    7.50    0.80
   3  -2  13    8.30    0.80
  -4   2 -13    7.50    0.70
  -4   2 -13    7.70    0.70
   4  -2  13    8.70    0.80
  -5   2 -13   15.90    1.00
   5  -2  13   17.30    1.10
  -6   2 -13    7.30    0.80
   6  -2  13    7.80    0.80
  -7   2 -13   37.70    1.50
   7  -2  13   39.90    1.70
  -8   2 -13   21.00    1.10
   3   1 -13    1.90    0.60
  -3  -1  13    1.50    0.60
   2   1 -13    0.10    0.30
  -2  -1  13   -0.10    0.30
   1   1 -13    7.00    0.80
  -1  -1  13    6.70    0.90
  -1  -1  13   10.60    1.10
   0   1 -13    0.40    0.30
   0   1 -13    0.70    0.40
   0  -1  13    0.80    0.40
  -1   1 -13    1.50    0.40
  -1   1 -13    1.10    0.40
   1  -1  13    1.70    0.50
  -2   1 -13   36.40    1.50
  -2   1 -13   38.10    1.40
   2  -1  13   37.40    1.60
  -3   1 -13    1.50    0.40
  -3   1 -13    1.80    0.40
   3  -1  13    1.50    0.40
  -4   1 -13   35.10    1.40
  -4   1 -13   38.10    1.40
   4  -1  13   35.90    1.50
  -5   1 -13    9.00    0.70
   5  -1  13    9.40    0.80
  -6   1 -13    9.00    0.80
   6  -1  13    9.80    0.90
  -7   1 -13    2.20    0.50
   7  -1  13    2.10    0.60
  -8   1 -13    0.30    0.30
   8  -1  13    0.40    0.40
   2   0 -13    0.40    0.30
  -2   0  13    0.70    0.40
   1   0 -13    0.20    0.30
  -1   0  13    0.10    0.40
  -1   0  13    1.40    0.50
   0   0 -13   11.90    0.70
   0   0 -13   11.00    0.90
   0   0  13   13.00    1.20
   0   0  13   13.40    1.00
  -1   0 -13    2.60    0.50
  -1   0 -13    3.10    0.50
   1   0  13    3.40    0.70
   1   0  13    2.90    0.60
  -2   0 -13   33.60    1.30
  -2   0 -13   34.20    1.40
   2   0  13   36.40    1.90
   2   0  13   34.40    1.50
  -3   0 -13    0.00    0.30
  -3   0 -13    0.20    0.20
   3   0  13    0.00    0.30
  -4   0 -13    4.90    0.60
  -4   0 -13    4.70    0.60
   4   0  13    5.20    0.70
  -5   0 -13    0.10    0.30
   5   0  13    0.70    0.40
  -6   0 -13    2.60    0.50
   6   0  13    2.40    0.60
  -7   0 -13   19.60    1.10
   7   0  13   19.50    1.20
  -8   0 -13    0.40    0.30
   8   0  13    0.30    0.40
   3  -1 -13   -0.30    0.30
  -3   1  13    0.40    0.40
   2  -1 -13   -0.20    0.20
  -2   1  13    0.40    0.40
  -2   1  13    2.00    0.60
   1  -1 -13    0.80    0.40
  -1   1  13    1.40    0.60
  -1   1  13    1.00    0.50
   0  -1 -13    2.40    0.40
   0  -1 -13    1.30    0.40
   0   1  13    2.80    0.80
   0   1  13    1.20    0.50
  -1  -1 -13   12.10    0.90
  -1  -1 -13   11.60    0.80
   1   1  13   12.10    1.20
   1   1  13   10.60    0.90
  -2  -1 -13   26.80    1.10
  -2  -1 -13   29.00    1.30
   2   1  13   31.10    1.40
   2   1  13   29.60    1.70
  -3  -1 -13    0.10    0.30
  -3  -1 -13    0.10    0.30
   3   1  13    0.40    0.30
   3   1  13    1.00    0.50
  -4  -1 -13   27.40    1.20
  -4  -1 -13   24.00    1.10
   4   1  13   28.60    1.30
   4   1  13   26.40    1.60
  -5  -1 -13    7.80    0.70
   5   1  13    7.80    0.80
  -6  -1 -13   69.79    2.10
   6   1  13   68.49    2.20
  -7  -1 -13    0.40    0.30
   7   1  13    0.60    0.40
  -8  -1 -13    0.20    0.30
   8   1  13    0.90    0.40
  -3   2  13   13.50    1.20
   2  -2 -13    2.50    0.60
  -2   2  13    2.20    0.60
  -2   2  13    4.20    1.00
   1  -2 -13   20.10    1.20
  -1   2  13   22.30    1.90
  -1   2  13   21.30    1.30
   0  -2 -13    0.30    0.20
   0  -2 -13    0.10    0.20
   0   2  13    0.30    0.30
   0   2  13    0.40    0.50
  -1  -2 -13   40.50    1.60
  -1  -2 -13   44.10    1.40
   1   2  13   41.30    1.60
   1   2  13   43.00    2.30
  -2  -2 -13    5.00    0.60
  -2  -2 -13    4.70    0.60
   2   2  13    7.00    1.10
   2   2  13    4.60    0.60
  -3  -2 -13   30.00    1.20
  -3  -2 -13   28.80    1.30
   3   2  13   28.10    1.30
   3   2  13   30.00    1.80
  -4  -2 -13    7.50    0.60
  -4  -2 -13    7.10    0.70
   4   2  13    7.80    1.00
   4   2  13    7.60    0.70
  -5  -2 -13   15.80    0.90
   5   2  13   15.50    1.00
   5   2  13   14.80    1.40
  -6  -2 -13   81.19    2.20
   6   2  13   80.79    2.30
   6   2  13   81.19    3.20
  -7  -2 -13    0.40    0.30
   7   2  13    0.70    0.40
  -8  -2 -13   54.59    1.80
   8   2  13   54.39    1.90
   9   2  13    6.00    0.80
  -3   3  13   -0.10    0.40
   2  -3 -13    5.50    0.80
  -2   3  13   11.00    1.30
  -2   3  13    7.50    1.00
   1  -3 -13    7.20    0.90
  -1   3  13    7.70    0.90
  -1   3  13    7.50    1.40
   0  -3 -13    3.80    0.60
   0   3  13    4.10    0.70
   0   3  13    3.60    0.90
  -1  -3 -13   21.70    1.20
  -1  -3 -13   22.80    1.00
   1   3  13   22.60    1.70
   1   3  13   21.60    1.20
  -2  -3 -13    8.60    0.70
  -2  -3 -13    8.10    0.60
   2   3  13    8.10    0.70
   2   3  13    9.50    1.20
  -3  -3 -13   63.49    1.80
  -3  -3 -13   61.09    1.90
   3   3  13   62.79    2.70
   3   3  13   61.09    1.90
  -4  -3 -13    9.70    0.70
   4   3  13   12.90    1.40
   4   3  13   10.70    0.80
  -5  -3 -13   41.40    1.50
   5   3  13   41.50    1.60
   5   3  13   42.00    2.30
  -6  -3 -13    6.50    0.70
   6   3  13    8.10    0.70
   6   3  13    7.10    1.30
  -7  -3 -13    3.60    0.60
   7   3  13    3.60    1.10
   7   3  13    3.30    0.60
  -8  -3 -13    0.70    0.30
   8   3  13    1.40    0.40
   9   3  13    0.70    0.40
  -3   4  13    0.60    0.60
   2  -4 -13    4.90    0.80
  -2   4  13    5.20    0.80
   1  -4 -13    1.00    0.40
  -1   4  13    1.30    0.70
  -1   4  13    0.20    0.30
   0  -4 -13    1.20    0.40
   0   4  13    2.40    0.80
   0   4  13    0.50    0.40
  -1  -4 -13    1.90    0.50
  -1  -4 -13    1.90    0.40
   1   4  13    2.30    0.80
   1   4  13    2.00    0.50
  -2  -4 -13   -0.20    0.20
  -2  -4 -13    0.20    0.20
   2   4  13    0.30    0.30
   2   4  13    0.20    0.40
  -3  -4 -13    8.90    0.70
  -3  -4 -13    9.40    0.70
   3   4  13   10.20    1.20
   3   4  13   10.30    0.80
  -4  -4 -13    3.00    0.50
   4   4  13    3.00    0.50
   4   4  13    2.70    0.80
  -5  -4 -13   13.30    0.80
   5   4  13   12.40    0.90
   5   4  13   12.80    1.50
  -6  -4 -13    0.00    0.20
   6   4  13    0.50    0.30
   6   4  13    0.40    0.70
  -7  -4 -13    8.80    0.80
   7   4  13   10.00    0.80
   7   4  13   10.10    1.60
  -8  -4 -13    0.80    0.40
   8   4  13    0.00    0.80
   8   4  13    1.40    0.40
   9   4  13    0.50    1.00
  -2   5  13    0.50    0.40
   1  -5 -13    0.60    0.30
  -1   5  13    1.30    0.60
  -1   5  13    0.50    0.40
   0  -5 -13    5.30    0.70
   0   5  13    4.30    0.70
   0   5  13    7.20    1.40
  -1  -5 -13   11.70    0.70
  -1  -5 -13   10.00    0.80
   1   5  13   10.20    0.90
   1   5  13   12.00    1.40
  -2  -5 -13    2.70    0.40
  -2  -5 -13    2.20    0.50
   2   5  13    3.30    0.90
   2   5  13    2.40    0.50
  -3  -5 -13   16.90    0.90
  -3  -5 -13   16.90    1.00
   3   5  13   18.20    1.00
   3   5  13   17.00    1.60
  -4  -5 -13    0.30    0.30
   4   5  13    0.60    0.30
   4   5  13    0.60    0.60
  -5  -5 -13    8.40    0.70
   5   5  13   11.50    1.50
   5   5  13    9.50    0.80
  -6  -5 -13    1.60    0.40
   6   5  13    2.90    1.10
  -7  -5 -13    9.10    0.70
   7   5  13   11.80    1.80
  -8  -5 -13    0.80    0.30
   8   5  13   -0.10    0.90
   1  -6 -13    4.80    0.70
  -1   6  13    6.40    1.40
   0  -6 -13    2.90    0.60
   0   6  13    3.70    1.10
  -1  -6 -13   10.00    0.80
  -1  -6 -13   10.10    0.90
   1   6  13   11.60    1.50
  -2  -6 -13   15.60    0.80
  -2  -6 -13   12.70    0.90
   2   6  13   15.50    1.60
  -3  -6 -13   -0.10    0.20
  -3  -6 -13   -0.10    0.20
   3   6  13    0.30    0.50
  -4  -6 -13   30.80    1.30
   4   6  13   30.40    2.20
  -5  -6 -13    0.40    0.30
   5   6  13    0.70    0.80
  -6  -6 -13   28.90    1.30
   6   6  13   27.20    2.20
  -7  -6 -13    3.30    0.50
   7   6  13    4.40    1.30
   8   6  13    3.20    1.30
   0  -7 -13    0.20    0.30
   0   7  13    0.70    0.50
  -1  -7 -13   13.70    1.00
   1   7  13   16.40    1.70
  -2  -7 -13    2.80    0.50
  -2  -7 -13    3.70    0.50
   2   7  13    4.30    1.10
  -3  -7 -13    0.00    0.20
   3   7  13    0.60    0.60
  -4  -7 -13   16.90    0.90
   4   7  13   16.20    1.70
  -5  -7 -13    2.10    0.50
   5   7  13    2.70    1.00
  -6  -7 -13   39.40    1.50
   6   7  13   37.60    2.60
  -7  -7 -13    4.10    0.60
   7   7  13    5.20    1.40
   0  -8 -13   -0.10    0.20
  -1  -8 -13   31.00    1.40
   1   8  13   34.50    2.30
  -2  -8 -13    2.40    0.50
  -2  -8 -13    1.70    0.40
   2   8  13    2.40    0.80
  -3  -8 -13   38.60    1.40
   3   8  13   41.00    2.50
  -4  -8 -13    1.80    0.40
   4   8  13    1.50    0.80
  -5  -8 -13    0.60    0.30
   5   8  13    1.60    0.80
   6   8  13    2.70    1.10
  -1  -9 -13    0.00    0.30
  -2  -9 -13    2.40    0.50
  -2  -9 -13    2.30    0.50
   2   9  13    3.40    1.00
  -3  -9 -13   53.69    1.70
   3   9  13   54.89    3.00
  -4  -9 -13    1.20    0.30
   4   9  13    2.00    0.90
  -5  -9 -13   51.59    1.70
   5   9  13   47.90    2.90
  -2 -10 -13    1.70    0.70
  -3 -10 -13   13.60    0.90
  -4 -10 -13    0.10    0.20
   1   6 -14    7.20    1.10
   0   6 -14    0.90    0.40
  -1   6 -14    1.00    0.40
  -1   6 -14    1.40    0.80
  -2   6 -14   10.60    0.90
  -2   6 -14   10.70    0.90
   2  -6  14   10.80    1.00
  -3   6 -14    6.80    1.00
  -3   6 -14    5.50    0.80
   3  -6  14    4.60    0.90
   0   5 -14   14.90    1.30
   0   5 -14   16.10    1.00
   0  -5  14   16.40    1.50
  -1   5 -14   16.90    1.20
  -1   5 -14   16.90    1.00
   1  -5  14   18.00    1.30
  -2   5 -14   12.80    0.90
  -2   5 -14   12.10    1.00
   2  -5  14   11.80    1.00
  -3   5 -14    0.60    0.40
  -3   5 -14    0.30    0.30
   3  -5  14    1.00    0.40
  -4   5 -14    0.30    0.30
  -4   5 -14    0.40    0.40
   4  -5  14    0.40    0.30
   0   4 -14   18.10    1.20
   0   4 -14   17.40    1.00
   0  -4  14   17.90    1.20
  -1   4 -14    6.40    0.80
  -1   4 -14    6.90    0.70
   1  -4  14    7.30    0.90
  -2   4 -14    2.70    0.60
  -2   4 -14    2.60    0.50
   2  -4  14    2.40    0.60
  -3   4 -14    1.70    0.40
  -3   4 -14    1.80    0.50
   3  -4  14    1.80    0.50
  -4   4 -14    0.90    0.40
  -4   4 -14    0.60    0.30
   4  -4  14    1.00    0.40
  -5   4 -14    2.60    0.50
   5  -4  14    3.30    0.60
   1   3 -14   11.00    1.00
  -1  -3  14   11.10    1.00
   0   3 -14    0.20    0.30
   0   3 -14    0.50    0.40
   0  -3  14    1.00    0.40
  -1   3 -14   30.60    1.50
  -1   3 -14   30.40    1.30
   1  -3  14   29.90    1.60
  -2   3 -14    5.10    0.70
  -2   3 -14    6.90    0.70
   2  -3  14    6.10    0.80
  -3   3 -14    8.60    0.80
  -3   3 -14    9.80    0.80
   3  -3  14   10.30    0.90
  -4   3 -14    0.40    0.30
  -4   3 -14    0.40    0.30
   4  -3  14    1.20    0.40
  -5   3 -14   10.10    0.80
   5  -3  14   11.40    1.00
  -6   3 -14    1.70    0.40
   6  -3  14    2.30    0.50
   1   2 -14   30.70    1.60
  -1  -2  14   28.60    1.60
   0   2 -14   33.20    1.60
   0   2 -14   31.70    1.30
   0  -2  14   32.00    1.60
  -1   2 -14    1.70    0.50
  -1   2 -14    2.50    0.50
   1  -2  14    2.90    0.60
  -2   2 -14   33.40    1.30
  -2   2 -14   30.20    1.50
   2  -2  14   31.40    1.50
  -3   2 -14    0.10    0.30
  -3   2 -14    0.30    0.30
   3  -2  14    0.30    0.30
  -4   2 -14   36.60    1.50
  -4   2 -14   37.10    1.50
   4  -2  14   37.60    1.70
  -5   2 -14    0.20    0.30
   5  -2  14    0.60    0.40
  -6   2 -14   29.50    1.30
   6  -2  14   30.60    1.50
  -7   2 -14    1.30    0.40
   1   1 -14    0.50    0.40
  -1  -1  14    0.70    0.50
   0   1 -14    2.20    0.50
   0   1 -14    3.20    0.50
   0  -1  14    3.00    0.70
  -1   1 -14    0.10    0.20
  -1   1 -14   -0.20    0.30
   1  -1  14    0.00    0.30
  -2   1 -14   22.80    1.20
  -2   1 -14   23.00    1.10
   2  -1  14   25.20    1.40
  -3   1 -14    3.70    0.60
  -3   1 -14    3.10    0.50
   3  -1  14    3.70    0.70
  -4   1 -14    3.60    0.60
  -4   1 -14    4.30    0.60
   4  -1  14    4.60    0.70
  -5   1 -14    0.30    0.30
   5  -1  14    0.60    0.40
  -6   1 -14    9.90    0.80
   6  -1  14   11.40    0.90
  -7   1 -14    0.20    0.30
   7  -1  14    0.20    0.30
   1   0 -14   41.00    1.80
  -1   0  14   49.40    2.50
  -1   0  14   39.90    1.90
   0   0 -14    0.90    0.40
   0   0 -14    1.60    0.60
   0   0  14    1.40    0.50
  -1   0 -14   34.10    1.60
  -1   0 -14   35.30    1.30
   1   0  14   36.10    1.60
  -2   0 -14   11.40    0.80
  -2   0 -14   11.30    0.90
   2   0  14   10.90    0.90
  -3   0 -14    0.90    0.30
  -3   0 -14    0.50    0.30
   3   0  14    1.30    0.40
  -4   0 -14   11.60    0.80
  -4   0 -14   13.20    0.90
   4   0  14   12.20    1.00
  -5   0 -14    0.00    0.30
   5   0  14    0.30    0.30
  -6   0 -14   15.20    1.00
   6   0  14   16.20    1.10
  -7   0 -14   20.20    1.10
   7   0  14   22.10    1.30
  -2   1  14   28.00    1.30
   1  -1 -14    0.00    0.30
  -1   1  14    0.90    0.50
   0  -1 -14    0.00    0.30
   0   1  14    0.50    0.30
  -1  -1 -14   31.50    1.20
  -1  -1 -14   27.60    1.40
   1   1  14   28.10    1.40
   1   1  14   31.70    1.90
  -2  -1 -14    4.40    0.60
  -2  -1 -14    4.70    0.70
   2   1  14    4.30    0.70
   2   1  14    7.10    0.90
  -3  -1 -14   20.70    1.00
  -3  -1 -14   18.40    1.10
   3   1  14   21.10    1.20
  -4  -1 -14    3.90    0.60
  -4  -1 -14    3.40    0.50
   4   1  14    4.00    0.60
  -5  -1 -14   11.40    0.80
   5   1  14   10.30    0.90
  -6  -1 -14   11.60    0.90
   6   1  14   13.10    1.00
  -7  -1 -14   -0.10    0.20
   7   1  14    0.40    0.30
   8   1  14    0.90    0.40
  -2   2  14    0.40    0.70
   1  -2 -14   12.50    1.00
  -1   2  14   11.10    1.00
   0  -2 -14    3.70    0.70
   0   2  14    5.30    1.10
   0   2  14    3.30    0.60
  -1  -2 -14   31.10    1.50
  -1  -2 -14   29.70    1.20
   1   2  14   29.20    1.50
   1   2  14   30.00    1.90
  -2  -2 -14    0.70    0.30
  -2  -2 -14    0.40    0.30
   2   2  14    0.40    0.40
   2   2  14    1.90    0.60
  -3  -2 -14    5.90    0.70
  -3  -2 -14    4.80    0.60
   3   2  14    6.20    0.80
   3   2  14    7.60    1.00
  -4  -2 -14    2.50    0.50
   4   2  14    3.10    0.80
   4   2  14    2.20    0.50
  -5  -2 -14    5.50    0.70
   5   2  14    4.60    0.70
  -6  -2 -14   15.00    0.90
   6   2  14   16.10    1.10
  -7  -2 -14    5.50    0.70
   7   2  14    7.90    0.80
   8   2  14    1.90    0.50
   0  -3 -14    7.00    0.90
   0   3  14    7.20    0.90
   0   3  14   10.30    1.30
  -1  -3 -14    8.20    0.80
  -1  -3 -14    9.90    0.70
   1   3  14   10.40    1.30
   1   3  14    9.10    0.90
  -2  -3 -14    4.60    0.60
  -2  -3 -14    4.60    0.60
   2   3  14    4.40    0.60
   2   3  14    5.20    1.10
  -3  -3 -14   16.20    0.90
  -3  -3 -14   15.40    0.90
   3   3  14   15.90    1.40
   3   3  14   15.80    1.00
  -4  -3 -14   33.60    1.30
   4   3  14   33.00    2.00
   4   3  14   32.90    1.40
  -5  -3 -14   41.30    1.50
   5   3  14   37.60    1.60
   5   3  14   41.40    2.30
  -6  -3 -14    1.30    0.40
   6   3  14    1.60    0.70
   6   3  14    0.70    0.40
  -7  -3 -14    0.40    0.30
   7   3  14    1.00    0.40
   8   3  14    1.50    0.40
   1  -4 -14    1.10    0.50
  -1   4  14    2.50    0.60
   0  -4 -14   18.90    1.20
   0   4  14   23.40    1.90
   0   4  14   19.60    1.20
   1   4  14    1.90    0.60
   1   4  14    1.30    0.40
  -2  -4 -14    9.60    0.70
  -2  -4 -14   11.50    0.90
   2   4  14    9.40    0.80
   2   4  14   11.90    1.30
  -3  -4 -14    0.30    0.20
  -3  -4 -14    0.00    0.20
   3   4  14    0.30    0.30
   3   4  14    0.30    0.40
  -4  -4 -14   17.20    1.00
   4   4  14   19.40    1.60
   4   4  14   18.40    1.00
  -5  -4 -14   49.50    1.70
   5   4  14   42.90    2.50
   5   4  14   46.20    1.70
  -6  -4 -14    3.50    0.60
   6   4  14    4.20    0.60
   6   4  14    4.20    1.00
  -7  -4 -14   20.70    1.10
   7   4  14   21.20    1.90
   7   4  14   22.20    1.20
  -1   5  14    2.80    0.70
   0   5  14   11.30    1.20
   0   5  14    9.90    1.00
  -1  -5 -14    9.70    0.90
   1   5  14   14.30    1.50
   1   5  14    9.80    0.90
  -2  -5 -14   26.40    1.10
  -2  -5 -14   26.00    1.30
   2   5  14   26.40    1.50
   2   5  14   29.00    2.00
  -3  -5 -14   20.10    1.10
  -3  -5 -14   21.30    1.10
   3   5  14   21.60    1.80
  -4  -5 -14   34.80    1.40
   4   5  14   31.10    2.10
  -5  -5 -14   12.10    0.80
   5   5  14   12.70    1.50
  -6  -5 -14    5.90    0.70
   6   5  14    7.40    1.40
  -7  -5 -14    1.80    0.40
   7   5  14    3.10    1.10
   8   5  14    6.30    1.50
   0  -6 -14    4.90    0.80
   0   6  14   10.20    2.30
  -1  -6 -14    0.70    0.30
   1   6  14    2.30    0.80
  -2  -6 -14    0.00    0.20
  -2  -6 -14    0.10    0.30
   2   6  14    1.70    0.70
  -3  -6 -14    1.00    0.30
   3   6  14    2.10    0.70
  -4  -6 -14    0.30    0.30
   4   6  14    0.90    0.60
  -5  -6 -14    0.30    0.30
   5   6  14    0.60    0.70
  -6  -6 -14    0.70    0.30
   6   6  14    1.70    0.80
   7   6  14    0.70    0.80
  -1  -7 -14    2.00    0.50
   1   7  14    4.50    1.20
  -2  -7 -14    1.20    0.40
  -2  -7 -14    1.30    0.30
   2   7  14    2.70    0.70
  -3  -7 -14    1.00    0.30
   3   7  14    2.70    0.80
  -4  -7 -14    2.50    0.50
   4   7  14    3.80    1.00
  -5  -7 -14    4.90    0.70
   5   7  14    4.90    1.10
  -6  -7 -14    5.00    0.80
   6   7  14    5.20    1.20
  -2  -8 -14    0.30    0.30
  -3  -8 -14   34.50    1.40
   3   8  14   34.80    3.20
  -4  -8 -14    5.20    0.70
   4   8  14    4.10    1.10
  -5  -8 -14   21.90    1.40
  -3  -9 -14    0.30    0.30
  -4   5 -15    1.30    0.70
   0   4 -15    7.80    0.80
  -1   4 -15    2.10    0.50
  -2   4 -15   26.80    1.50
  -2   4 -15   28.20    1.40
  -3   4 -15    9.10    0.90
  -4   4 -15    4.10    0.60
   0   3 -15    1.00    0.40
  -1   3 -15    1.70    0.40
  -1   3 -15    1.90    0.60
  -2   3 -15    3.00    0.50
  -2   3 -15    2.60    0.60
   2  -3  15    2.90    0.70
  -3   3 -15    0.10    0.30
  -3   3 -15    0.00    0.20
   3  -3  15    0.40    0.30
  -4   3 -15    1.50    0.50
  -4   3 -15    1.40    0.40
   4  -3  15    3.00    0.80
  -1   2 -15    0.00    0.30
  -1   2 -15    0.10    0.20
   1  -2  15    0.20    0.30
  -2   2 -15    0.60    0.30
  -2   2 -15    1.10    0.40
   2  -2  15    0.90    0.40
  -3   2 -15   -0.20    0.30
  -3   2 -15   -0.50    0.30
   3  -2  15    0.80    0.40
  -4   2 -15    3.20    0.60
  -4   2 -15    1.80    0.40
   4  -2  15    1.70    0.50
  -5   2 -15    0.00    0.20
   5  -2  15    0.30    0.40
  -1   1 -15    7.00    0.90
  -1   1 -15    5.70    0.70
   1  -1  15    7.00    0.90
  -2   1 -15    1.90    0.50
  -2   1 -15    1.20    0.40
   2  -1  15    2.10    0.50
  -3   1 -15    3.10    0.50
  -3   1 -15    4.30    0.70
   3  -1  15    4.40    0.70
  -4   1 -15    4.90    0.70
  -4   1 -15    5.20    0.90
   4  -1  15    5.10    0.80
  -5   1 -15    3.40    0.60
   5  -1  15    2.10    0.50
   0   0 -15    2.40    0.70
   0   0  15    2.70    0.70
  -1   0 -15   20.40    1.10
  -1   0 -15   20.90    1.30
   1   0  15   19.50    1.30
  -2   0 -15    0.30    0.30
  -2   0 -15    0.10    0.30
   2   0  15    0.10    0.30
  -3   0 -15   38.00    1.50
  -3   0 -15   34.40    1.50
   3   0  15   35.80    1.60
  -4   0 -15    0.20    0.30
   4   0  15   -0.20    0.20
  -5   0 -15   38.90    1.50
   5   0  15   35.90    1.70
  -6   0 -15    3.50    0.80
   6   0  15    3.10    0.60
   0  -1 -15    9.60    1.10
   0   1  15    7.60    1.00
  -1  -1 -15    1.60    0.40
  -1  -1 -15    1.50    0.40
   1   1  15    2.60    0.60
  -2  -1 -15    1.70    0.50
  -2  -1 -15    1.40    0.40
   2   1  15    1.80    0.50
  -3  -1 -15    0.00    0.30
  -3  -1 -15    0.30    0.30
   3   1  15    0.40    0.30
  -4  -1 -15    6.80    0.80
   4   1  15    5.90    0.80
  -5  -1 -15   12.60    0.90
   5   1  15   12.60    1.00
  -6  -1 -15    3.20    0.60
   6   1  15    4.40    0.70
   0  -2 -15   10.70    1.50
   0   2  15    9.60    1.00
  -1  -2 -15   13.10    1.00
   1   2  15   11.80    1.00
  -2  -2 -15    0.10    0.30
  -2  -2 -15    0.10    0.30
   2   2  15    0.50    0.30
  -3  -2 -15    1.50    0.50
  -3  -2 -15    1.40    0.40
   3   2  15    1.90    0.50
  -4  -2 -15    0.80    0.30
   4   2  15    0.90    0.40
  -5  -2 -15    1.10    0.40
   5   2  15    1.50    0.40
  -6  -2 -15   22.30    1.20
   6   2  15   23.90    1.30
   7   2  15   11.70    1.00
   0   3  15    9.90    0.90
  -2  -3 -15    6.70    0.80
  -2  -3 -15    5.40    0.60
   2   3  15    7.30    0.80
  -3  -3 -15    0.00    0.20
  -3  -3 -15    0.10    0.20
   3   3  15    0.30    0.30
  -4  -3 -15   14.00    0.90
   4   3  15   18.00    1.40
   4   3  15   14.80    1.00
  -5  -3 -15   18.20    1.10
   5   3  15   21.20    1.20
  -6  -3 -15   -0.20    0.20
   0   4  15   15.10    1.10
  -1  -4 -15   -0.30    0.30
   1   4  15    0.80    0.40
  -2  -4 -15    3.60    0.60
  -2  -4 -15    2.90    0.50
   2   4  15    3.60    0.60
  -3  -4 -15    4.70    0.60
  -3  -4 -15    5.50    0.90
   3   4  15    6.90    0.70
  -4  -4 -15    7.50    0.80
   4   4  15    8.80    0.80
   4   4  15   12.00    1.20
  -5  -4 -15    4.70    0.70
   5   4  15    6.60    0.60
   5   4  15    8.60    1.10
   6   4  15   14.60    1.40
  -1  -5 -15    9.90    1.10
  -3  -5 -15   36.80    1.50
   3   5  15   44.70    2.50
  -4  -5 -15    6.30    0.70
  -5  -5 -15   -0.20    0.30
  -2  -6 -15    0.10    0.30
  -3  -6 -15   18.90    1.00
   3   6  15   23.00    1.80
  -4  -6 -15   17.30    1.00
   4   6  15   21.00    1.70
   5   6  15   16.30    1.60
  -2  -7 -15   18.70    1.40
  -3  -7 -15    6.50    0.70
  -1   1 -16    2.90    0.70
  -3   1 -16    0.50    0.30
  -2   0 -16    3.20    0.50
  -3   0 -16    0.70    0.40
  -3   0 -16   -0.30    0.20
  -2  -1 -16   12.40    0.90
  -2  -1 -16   12.80    1.20
  -3  -1 -16    3.50    0.60
  -3  -1 -16    2.40    0.50
  -2  -2 -16    6.00    1.10
  -2  -2 -16    6.70    0.70
  -3  -2 -16    0.00    0.30
  -3  -2 -16    0.00    0.30
   3   2  16    0.30    0.40
   4   2  16   18.60    1.20
   5   2  16    1.50    0.70
  -2  -3 -16    0.30    0.30
  -3  -3 -16   14.60    1.00
   3   3  16   14.40    1.00
   4   3  16   10.80    0.90
   5   3  16   16.20    1.10
   0   0   0    0.00    0.00
_computing_structure_solution     'SHELXT 2014/5 (Sheldrick, 2014)'
;
_shelx_hkl_checksum              34689
_shelx_res_file
;
TITL sad_a.res in P-1
    sad_a.res
    created by SHELXL-2016/6 at 20:37:45 on 02-Feb-2017
REM Old TITL sad in P-1
REM SHELXT solution in P-1
REM R1 0.114, Rweak 0.005, Alpha 0.031, Orientation as input
REM Formula found by SHELXT: C2 N O2 Cl2
CELL 0.71073 7.4005 10.4272 10.5704 86.076 72.382 81.325
ZERR 2 0.0008 0.0011 0.0011 0.002 0.002 0.002
LATT 1
SFAC C H Cl N O
UNIT 36 26 4 2 4
L.S. 10
PLAN  20
TEMP -153.15
BOND $H
LIST 6
fmap 2
ACTA
SHEL 50 0.74
REM <olex2.extras>
REM <HklSrc "%.\\sad_a.hkl">
REM </olex2.extras>
WGHT    0.058400    0.338100
FVAR       0.47788
CL12  3    0.735978    0.178941    0.950536    11.00000    0.04223    0.03482 =
         0.02564    0.00003   -0.01803   -0.01046
CL15  3    0.283696    0.004757    0.708180    11.00000    0.03416    0.04214 =
         0.02820    0.00627   -0.01268   -0.01988
O1    5    0.857033    0.636957    0.185483    11.00000    0.03030    0.01960 =
         0.01753    0.00143   -0.00807   -0.00549
O3    5    0.876877    0.585212    0.392925    11.00000    0.04059    0.02610 =
         0.02049    0.00065   -0.01072   -0.00740
N8    4    0.711105    0.355013    0.494064    11.00000    0.02766    0.02189 =
         0.02108    0.00203   -0.00610   -0.00650
H8    2    0.782241    0.412362    0.505970    11.00000    0.04117
C2    1    0.825965    0.560178    0.299258    11.00000    0.02545    0.01949 =
         0.01802    0.00042   -0.00415   -0.00116
C4    1    0.728929    0.454666    0.280978    11.00000    0.02200    0.02048 =
         0.02169    0.00081   -0.00468   -0.00142
C5    1    0.706274    0.473964    0.150314    11.00000    0.02170    0.02135 =
         0.02315    0.00191   -0.00703   -0.00391
AFIX  43
H5    2    0.648261    0.420524    0.109156    11.00000   -1.20000
AFIX   0
C6    1    0.782786    0.582163    0.096993    11.00000    0.01881    0.01894 =
         0.01954   -0.00134   -0.00570   -0.00101
C7    1    0.674554    0.360634    0.375834    11.00000    0.02423    0.02234 =
         0.02236    0.00144   -0.00612   -0.00373
AFIX  43
H7    2    0.608028    0.296280    0.357858    11.00000   -1.20000
AFIX   0
C9    1    0.645931    0.267768    0.599531    11.00000    0.02237    0.01907 =
         0.01913    0.00019   -0.00293    0.00036
C10   1    0.718334    0.264345    0.707514    11.00000    0.02498    0.02118 =
         0.02302   -0.00080   -0.00592   -0.00438
AFIX  43
H10   2    0.810977    0.318045    0.708104    11.00000   -1.20000
AFIX   0
C11   1    0.652021    0.180792    0.813959    11.00000    0.02499    0.02173 =
         0.01784   -0.00167   -0.00705   -0.00136
C13   1    0.519782    0.098281    0.816287    11.00000    0.02362    0.02201 =
         0.01684    0.00136   -0.00493   -0.00198
AFIX  43
H13   2    0.477960    0.040465    0.889271    11.00000   -1.20000
AFIX   0
C14   1    0.452061    0.104459    0.707169    11.00000    0.02020    0.02431 =
         0.02036   -0.00004   -0.00528   -0.00423
C16   1    0.510595    0.188052    0.599189    11.00000    0.02200    0.02639 =
         0.01784    0.00124   -0.00676   -0.00149
AFIX  43
H16   2    0.459533    0.190915    0.526541    11.00000   -1.20000
AFIX   0
C17   1    0.801319    0.650334   -0.029945    11.00000    0.01738    0.01912 =
         0.01908   -0.00012   -0.00432   -0.00026
C18   1    0.861621    0.773168   -0.052823    11.00000    0.02007    0.02055 =
         0.01938   -0.00120   -0.00666   -0.00229
AFIX  43
H18   2    0.891237    0.813026    0.015255    11.00000   -1.20000
AFIX   0
C19   1    0.878210    0.836802   -0.174749    11.00000    0.02065    0.01895 =
         0.02193    0.00109   -0.00624   -0.00242
AFIX  43
H19   2    0.918467    0.920294   -0.188607    11.00000   -1.20000
AFIX   0
C20   1    0.837118    0.780979   -0.277507    11.00000    0.01930    0.02350 =
         0.01959    0.00040   -0.00607    0.00226
C21   1    0.776341    0.658772   -0.253873    11.00000    0.02538    0.02485 =
         0.02296   -0.00418   -0.01083   -0.00088
AFIX  43
H21   2    0.746755    0.619139   -0.322100    11.00000   -1.20000
AFIX   0
C22   1    0.758419    0.594136   -0.132086    11.00000    0.02263    0.02015 =
         0.02489   -0.00217   -0.00842   -0.00304
AFIX  43
H22   2    0.716687    0.511095   -0.118071    11.00000   -1.20000
AFIX   0
C23   1    0.860264    0.851013   -0.410768    11.00000    0.03172    0.02897 =
         0.01976    0.00096   -0.00831    0.00200
AFIX 137
H23A  2    0.748654    0.916703   -0.405238    11.00000   -1.50000
H23B  2    0.870926    0.788438   -0.478604    11.00000   -1.50000
H23C  2    0.976178    0.893178   -0.434616    11.00000   -1.50000
AFIX   0
HKLF 4
REM  sad_a.res in P-1
REM R1 =  0.0360 for    3576 Fo > 4sig(Fo)  and  0.0398 for all    3956 data
REM    213 parameters refined using      0 restraints
END
WGHT      0.0584      0.3370
REM Highest difference peak  0.649,  deepest hole -0.255,  1-sigma level  0.059
Q1    1   0.2529 -0.0543  0.7511  11.00000  0.05    0.65
Q2    1   0.7703  0.4976  0.3016  11.00000  0.05    0.50
Q3    1   0.8272  0.7057 -0.0433  11.00000  0.05    0.45
Q4    1   0.6697  0.2639  0.6594  11.00000  0.05    0.42
Q5    1   0.8081  0.7223 -0.2628  11.00000  0.05    0.41
Q6    1   0.5983  0.2166  0.5790  11.00000  0.05    0.41
Q7    1   0.7236  0.5359  0.1228  11.00000  0.05    0.40
Q8    1   0.6827  0.2165  0.7553  11.00000  0.05    0.40
Q9    1   0.8655  0.7998 -0.1185  11.00000  0.05    0.39
Q10   1   0.9372  0.6393  0.3918  11.00000  0.05    0.38
Q11   1   0.7820  0.6200  0.0348  11.00000  0.05    0.38
Q12   1   0.5932  0.1451  0.8079  11.00000  0.05    0.38
Q13   1   0.7792  0.6348 -0.1927  11.00000  0.05    0.37
Q14   1   0.7100  0.4615  0.2163  11.00000  0.05    0.36
Q15   1   0.4769  0.1505  0.6589  11.00000  0.05    0.35
Q16   1   0.7727  0.6224 -0.0815  11.00000  0.05    0.35
Q17   1   0.4895  0.0983  0.7585  11.00000  0.05    0.33
Q18   1   0.7049  0.4238  0.3242  11.00000  0.05    0.32
Q19   1   0.3959  0.0611  0.7014  11.00000  0.05    0.31
Q20   1   0.8645  0.8084 -0.2275  11.00000  0.05    0.30
;
_shelx_res_checksum              68846
loop_
_space_group_symop_operation_xyz
'x, y, z'
'-x, -y, -z'
loop_
_atom_site_type_symbol
_atom_site_label
_atom_site_fract_x
_atom_site_fract_y
_atom_site_fract_z
_atom_site_U_iso_or_equiv
_atom_site_adp_type
_atom_site_calc_flag
_atom_site_occupancy
Cl Cl12 0.73598(6) 0.17894(4) 0.95054(4) 0.03192(11) Uani d 1
Cl Cl15 0.28370(5) 0.00476(4) 0.70818(4) 0.03283(11) Uani d 1
O O1 0.85703(14) 0.63696(9) 0.18548(9) 0.0221(2) Uani d 1
O O3 0.87688(16) 0.58521(10) 0.39293(10) 0.0284(2) Uani d 1
N N8 0.71111(18) 0.35501(11) 0.49406(12) 0.0236(2) Uani d 1
H H8 0.782(3) 0.412(2) 0.506(2) 0.041(5) Uiso d 1
C C2 0.8260(2) 0.56018(12) 0.29926(13) 0.0218(3) Uani d 1
C C4 0.72893(19) 0.45467(13) 0.28098(13) 0.0220(3) Uani d 1
C C5 0.70627(19) 0.47396(13) 0.15031(13) 0.0220(3) Uani d 1
H H5 0.648261 0.420524 0.109156 0.026 Uiso calc 1
C C6 0.78279(18) 0.58216(12) 0.09699(13) 0.0192(2) Uani d 1
C C7 0.6746(2) 0.36063(13) 0.37583(13) 0.0232(3) Uani d 1
H H7 0.608028 0.296280 0.357858 0.028 Uiso calc 1
C C9 0.64593(19) 0.26777(12) 0.59953(13) 0.0213(3) Uani d 1
C C10 0.7183(2) 0.26434(13) 0.70751(13) 0.0232(3) Uani d 1
H H10 0.810977 0.318045 0.708104 0.028 Uiso calc 1
C C11 0.65202(19) 0.18079(13) 0.81396(13) 0.0215(3) Uani d 1
C C13 0.51978(18) 0.09828(12) 0.81629(12) 0.0213(3) Uani d 1
H H13 0.477960 0.040465 0.889271 0.026 Uiso calc 1
C C14 0.45206(19) 0.10446(13) 0.70717(13) 0.0217(3) Uani d 1
C C16 0.51059(19) 0.18805(13) 0.59919(13) 0.0222(3) Uani d 1
H H16 0.459533 0.190915 0.526541 0.027 Uiso calc 1
C C17 0.80132(18) 0.65033(12) -0.02995(12) 0.0190(2) Uani d 1
C C18 0.86162(18) 0.77317(12) -0.05282(13) 0.0198(2) Uani d 1
H H18 0.891237 0.813026 0.015255 0.024 Uiso calc 1
C C19 0.87821(18) 0.83680(12) -0.17475(13) 0.0206(2) Uani d 1
H H19 0.918467 0.920294 -0.188607 0.025 Uiso calc 1
C C20 0.83712(19) 0.78098(13) -0.27751(13) 0.0213(3) Uani d 1
C C21 0.7763(2) 0.65877(13) -0.25387(14) 0.0237(3) Uani d 1
H H21 0.746755 0.619139 -0.322100 0.028 Uiso calc 1
C C22 0.75842(19) 0.59414(13) -0.13209(13) 0.0222(3) Uani d 1
H H22 0.716687 0.511095 -0.118071 0.027 Uiso calc 1
C C23 0.8603(2) 0.85101(14) -0.41077(14) 0.0274(3) Uani d 1
H H23A 0.748654 0.916703 -0.405238 0.041 Uiso calc 1
H H23B 0.870926 0.788438 -0.478604 0.041 Uiso calc 1
H H23C 0.976178 0.893178 -0.434616 0.041 Uiso calc 1
loop_
_atom_site_aniso_label
_atom_site_aniso_U_11
_atom_site_aniso_U_22
_atom_site_aniso_U_33
_atom_site_aniso_U_12
_atom_site_aniso_U_13
_atom_site_aniso_U_23
Cl12 0.0422(2) 0.0348(2) 0.02564(18) -0.01046(15) -0.01803(15) 0.00003(14)
Cl15 0.0342(2) 0.0421(2) 0.02820(19) -0.01988(16) -0.01268(15) 0.00627(14)
O1 0.0303(5) 0.0196(4) 0.0175(4) -0.0055(4) -0.0081(4) 0.0014(3)
O3 0.0406(6) 0.0261(5) 0.0205(5) -0.0074(4) -0.0107(4) 0.0007(4)
N8 0.0277(6) 0.0219(5) 0.0211(5) -0.0065(4) -0.0061(5) 0.0020(4)
C2 0.0254(6) 0.0195(6) 0.0180(6) -0.0012(5) -0.0041(5) 0.0004(4)
C4 0.0220(6) 0.0205(6) 0.0217(6) -0.0014(5) -0.0047(5) 0.0008(5)
C5 0.0217(6) 0.0214(6) 0.0232(6) -0.0039(5) -0.0070(5) 0.0019(5)
C6 0.0188(6) 0.0189(6) 0.0195(6) -0.0010(4) -0.0057(5) -0.0013(4)
C7 0.0242(6) 0.0223(6) 0.0224(6) -0.0037(5) -0.0061(5) 0.0014(5)
C9 0.0224(6) 0.0191(6) 0.0191(6) 0.0004(5) -0.0029(5) 0.0002(4)
C10 0.0250(6) 0.0212(6) 0.0230(6) -0.0044(5) -0.0059(5) -0.0008(5)
C11 0.0250(6) 0.0217(6) 0.0178(6) -0.0014(5) -0.0070(5) -0.0017(5)
C13 0.0236(6) 0.0220(6) 0.0168(6) -0.0020(5) -0.0049(5) 0.0014(5)
C14 0.0202(6) 0.0243(6) 0.0204(6) -0.0042(5) -0.0053(5) 0.0000(5)
C16 0.0220(6) 0.0264(6) 0.0178(6) -0.0015(5) -0.0068(5) 0.0012(5)
C17 0.0174(5) 0.0191(6) 0.0191(6) -0.0003(4) -0.0043(4) -0.0001(4)
C18 0.0201(6) 0.0206(6) 0.0194(6) -0.0023(5) -0.0067(5) -0.0012(4)
C19 0.0207(6) 0.0190(6) 0.0219(6) -0.0024(5) -0.0062(5) 0.0011(5)
C20 0.0193(6) 0.0235(6) 0.0196(6) 0.0023(5) -0.0061(5) 0.0004(5)
C21 0.0254(6) 0.0248(6) 0.0230(6) -0.0009(5) -0.0108(5) -0.0042(5)
C22 0.0226(6) 0.0201(6) 0.0249(6) -0.0030(5) -0.0084(5) -0.0022(5)
C23 0.0317(7) 0.0290(7) 0.0198(6) 0.0020(6) -0.0083(5) 0.0010(5)
loop_
_atom_type_symbol
_atom_type_description
_atom_type_scat_dispersion_real
_atom_type_scat_dispersion_imag
_atom_type_scat_source
C C 0.0033 0.0016 'International Tables Vol C Tables 4.2.6.8 and 6.1.1.4'
H H 0.0000 0.0000 'International Tables Vol C Tables 4.2.6.8 and 6.1.1.4'
Cl Cl 0.1484 0.1585 'International Tables Vol C Tables 4.2.6.8 and 6.1.1.4'
N N 0.0061 0.0033 'International Tables Vol C Tables 4.2.6.8 and 6.1.1.4'
O O 0.0106 0.0060 'International Tables Vol C Tables 4.2.6.8 and 6.1.1.4'
loop_
_geom_angle_atom_site_label_1
_geom_angle_atom_site_label_2
_geom_angle_atom_site_label_3
_geom_angle
C2 O1 C6 107.58(10)
C7 N8 H8 116.8(14)
C7 N8 C9 125.78(12)
C9 N8 H8 117.4(14)
O1 C2 C4 107.75(11)
O3 C2 O1 121.51(12)
O3 C2 C4 130.74(12)
C5 C4 C2 106.19(11)
C7 C4 C2 123.25(12)
C7 C4 C5 130.56(13)
C4 C5 H5 126.4
C6 C5 C4 107.27(12)
C6 C5 H5 126.4
O1 C6 C17 115.91(11)
C5 C6 O1 111.20(11)
C5 C6 C17 132.89(12)
N8 C7 C4 123.02(13)
N8 C7 H7 118.5
C4 C7 H7 118.5
C10 C9 N8 117.85(12)
C16 C9 N8 121.80(12)
C16 C9 C10 120.34(12)
C9 C10 H10 120.7
C11 C10 C9 118.57(13)
C11 C10 H10 120.7
C10 C11 Cl12 118.97(11)
C10 C11 C13 122.77(12)
C13 C11 Cl12 118.25(10)
C11 C13 H13 121.6
C14 C13 C11 116.80(12)
C14 C13 H13 121.6
C13 C14 Cl15 117.97(10)
C13 C14 C16 122.82(12)
C16 C14 Cl15 119.19(10)
C9 C16 H16 120.7
C14 C16 C9 118.67(12)
C14 C16 H16 120.7
C18 C17 C6 121.04(12)
C22 C17 C6 120.34(12)
C22 C17 C18 118.62(12)
C17 C18 H18 119.9
C19 C18 C17 120.17(12)
C19 C18 H18 119.9
C18 C19 H19 119.2
C18 C19 C20 121.57(12)
C20 C19 H19 119.2
C19 C20 C23 120.65(12)
C21 C20 C19 117.97(12)
C21 C20 C23 121.37(12)
C20 C21 H21 119.5
C22 C21 C20 121.07(12)
C22 C21 H21 119.5
C17 C22 H22 119.7
C21 C22 C17 120.60(12)
C21 C22 H22 119.7
C20 C23 H23A 109.5
C20 C23 H23B 109.5
C20 C23 H23C 109.5
H23A C23 H23B 109.5
H23A C23 H23C 109.5
H23B C23 H23C 109.5
loop_
_geom_bond_atom_site_label_1
_geom_bond_atom_site_label_2
_geom_bond_distance
Cl12 C11 1.7338(14)
Cl15 C14 1.7362(14)
O1 C2 1.3771(15)
O1 C6 1.4079(15)
O3 C2 1.2171(17)
N8 H8 0.89(2)
N8 C7 1.3521(18)
N8 C9 1.4040(17)
C2 C4 1.4543(19)
C4 C5 1.4381(18)
C4 C7 1.3671(18)
C5 H5 0.9500
C5 C6 1.3504(18)
C6 C17 1.4533(17)
C7 H7 0.9500
C9 C10 1.3965(19)
C9 C16 1.3956(19)
C10 H10 0.9500
C10 C11 1.3880(18)
C11 C13 1.3911(19)
C13 H13 0.9500
C13 C14 1.3841(18)
C14 C16 1.3887(18)
C16 H16 0.9500
C17 C18 1.4010(17)
C17 C22 1.4000(18)
C18 H18 0.9500
C18 C19 1.3886(17)
C19 H19 0.9500
C19 C20 1.3968(18)
C20 C21 1.3964(19)
C20 C23 1.5158(18)
C21 H21 0.9500
C21 C22 1.3907(19)
C22 H22 0.9500
C23 H23A 0.9800
C23 H23B 0.9800
C23 H23C 0.9800
loop_
_geom_hbond_atom_site_label_D
_geom_hbond_atom_site_label_H
_geom_hbond_atom_site_label_A
_geom_hbond_site_symmetry_D
_geom_hbond_site_symmetry_H
_geom_hbond_site_symmetry_A
_geom_hbond_distance_DH
_geom_hbond_distance_HA
_geom_hbond_distance_DA
_geom_hbond_angle_DHA
_geom_hbond_publ_flag
N8 H8 O3 1_555 1_555 1_555 0.89(2) 2.18(2) 2.8553(16) 132.2(19) yes

_cod_database_fobs_code 1549871
