#------------------------------------------------------------------------------
#$Date: 2018-04-30 20:04:58 +0300 (Mon, 30 Apr 2018) $
#$Revision: 207577 $
#$URL: file:///home/coder/svn-repositories/cod/cif/1/54/93/1549346.cif $
#------------------------------------------------------------------------------
#
# This file is available in the Crystallography Open Database (COD),
# http://www.crystallography.net/. The original data for this entry
# were provided by IUCr Journals, http://journals.iucr.org/.
#
# The file may be used within the scientific community so long as
# proper attribution is given to the journal article from which the
# data were obtained.
#
data_1549346
loop_
_publ_author_name
'El Foujji, Laila'
'Sebhaoui, Jihad'
'El Bakri, Youness'
'El Ghayati, L'houssaine'
'Essassi, El Mokhtar'
'Mague, Joel T.'
_publ_section_title
;
 (3<i>R</i>,4<i>Z</i>)-1,3-Diethyl-4-(2-oxopropylidene)-2,3,4,5-tetrahydro-1<i>H</i>-1,5-benzodiazepin-2-one
;
_journal_coeditor_code           HB4224
_journal_issue                   4
_journal_name_full               IUCrData
_journal_page_first              x180515
_journal_paper_doi               10.1107/S2414314618005151
_journal_volume                  3
_journal_year                    2018
_chemical_formula_iupac          'C16 H20 N2 O2'
_chemical_formula_moiety         'C16 H20 N2 O2'
_chemical_formula_sum            'C16 H20 N2 O2'
_chemical_formula_weight         272.34
_chemical_name_systematic
(3<i>R</i>,4<i>Z</i>)-1,3-Diethyl-4-(2-oxopropylidene)-2,3,4,5-tetrahydro-1<i>H</i>-1,5-benzodiazepin-2-one
_space_group_crystal_system      triclinic
_space_group_IT_number           2
_space_group_name_Hall           '-P 1'
_space_group_name_H-M_alt        'P -1'
_symmetry_space_group_name_Hall  '-P 1'
_symmetry_space_group_name_H-M   'P -1'
_atom_sites_solution_hydrogens   difmap
_atom_sites_solution_primary     direct
_atom_sites_solution_secondary   difmap
_audit_creation_method           SHELXL-2018/1
_cell_angle_alpha                98.4810(10)
_cell_angle_beta                 96.4120(10)
_cell_angle_gamma                106.7720(10)
_cell_formula_units_Z            2
_cell_length_a                   8.8546(2)
_cell_length_b                   8.9841(2)
_cell_length_c                   9.5523(2)
_cell_measurement_reflns_used    4659
_cell_measurement_temperature    150(2)
_cell_measurement_theta_max      72.3567
_cell_measurement_theta_min      5.2364
_cell_volume                     710.00(3)
_computing_cell_refinement
;
<i>SAINT</i> (Bruker, 2016)
;
_computing_data_collection
;
<i>APEX3</i> (Bruker, 2016)
;
_computing_data_reduction
;
<i>SAINT</i>  (Bruker, 2016)
;
_computing_molecular_graphics
;
<i>DIAMOND</i> (Brandenburg & Putz, 2012)
;
_computing_publication_material
;
<i>SHELXTL</i> (Sheldrick, 2008)
;
_computing_structure_refinement
;
<i>SHELXL2018</i> (Sheldrick, 2015<i>b</i>)
;
_computing_structure_solution
;
<i>SHELXT</i> (Sheldrick, 2015<i>a</i>)
;
_diffrn_ambient_temperature      150(2)
_diffrn_detector_area_resol_mean 10.4167
_diffrn_measured_fraction_theta_full 0.956
_diffrn_measured_fraction_theta_max 0.933
_diffrn_measurement_device_type  'Bruker D8 VENTURE PHOTON 100 CMOS'
_diffrn_measurement_method       '\w scans'
_diffrn_radiation_monochromator  mirror
_diffrn_radiation_type           CuK\a
_diffrn_radiation_wavelength     1.54178
_diffrn_reflns_av_R_equivalents  0.0231
_diffrn_reflns_limit_h_max       10
_diffrn_reflns_limit_h_min       -10
_diffrn_reflns_limit_k_max       10
_diffrn_reflns_limit_k_min       -11
_diffrn_reflns_limit_l_max       11
_diffrn_reflns_limit_l_min       -11
_diffrn_reflns_number            5416
_diffrn_reflns_theta_full        68.000
_diffrn_reflns_theta_max         72.350
_diffrn_reflns_theta_min         5.236
_exptl_absorpt_coefficient_mu    0.678
_exptl_absorpt_correction_T_max  0.96
_exptl_absorpt_correction_T_min  0.88
_exptl_absorpt_correction_type   multi-scan
_exptl_absorpt_process_details
;
(<i>SADABS</i>; Krause <i>et al.</i>, 2015)
;
_exptl_crystal_colour            colourless
_exptl_crystal_density_diffrn    1.274
_exptl_crystal_density_method    'not measured'
_exptl_crystal_description       plate
_exptl_crystal_F_000             292
_exptl_crystal_size_max          0.307
_exptl_crystal_size_mid          0.148
_exptl_crystal_size_min          0.066
_refine_diff_density_max         0.209
_refine_diff_density_min         -0.216
_refine_ls_extinction_coef       0.0107(11)
_refine_ls_extinction_expression Fc^*^=kFc[1+0.001xFc^2^\l^3^/sin(2\q)]^-1/4^
_refine_ls_extinction_method
;
<i>SHELXL2018</i> (Sheldrick, 2015<i>b</i>)
;
_refine_ls_goodness_of_fit_ref   1.045
_refine_ls_hydrogen_treatment    refall
_refine_ls_matrix_type           full
_refine_ls_number_parameters     262
_refine_ls_number_reflns         2616
_refine_ls_number_restraints     0
_refine_ls_restrained_S_all      1.045
_refine_ls_R_factor_all          0.0404
_refine_ls_R_factor_gt           0.0369
_refine_ls_shift/su_max          0.000
_refine_ls_shift/su_mean         0.000
_refine_ls_structure_factor_coef Fsqd
_refine_ls_weighting_details
'w=1/[\s^2^(Fo^2^)+(0.0377P)^2^+0.2722P] where P=(Fo^2^+2Fc^2^)/3'
_refine_ls_weighting_scheme      calc
_refine_ls_wR_factor_gt          0.0888
_refine_ls_wR_factor_ref         0.0914
_reflns_number_gt                2387
_reflns_number_total             2616
_reflns_threshold_expression     'I > 2\s(I)'
_cod_data_source_file            hb4224sup1.cif
_cod_data_source_block           I
_cod_database_code               1549346
_shelx_space_group_comment
;
The symmetry employed for this shelxl refinement is uniquely defined
by the following loop, which should always be used as a source of
symmetry information in preference to the above space-group names.
They are only intended as comments.
;
_shelx_estimated_absorpt_t_min   0.819
_shelx_estimated_absorpt_t_max   0.957
_shelx_hkl_file
;
  -1   0   0   61.09    1.90
   1   0   0   64.89    1.90
  -2   0   0 1782.12   54.49
   2   0   0 1957.20   54.49
  -3   0   0  555.84   16.80
   3   0   0  594.44   16.80
  -4   0   0    9.40    0.70
   4   0   0    8.10    1.00
  -5   0   0   79.49    3.00
   6   0   0    2.30    0.80
   6   0   0    3.20    0.80
   6   0   0    2.10    0.70
   7   0   0  351.86   10.90
   7   0   0  362.56   10.90
   7   0   0  353.66   10.90
  -8   0   0   73.29    2.70
   8   0   0   72.39    2.80
   8   0   0   76.69    2.90
   8   0   0   73.99    2.80
  -9   0   0   54.39    2.10
   9   0   0   56.19    2.20
   9   0   0   54.29    2.10
 -10   0   0    5.90    0.60
  10   0   0    6.60    0.60
  10  -1   0    2.50    0.50
 -10   1   0    2.60    0.60
   9  -1   0  104.59    3.60
   9  -1   0  101.19    3.50
  -9   1   0  105.19    3.50
   8  -1   0  131.19    4.50
   8  -1   0  127.99    4.30
   8  -1   0  129.29    4.40
  -8   1   0  126.99    4.40
   7  -1   0  279.67    8.50
   7  -1   0  277.57    8.50
   7  -1   0  270.47    8.60
   6  -1   0    0.80    0.40
   6  -1   0    2.00    0.70
   6  -1   0    1.00    0.50
   5  -1   0    9.50    1.40
  -5   1   0    8.60    1.20
   4  -1   0  264.17    7.80
  -4   1   0  246.78    7.80
   3  -1   0  177.88    5.30
  -3   1   0  169.38    5.30
   2  -1   0   80.69    2.40
  -2   1   0   75.89    2.40
   1  -1   0 1344.87   38.40
  -1   1   0 1267.87   38.10
   0  -1   0   73.09    2.10
   0   1   0   69.29    2.10
  -3  -1   0  626.04   18.10
   5   1   0    3.30    1.10
   5   1   0    1.50    0.50
   5   1   0    0.60    0.50
   6   1   0   15.10    1.10
   6   1   0   16.00    1.10
   6   1   0   18.10    1.30
  -7  -1   0  340.97   10.80
   7   1   0  353.36   10.90
   7   1   0  370.46   11.10
   7   1   0  355.86   11.00
  -8  -1   0  125.69    4.50
   8   1   0  134.09    4.40
   8   1   0  134.19    4.50
   9   1   0  114.29    3.80
   9   1   0  113.79    3.80
  10  -2   0   87.19    3.30
  10  -2   0   93.99    3.20
 -10   2   0   93.99    3.10
   9  -2   0   12.10    1.20
   9  -2   0   15.40    1.00
  -9   2   0   15.30    1.10
   8  -2   0   61.69    2.40
   8  -2   0   61.59    2.50
   8  -2   0   60.29    2.60
   7  -2   0   41.70    2.20
   7  -2   0   51.49    2.00
   7  -2   0   49.90    2.30
   6  -2   0    1.00    0.60
   6  -2   0    1.90    0.60
   6  -2   0    1.20    0.40
  -5   2   0   58.09    2.40
   4  -2   0  498.05   14.70
  -4   2   0  488.85   14.70
   3  -2   0  312.57    9.10
  -3   2   0  294.87    9.10
   2  -2   0  182.88    5.30
  -2   2   0  170.48    5.40
   1  -2   0  126.39    3.80
  -1   2   0  125.49    3.80
   0  -2   0  795.52   22.60
   0   2   0  756.62   22.60
   5   2   0   36.40    1.70
   5   2   0   33.30    1.80
   5   2   0   35.60    1.60
   6   2   0   36.40    1.90
   6   2   0   36.20    1.70
   6   2   0   38.20    1.70
   7   2   0   43.30    2.10
   7   2   0   42.60    1.90
   8   2   0   33.00    1.60
   8   2   0   32.20    1.50
  -9  -2   0   62.39    2.20
   9   2   0   61.69    2.30
   9   2   0   62.49    2.30
  10  -3   0    5.50    0.60
 -10   3   0    5.10    0.70
   9  -3   0   88.29    3.10
   9  -3   0   88.39    3.20
  -9   3   0   92.09    3.20
   8  -3   0    8.60    1.10
   8  -3   0   11.50    0.90
   8  -3   0    8.10    1.10
   7  -3   0   68.59    2.50
   7  -3   0   68.79    2.60
   6  -3   0  133.09    4.50
   6  -3   0  136.89    4.40
   6  -3   0  138.49    4.40
  -5   3   0   72.19    3.00
   4  -3   0  326.07   10.10
  -4   3   0  320.77    9.90
   3  -3   0   72.39    2.60
  -3   3   0   79.19    2.70
   2  -3   0   13.20    0.70
  -2   3   0   12.60    0.70
   1  -3   0   76.29    2.50
  -1   3   0   79.49    2.50
   0  -3   0   22.40    0.80
   0   3   0   22.20    0.90
   2   3   0  781.42   22.80
   3   3   0   64.59    2.30
   4   3   0    0.80    0.70
   4   3   0    0.80    0.50
   4   3   0    1.60    0.60
   5   3   0  135.59    4.90
   5   3   0  142.39    4.90
   6   3   0   48.50    2.10
   6   3   0   51.69    2.30
   7   3   0   38.90    1.80
   7   3   0   40.00    1.90
   8   3   0   16.60    1.00
   8   3   0   16.30    1.10
  -9  -3   0    2.30    0.40
   9   3   0    1.90    0.50
  10  -4   0   64.99    2.40
 -10   4   0   66.39    2.30
   9  -4   0   47.10    2.00
   8  -4   0  217.18    6.80
   8  -4   0  212.38    7.00
   7  -4   0    7.00    0.80
   7  -4   0    8.30    1.00
   6  -4   0   85.49    3.00
   6  -4   0   83.79    2.90
   5  -4   0  465.85   13.60
   5  -4   0  450.35   13.60
  -4   4   0   11.40    1.20
   3  -4   0 1429.26   43.30
  -3   4   0 1466.85   43.10
  -3   4   0 1567.14   43.40
   2  -4   0  434.16   13.00
  -2   4   0  432.76   13.00
  -2   4   0  438.46   12.80
   1  -4   0   56.19    2.00
  -1   4   0   56.69    2.10
  -1   4   0   56.59    2.00
   0  -4   0   20.40    0.90
   0   4   0   19.90    1.00
   0   4   0   19.00    0.90
   1   4   0   16.80    0.90
   2   4   0   54.09    2.00
   3   4   0    0.50    0.50
   3   4   0    3.70    1.20
   4   4   0   54.49    2.40
   4   4   0   52.49    2.20
   4   4   0   53.59    2.20
   5   4   0   13.10    1.10
   5   4   0   13.90    1.30
   6   4   0   14.80    1.20
   6   4   0   13.60    1.20
   7   4   0    3.20    0.80
   7   4   0    3.10    0.60
  -8  -4   0    3.70    0.50
   8   4   0    2.80    0.80
   8   4   0    3.00    0.50
  10  -5   0   69.29    2.40
 -10   5   0   69.79    2.40
   9  -5   0   77.59    2.70
   9  -5   0   72.69    2.70
  -9   5   0   74.39    2.70
   8  -5   0    2.00    0.60
   8  -5   0    2.40    0.70
   7  -5   0   25.50    1.30
   7  -5   0   26.00    1.30
   6  -5   0   57.19    2.20
   6  -5   0   56.69    2.10
   5  -5   0    1.10    0.50
   4  -5   0    2.90    0.90
  -4   5   0    2.00    0.60
  -3   5   0  105.99    3.40
  -3   5   0  100.49    3.90
  -2   5   0  141.59    4.50
  -2   5   0  143.59    4.90
   1  -5   0   20.60    1.40
  -1   5   0   22.20    1.10
  -1   5   0   20.10    1.50
   1   5   0   48.20    2.10
   1   5   0   48.60    2.20
   1   5   0   49.99    1.90
   2   5   0   42.40    2.00
   2   5   0   44.30    1.80
   2   5   0   46.70    2.10
   3   5   0    1.90    0.50
   3   5   0    3.00    0.80
   4   5   0   31.40    1.70
   4   5   0   29.90    1.60
   4   5   0   29.70    1.70
   5   5   0   75.59    2.80
   5   5   0   74.99    3.10
  -6  -5   0   17.80    1.10
   6   5   0   19.30    1.20
   6   5   0   16.90    1.10
  -7  -5   0    5.80    0.70
   7   5   0    5.10    0.80
   7   5   0    7.30    0.60
  10  -6   0    4.00    0.50
 -10   6   0    2.80    0.60
   9  -6   0  104.99    3.50
   9  -6   0  105.79    3.50
  -9   6   0  107.69    3.50
   8  -6   0  137.99    4.50
   8  -6   0  144.59    4.50
  -8   6   0  133.39    4.50
   7  -6   0  474.05   14.00
   7  -6   0  474.35   14.10
  -7   6   0  464.05   14.10
   6  -6   0    3.80    0.70
   6  -6   0    5.20    0.70
  -6   6   0    4.00    0.70
   5  -6   0   18.00    1.10
   4  -6   0   33.80    1.50
  -4   6   0   32.50    1.60
  -3   6   0   14.80    0.90
  -3   6   0   14.40    1.10
  -2   6   0   58.69    2.40
  -2   6   0   61.69    2.30
  -1   6   0    3.60    1.10
  -1   6   0    1.10    0.40
  -1   6   0    1.00    0.50
   0   6   0  134.39    4.50
   0   6   0  138.79    4.60
   0   6   0  131.49    4.40
   1   6   0  260.97    8.00
   1   6   0  251.67    8.00
   1   6   0  255.37    8.10
   2   6   0  135.19    4.70
   2   6   0  139.79    4.60
   2   6   0  135.79    4.60
   3   6   0   14.80    1.40
   3   6   0   15.70    1.40
   3   6   0   14.00    1.20
   4   6   0   47.10    2.20
   4   6   0   48.40    2.10
   4   6   0   56.39    3.00
   5   6   0    0.10    0.40
   5   6   0    0.20    0.40
   6   6   0    5.00    0.60
   6   6   0    5.10    0.70
  10  -7   0    9.20    0.60
   9  -7   0   55.39    1.90
   9  -7   0   53.89    1.90
  -9   7   0   52.19    2.30
   8  -7   0    4.50    0.70
   8  -7   0    4.70    0.70
   7  -7   0   13.30    0.90
   7  -7   0   13.20    0.90
   6  -7   0  225.48    7.00
   6  -7   0  231.58    7.10
   5  -7   0   69.49    2.50
   4  -7   0   24.60    1.30
  -4   7   0   28.40    1.50
  -3   7   0   29.40    1.70
  -3   7   0   27.90    1.40
  -2   7   0    5.40    0.80
  -2   7   0    5.00    0.90
  -1   7   0   41.10    1.90
  -1   7   0   39.40    1.90
  -1   7   0   40.80    1.80
   0   7   0  178.08    5.70
   0   7   0  167.58    5.70
   0   7   0  175.18    5.70
   1   7   0  290.77    9.00
   1   7   0  300.07    9.00
   1   7   0  277.47    9.10
   2   7   0   26.80    1.60
   2   7   0   26.40    1.50
   2   7   0   26.20    1.50
   3   7   0   12.50    1.10
   3   7   0   11.30    1.10
   3   7   0   11.90    1.00
   4   7   0    2.40    0.70
   4   7   0    0.10    0.50
   5   7   0    2.80    0.60
   5   7   0    3.00    0.60
   9  -8   0    5.50    0.50
   9  -8   0    4.50    0.90
   8  -8   0   10.90    0.70
   8  -8   0   10.50    0.80
   7  -8   0  125.89    4.00
   7  -8   0  126.39    4.10
   6  -8   0   92.89    3.10
   6  -8   0   90.39    3.10
   5  -8   0   60.39    2.20
   4  -8   0   80.39    2.80
  -4   8   0   79.59    3.00
  -3   8   0   12.40    1.00
  -3   8   0   12.50    1.00
  -2   8   0   24.40    1.40
  -2   8   0   23.60    1.30
  -1   8   0   97.69    3.30
  -1   8   0   88.69    3.40
   0   8   0    9.40    0.90
   0   8   0   11.90    1.10
   0   8   0   11.20    1.00
   1   8   0    0.30    0.40
   1   8   0    0.00    0.50
   1   8   0    0.70    0.50
   2   8   0    1.50    0.70
   2   8   0    0.30    0.40
   2   8   0    0.00    0.40
   3   8   0    1.20    0.60
   3   8   0    0.80    0.40
   3   8   0    2.60    1.00
   4   8   0   27.30    1.20
   4   8   0   29.20    1.20
   8  -9   0    2.20    0.60
   7  -9   0   -0.10    0.30
   7  -9   0   -0.20    0.30
   6  -9   0    4.60    0.60
   6  -9   0    5.00    0.60
   5  -9   0    3.00    0.60
   4  -9   0    0.70    0.40
  -4   9   0    0.20    0.60
  -3   9   0    3.10    0.80
  -2   9   0   10.40    1.10
  -2   9   0   11.90    1.00
  -1   9   0   31.70    1.60
  -1   9   0   33.70    1.50
   0   9   0  232.28    7.20
   0   9   0  238.98    7.50
   1   9   0    3.50    0.60
   1   9   0    2.50    0.80
   2   9   0    7.50    1.00
   2   9   0    9.00    0.70
   7 -10   0   -0.10    0.40
   6 -10   0    1.10    0.30
   6 -10   0    2.50    0.60
   5 -10   0   11.80    0.70
   5 -10   0   12.70    0.80
   4 -10   0   28.70    1.20
  -4  10   0   31.20    1.70
   3 -10   0    0.40    0.30
  -3  10   0   -0.10    0.50
   2 -10   0   31.00    1.30
  -2  10   0   30.10    1.50
   1 -10   0  122.29    3.90
  -1  10   0  123.39    4.10
  -1  10   0  123.39    3.80
   0  10   0    4.40    0.60
   0  10   0    6.20    0.80
   2 -11   1    1.40    0.40
   3 -11   1   49.20    1.60
   4 -11   1    0.50    0.30
   4 -11   1    0.10    0.30
   1  10  -1    8.60    0.60
   0  10  -1    2.80    0.50
   0  10  -1    2.90    0.70
  -1  10  -1   21.90    1.00
  -1  10  -1   21.80    1.20
  -2  10  -1   30.50    1.30
  -2  10  -1   29.60    1.50
   2 -10   1   32.80    1.30
   3 -10   1    1.50    0.40
  -4  10  -1    3.30    1.10
   4 -10   1    5.40    0.60
   5 -10   1   57.09    2.00
   5 -10   1   58.59    2.00
   6 -10   1    9.20    0.60
   6 -10   1    9.50    0.70
   7 -10   1   21.50    0.90
   3   9  -1   28.40    1.10
   2   9  -1    3.70    0.90
   2   9  -1    3.00    0.60
   1   9  -1   19.00    1.00
   1   9  -1   19.00    1.20
   0   9  -1   42.40    1.70
   0   9  -1   41.10    1.90
  -1   9  -1   53.89    2.10
  -1   9  -1   58.59    2.70
  -2   9  -1   84.69    3.30
  -2   9  -1   83.19    2.90
  -3   9  -1   63.19    2.30
  -3   9  -1   56.59    2.40
   3  -9   1   62.79    2.30
  -4   9  -1   12.40    1.10
   4  -9   1   14.80    0.90
   5  -9   1   69.39    2.40
   6  -9   1   21.60    1.00
   6  -9   1   21.20    1.00
   7  -9   1   29.80    1.30
   7  -9   1   30.70    1.20
   8  -9   1   15.10    0.90
   4   8  -1    0.60    0.40
   4   8  -1    0.80    0.40
   3   8  -1    2.40    0.50
   3   8  -1    3.30    0.60
   3   8  -1    2.40    1.00
   2   8  -1    8.00    1.10
   2   8  -1    5.80    0.90
   1   8  -1    2.90    0.80
   1   8  -1    1.00    0.40
   1   8  -1    1.50    0.60
   0   8  -1    0.10    0.40
   0   8  -1    1.40    0.60
   0   8  -1    0.90    0.40
  -1   8  -1    2.30    0.60
  -1   8  -1    1.80    0.50
  -2   8  -1   28.70    1.60
  -2   8  -1   30.10    1.50
  -3   8  -1    2.10    0.80
  -3   8  -1    4.10    0.80
  -4   8  -1   -0.10    0.50
   4  -8   1    0.90    0.40
  -5   8  -1  260.37    8.40
   5  -8   1  275.27    8.20
   6  -8   1   21.80    1.10
   7  -8   1    0.60    0.30
   7  -8   1    0.40    0.50
   8  -8   1    8.50    0.70
   8  -8   1    8.20    1.00
   9  -8   1   27.20    1.20
   6   7  -1   14.20    0.80
   6   7  -1   11.50    0.70
   5   7  -1   19.00    1.00
   5   7  -1   18.40    1.00
   4   7  -1   10.10    0.90
   4   7  -1   11.00    0.90
   3   7  -1   50.79    2.20
   3   7  -1   55.89    2.30
   3   7  -1   54.39    2.20
   2   7  -1  833.62   24.90
   2   7  -1  842.62   25.00
   2   7  -1  835.92   24.80
   1   7  -1  163.18    5.50
   1   7  -1  175.18    5.60
   1   7  -1  163.18    5.60
   0   7  -1   -0.10    0.60
   0   7  -1    0.80    0.50
   0   7  -1    0.70    0.40
  -1   7  -1   14.50    1.00
  -1   7  -1   14.30    1.30
  -1   7  -1   13.10    1.10
  -2   7  -1    4.30    0.70
  -2   7  -1    3.30    0.90
  -3   7  -1   19.00    1.20
  -3   7  -1   19.10    1.20
  -4   7  -1   43.90    1.90
  -4   7  -1   43.90    1.80
   4  -7   1   43.20    1.80
  -5   7  -1  117.09    4.00
   5  -7   1  111.39    3.70
   6  -7   1    0.20    0.30
   6  -7   1    0.70    0.40
   7  -7   1    8.40    0.90
   7  -7   1    6.40    0.70
  -8   7  -1    1.30    0.60
   8  -7   1    3.20    0.90
   8  -7   1    1.80    0.60
  -9   7  -1   75.59    2.60
   9  -7   1   75.19    2.70
  10  -7   1    7.50    0.50
   7   6  -1    9.60    0.70
   6   6  -1   10.50    0.80
   6   6  -1   10.80    0.80
   5   6  -1    2.10    0.60
   5   6  -1    1.10    0.50
   4   6  -1   47.50    2.20
   4   6  -1   48.40    2.10
   3   6  -1   46.20    2.00
   3   6  -1   44.60    2.00
   3   6  -1   45.30    2.20
   2   6  -1   59.59    2.40
   2   6  -1   57.79    2.50
   2   6  -1   60.09    2.40
   1   6  -1  126.49    4.30
   1   6  -1  128.19    4.40
   1   6  -1  125.99    4.20
   0   6  -1  166.38    5.20
   0   6  -1  157.68    5.30
  -1   6  -1   86.99    3.00
  -1   6  -1   85.09    3.20
  -1   6  -1   84.39    3.10
  -2   6  -1  214.68    6.80
  -2   6  -1  219.18    6.80
  -3   6  -1   15.00    1.00
  -3   6  -1   15.50    1.10
  -4   6  -1  128.59    4.20
  -4   6  -1  131.19    4.30
   4  -6   1  124.59    4.20
   5  -6   1  222.48    6.80
  -6   6  -1  111.69    4.00
   6  -6   1  121.89    3.90
   6  -6   1  116.99    3.80
  -7   6  -1  143.89    4.80
   7  -6   1  149.19    4.70
   7  -6   1  141.19    4.70
  -8   6  -1   22.80    1.50
   8  -6   1   20.80    1.20
  -9   6  -1   11.70    0.80
   9  -6   1   11.30    0.80
 -10   6  -1    4.70    0.60
  10  -6   1    4.90    0.50
   7   5  -1   30.00    1.40
   7   5  -1   29.90    1.30
  -7  -5   1   32.30    1.90
   6   5  -1    3.40    0.70
   6   5  -1    3.80    0.80
   5   5  -1    5.80    0.90
   5   5  -1    5.80    1.00
   4   5  -1    6.70    1.10
   4   5  -1    7.00    1.20
   4   5  -1    7.30    0.90
   3   5  -1   79.29    2.80
   3   5  -1   73.39    2.80
   3   5  -1   74.29    3.00
   2   5  -1   49.70    2.00
   2   5  -1   48.90    2.10
   2   5  -1   48.20    2.20
   1   5  -1    0.40    0.30
   1   5  -1    0.60    0.60
   1   5  -1    1.20    0.70
   0   5  -1  140.79    4.40
   0   5  -1  130.59    4.50
  -1   5  -1  111.99    3.90
  -1   5  -1  114.19    3.60
   1  -5   1   99.59    3.70
  -2   5  -1  969.80   28.90
  -2   5  -1 1008.70   29.30
  -3   5  -1  174.28    6.10
  -3   5  -1  179.68    5.50
  -4   5  -1    3.50    0.80
  -5   5  -1   20.40    1.40
   5  -5   1   16.00    1.20
  -6   5  -1   84.49    3.10
   6  -5   1   92.09    3.30
   6  -5   1   85.59    3.00
  -7   5  -1  203.68    6.40
   7  -5   1  200.38    6.30
   7  -5   1  199.38    6.30
  -8   5  -1   82.49    2.90
   8  -5   1   79.89    2.90
   8  -5   1   80.29    2.90
  -9   5  -1   31.70    1.40
   9  -5   1   30.40    1.40
 -10   5  -1    0.40    0.30
  10  -5   1    0.30    0.30
   8   4  -1    0.20    0.30
   8   4  -1    0.50    0.40
  -8  -4   1   -0.10    0.40
   7   4  -1    4.30    0.80
   7   4  -1    5.00    0.70
   6   4  -1    4.70    0.80
   6   4  -1    6.40    1.00
   5   4  -1    3.30    0.80
   5   4  -1    3.40    1.00
   4   4  -1  473.45   14.30
   4   4  -1  476.95   14.50
   4   4  -1  487.25   14.40
   3   4  -1    8.80    1.00
   3   4  -1    6.80    1.10
   3   4  -1    8.00    1.00
   2   4  -1  169.58    5.30
   1   4  -1   15.70    0.90
  -1  -4   1   15.60    0.70
   0   4  -1   39.60    1.50
   0   4  -1   39.70    1.60
   0  -4   1   39.80    1.50
  -1   4  -1   13.90    0.80
  -1   4  -1   14.10    1.00
   1  -4   1   15.10    0.80
  -2   4  -1  243.68    7.20
  -2   4  -1  246.88    7.40
   2  -4   1  223.48    7.30
  -3   4  -1   38.60    1.80
  -3   4  -1   35.80    1.50
  -4   4  -1   61.69    2.30
  -4   4  -1   62.69    2.70
   6  -4   1   90.99    3.10
   6  -4   1   90.79    3.10
  -7   4  -1   80.49    2.90
   7  -4   1   76.69    2.90
   7  -4   1   78.39    2.80
  -8   4  -1   18.30    1.30
   8  -4   1   19.40    1.40
   8  -4   1   17.90    1.10
  -9   4  -1  127.29    4.20
   9  -4   1  123.89    4.10
 -10   4  -1    7.20    1.10
  10  -4   1    7.30    0.60
   9   3  -1    2.40    0.50
   9   3  -1    1.20    0.50
  -9  -3   1    2.60    0.50
   8   3  -1   34.20    1.50
   8   3  -1   35.20    1.60
   7   3  -1    8.60    0.90
   7   3  -1    7.00    1.00
   6   3  -1    2.30    0.80
   6   3  -1    3.20    0.80
   6   3  -1    2.00    0.80
   5   3  -1   15.20    1.10
   5   3  -1   13.50    1.20
   5   3  -1   14.40    1.20
   4   3  -1   47.50    2.10
   4   3  -1   46.40    2.00
   4   3  -1   47.90    2.00
   3   3  -1   42.60    1.70
   2   3  -1   42.90    1.60
  -1  -3   1    2.70    0.30
   0   3  -1  814.22   24.10
   0  -3   1  836.62   24.00
  -1   3  -1  325.07    9.90
   1  -3   1  339.67    9.90
  -2   3  -1  201.18    6.30
   2  -3   1  208.98    6.30
  -3   3  -1   57.69    2.20
   3  -3   1   56.79    2.10
  -4   3  -1  163.98    5.40
  -5   3  -1  134.29    4.90
   5  -3   1  137.49    4.40
   6  -3   1   43.70    1.70
   6  -3   1   41.40    1.90
   6  -3   1   39.20    2.10
   7  -3   1   34.50    1.60
  -8   3  -1  187.68    5.90
   8  -3   1  184.38    5.90
   8  -3   1  174.18    6.10
  -9   3  -1   42.30    1.80
   9  -3   1   41.30    1.70
 -10   3  -1    0.30    0.30
  10  -3   1    0.70    0.40
   9   2  -1  144.19    4.70
   9   2  -1  149.69    4.70
   8   2  -1    7.80    1.00
   8   2  -1    8.60    1.00
   7   2  -1   37.90    1.80
   7   2  -1   38.20    1.90
   7   2  -1   37.80    1.70
   6   2  -1  298.77    9.10
   6   2  -1  296.77    9.30
   6   2  -1  292.37    9.20
   5   2  -1    3.20    0.90
   5   2  -1    1.60    0.50
   5   2  -1    1.60    0.60
  -2  -2   1 2578.64   73.49
  -2  -2   1 2506.65   73.49
  -1  -2   1 7032.90  203.08
   0   2  -1  687.43   20.00
   0  -2   1  690.03   20.00
  -1   2  -1 2282.07   68.59
   1  -2   1 2412.76   68.49
  -2   2  -1  380.36   11.30
   2  -2   1  385.56   11.50
  -3   2  -1  557.74   16.80
   3  -2   1  577.74   16.70
  -4   2  -1  186.58    5.90
   4  -2   1  182.38    5.80
  -5   2  -1   15.40    1.60
   6  -2   1   89.79    3.00
   6  -2   1   87.69    3.10
   6  -2   1   83.79    3.20
   7  -2   1  453.75   13.70
   7  -2   1  458.05   13.70
  -8   2  -1  264.47    8.40
   8  -2   1  269.37    8.40
   8  -2   1  272.97    8.50
  -9   2  -1   79.09    2.80
   9  -2   1   77.49    2.80
 -10   2  -1    7.60    0.70
 -10   2  -1    8.60    0.80
  10  -2   1    8.80    0.80
  10   1  -1  211.68    6.40
   9   1  -1   19.60    1.20
   9   1  -1   17.40    1.00
   8   1  -1    3.60    0.70
   8   1  -1    3.50    0.80
   8   1  -1    3.40    0.90
  -8  -1   1    3.40    1.00
   7   1  -1   95.09    3.50
   7   1  -1   94.69    3.40
   7   1  -1   92.79    3.30
   6   1  -1  125.39    4.10
   6   1  -1  121.89    4.10
   6   1  -1  119.09    4.20
   5   1  -1    4.30    1.10
   5   1  -1    4.40    0.80
   5   1  -1    3.00    0.80
  -4  -1   1   31.70    1.20
  -3  -1   1  263.17    7.70
  -2  -1   1  120.49    3.60
  -1  -1   1 2786.12   84.29
  -1  -1   1 3034.20   84.89
   0   1  -1  377.96   11.20
   0  -1   1  392.16   11.20
  -1   1  -1  233.38    7.30
   1  -1   1  259.07    7.30
  -2   1  -1 1190.38   36.60
   2  -1   1 1306.57   36.70
  -3   1  -1   20.30    1.00
   3  -1   1   23.20    0.90
  -4   1  -1    7.00    0.80
   4  -1   1    7.10    0.70
  -5   1  -1  871.61   25.80
   6  -1   1  257.67    7.80
   6  -1   1  241.28    7.80
   6  -1   1  256.97    7.80
  -7   1  -1    3.70    0.80
   7  -1   1    2.90    0.70
   7  -1   1    1.70    0.80
   7  -1   1    3.10    0.80
  -8   1  -1   27.00    1.40
   8  -1   1   27.50    1.40
   8  -1   1   25.50    1.70
  -9   1  -1   22.40    1.20
   9  -1   1   21.50    1.10
 -10   1  -1    0.70    0.30
 -10   1  -1    1.70    0.60
  10  -1   1    0.60    0.30
  10   0  -1    1.30    0.50
  10   0  -1    1.30    0.50
 -10   0   1    3.30    0.90
   9   0  -1   83.49    2.90
   9   0  -1   81.59    3.00
  -9   0   1   83.59    2.90
   8   0  -1   24.10    1.50
   8   0  -1   26.30    1.40
   8   0  -1   27.30    1.40
   7   0  -1  261.27    8.10
   7   0  -1  248.28    8.00
   7   0  -1  259.57    8.00
   6   0  -1  115.19    3.80
   6   0  -1  117.99    3.90
   6   0  -1  119.39    3.90
   6   0  -1  113.49    3.90
  -5   0   1   69.69    2.60
   4   0  -1   79.89    2.70
  -4   0   1   81.69    2.70
   3   0  -1  126.49    3.80
  -3   0   1  121.49    3.80
   2   0  -1   67.89    2.10
  -2   0   1   67.39    2.10
   1   0  -1  251.37    7.20
  -1   0   1  238.98    7.20
  -1   0  -1  331.77   10.40
   1   0   1  378.86   10.40
  -2   0  -1  253.37    7.70
   2   0   1  269.37    7.70
  -3   0  -1  555.24   16.30
   3   0   1  558.24   16.20
  -4   0  -1   43.10    1.70
   4   0   1   40.20    1.70
   5   0   1   40.60    1.80
   5   0   1   40.10    1.70
  -6   0  -1  325.77   10.20
   6   0   1  341.37   10.20
   6   0   1  342.77   10.30
   6   0   1  335.87   10.30
  -7   0  -1   31.90    1.60
   7   0   1   32.50    1.90
   7   0   1   34.00    1.60
  -8   0  -1   13.40    1.10
   8   0   1   13.70    1.00
   8   0   1   14.30    1.40
  -9   0  -1   19.40    1.10
   9   0   1   18.00    1.10
 -10   0  -1    2.80    0.40
  10   0   1    2.10    0.50
  10  -1  -1   52.59    2.00
  10  -1  -1   51.99    2.00
 -10   1   1   50.39    1.90
   9  -1  -1   45.50    1.90
   9  -1  -1   48.60    2.00
   9  -1  -1   49.50    2.00
  -9   1   1   46.70    1.90
   8  -1  -1  169.18    5.50
   8  -1  -1  171.28    5.60
   8  -1  -1  173.48    5.60
   7  -1  -1  785.42   22.90
   7  -1  -1  761.42   22.90
   7  -1  -1  782.12   22.90
   6  -1  -1  132.99    4.20
   6  -1  -1  133.19    4.30
   6  -1  -1  132.59    4.40
   6  -1  -1  135.79    4.40
   5  -1  -1  137.99    4.90
  -5   1   1  149.69    4.80
   4  -1  -1  333.77   10.00
  -4   1   1  328.97    9.90
   3  -1  -1  716.43   20.20
  -3   1   1  664.33   20.10
   2  -1  -1  119.69    3.50
  -2   1   1  107.79    3.50
   1  -1  -1  623.34   17.10
  -1   1   1  557.74   17.20
   0  -1  -1  228.68    6.60
   0   1   1  222.78    6.60
   1   1   1    0.80    0.10
   1   1   1    0.90    0.20
  -5  -1  -1  278.97    9.10
   5   1   1  302.07    9.30
   5   1   1  315.27    9.20
   5   1   1  303.47    9.20
  -6  -1  -1    1.10    0.70
   6   1   1   -0.20    0.50
   6   1   1    0.10    0.40
   6   1   1   -1.00    0.70
  -7  -1  -1   67.39    2.70
   7   1   1   71.79    2.90
   7   1   1   69.69    2.60
  -8  -1  -1  202.58    6.50
   8   1   1  215.88    6.60
   8   1   1  199.58    6.60
  -9  -1  -1  197.28    6.00
   9   1   1  192.68    6.00
  10  -2  -1   82.79    2.90
  10  -2  -1   86.29    3.00
 -10   2   1   82.09    2.90
   9  -2  -1  162.88    5.50
   9  -2  -1  159.18    5.40
   9  -2  -1  164.08    5.30
   8  -2  -1   23.60    1.30
   8  -2  -1   23.50    1.30
   8  -2  -1   22.50    1.30
   7  -2  -1   38.80    1.80
   7  -2  -1   38.90    1.70
   6  -2  -1  159.28    4.90
   6  -2  -1  152.68    5.00
   6  -2  -1  157.48    5.00
   6  -2  -1  153.88    5.00
  -5   2   1   23.70    1.50
   4  -2  -1 1183.28   34.40
  -4   2   1 1171.48   34.30
   3  -2  -1   65.69    2.20
  -3   2   1   63.89    2.20
   2  -2  -1    0.40    0.10
   1  -2  -1 1334.37   38.00
  -1   2   1 1265.47   38.10
   0  -2  -1  292.67    8.50
   0   2   1  283.97    8.40
   3   2   1  194.08    5.90
   4   2   1   96.69    3.20
   4   2   1   92.09    3.20
   4   2   1   87.79    3.20
   5   2   1   21.10    1.30
   5   2   1   22.70    1.70
   6   2   1    7.30    0.90
   6   2   1    8.30    1.40
   7   2   1   30.20    1.50
   7   2   1   31.20    1.80
   8   2   1    0.30    0.30
   8   2   1    0.00    0.80
  -9  -2  -1    8.80    0.60
   9   2   1    7.30    0.80
  10  -3  -1   35.80    1.50
  10  -3  -1   34.20    1.40
 -10   3   1   37.70    1.90
   9  -3  -1    4.00    0.70
   9  -3  -1    5.20    0.90
   9  -3  -1    6.40    0.80
   8  -3  -1    1.70    0.50
   8  -3  -1    2.00    0.70
   7  -3  -1    0.90    0.50
   7  -3  -1    1.60    0.60
   7  -3  -1    1.00    0.40
   6  -3  -1   10.50    0.90
   6  -3  -1   11.80    1.20
   6  -3  -1   10.10    1.00
   6  -3  -1   11.00    1.00
  -5   3   1   13.20    1.40
  -4   3   1  803.82   23.70
   3  -3  -1  585.54   17.30
  -3   3   1  586.94   17.30
   2  -3  -1    0.20    0.20
  -2   3   1    0.00    0.10
   1  -3  -1   73.99    2.60
  -1   3   1   80.29    2.50
   0  -3  -1    5.70    0.40
   0   3   1    5.40    0.40
   1   3   1   58.09    2.00
   2   3   1  157.88    4.90
   3   3   1  155.58    4.90
   4   3   1   77.39    2.80
   4   3   1   82.29    3.10
   4   3   1   80.59    2.90
   5   3   1   35.70    1.70
   5   3   1   35.00    1.90
   6   3   1    1.70    0.70
   6   3   1    5.40    0.80
   7   3   1   43.80    1.90
   7   3   1   44.90    2.00
  -8  -3  -1    4.10    0.60
   8   3   1    3.30    0.60
  10  -4  -1    2.20    0.70
 -10   4   1    1.50    0.50
   9  -4  -1    0.40    0.50
   9  -4  -1   -0.30    0.50
   8  -4  -1   96.99    3.40
   8  -4  -1   94.59    3.30
   7  -4  -1    2.00    0.70
   7  -4  -1    2.70    0.80
   6  -4  -1   62.69    2.30
   6  -4  -1   61.79    2.30
   5  -4  -1   69.79    2.40
   5  -4  -1   67.99    2.50
   5  -4  -1   69.29    2.50
  -4   4   1  260.27    8.30
  -3   4   1  191.88    6.00
  -3   4   1  179.08    5.70
   2  -4  -1  137.59    4.60
  -2   4   1  142.59    4.60
  -2   4   1  144.69    4.40
   1  -4  -1   55.09    2.10
  -1   4   1   55.39    2.00
  -1   4   1   58.69    2.00
   0  -4  -1    7.80    0.70
   0   4   1    8.00    0.70
   0   4   1    9.00    0.60
   1   4   1   28.10    1.20
   2   4   1  367.06   10.90
   2   4   1  355.86   11.10
   3   4   1   55.59    2.20
   3   4   1   57.59    2.30
   3   4   1   57.09    2.50
   4   4   1    0.10    0.40
   4   4   1   -0.50    0.70
   5   4   1    7.10    1.20
   5   4   1    5.20    0.90
  -6  -4  -1   14.80    1.10
   6   4   1   15.60    1.30
   6   4   1   13.90    1.10
  -7  -4  -1    0.70    0.40
   7   4   1   -0.60    0.60
   7   4   1   -0.20    0.30
  -8  -4  -1    6.20    0.60
   8   4   1    6.20    0.70
  10  -5  -1  107.69    3.40
  10  -5  -1  101.29    3.40
 -10   5   1  104.69    3.40
   9  -5  -1  172.08    5.40
   9  -5  -1  170.98    5.40
  -9   5   1  169.18    5.40
   8  -5  -1  289.17    8.60
   8  -5  -1  272.07    8.60
   7  -5  -1   26.20    1.30
   7  -5  -1   26.80    1.30
   6  -5  -1    4.20    0.80
   5  -5  -1    1.60    0.40
   4  -5  -1  287.77    8.60
  -4   5   1  282.37    8.60
  -3   5   1   32.60    2.00
  -3   5   1   35.80    1.50
  -2   5   1  254.67    8.10
  -2   5   1  259.77    7.80
   1  -5  -1   10.20    1.40
  -1   5   1   11.50    1.10
  -1   5   1   12.10    1.30
   0   5   1   87.49    3.30
   0   5   1   88.19    3.00
   1   5   1   49.10    2.20
   1   5   1   46.90    2.20
   1   5   1   49.00    1.90
   2   5   1  415.76   12.60
   2   5   1  411.26   12.50
   2   5   1  414.06   12.50
  -3  -5  -1    3.60    0.80
   3   5   1    4.50    1.00
   3   5   1    3.00    0.70
   3   5   1    2.30    0.80
  -4  -5  -1    6.20    1.10
   4   5   1    5.80    1.10
   4   5   1    7.20    1.00
   4   5   1    5.60    1.00
  -5  -5  -1    4.90    0.90
   5   5   1    5.30    0.90
   5   5   1    6.00    1.00
  -6  -5  -1   47.40    1.80
   6   5   1   47.00    1.90
   6   5   1   45.90    1.80
  -7  -5  -1    7.40    0.80
   7   5   1    7.70    0.70
  10  -6  -1    5.50    0.60
  10  -6  -1    4.20    0.70
 -10   6   1    5.30    0.70
   9  -6  -1    8.90    0.80
   9  -6  -1    7.20    0.70
  -9   6   1    6.30    0.80
   8  -6  -1  191.28    6.10
   8  -6  -1  190.18    6.10
  -8   6   1  199.48    6.60
   7  -6  -1    5.90    0.80
   7  -6  -1    8.10    0.80
   6  -6  -1   72.39    2.60
   6  -6  -1   75.29    2.70
   4  -6  -1  156.88    5.10
  -4   6   1  162.38    5.10
  -3   6   1    7.60    0.80
  -3   6   1    4.90    1.00
  -2   6   1  111.89    3.90
  -2   6   1  115.09    3.80
  -1   6   1  315.47    9.80
  -1   6   1  311.27    9.70
  -1   6   1  325.17    9.70
   0   6   1  127.19    4.50
   0   6   1  132.89    4.60
   0   6   1  130.59    4.40
   1   6   1  170.88    5.50
   1   6   1  166.58    5.50
   2   6   1   16.60    1.30
   2   6   1   16.20    1.10
   2   6   1   15.40    1.30
   3   6   1    0.00    0.60
   3   6   1    2.10    0.80
   3   6   1    0.50    0.50
   4   6   1    1.10    0.60
   4   6   1    3.00    0.80
   4   6   1    1.60    0.70
   5   6   1    5.60    0.70
   5   6   1    4.90    0.80
   6   6   1    6.50    0.90
   6   6   1    9.30    0.80
   9  -7  -1   -0.10    0.30
   9  -7  -1    0.10    0.40
   8  -7  -1   22.00    1.10
   8  -7  -1   20.90    1.10
   7  -7  -1   13.90    0.90
   7  -7  -1   12.70    0.90
   6  -7  -1  265.67    8.20
   6  -7  -1  268.97    8.20
   5  -7  -1   13.60    1.00
   4  -7  -1    0.80    0.40
  -4   7   1    0.90    0.50
  -3   7   1   49.30    2.10
  -3   7   1   50.69    2.10
  -2   7   1   14.00    1.00
  -2   7   1   14.50    1.20
  -1   7   1  448.16   13.30
  -1   7   1  430.56   13.20
   0   7   1  213.08    6.90
   0   7   1  211.18    7.20
   0   7   1  221.18    6.90
   1   7   1  712.83   21.80
   1   7   1  733.23   21.90
   1   7   1  760.52   21.80
   2   7   1   56.49    2.30
   2   7   1   51.19    2.20
   2   7   1   57.59    2.30
   3   7   1    2.00    0.80
   3   7   1    3.00    0.80
   4   7   1   35.00    1.50
   4   7   1   35.50    1.50
   5   7   1   30.10    1.30
   5   7   1   31.80    1.30
   9  -8  -1   -0.10    0.40
   9  -8  -1    1.90    0.60
   8  -8  -1    3.30    0.60
   8  -8  -1    2.20    0.60
   7  -8  -1   93.69    3.10
   7  -8  -1   88.89    3.00
   6  -8  -1  114.39    3.90
   5  -8  -1    6.50    0.80
   4  -8  -1    0.90    0.70
  -4   8   1    2.10    0.70
  -3   8   1   -0.10    0.40
  -3   8   1   -0.40    0.40
  -2   8   1  177.88    5.60
  -2   8   1  173.88    5.80
  -1   8   1  183.68    5.70
  -1   8   1  168.38    5.70
   0   8   1    2.90    0.70
   0   8   1    5.40    1.00
   1   8   1   24.30    1.40
   1   8   1   26.00    1.40
   2   8   1    1.20    1.00
   2   8   1    2.40    0.70
   2   8   1    0.30    0.40
   3   8   1   11.80    0.90
   3   8   1   15.30    1.30
   8  -9  -1    2.10    0.50
   7  -9  -1    6.90    1.10
   7  -9  -1    5.90    0.60
   6  -9  -1   14.50    0.90
   6  -9  -1   18.10    1.20
   5  -9  -1    6.60    0.70
   5  -9  -1    5.50    0.60
   4  -9  -1    1.10    0.40
  -4   9   1    1.60    0.70
  -3   9   1  443.26   13.40
  -2   9   1   40.80    1.60
  -2   9   1   37.70    1.70
  -1   9   1   21.30    1.10
  -1   9   1   20.10    1.20
   0   9   1    0.70    0.50
   0   9   1    0.40    0.40
   1   9   1   19.90    1.10
   1   9   1   21.40    1.20
   7 -10  -1   14.20    0.70
   6 -10  -1    4.20    0.50
   4 -10  -1   20.80    0.90
   3 -10  -1    2.10    0.70
  -3  10   1    2.90    0.90
   2 -10  -1    1.20    0.40
  -2  10   1    1.30    0.50
   1 -10  -1    8.50    0.80
  -1  10   1    7.10    0.80
   0 -10  -1   16.70    0.80
   2 -11   2   10.30    0.60
   4 -11   2    5.50    0.50
   1  10  -2   36.10    1.40
   0  10  -2    1.50    0.50
  -1  10  -2    0.70    0.30
  -1  10  -2    0.80    0.50
  -2  10  -2    1.00    0.50
  -2  10  -2    0.30    0.30
   2 -10   2    1.90    0.50
  -3  10  -2   44.80    1.90
   3 -10   2   45.40    1.60
  -4  10  -2   11.00    1.20
   4 -10   2   10.10    0.80
   6 -10   2    0.00    0.20
   3   9  -2   35.10    1.40
   2   9  -2   39.00    1.60
   2   9  -2   42.00    1.80
   1   9  -2   27.20    1.30
   1   9  -2   26.60    1.40
   0   9  -2    1.00    0.40
   0   9  -2    0.40    0.40
  -1   9  -2    6.60    0.90
  -1   9  -2    5.10    0.70
  -2   9  -2    4.20    0.70
  -2   9  -2    6.30    1.00
  -3   9  -2   28.00    1.50
  -3   9  -2   29.80    1.40
   3  -9   2   28.90    1.30
  -4   9  -2    3.60    0.90
   4  -9   2    3.70    0.80
  -5   9  -2   38.20    2.00
   5  -9   2   41.20    1.60
   6  -9   2   42.70    1.70
   6  -9   2   42.50    1.70
   7  -9   2    2.90    0.50
   8  -9   2   -0.30    0.30
   4   8  -2    0.50    0.30
   4   8  -2    0.20    0.40
   3   8  -2   78.29    3.00
   3   8  -2   79.99    2.80
   3   8  -2   79.19    3.00
   2   8  -2   10.50    1.00
   2   8  -2   11.40    1.00
   2   8  -2   10.30    0.90
   1   8  -2    0.50    0.40
   1   8  -2    0.30    0.40
   1   8  -2    0.20    0.60
   0   8  -2   26.70    1.50
   0   8  -2   29.10    1.50
   0   8  -2   28.10    1.60
  -1   8  -2    8.20    1.20
  -1   8  -2    6.40    0.80
  -2   8  -2    0.50    0.40
  -2   8  -2    0.90    0.50
  -3   8  -2  228.28    7.20
  -3   8  -2  227.88    7.30
  -4   8  -2  101.59    3.70
   4  -8   2  103.79    3.40
  -5   8  -2   37.30    2.00
   5  -8   2   39.90    1.70
   7  -8   2    5.70    0.60
   8  -8   2   -0.20    0.30
   9  -8   2    1.50    0.40
   6   7  -2    0.80    0.30
   6   7  -2    0.30    0.20
   5   7  -2    0.00    0.60
   5   7  -2    0.80    0.30
   4   7  -2   26.30    1.30
   4   7  -2   26.70    1.40
   3   7  -2   28.00    1.60
   3   7  -2   29.30    1.60
   3   7  -2   29.40    1.50
   2   7  -2  289.37    9.20
   2   7  -2  295.57    9.20
   2   7  -2  305.07    9.40
   1   7  -2  199.18    6.60
   1   7  -2  201.98    6.60
   1   7  -2  209.28    6.60
   0   7  -2  107.39    3.80
   0   7  -2  110.79    3.80
   0   7  -2  104.99    3.90
  -1   7  -2  231.48    8.20
  -1   7  -2  240.68    7.60
  -1   7  -2  250.77    7.70
  -2   7  -2   66.79    2.80
  -2   7  -2   69.69    2.70
  -3   7  -2    3.10    0.70
  -3   7  -2    2.60    0.50
  -4   7  -2    2.70    0.80
   4  -7   2    2.60    0.90
  -5   7  -2    6.20    1.20
   5  -7   2    5.50    0.90
   6  -7   2   24.00    1.20
   6  -7   2   22.80    1.30
   7  -7   2    5.60    0.60
  -8   7  -2   31.30    1.50
   8  -7   2   30.60    1.30
  -9   7  -2    0.70    0.40
   9  -7   2    0.20    0.30
   7   6  -2    1.60    0.50
   7   6  -2    2.50    0.40
   6   6  -2   28.90    1.30
   6   6  -2   28.10    1.30
   5   6  -2   17.20    1.50
   4   6  -2   47.50    2.20
   4   6  -2   48.10    2.10
   3   6  -2    1.40    0.60
   3   6  -2    0.10    0.40
   3   6  -2    0.20    0.60
   2   6  -2  157.88    5.30
   2   6  -2  167.48    5.50
   2   6  -2  163.68    5.40
   1   6  -2   78.89    3.00
   1   6  -2   78.99    2.90
   0   6  -2    0.90    0.40
   0   6  -2    0.70    0.70
   0   6  -2   -0.20    0.50
  -1   6  -2   35.90    1.50
  -1   6  -2   29.30    1.80
  -1   6  -2   31.20    1.60
  -2   6  -2    0.60    0.40
  -2   6  -2   -0.10    0.40
  -3   6  -2   25.20    1.30
  -3   6  -2   25.10    1.30
  -4   6  -2   44.40    1.90
   4  -6   2   41.20    1.80
  -5   6  -2  696.23   20.30
   5  -6   2  672.03   20.10
  -6   6  -2  486.15   14.30
   6  -6   2  477.25   14.40
   6  -6   2  471.05   14.20
  -7   6  -2  696.03   20.70
   7  -6   2  701.83   20.70
  -8   6  -2    1.60    0.50
  -9   6  -2    0.70    0.40
   9  -6   2    0.20    0.30
 -10   6  -2   35.20    1.30
  10  -6   2   34.70    1.30
   7   5  -2   18.40    1.00
   7   5  -2   18.00    1.00
  -7  -5   2   18.80    1.40
   6   5  -2    2.60    0.70
   6   5  -2    3.20    0.90
   5   5  -2   11.90    1.00
   5   5  -2   11.10    1.20
   4   5  -2    3.00    0.70
   4   5  -2    3.10    0.90
   3   5  -2   61.19    2.40
   3   5  -2   60.99    2.60
   3   5  -2   62.39    2.40
   2   5  -2   85.99    3.10
   2   5  -2   82.79    3.20
   2   5  -2   88.79    3.00
   1   5  -2  207.58    6.80
   1   5  -2  218.58    6.60
   1   5  -2  207.58    6.70
   0   5  -2  305.97    9.20
   0  -5   2  280.77    9.00
  -1   5  -2   59.19    2.10
  -1   5  -2   58.99    2.70
   1  -5   2   51.19    2.50
  -2   5  -2   25.40    1.20
  -2   5  -2   24.70    2.00
  -3   5  -2   52.69    1.90
  -3   5  -2   46.80    1.90
  -5   5  -2   82.69    2.80
   5  -5   2   62.79    3.00
  -6   5  -2   35.40    1.70
   6  -5   2   35.70    1.60
  -7   5  -2  263.37    8.30
   7  -5   2  272.07    8.30
  -8   5  -2   -0.50    0.40
   8  -5   2    0.40    0.30
  -9   5  -2   39.60    1.60
   9  -5   2   37.90    1.60
 -10   5  -2    0.20    0.30
  10  -5   2    0.00    0.30
   8   4  -2   26.30    1.20
   8   4  -2   26.70    1.20
   7   4  -2   93.29    3.40
   7   4  -2   94.79    3.30
   6   4  -2   23.20    1.50
   6   4  -2   24.80    1.40
   5   4  -2   35.10    1.70
   5   4  -2   32.30    1.70
   5   4  -2   34.40    1.70
   4   4  -2   11.20    1.00
   4   4  -2   13.70    1.20
   4   4  -2   12.20    1.20
   3   4  -2   82.69    3.10
   3   4  -2   83.69    3.00
   2   4  -2  567.84   16.80
   1   4  -2  342.17   10.40
  -1  -4   2  351.06   10.30
   0   4  -2    2.40    0.50
   0   4  -2    2.90    0.80
   0  -4   2    2.20    0.60
  -1   4  -2  795.92   22.50
  -1   4  -2  729.53   22.20
   1  -4   2  754.32   22.30
  -2   4  -2  310.27    9.50
  -2   4  -2  314.47    9.80
   2  -4   2  322.57    9.70
  -3   4  -2  227.28    7.00
  -3   4  -2  229.18    7.40
  -4   4  -2   11.40    1.00
  -4   4  -2    7.60    1.70
  -5   4  -2  153.38    5.00
  -6   4  -2  530.25   15.80
   6  -4   2  528.75   15.70
  -7   4  -2  415.26   12.50
   7  -4   2  407.96   12.40
  -8   4  -2  193.38    6.20
   8  -4   2  195.38    6.20
  -9   4  -2    6.90    0.70
   9  -4   2    6.70    0.70
 -10   4  -2   22.60    1.10
  10  -4   2   24.10    1.00
   9   3  -2   29.20    1.20
   9   3  -2   29.40    1.20
   8   3  -2   16.10    1.00
   8   3  -2   15.20    1.20
   7   3  -2    7.60    0.90
   7   3  -2    7.40    1.00
   7   3  -2    7.00    0.80
   6   3  -2   11.30    1.20
   6   3  -2   12.40    1.00
   6   3  -2   13.00    1.10
   5   3  -2   44.70    2.10
   5   3  -2   45.80    1.90
   5   3  -2   44.50    1.90
   4   3  -2   87.99    3.00
   4   3  -2   81.39    3.00
   4   3  -2   83.69    3.10
   3   3  -2  914.21   26.70
   2   3  -2   31.50    1.40
  -2  -3   2   35.20    1.20
  -2  -3   2   33.00    1.30
  -1  -3   2   38.60    1.50
   0   3  -2  523.85   15.30
   0  -3   2  506.85   15.10
  -1   3  -2  155.68    5.10
   1  -3   2  165.28    5.00
  -2   3  -2    7.70    0.70
   2  -3   2    7.60    0.70
  -3   3  -2  407.26   12.30
   3  -3   2  396.86   12.10
  -4   3  -2    2.40    0.80
  -4   3  -2    2.50    0.60
  -5   3  -2  163.58    5.20
   5  -3   2  163.48    5.20
  -6   3  -2    5.60    0.90
   6  -3   2    6.90    0.80
  -7   3  -2   43.40    1.90
   7  -3   2   42.10    1.80
  -8   3  -2  120.59    4.10
   8  -3   2  114.99    4.00
  -9   3  -2    0.00    0.30
  -9   3  -2    0.20    0.60
   9  -3   2    0.20    0.30
 -10   3  -2   15.40    0.80
  10  -3   2   15.50    0.80
   9   2  -2    7.40    0.80
   9   2  -2    7.60    0.80
   8   2  -2   29.50    1.40
   8   2  -2   30.30    1.50
   8   2  -2   30.60    2.00
   7   2  -2    0.50    0.60
   7   2  -2    0.10    0.40
   7   2  -2    0.40    0.40
   6   2  -2    3.90    0.90
   6   2  -2    4.30    0.80
   6   2  -2    2.90    0.80
   5   2  -2   71.79    2.60
   5   2  -2   71.39    2.70
   5   2  -2   72.69    2.80
  -3  -2   2  239.08    7.20
  -3  -2   2  237.38    7.10
  -2  -2   2  694.03   20.60
  -2  -2   2  720.63   20.70
  -1  -2   2  747.03   21.80
   0   2  -2 1680.53   51.59
   0  -2   2 1841.72   51.59
  -1   2  -2   98.29    3.20
  -2   2  -2  538.65   16.60
   2  -2   2  586.84   16.60
  -3   2  -2  181.58    5.80
   3  -2   2  180.88    5.70
  -4   2  -2 1021.10   30.10
   4  -2   2 1020.60   29.90
  -5   2  -2    8.50    1.00
  -5   2  -2    6.40    1.90
   5  -2   2    8.00    0.90
  -6   2  -2    1.30    0.50
   6  -2   2    1.40    0.40
  -7   2  -2   33.90    1.60
   7  -2   2   35.10    1.60
  -8   2  -2   24.00    1.30
   8  -2   2   22.50    1.30
  -9   2  -2   50.19    2.10
  -9   2  -2   52.79    2.00
   9  -2   2   54.99    2.00
 -10   2  -2    1.00    0.40
  10  -2   2    2.00    0.50
  10   1  -2  145.89    4.40
  10   1  -2  139.79    4.40
   9   1  -2   23.00    1.60
   9   1  -2   19.20    1.20
  -9  -1   2   19.10    1.20
   8   1  -2    0.50    0.50
   8   1  -2    0.40    0.40
   8   1  -2    0.90    0.40
   7   1  -2   47.00    2.00
   7   1  -2   45.00    2.10
   7   1  -2   47.50    2.00
   6   1  -2  236.38    7.30
   6   1  -2  233.68    7.30
   6   1  -2  236.58    7.40
   6   1  -2  226.48    7.10
   5   1  -2   23.80    1.40
   5   1  -2   27.40    1.30
   5   1  -2   23.90    1.40
  -4  -1   2  323.27    9.60
  -3  -1   2  201.38    6.10
  -2  -1   2 1602.24   46.80
  -1  -1   2 1541.05   42.40
  -1  -1   2 1384.26   42.60
   0  -1   2  612.94   17.90
  -1   1  -2  186.08    5.80
   1  -1   2  197.88    5.80
  -2   1  -2   80.09    2.70
   2  -1   2   79.39    2.70
  -3   1  -2  498.45   15.00
   3  -1   2  509.25   14.90
  -4   1  -2  103.09    3.70
   4  -1   2  105.09    3.50
  -5   1  -2   24.90    2.30
  -5   1  -2   27.40    1.40
   5  -1   2   27.90    1.40
   5  -1   2   27.10    1.40
  -6   1  -2  139.69    4.60
   6  -1   2  140.99    4.60
  -7   1  -2   32.10    1.60
   7  -1   2   33.90    1.60
  -8   1  -2   26.40    1.40
   8  -1   2   27.20    1.40
  -9   1  -2   25.70    1.30
  -9   1  -2   29.10    1.30
   9  -1   2   26.80    1.30
 -10   1  -2   10.80    0.70
 -10   1  -2   10.10    0.80
  10  -1   2    9.90    0.70
  10   0  -2  136.89    4.40
  10   0  -2  144.59    4.50
 -10   0   2  138.59    4.30
   9   0  -2   19.50    1.10
   9   0  -2   20.20    1.20
   9   0  -2   19.30    1.10
  -9   0   2   20.50    1.10
   8   0  -2   48.30    2.00
   8   0  -2   48.20    2.10
   8   0  -2   45.90    2.00
   7   0  -2   88.69    3.20
   7   0  -2   87.89    3.50
   7   0  -2   89.79    3.20
   6   0  -2   37.60    1.60
   6   0  -2   38.90    1.70
   6   0  -2   40.00    1.70
   6   0  -2   35.40    1.70
   5   0  -2  109.39    3.80
   5   0  -2  102.69    3.50
  -5   0   2   91.89    3.50
   4   0  -2   44.70    1.90
  -4   0   2   44.50    1.70
   3   0  -2   43.70    1.60
  -3   0   2   43.40    1.50
   2   0  -2 9999.00  289.37
  -1   0   2 3516.15  102.49
   0   0   2 3946.11  114.89
   1   0   2  646.14   18.90
  -2   0  -2    0.40    0.20
   2   0   2    0.60    0.20
  -3   0  -2  328.17   10.20
   3   0   2  350.36   10.10
  -4   0  -2   38.00    1.70
   4   0   2   29.70    1.90
   4   0   2   39.00    1.50
  -5   0  -2    0.40    0.60
   5   0   2    0.60    0.50
  -6   0  -2   62.19    2.50
   6   0   2   62.89    2.40
  -7   0  -2  127.09    4.30
   7   0   2  125.19    4.30
   8   0   2   53.79    2.10
  -9   0  -2    1.80    0.50
  -9   0  -2    2.30    0.50
   9   0   2    1.10    0.30
  10  -1  -2    8.20    0.70
  10  -1  -2    8.40    0.80
 -10   1   2    8.00    0.70
   9  -1  -2   28.50    1.40
   9  -1  -2   28.80    1.50
   9  -1  -2   25.60    1.30
   8  -1  -2   59.39    2.50
   8  -1  -2   57.99    2.30
   8  -1  -2   57.69    2.30
   7  -1  -2    4.30    0.80
   7  -1  -2    3.20    0.80
   7  -1  -2    3.80    0.70
   7  -1  -2    3.70    0.80
   6  -1  -2   81.89    3.00
   6  -1  -2   84.79    2.90
   6  -1  -2   88.09    3.00
   6  -1  -2   87.29    3.00
  -5   1   2   77.69    2.90
   4  -1  -2  132.29    4.50
  -4   1   2  140.49    4.40
   3  -1  -2  794.22   23.20
  -3   1   2  789.62   23.10
   2  -1  -2  303.87    8.90
  -2   1   2  289.97    8.80
   1  -1  -2  209.68    6.20
  -1   1   2  199.18    6.10
   0   1   2    3.10    0.30
   1   1   2   32.10    1.20
   1   1   2   30.10    1.10
   2   1   2   83.69    2.60
   2   1   2   84.79    2.60
   3   1   2   49.99    1.70
   3   1   2   51.99    1.60
   3   1   2   50.49    1.90
   4   1   2  223.18    6.80
  -5  -1  -2  153.98    5.10
   5   1   2  159.38    5.10
  -6  -1  -2  368.86   11.50
   6   1   2  387.26   11.50
  -7  -1  -2  288.97    9.00
   7   1   2  298.87    9.10
  -8  -1  -2    6.60    0.80
   8   1   2    6.30    0.70
  -9  -1  -2    0.40    0.30
   9   1   2    0.50    0.30
  10  -2  -2   10.60    0.70
  10  -2  -2    9.60    0.80
 -10   2   2   10.40    0.70
   9  -2  -2    2.90    0.60
   9  -2  -2    1.70    0.60
   8  -2  -2    0.60    0.40
   8  -2  -2   -0.70    0.40
   8  -2  -2   -0.10    0.60
   7  -2  -2    1.60    0.40
   7  -2  -2    1.50    0.50
   7  -2  -2    2.00    0.50
   7  -2  -2    2.30    0.80
   6  -2  -2   15.30    0.90
   6  -2  -2   15.90    1.20
   6  -2  -2   16.10    1.10
   6  -2  -2   14.50    1.10
  -5   2   2  872.11   25.80
   4  -2  -2   63.69    2.60
  -4   2   2   70.09    2.50
   3  -2  -2   13.60    0.90
  -3   2   2   11.00    0.80
   2  -2  -2  140.89    4.50
  -2   2   2  145.09    4.40
  -1   2   2    9.90    0.50
   0  -2  -2  231.38    6.90
   0   2   2  227.88    6.80
   1   2   2 1421.26   41.60
   1   2   2 1410.16   41.70
   1   2   2 1482.35   41.60
   2   2   2  278.97    8.40
   3   2   2   34.10    1.40
   4   2   2    1.60    0.60
   4   2   2    0.80    1.50
   5   2   2   64.09    2.90
   5   2   2   63.29    2.50
   6   2   2   10.80    1.60
   6   2   2   13.60    1.10
   7   2   2   33.20    1.60
  -8  -2  -2   15.60    0.90
   8   2   2   16.20    0.90
  -9  -2  -2    4.30    0.40
  10  -3  -2    3.40    0.60
  10  -3  -2    2.50    0.60
 -10   3   2    3.70    0.50
   9  -3  -2   -0.20    0.40
   9  -3  -2    0.10    0.40
   9  -3  -2    1.00    0.50
   8  -3  -2   38.70    1.70
   8  -3  -2   36.80    2.30
   8  -3  -2   37.30    1.70
   7  -3  -2   16.00    1.00
   7  -3  -2   16.60    1.10
   7  -3  -2   18.00    1.20
   7  -3  -2   16.80    1.20
   6  -3  -2   77.69    2.70
   6  -3  -2   79.99    2.70
   6  -3  -2   74.79    2.80
   6  -3  -2   78.39    2.80
   5  -3  -2   30.40    1.30
   5  -3  -2   29.40    1.30
  -4   3   2   -0.20    0.30
   3  -3  -2   94.79    3.40
  -3   3   2  100.49    3.30
   2  -3  -2   40.70    1.70
   1  -3  -2   59.89    2.10
  -1   3   2   59.09    2.00
  -1   3   2   56.69    2.00
   0  -3  -2  339.67   10.10
   0   3   2  334.37   10.10
   0   3   2  342.67   10.00
   1   3   2  562.84   17.10
   1   3   2  584.74   16.90
   1   3   2  600.54   17.00
   2   3   2  129.99    4.20
   3   3   2   25.10    1.20
   3   3   2   27.00    2.20
   3   3   2   22.10    1.60
   4   3   2    3.80    0.80
   4   3   2    4.70    1.00
   4   3   2    4.60    1.60
   5   3   2   29.70    2.00
   5   3   2   31.80    1.60
  -6  -3  -2   66.69    2.60
   6   3   2   68.09    2.60
   6   3   2   66.29    2.80
  -7  -3  -2   28.70    1.40
   7   3   2   29.00    1.40
  -8  -3  -2   13.60    0.80
   8   3   2   13.20    0.90
  10  -4  -2   25.60    1.20
  10  -4  -2   25.80    1.20
 -10   4   2   27.50    1.40
   9  -4  -2   31.70    1.70
   9  -4  -2   35.10    1.60
   9  -4  -2   36.50    1.50
   8  -4  -2    3.10    0.80
   8  -4  -2    4.90    1.00
   8  -4  -2    4.10    1.10
   7  -4  -2    6.70    1.20
   7  -4  -2    4.20    0.80
   7  -4  -2    5.10    0.90
   7  -4  -2    5.70    0.80
   6  -4  -2    3.80    0.80
   6  -4  -2    2.90    0.70
   5  -4  -2  467.25   14.00
   5  -4  -2  468.35   14.00
   5  -4  -2  477.45   13.90
   4  -4  -2  166.98    5.30
  -3   4   2  147.79    4.80
  -3   4   2  157.68    5.10
   2  -4  -2    0.90    0.40
  -2   4   2    1.80    0.50
  -2   4   2    0.70    0.30
   1  -4  -2  184.88    6.00
  -1   4   2  190.58    5.80
  -1   4   2  191.48    6.00
   0   4   2  676.23   20.00
   0   4   2  689.53   20.00
   1   4   2    8.30    0.70
  -2  -4  -2    1.10    0.70
   2   4   2    0.50    0.90
   2   4   2   -0.70    0.80
   2   4   2    0.70    0.30
  -3  -4  -2    3.50    0.70
   3   4   2    4.50    1.00
   3   4   2    4.50    1.20
   3   4   2    5.10    0.70
  -4  -4  -2   26.60    1.50
   4   4   2   23.00    1.70
   4   4   2   23.70    1.40
   4   4   2   27.30    1.50
  -5  -4  -2   21.30    1.30
   5   4   2   21.10    1.60
   5   4   2   21.70    1.40
  -6  -4  -2   14.70    0.90
   6   4   2   14.30    1.10
   6   4   2   13.50    1.40
  -7  -4  -2    1.80    0.50
   7   4   2    1.40    0.40
  10  -5  -2    6.20    0.70
  10  -5  -2    6.30    1.10
 -10   5   2    7.00    0.60
   9  -5  -2   17.60    1.00
   9  -5  -2   17.10    1.00
   8  -5  -2   80.09    2.80
   8  -5  -2   78.29    2.80
   7  -5  -2   13.10    1.00
   7  -5  -2   12.70    1.10
   6  -5  -2   10.70    0.80
   6  -5  -2   11.60    1.10
   5  -5  -2   91.09    3.20
   5  -5  -2   90.59    3.20
   5  -5  -2   94.19    3.10
   4  -5  -2    4.90    0.80
  -4   5   2    3.20    1.00
  -3   5   2   58.49    2.20
  -2   5   2   74.99    3.00
  -2   5   2   75.89    2.60
  -1   5   2    1.10    0.40
  -1   5   2    2.20    0.70
   0   5   2   61.89    2.30
   0   5   2   61.49    2.60
   1   5   2   20.00    1.50
   1   5   2   18.40    1.70
   1   5   2   19.40    1.10
  -2  -5  -2    4.90    1.20
   2   5   2    7.50    0.70
   2   5   2    6.70    1.30
   2   5   2    6.80    1.20
  -3  -5  -2   68.39    2.70
   3   5   2   72.09    2.70
   3   5   2   69.59    2.70
   3   5   2   71.99    2.90
  -4  -5  -2  100.19    3.50
   4   5   2   96.69    3.50
   4   5   2  101.19    3.60
   4   5   2   98.29    3.50
  -5  -5  -2  145.09    4.70
   5   5   2  149.59    4.90
   5   5   2  146.79    4.80
  -6  -5  -2  110.09    3.50
   6   5   2  110.19    3.60
  10  -6  -2   22.90    1.20
  10  -6  -2   25.30    1.10
 -10   6   2   28.50    1.10
   9  -6  -2  126.59    4.00
   9  -6  -2  121.59    4.00
  -9   6   2  122.89    4.00
   8  -6  -2    0.40    0.50
   8  -6  -2    0.40    0.40
   7  -6  -2   53.79    2.10
   7  -6  -2   54.89    2.10
   6  -6  -2   31.50    1.50
   6  -6  -2   31.40    1.40
   5  -6  -2   97.79    3.20
   5  -6  -2   91.29    3.80
   4  -6  -2    3.00    0.70
  -4   6   2    2.90    0.90
  -3   6   2  179.18    5.80
  -3   6   2  189.58    5.90
  -2   6   2  134.89    4.40
  -2   6   2  128.29    4.40
  -1   6   2  123.99    4.10
  -1   6   2  121.19    4.20
   0   6   2  223.88    7.10
   0   6   2  224.68    7.00
   0   6   2  215.88    7.00
   1   6   2   71.19    2.90
   1   6   2   73.69    2.90
   1   6   2   71.99    2.70
   2   6   2   36.20    1.80
   2   6   2   37.20    1.90
   2   6   2   32.70    1.90
   3   6   2   51.19    2.20
   3   6   2   55.19    2.30
   3   6   2   52.09    2.20
   4   6   2    1.30    0.70
   4   6   2    3.00    0.90
   4   6   2    0.70    0.50
   5   6   2  100.39    3.30
   5   6   2  100.19    3.30
   9  -7  -2   41.40    1.70
   9  -7  -2   47.40    1.70
   8  -7  -2   75.19    2.60
   8  -7  -2   76.79    2.60
   7  -7  -2    0.30    0.50
   7  -7  -2    0.20    0.40
   6  -7  -2    6.20    0.80
   6  -7  -2    6.50    0.90
   5  -7  -2  120.89    4.00
   5  -7  -2  120.89    4.00
   4  -7  -2  115.19    3.90
  -4   7   2  120.39    4.00
   3  -7  -2   66.39    2.50
  -3   7   2   68.49    2.60
  -3   7   2   71.39    2.60
  -2   7   2    6.50    1.20
  -2   7   2   10.50    0.90
  -1   7   2   29.00    1.50
  -1   7   2   24.80    1.60
   0   7   2   35.60    1.90
   0   7   2   34.20    1.70
   1   7   2    0.20    0.50
   1   7   2    0.80    0.60
   1   7   2    0.40    0.50
   2   7   2   -0.10    0.70
   2   7   2    2.10    0.70
   2   7   2    1.10    0.60
   3   7   2   15.40    1.10
   3   7   2   15.90    1.20
   3   7   2   15.50    1.10
   9  -8  -2   10.70    0.70
   8  -8  -2   29.30    1.20
   7  -8  -2    2.60    0.50
   6  -8  -2  229.58    7.40
   6  -8  -2  255.47    7.80
   5  -8  -2    0.90    0.40
   4  -8  -2    9.40    0.80
  -4   8   2    9.80    1.00
   3  -8  -2   60.39    2.20
  -3   8   2   57.19    2.30
  -2   8   2  363.66   10.60
  -2   8   2  338.17   10.70
  -1   8   2   15.40    1.30
  -1   8   2   13.10    1.10
   0   8   2   15.70    1.10
   1   8   2    4.50    0.90
   2   8   2   18.80    1.10
   8  -9  -2    0.50    0.30
   7  -9  -2   11.40    0.70
   6  -9  -2   -0.20    0.30
   5  -9  -2    6.70    0.70
   4  -9  -2   30.70    1.30
  -4   9   2   27.20    1.90
   3  -9  -2  244.08    7.20
  -3   9   2  223.58    7.30
   2  -9  -2   51.19    1.90
  -2   9   2   52.39    2.10
   1  -9  -2    1.20    0.40
  -1   9   2    2.60    0.70
   0   9   2   14.90    1.00
   1   9   2   44.30    1.80
  -2  -9  -2    6.60    0.60
   6 -10  -2    1.90    0.40
   5 -10  -2   -0.10    0.20
   4 -10  -2    2.00    0.60
   2 -10  -2    6.50    0.50
  -2  10   2    8.10    1.10
   1 -10  -2   -0.10    0.30
   1  10  -3    8.50    0.70
   0  10  -3    1.00    0.30
   0  10  -3    2.50    0.80
  -1  10  -3    0.20    0.50
  -1  10  -3    0.40    0.30
   1 -10   3    0.60    0.40
  -2  10  -3    0.30    0.30
  -2  10  -3    0.40    0.50
   2 -10   3    0.20    0.40
  -3  10  -3   80.79    2.90
   3 -10   3   78.19    2.60
  -4  10  -3    3.90    1.00
   5 -10   3    8.10    0.60
   6 -10   3    1.50    0.40
   3   9  -3    0.70    0.30
   2   9  -3    0.70    0.30
   2   9  -3   -0.40    0.70
   1   9  -3   15.60    0.90
   1   9  -3   17.60    1.50
   0   9  -3   34.60    2.30
   0   9  -3   35.20    1.60
  -1   9  -3    3.10    0.70
  -1   9  -3    5.00    1.00
  -2   9  -3   49.60    1.90
  -2   9  -3   47.40    2.10
  -3   9  -3   30.00    1.60
  -3   9  -3   29.10    1.40
   3  -9   3   29.70    1.40
  -4   9  -3    6.60    1.00
   4  -9   3    5.20    0.90
   6  -9   3   29.80    1.30
   7  -9   3   10.10    0.70
   8  -9   3   19.10    0.80
   4   8  -3    5.20    0.60
   4   8  -3    5.90    0.60
   3   8  -3    4.50    1.90
   3   8  -3    6.10    0.80
   3   8  -3    5.20    0.70
   2   8  -3   17.30    1.60
   2   8  -3   18.30    1.20
   2   8  -3   18.40    1.30
   1   8  -3   16.10    1.20
   1   8  -3   16.90    1.10
   1   8  -3   15.60    1.10
   0   8  -3   29.70    1.50
   0   8  -3   31.10    1.60
   0   8  -3   26.60    1.70
  -1   8  -3    2.00    0.70
  -1   8  -3    2.30    0.70
  -2   8  -3   55.79    2.20
  -2   8  -3   55.29    2.30
  -3   8  -3  259.27    7.90
  -3   8  -3  252.77    8.10
   3  -8   3  254.47    7.80
  -4   8  -3    0.80    0.50
   4  -8   3    0.70    0.60
  -5   8  -3   43.10    2.00
   6  -8   3  130.39    4.30
   7  -8   3    3.90    0.60
   8  -8   3   21.50    1.00
   9  -8   3   71.39    2.30
   6   7  -3    0.00    0.30
   6   7  -3   -0.20    0.30
   5   7  -3    5.00    0.60
   4   7  -3  331.27   10.30
   4   7  -3  341.37   10.30
   3   7  -3  104.49    3.80
   3   7  -3  109.89    3.80
   3   7  -3  107.29    3.80
   2   7  -3   41.30    1.90
   2   7  -3   38.90    1.90
   2   7  -3   36.40    1.80
   1   7  -3  162.58    5.50
   1   7  -3  159.28    5.50
   1   7  -3  171.78    5.50
   0   7  -3   38.60    2.00
   0   7  -3   41.30    1.90
   0   7  -3   39.00    1.80
  -1   7  -3    9.70    1.30
  -1   7  -3    9.80    1.00
  -1   7  -3    9.80    0.90
  -2   7  -3   -0.20    0.40
  -2   7  -3    0.20    0.40
  -3   7  -3    3.80    0.70
  -3   7  -3    2.10    0.70
  -4   7  -3   10.10    1.00
   6  -7   3   80.29    2.80
  -7   7  -3    0.60    0.60
   7  -7   3    1.00    0.40
  -8   7  -3   14.10    1.00
   8  -7   3   14.20    0.80
  -9   7  -3    6.80    0.90
   9  -7   3    6.40    0.50
   7   6  -3    0.40    0.30
   7   6  -3   -0.30    0.20
   6   6  -3    1.00    0.40
   6   6  -3    1.50    0.50
   5   6  -3    0.30    0.40
   5   6  -3   -0.20    0.40
   4   6  -3   57.69    2.40
   4   6  -3   57.19    2.30
   3   6  -3  108.69    3.90
   3   6  -3  109.59    3.90
   3   6  -3  110.49    3.90
   2   6  -3   10.60    1.20
   2   6  -3   10.10    1.00
   2   6  -3    8.90    0.90
   1   6  -3  290.97    9.00
   1   6  -3  255.07    8.20
   1   6  -3  247.18    8.30
   0   6  -3   10.40    1.10
   0   6  -3    9.90    1.50
   0   6  -3   13.10    0.90
  -1   6  -3    2.30    0.60
  -1   6  -3    4.20    1.00
  -1   6  -3    3.00    0.90
  -2   6  -3  207.78    6.70
  -2   6  -3  220.28    6.90
  -3   6  -3   -0.40    0.40
  -3   6  -3    0.90    0.40
  -4   6  -3   18.70    1.20
  -5   6  -3  647.24   18.90
  -5   6  -3  618.44   18.80
  -6   6  -3  320.57    9.80
   6  -6   3  319.67    9.80
  -7   6  -3   30.50    1.50
   7  -6   3   31.50    1.50
  -8   6  -3    7.30    0.80
   8  -6   3    6.00    0.70
  -9   6  -3   10.20    0.80
   9  -6   3   11.30    0.70
   7   5  -3   23.50    1.30
   7   5  -3   25.30    1.20
   6   5  -3    0.80    0.50
   6   5  -3   -0.20    0.30
   5   5  -3   20.20    2.20
   5   5  -3   19.30    1.30
   4   5  -3   77.99    2.90
   4   5  -3   75.89    3.00
   3   5  -3   24.90    1.40
   3   5  -3   24.50    1.60
   2   5  -3   69.59    2.80
   2   5  -3   68.59    2.60
   2   5  -3   70.19    2.70
   1   5  -3  378.96   11.40
   1   5  -3  370.56   11.50
   1   5  -3  382.86   11.50
   0   5  -3  330.57   10.30
   0   5  -3  347.27   10.30
  -1   5  -3   36.80    1.60
  -1   5  -3   35.20    2.40
  -2   5  -3   90.99    4.00
  -2   5  -3   90.99    3.20
  -2   5  -3   97.39    3.20
  -3   5  -3  151.18    4.90
  -3   5  -3  153.08    4.90
  -4   5  -3    4.60    1.30
  -5   5  -3  318.67    9.70
  -5   5  -3  311.57    9.70
  -6   5  -3   42.70    1.90
   6  -5   3   43.20    1.80
  -7   5  -3    0.50    0.40
   7  -5   3    0.00    0.40
   8  -5   3   66.49    2.40
  -9   5  -3   17.70    1.00
   9  -5   3   17.80    0.90
 -10   5  -3   13.00    0.70
  10  -5   3   12.50    0.70
   8   4  -3    0.40    0.40
   8   4  -3    0.30    0.30
   7   4  -3   10.80    0.90
   7   4  -3    9.50    0.90
   6   4  -3   42.30    2.00
   6   4  -3   45.50    2.10
   6   4  -3   45.20    1.90
   5   4  -3   38.00    1.80
   5   4  -3   38.90    1.80
   5   4  -3   36.80    1.90
   4   4  -3  157.18    5.20
   4   4  -3  156.98    5.10
   4   4  -3  162.38    5.30
   3   4  -3   69.99    2.80
   3   4  -3   67.89    2.60
   3   4  -3   70.39    2.60
   2   4  -3  698.13   21.40
   2   4  -3  758.02   22.20
   1   4  -3  609.44   18.00
  -1  -4   3  612.44   18.10
   0   4  -3    1.40    0.50
   0   4  -3    0.60    0.40
   0  -4   3    0.80    0.40
  -1   4  -3  175.38    5.30
  -1   4  -3  169.28    5.70
   1  -4   3  160.18    5.50
  -2   4  -3   26.40    1.20
  -2   4  -3   24.60    1.70
  -3   4  -3   13.80    0.90
  -3   4  -3   13.90    1.70
  -4   4  -3   67.09    2.60
  -4   4  -3   69.59    2.50
  -5   4  -3    9.20    1.00
  -5   4  -3    6.70    1.20
   5  -4   3    7.40    0.90
  -6   4  -3  208.78    6.80
   6  -4   3  222.18    6.80
  -7   4  -3  184.98    6.10
   7  -4   3  191.58    6.00
  -8   4  -3   31.60    1.50
   8  -4   3   30.90    1.40
  -9   4  -3   23.40    1.10
   9  -4   3   22.30    1.10
 -10   4  -3    0.70    0.20
  10  -4   3    1.80    0.50
   9   3  -3    3.10    0.50
   9   3  -3    3.10    0.60
   8   3  -3    6.00    0.70
   8   3  -3    3.90    0.80
   7   3  -3   66.39    2.70
   7   3  -3   67.69    2.60
   7   3  -3   68.89    2.50
   6   3  -3    0.00    0.90
   6   3  -3    1.40    0.50
   6   3  -3    0.40    0.50
   5   3  -3    0.50    0.50
   4   3  -3   30.40    1.50
   4   3  -3   29.80    1.60
   4   3  -3   27.50    1.50
   3   3  -3  887.41   25.90
   2   3  -3  636.24   19.00
  -2  -3   3  645.14   19.20
  -2  -3   3  664.53   19.10
   1   3  -3   50.79    1.90
  -1  -3   3   49.50    2.00
   0   3  -3   12.40    0.80
   0   3  -3   11.00    1.00
   0  -3   3   13.80    1.00
  -1   3  -3  124.99    4.00
  -1   3  -3  127.09    4.30
   1  -3   3  127.29    4.20
  -2   3  -3    2.40    0.80
  -2   3  -3    1.40    0.60
  -3   3  -3    8.00    1.20
  -3   3  -3    7.10    0.80
  -4   3  -3    2.00    0.70
  -5   3  -3   38.30    1.70
   5  -3   3   39.80    1.70
   6  -3   3   16.20    1.10
  -7   3  -3    0.10    0.80
  -7   3  -3    0.60    0.40
   7  -3   3    0.10    0.50
  -8   3  -3   65.09    2.80
  -8   3  -3   78.49    2.80
   8  -3   3   77.29    2.70
  -9   3  -3   15.10    0.90
   9  -3   3   14.10    0.90
 -10   3  -3    2.40    0.50
  10  -3   3    2.60    0.50
   9   2  -3    9.40    0.80
   9   2  -3   10.50    0.80
   8   2  -3   17.70    1.10
   8   2  -3   17.00    1.10
   8   2  -3   17.00    1.00
   7   2  -3   31.80    1.60
   7   2  -3   32.40    1.60
   7   2  -3   34.50    1.70
   6   2  -3  257.87    8.10
   6   2  -3  257.87    8.00
   6   2  -3  237.98    7.70
   6   2  -3  263.37    7.90
   5   2  -3    2.50    0.80
   5   2  -3    2.30    0.60
   5   2  -3    2.40    0.60
   5   2  -3    1.20    0.50
   4   2  -3  635.54   18.80
  -3  -2   3  480.55   14.50
  -3  -2   3  504.15   14.80
  -2  -2   3   21.50    1.00
  -2  -2   3   22.00    1.30
  -1  -2   3 1109.29   32.40
   0  -2   3   25.70    1.20
  -1   2  -3   47.40    1.90
   1  -2   3   50.79    1.90
  -2   2  -3  548.95   16.70
  -2   2  -3  520.15   16.10
   2  -2   3  571.44   16.30
  -3   2  -3   77.49    2.80
  -3   2  -3   84.99    3.10
   3  -2   3   84.19    3.00
  -4   2  -3  118.19    4.40
  -4   2  -3  115.09    3.80
  -5   2  -3   66.89    2.50
   5  -2   3   69.09    2.50
  -6   2  -3    3.60    1.00
   6  -2   3    3.00    0.50
  -7   2  -3   11.50    1.00
   7  -2   3   10.50    1.00
  -8   2  -3    0.80    0.50
  -8   2  -3    0.70    0.40
   8  -2   3    1.00    0.40
  -9   2  -3   45.70    1.80
  -9   2  -3   42.90    1.70
   9  -2   3   43.20    1.70
 -10   2  -3    0.30    0.30
  10  -2   3    0.10    0.30
  10   1  -3    2.00    0.60
   9   1  -3    0.90    0.40
   9   1  -3    0.70    0.30
   9   1  -3    1.00    0.40
  -9  -1   3    1.40    0.50
   8   1  -3   29.20    1.50
   8   1  -3   30.60    1.50
   8   1  -3   29.80    1.60
   7   1  -3  143.69    4.70
   7   1  -3  143.79    5.00
   7   1  -3  150.68    4.90
   7   1  -3  149.69    4.80
   6   1  -3   27.30    1.30
   6   1  -3   26.80    1.30
   6   1  -3   27.30    1.50
   6   1  -3   25.20    1.50
   5   1  -3   24.90    1.20
   5   1  -3   23.80    1.40
   5   1  -3   24.60    1.30
   5   1  -3   24.80    1.50
  -4  -1   3  203.88    6.30
  -3  -1   3 1419.86   41.20
  -2  -1   3  853.71   24.90
  -1  -1   3  184.18    5.60
  -1  -1   3  179.38    5.70
   0  -1   3  461.05   13.70
   1  -1   3  140.49    4.50
  -2   1  -3  134.79    4.60
   2  -1   3  149.39    4.60
  -3   1  -3 1371.06   39.50
  -3   1  -3 1301.17   39.20
   3  -1   3 1376.46   39.30
  -4   1  -3   55.09    2.60
   4  -1   3   57.89    2.50
  -5   1  -3   73.59    2.70
   5  -1   3   73.89    2.70
  -6   1  -3    6.10    1.00
   6  -1   3    7.90    1.70
  -7   1  -3   37.40    1.80
   7  -1   3   39.30    1.70
  -8   1  -3    4.20    0.80
   8  -1   3    2.00    0.70
  -9   1  -3    4.00    0.60
  -9   1  -3    4.20    0.70
   9  -1   3    4.40    0.70
  10   0  -3   27.20    1.20
  10   0  -3   26.50    1.20
 -10   0   3   26.50    1.20
   9   0  -3    3.70    0.70
   9   0  -3    3.70    0.70
   8   0  -3   64.49    2.50
   8   0  -3   63.49    2.60
   8   0  -3   65.59    2.50
   7   0  -3  263.97    8.20
   7   0  -3  260.07    8.00
   7   0  -3  256.97    8.20
   7   0  -3  266.27    8.10
   6   0  -3  133.19    4.30
   6   0  -3  135.09    4.40
   6   0  -3  131.39    4.40
   6   0  -3  127.19    4.20
   5   0  -3    5.30    1.00
   5   0  -3    7.90    0.80
   5   0  -3    6.90    0.80
  -5   0   3    6.90    1.30
  -4   0   3   12.20    0.90
  -3   0   3   15.20    0.80
  -2   0   3   67.09    2.30
  -1   0   3 1744.03   51.19
   0   0   3  143.99    4.70
   0   0   3  151.98    4.90
   1   0   3    0.80    0.20
   2   0   3   67.59    2.40
   3   0   3  567.34   16.80
   4   0   3  285.47    8.70
  -5   0  -3  140.39    4.70
   5   0   3  144.69    4.70
  -6   0  -3   89.09    3.30
   6   0   3   93.99    3.30
  -7   0  -3    2.80    0.90
   7   0   3    1.90    0.50
  -8   0  -3   31.50    1.40
  -8   0  -3   29.70    1.50
   8   0   3   30.70    1.40
  -9   0  -3   26.60    1.20
   9   0   3   26.10    1.30
  10  -1  -3   18.70    1.10
  10  -1  -3   19.20    0.90
  10  -1  -3   18.50    1.00
 -10   1   3   18.90    0.90
   9  -1  -3   85.19    3.10
   9  -1  -3   85.09    3.00
   9  -1  -3   82.49    2.90
   8  -1  -3  394.76   11.90
   8  -1  -3  371.56   11.80
   8  -1  -3  399.16   11.80
   7  -1  -3   71.89    2.70
   7  -1  -3   73.39    2.50
   7  -1  -3   70.39    2.60
   7  -1  -3   68.89    2.70
   6  -1  -3   36.60    1.50
   6  -1  -3   33.00    1.70
   6  -1  -3   36.20    1.40
   6  -1  -3   34.90    1.60
   5  -1  -3  136.09    4.10
   5  -1  -3  123.89    4.20
  -5   1   3  127.39    4.50
  -4   1   3  476.05   14.20
   3  -1  -3   15.70    1.10
  -3   1   3   20.80    1.00
  -2   1   3    4.00    0.50
  -1   1   3    0.00    0.10
   0   1   3 2059.49   59.79
   1   1   3  333.47   10.00
   1   1   3  336.67   10.10
   2   1   3  271.17    8.00
   2   1   3  264.27    8.10
   3   1   3    7.70    0.70
   3   1   3    6.30    0.90
  -4  -1  -3  133.99    4.50
   4   1   3  136.69    4.50
  -5  -1  -3   16.10    1.40
   5   1   3   13.80    1.20
  -6  -1  -3  398.66   12.20
   6   1   3  408.46   12.20
  -7  -1  -3  559.54   16.90
  -7  -1  -3  559.04   16.80
   7   1   3  577.04   16.80
  -8  -1  -3    1.30    0.50
   8   1   3    2.40    0.70
  -9  -1  -3    0.40    0.20
  10  -2  -3    6.80    0.80
  10  -2  -3    8.10    0.60
  10  -2  -3    7.00    0.70
 -10   2   3    6.80    0.60
   9  -2  -3    0.50    0.70
   9  -2  -3    0.20    0.40
   9  -2  -3    0.10    0.40
   8  -2  -3    3.20    0.80
   8  -2  -3    5.70    0.90
   8  -2  -3    2.60    0.70
   8  -2  -3    4.10    0.90
   7  -2  -3   22.70    1.40
   7  -2  -3   23.90    1.10
   7  -2  -3   24.20    1.30
   7  -2  -3   22.40    1.20
   6  -2  -3   45.40    2.10
   6  -2  -3   53.59    1.80
   6  -2  -3   45.40    1.90
   6  -2  -3   47.50    1.90
   5  -2  -3  286.37    8.50
   5  -2  -3  272.97    8.50
   5  -2  -3  280.87    8.40
  -4   2   3   60.09    2.40
   3  -2  -3    3.10    0.90
  -3   2   3    2.20    0.50
   2  -2  -3  213.18    6.80
  -2   2   3  226.08    6.70
   1  -2  -3 2779.02   78.89
  -1   2   3 2642.04   79.09
   0   2   3  330.17    9.80
   0   2   3  332.07    9.90
   1   2   3  379.26   11.20
   1   2   3  375.66   11.10
   2   2   3    2.80    0.60
   3   2   3  253.47    7.70
   4   2   3   13.80    0.90
   4   2   3   10.80    1.40
   5   2   3   11.00    1.20
  -6  -2  -3    1.60    0.50
   6   2   3    0.30    0.50
  -7  -2  -3   10.70    0.80
   7   2   3   10.70    1.00
  -8  -2  -3    3.70    0.50
   8   2   3    4.80    0.90
  10  -3  -3    3.60    0.80
  10  -3  -3    5.00    0.70
  10  -3  -3    3.80    0.60
   9  -3  -3    4.20    0.70
   9  -3  -3    4.50    0.70
   9  -3  -3    4.50    0.80
   8  -3  -3   81.09    3.00
   8  -3  -3   84.69    3.00
   8  -3  -3   85.29    3.00
   8  -3  -3   85.49    3.00
   7  -3  -3    0.40    0.50
   7  -3  -3    0.70    0.50
   7  -3  -3    1.00    0.50
   7  -3  -3    0.70    0.40
   6  -3  -3    1.30    0.50
   6  -3  -3    1.00    0.40
   6  -3  -3    2.10    0.50
   6  -3  -3    0.40    0.70
   5  -3  -3    8.00    0.80
   5  -3  -3    7.60    1.00
   5  -3  -3    7.60    0.90
  -4   3   3    5.70    1.10
  -3   3   3    1.00    0.50
  -3   3   3    0.00    0.30
   2  -3  -3    5.30    1.00
  -2   3   3    5.40    0.70
  -2   3   3    7.00    0.60
   1  -3  -3   51.09    2.10
  -1   3   3   53.89    1.90
  -1   3   3   55.19    2.00
   0   3   3  396.06   11.90
   0   3   3  404.16   11.90
   1   3   3   52.89    2.00
  -2  -3  -3  541.15   16.50
   2   3   3  572.04   16.50
  -3  -3  -3  119.59    4.10
   3   3   3  123.69    4.00
  -4  -3  -3  218.88    6.80
   4   3   3  208.08    6.80
   4   3   3  214.88    6.70
  -5  -3  -3  207.58    6.60
   5   3   3  206.48    6.60
  -6  -3  -3   79.79    3.00
   6   3   3   72.19    3.10
  -7  -3  -3   51.39    1.90
   7   3   3   48.40    2.00
  -8  -3  -3   25.10    1.00
  10  -4  -3   33.90    1.40
  10  -4  -3   31.20    1.40
 -10   4   3   34.10    1.50
   9  -4  -3   46.20    1.90
   9  -4  -3   45.60    1.90
   9  -4  -3   46.80    1.90
   8  -4  -3   86.99    3.10
   8  -4  -3   89.89    3.20
   8  -4  -3   90.39    3.20
   7  -4  -3    3.80    0.90
   7  -4  -3    1.80    0.60
   7  -4  -3    2.80    0.70
   7  -4  -3    2.30    0.80
   6  -4  -3   32.80    1.40
   6  -4  -3   34.80    1.80
   6  -4  -3   32.60    1.70
   6  -4  -3   33.50    1.60
   5  -4  -3   95.49    3.10
   5  -4  -3   91.79    3.00
   5  -4  -3   87.19    3.20
   4  -4  -3  116.79    3.80
  -3   4   3  119.49    4.30
  -3   4   3  122.99    3.90
  -2   4   3  107.29    3.90
  -2   4   3  117.79    3.70
   1  -4  -3    0.30    0.70
  -1   4   3    0.00    0.40
  -1   4   3   -0.50    0.30
   0   4   3   78.89    2.70
  -1  -4  -3   13.60    1.20
   1   4   3    9.90    1.60
   1   4   3   11.50    0.80
  -2  -4  -3  139.19    4.50
   2   4   3  135.59    4.80
   2   4   3  139.79    4.50
  -3  -4  -3   43.00    1.90
   3   4   3   43.40    1.80
   3   4   3   41.10    2.20
  -4  -4  -3   28.90    1.40
   4   4   3   26.40    1.90
   4   4   3   28.00    1.40
   4   4   3   29.80    1.70
  -5  -4  -3   78.39    2.80
   5   4   3   72.59    2.80
  -6  -4  -3   72.69    2.60
   6   4   3   72.69    3.20
  -7  -4  -3   16.70    0.90
  10  -5  -3  278.47    8.50
 -10   5   3  284.37    8.40
   9  -5  -3    0.30    0.40
   9  -5  -3    0.20    0.50
   8  -5  -3   14.10    1.00
   7  -5  -3   11.10    1.00
   7  -5  -3   10.90    1.30
   7  -5  -3   13.60    1.00
   6  -5  -3   81.29    2.80
   6  -5  -3   78.49    2.80
   5  -5  -3   89.89    3.10
   5  -5  -3   87.49    3.30
   4  -5  -3    3.40    0.80
  -4   5   3    2.80    0.70
  -3   5   3  102.39    3.40
  -2   5   3   66.49    2.40
  -1   5   3    5.30    0.70
   0   5   3   55.89    2.10
   0   5   3   52.79    2.30
  -1  -5  -3  117.79    4.10
   1   5   3  128.79    4.30
  -2  -5  -3  100.89    3.60
   2   5   3  104.39    3.80
   2   5   3  105.79    3.60
  -3  -5  -3    8.40    1.00
   3   5   3    8.90    1.40
   3   5   3    9.40    0.90
  -4  -5  -3  251.07    7.50
   4   5   3  249.38    7.70
   4   5   3  231.48    7.60
  -5  -5  -3    0.30    0.40
  -6  -5  -3    0.00    0.30
  10  -6  -3   35.40    1.30
 -10   6   3   33.10    1.50
   9  -6  -3    0.40    0.40
  -9   6   3    1.40    0.40
   8  -6  -3   38.90    1.60
   7  -6  -3    6.00    0.80
   6  -6  -3   72.99    2.60
   5  -6  -3   36.80    1.60
   4  -6  -3   14.40    1.00
  -4   6   3   12.40    1.20
   3  -6  -3  713.93   22.00
  -3   6   3  777.32   22.10
  -2   6   3   30.80    1.50
  -1   6   3    8.60    0.80
   0   6   3   83.29    3.00
   1   6   3  148.59    5.10
   1   6   3  160.78    5.80
   2   6   3    0.80    0.40
   2   6   3    0.30    0.60
   3   6   3    1.20    0.50
   4   6   3    0.30    0.70
   9  -7  -3   19.40    0.90
   8  -7  -3   33.70    1.60
   6  -7  -3  147.39    5.30
   5  -7  -3  183.28    6.00
   4  -7  -3  146.39    4.90
  -4   7   3  153.88    5.00
   3  -7  -3  822.12   24.20
  -2   7   3   20.90    1.30
  -1   7   3  380.96   11.70
   0   7   3  128.19    4.40
   1   7   3  125.69    4.30
   2   7   3   58.99    2.30
   3   7   3    3.00    0.90
   9  -8  -3   13.00    0.70
   8  -8  -3   42.60    1.70
   7  -8  -3   27.30    1.20
   6  -8  -3   16.90    0.90
   5  -8  -3    2.90    0.90
   4  -8  -3   84.99    2.80
  -4   8   3   80.09    3.10
   3  -8  -3    6.70    0.70
  -3   8   3    6.00    1.00
   2  -8  -3   69.69    2.40
  -2   8   3   66.09    2.60
  -1   8   3   -0.10    0.40
   0   8   3   65.99    2.60
   1   8   3   65.19    2.60
   2   8   3    3.50    0.80
   7  -9  -3   10.80    0.60
   5  -9  -3   35.80    1.40
   4  -9  -3   15.90    0.90
   3  -9  -3   25.90    1.10
  -3   9   3   25.10    1.30
   2  -9  -3   15.50    0.80
  -2   9   3   15.60    1.00
   1  -9  -3   53.39    1.90
  -1   9   3   53.09    2.10
   0  -9  -3    7.20    0.70
   0   9   3    7.70    0.80
  -1  -9  -3    2.50    0.80
   5 -10  -3   -0.30    0.20
   4 -10  -3    3.30    0.40
   3 -10  -3    0.00    0.30
   2 -10  -3    0.70    0.30
   1  10  -4    0.20    0.20
   0  10  -4   10.00    1.00
   0 -10   4   10.50    0.90
  -1  10  -4   27.60    1.40
  -1  10  -4   24.30    1.10
  -2  10  -4    9.40    0.90
  -3  10  -4   21.30    1.30
  -4  10  -4   12.10    1.10
   5 -10   4    0.50    0.20
   6 -10   4   46.40    1.60
   3   9  -4   26.70    1.10
   2   9  -4   -0.10    0.90
   2   9  -4    0.60    0.30
   1   9  -4    1.70    0.50
   1   9  -4    0.90    0.50
   0   9  -4    2.70    0.60
   0   9  -4    2.10    0.80
  -1   9  -4    0.50    0.40
  -1   9  -4    0.40    0.50
  -2   9  -4   60.59    2.20
  -2   9  -4   61.09    2.40
   2  -9   4   59.19    2.30
  -3   9  -4   94.09    3.40
  -4   9  -4    2.30    0.90
  -5   9  -4    7.10    1.30
   6  -9   4    0.30    0.30
   7  -9   4   10.70    0.60
   4   8  -4   57.69    2.10
   4   8  -4   58.69    2.10
   3   8  -4    4.70    0.60
   2   8  -4    7.90    0.80
   2   8  -4    9.10    1.00
   2   8  -4    8.00    1.00
   1   8  -4   43.10    2.00
   1   8  -4   44.30    2.00
   1   8  -4   44.90    1.90
   0   8  -4   32.80    1.70
   0   8  -4   33.50    1.70
   0   8  -4   32.20    1.60
  -1   8  -4  124.39    4.40
  -1   8  -4  126.29    4.20
  -2   8  -4  180.38    5.70
  -2   8  -4  174.48    5.90
  -3   8  -4   18.20    1.30
  -3   8  -4   18.10    1.10
  -4   8  -4   98.39    3.60
  -5   8  -4    1.10    0.70
   6  -8   4  110.29    3.60
   7  -8   4    0.10    0.40
   8  -8   4   11.60    0.70
   6   7  -4    2.50    0.50
   6   7  -4    2.80    0.50
   5   7  -4    3.80    0.60
   5   7  -4    2.80    0.60
   4   7  -4   87.09    3.10
   4   7  -4   89.89    3.20
   3   7  -4   58.99    2.60
   3   7  -4   65.39    2.50
   3   7  -4   64.89    2.50
   2   7  -4  205.08    6.50
   2   7  -4  197.58    6.50
   2   7  -4  200.48    6.50
   1   7  -4   13.80    1.40
   1   7  -4   16.50    1.20
   1   7  -4   12.90    1.10
   0   7  -4    0.00    0.80
   0   7  -4    0.00    0.40
   0   7  -4    0.20    0.40
  -1   7  -4    1.10    0.50
  -1   7  -4    1.10    0.50
  -2   7  -4   57.19    2.40
  -2   7  -4   53.89    2.20
  -3   7  -4    8.00    0.80
  -3   7  -4    6.50    0.90
  -5   7  -4   31.50    1.70
   6  -7   4   52.19    2.00
  -7   7  -4   53.49    2.10
   7  -7   4   55.79    2.00
  -8   7  -4    2.40    0.80
   8  -7   4    2.00    0.50
   9  -7   4    1.10    0.30
   7   6  -4   -0.20    0.30
   7   6  -4    0.60    0.30
   6   6  -4   10.00    0.70
   6   6  -4   10.00    1.00
   5   6  -4   22.30    1.30
   5   6  -4   22.00    1.20
   4   6  -4   18.40    1.20
   4   6  -4   17.60    1.30
   3   6  -4   83.19    3.10
   3   6  -4   82.79    3.20
   3   6  -4   81.99    3.10
   2   6  -4  436.36   13.40
   2   6  -4  427.46   13.40
   2   6  -4  460.95   13.50
   1   6  -4    3.10    0.90
   1   6  -4    3.70    0.70
   1   6  -4    3.40    0.90
   0   6  -4   25.00    2.00
   0   6  -4   25.30    1.50
   0   6  -4   26.70    1.90
  -1   6  -4    8.40    1.00
  -1   6  -4    6.90    0.80
  -2   6  -4    0.20    0.40
  -2   6  -4    1.10    0.50
  -3   6  -4  153.48    5.60
  -3   6  -4  148.59    4.90
  -4   6  -4  305.07    9.50
  -5   6  -4 2038.20   59.49
  -5   6  -4 2053.49   59.39
  -6   6  -4    3.00    1.00
   7  -6   4   44.00    1.80
  -8   6  -4   66.69    2.40
   8  -6   4   65.79    2.30
  -9   6  -4   -0.20    0.60
   9  -6   4    0.80    0.30
   7   5  -4    1.20    0.40
   7   5  -4    1.70    0.60
   6   5  -4    1.10    0.50
   6   5  -4    0.50    0.40
   5   5  -4    1.20    0.60
   5   5  -4   -0.10    0.40
   4   5  -4  219.48    7.00
   4   5  -4  217.38    7.10
   3   5  -4  477.45   14.20
   3   5  -4  474.75   14.20
   3   5  -4  458.55   14.30
   2   5  -4  106.79    3.70
   2   5  -4  104.49    3.70
   2   5  -4  105.49    3.80
   1   5  -4    0.50    0.40
   1   5  -4   -0.20    0.60
   1   5  -4    0.30    1.00
   0   5  -4   29.10    1.40
   0   5  -4   26.10    1.60
  -1   5  -4  237.68    7.50
  -1   5  -4  244.38    7.50
  -2   5  -4    9.90    1.10
  -2   5  -4    7.20    0.80
  -3   5  -4    4.80    0.90
  -3   5  -4    6.20    1.40
  -3   5  -4    7.40    0.80
  -4   5  -4   69.69    2.70
  -4   5  -4   67.69    2.60
  -5   5  -4  168.88    5.50
  -5   5  -4  172.88    5.60
   5  -5   4  166.48    5.40
  -6   5  -4    2.50    0.60
   6  -5   4    2.40    0.70
  -7   5  -4    0.30    0.40
   7  -5   4    0.40    0.40
  -8   5  -4    7.30    0.80
   8  -5   4    8.00    0.70
  -9   5  -4    0.10    0.30
   9  -5   4    0.00    0.30
   8   4  -4    0.10    0.30
   7   4  -4   58.09    2.20
   7   4  -4   57.39    2.10
   7   4  -4   56.19    2.30
   6   4  -4    0.20    0.50
   6   4  -4   -0.30    0.40
   6   4  -4    0.80    0.50
   5   4  -4  282.17    8.50
   5   4  -4  272.17    8.60
   5   4  -4  277.47    8.80
   4   4  -4  119.39    4.10
   4   4  -4  121.39    4.20
   4   4  -4  117.59    4.00
   3   4  -4   75.29    3.00
   3   4  -4   74.09    2.70
   3   4  -4   71.59    2.80
   2   4  -4   11.90    1.00
   2   4  -4   12.50    1.60
   2   4  -4   14.80    1.40
   1   4  -4   10.30    0.80
   0   4  -4   56.89    2.10
  -1   4  -4  337.37   10.00
  -1   4  -4  324.07   10.60
  -2   4  -4   96.59    3.90
  -2   4  -4   81.79    3.40
  -3   4  -4   19.00    1.10
  -3   4  -4   15.90    1.60
  -4   4  -4   20.80    1.40
  -4   4  -4   22.20    1.20
  -5   4  -4   62.89    2.50
  -5   4  -4   62.39    2.50
   5  -4   4   62.99    2.30
  -6   4  -4    0.60    0.40
   6  -4   4    0.20    0.40
  -7   4  -4   16.00    1.10
   7  -4   4   17.90    1.10
  -8   4  -4  116.59    4.00
   8  -4   4  120.19    3.90
  -9   4  -4    0.50    0.30
   9  -4   4    0.50    0.40
   9   3  -4    6.60    0.60
   9   3  -4    5.70    0.70
   8   3  -4   30.00    1.30
   8   3  -4   32.30    1.50
   8   3  -4   33.10    1.40
   7   3  -4    8.50    1.00
   7   3  -4   10.30    0.90
   7   3  -4   11.30    1.00
   6   3  -4   19.30    1.30
   6   3  -4   17.00    1.10
   6   3  -4   17.40    1.30
   5   3  -4  102.29    3.50
   5   3  -4  103.99    3.60
   5   3  -4  102.49    3.70
   4   3  -4   43.00    2.10
   4   3  -4   51.09    1.90
   4   3  -4   42.80    2.00
   3   3  -4    9.80    1.10
   3   3  -4   11.10    1.40
   2   3  -4   93.39    3.10
  -2  -3   4   87.99    3.70
  -2  -3   4   94.39    3.40
   1   3  -4   49.90    1.90
  -1  -3   4   49.10    2.40
   0   3  -4    1.30    0.50
   0  -3   4    0.60    0.50
  -1   3  -4  374.46   11.40
  -1   3  -4  384.56   11.80
  -2   3  -4  303.77    9.30
  -2   3  -4  307.37    9.80
  -3   3  -4  103.39    3.50
  -3   3  -4  100.89    4.20
  -4   3  -4   30.00    1.60
  -4   3  -4   34.40    1.50
   4  -3   4   30.20    1.60
  -5   3  -4   51.99    2.20
  -5   3  -4   53.89    2.20
   5  -3   4   52.89    2.10
  -6   3  -4    4.70    0.90
   6  -3   4    3.20    0.90
  -7   3  -4   49.60    2.10
  -7   3  -4   42.10    2.10
   7  -3   4   49.99    2.00
  -8   3  -4    4.60    0.70
   8  -3   4    3.80    0.70
  -9   3  -4    3.40    0.50
   9  -3   4    3.80    0.70
   9   2  -4    0.10    0.40
   9   2  -4    0.00    0.40
   9   2  -4    0.20    0.50
   8   2  -4    5.60    0.80
   8   2  -4    3.70    0.80
   8   2  -4    4.40    0.60
   7   2  -4   21.60    1.40
   7   2  -4   22.70    1.20
   7   2  -4   22.40    1.40
   6   2  -4   18.00    1.20
   6   2  -4   19.90    1.40
   6   2  -4   19.70    1.20
   6   2  -4   19.20    1.30
   5   2  -4   71.49    2.60
   5   2  -4   77.09    2.70
   5   2  -4   78.19    2.90
   5   2  -4   75.39    2.90
   4   2  -4    0.80    0.50
   4   2  -4    0.70    0.60
   4   2  -4    0.10    0.50
   4   2  -4    0.30    0.60
  -3  -2   4   35.50    1.70
  -3  -2   4   33.20    2.60
   2   2  -4   39.60    1.70
  -2  -2   4   41.10    1.70
  -2  -2   4   41.30    2.20
   1   2  -4   86.09    2.90
  -1  -2   4   85.09    3.30
  -1  -2   4   90.19    3.10
   0   2  -4  261.47    8.10
   0  -2   4  274.97    8.50
  -1   2  -4   72.89    2.50
   1  -2   4   71.99    2.80
  -2   2  -4 1935.91   55.69
  -2   2  -4 2106.59   56.19
   2  -2   4 1726.13   56.99
  -3   2  -4   85.19    2.90
  -3   2  -4   83.99    3.50
  -4   2  -4   31.50    1.60
  -5   2  -4    4.90    0.90
  -5   2  -4    3.60    1.10
   5  -2   4    4.70    1.00
  -6   2  -4    4.10    1.00
  -6   2  -4    4.30    0.90
   6  -2   4    4.40    0.90
  -7   2  -4   83.39    3.10
  -7   2  -4   85.19    3.10
   7  -2   4   89.39    3.10
  -8   2  -4    4.00    0.70
  -8   2  -4    3.10    0.70
   8  -2   4    4.60    0.80
  -9   2  -4    6.40    0.60
  -9   2  -4    4.60    0.80
   9  -2   4    5.40    0.90
   9   1  -4    1.50    0.50
   9   1  -4    1.30    0.40
   9   1  -4    1.70    0.50
   8   1  -4    0.90    0.40
   8   1  -4    0.80    0.70
   7   1  -4   91.39    3.10
   7   1  -4   89.29    3.20
   7   1  -4   92.99    3.30
   7   1  -4   93.59    3.40
   6   1  -4    1.90    0.60
   6   1  -4    1.30    0.40
   6   1  -4    1.50    0.40
   6   1  -4    1.70    0.90
   5   1  -4  263.97    7.80
   5   1  -4  255.17    7.70
   5   1  -4  251.67    8.00
   5   1  -4  256.57    8.00
   4   1  -4  299.47    8.90
  -4  -1   4  292.57    9.20
  -3  -1   4   40.80    1.70
  -3  -1   4   35.60    2.40
  -2  -1   4  244.88    7.90
  -2  -1   4  244.78    7.60
  -1  -1   4   29.70    1.60
  -1  -1   4   31.20    1.40
   0   1  -4  441.66   13.20
   0  -1   4  449.46   13.50
  -1   1  -4   37.50    1.50
   1  -1   4   37.70    1.80
  -2   1  -4  323.47    9.80
   2  -1   4  323.87   10.00
  -3   1  -4   94.69    3.20
  -4   1  -4   52.49    2.20
  -4   1  -4   53.29    2.20
  -5   1  -4    2.30    0.60
  -5   1  -4    1.10    0.50
   5  -1   4    1.40    0.60
   5  -1   4    2.50    1.00
  -6   1  -4    3.80    0.90
  -6   1  -4    2.90    0.90
   6  -1   4    4.00    1.00
  -7   1  -4   77.19    2.80
  -7   1  -4   74.99    2.90
   7  -1   4   80.09    2.80
  -8   1  -4    4.90    0.70
  -8   1  -4    4.70    0.70
   8  -1   4    7.10    0.80
  -9   1  -4   25.70    1.10
  -9   1  -4   26.10    1.10
  10   0  -4    1.10    0.70
  10   0  -4    0.50    0.30
  10   0  -4    0.00    0.40
 -10   0   4    0.30    0.40
   9   0  -4   60.89    2.30
   9   0  -4   60.59    2.20
   9   0  -4   61.59    2.30
   8   0  -4    7.60    1.00
   8   0  -4    8.00    0.90
   8   0  -4    5.40    0.70
   8   0  -4    6.30    0.80
   7   0  -4   74.29    2.80
   7   0  -4   75.09    2.70
   7   0  -4   72.59    2.60
   7   0  -4   76.59    2.90
   6   0  -4    0.10    0.30
   6   0  -4    0.60    0.60
   6   0  -4    0.30    0.40
   6   0  -4    0.20    0.50
   5   0  -4  268.67    7.90
   5   0  -4  258.17    8.00
   5   0  -4  252.17    7.80
  -4   0   4  442.46   13.40
  -3   0   4 1233.48   36.10
  -2   0   4  347.37   10.50
  -1   0   4  217.88    7.00
  -1   0   4  217.88    6.80
   0   0  -4  427.36   13.00
   0   0   4  436.36   13.30
   0   0   4  449.56   13.20
  -1   0  -4  386.26   11.50
   1   0   4  385.36   11.60
   1   0   4  383.06   11.80
   2   0   4    3.30    0.60
  -4   0  -4    7.30    1.00
  -4   0  -4    8.30    1.10
   4   0   4    7.30    0.80
  -5   0  -4   97.99    3.50
  -5   0  -4   98.59    3.40
   5   0   4   93.59    3.40
   5   0   4   98.89    3.40
  -6   0  -4  471.15   14.30
  -6   0  -4  467.05   14.30
   6   0   4  486.05   14.20
  -7   0  -4    1.10    0.50
  -7   0  -4    1.90    0.60
   7   0   4   -0.20    0.60
  -8   0  -4    0.80    0.50
   8   0   4    1.00    0.50
  -9   0  -4   -0.30    0.30
  10  -1  -4    4.30    0.60
  10  -1  -4    3.70    0.50
 -10   1   4    4.90    0.60
   9  -1  -4    5.60    0.90
   9  -1  -4    5.40    0.60
   9  -1  -4    5.40    0.80
   8  -1  -4    9.70    0.90
   8  -1  -4   10.00    1.10
   8  -1  -4   10.80    0.90
   8  -1  -4   11.40    1.00
   7  -1  -4   15.50    1.00
   7  -1  -4   16.40    1.40
   7  -1  -4   15.20    1.10
   7  -1  -4   17.00    0.90
   6  -1  -4  116.59    3.80
   6  -1  -4  119.89    4.00
   6  -1  -4  120.99    3.90
   5  -1  -4  134.99    4.30
   5  -1  -4  133.29    4.20
   5  -1  -4  136.49    4.40
  -4   1   4  426.46   13.00
  -3   1   4  119.19    4.00
  -2   1   4   38.30    1.60
  -1   1   4 1146.59   33.50
   0   1   4  901.11   26.50
   0   1   4  891.11   26.20
   1   1   4  100.39    3.60
   1   1   4   97.59    3.40
   2   1   4    3.10    0.60
   2   1   4    3.20    0.90
   2   1   4    4.20    1.30
  -3  -1  -4  143.49    4.80
   3   1   4  148.59    4.70
  -4  -1  -4  266.67    8.20
  -4  -1  -4  263.77    8.20
   4   1   4  265.57    8.20
  -5  -1  -4   42.70    2.00
  -5  -1  -4   44.10    1.90
   5   1   4   45.80    1.90
  -6  -1  -4  281.27    8.60
  -6  -1  -4  278.47    8.70
   6   1   4  271.87    8.60
  -7  -1  -4   12.30    1.10
  -7  -1  -4   11.60    0.90
   7   1   4   12.20    1.20
  -8  -1  -4   13.30    0.80
  10  -2  -4   50.29    1.80
  10  -2  -4   50.89    1.90
   9  -2  -4   35.60    1.60
   9  -2  -4   37.50    1.60
   9  -2  -4   36.20    1.50
   8  -2  -4    4.70    0.70
   8  -2  -4    5.40    0.80
   8  -2  -4    5.20    1.10
   8  -2  -4    6.10    0.80
   7  -2  -4  180.28    5.80
   7  -2  -4  193.88    6.00
   7  -2  -4  185.38    5.90
   7  -2  -4  176.98    5.90
   6  -2  -4    2.90    0.80
   6  -2  -4    0.70    0.30
   6  -2  -4    1.10    0.40
   5  -2  -4    9.50    0.80
   5  -2  -4    8.80    0.90
   5  -2  -4    9.50    1.00
  -3   2   4  118.59    3.80
  -3   2   4  113.09    4.00
  -2   2   4  127.59    4.10
  -2   2   4  129.69    4.30
  -1   2   4  784.22   23.50
  -1   2   4  826.02   23.70
   0   2   4  101.59    3.50
   0   2   4  111.89    3.40
   0   2   4   97.59    3.80
   1   2   4   59.19    2.10
   1   2   4   59.29    2.70
   1   2   4   56.99    2.20
  -2  -2  -4    0.80    0.50
   2   2   4    1.30    0.50
  -3  -2  -4   44.40    1.90
   3   2   4   44.20    1.80
  -4  -2  -4  400.66   12.00
   4   2   4  392.26   12.00
  -5  -2  -4    0.50    0.40
   5   2   4    1.10    0.60
  -7  -2  -4    1.40    0.50
  -8  -2  -4    0.80    0.30
  10  -3  -4    8.20    0.80
  10  -3  -4    8.40    0.70
   9  -3  -4    2.60    0.60
   9  -3  -4    2.50    0.70
   8  -3  -4   26.50    1.30
   8  -3  -4   28.40    1.30
   8  -3  -4   25.90    1.50
   7  -3  -4   53.39    2.10
   7  -3  -4   51.99    2.00
   7  -3  -4   53.19    2.00
   6  -3  -4   15.50    1.10
   6  -3  -4   15.60    1.00
   6  -3  -4   14.20    1.10
   5  -3  -4   51.59    1.90
   5  -3  -4   50.39    2.00
   5  -3  -4   51.69    2.00
   4  -3  -4   54.99    2.10
   4  -3  -4   53.69    2.00
   4  -3  -4   54.19    2.00
  -3   3   4   84.39    3.00
  -3   3   4   94.29    3.80
  -2   3   4   15.20    0.90
  -2   3   4   15.70    1.20
  -1   3   4  111.39    3.60
  -1   3   4  112.29    3.80
   0   3   4  116.09    4.00
   0   3   4  121.09    3.90
  -1  -3  -4    4.80    0.90
   1   3   4    4.00    0.60
  -2  -3  -4   42.30    1.80
   2   3   4   40.70    1.70
  -3  -3  -4   75.39    2.90
   3   3   4   75.09    2.70
  -4  -3  -4   49.70    2.10
   4   3   4   49.80    2.10
  -5  -3  -4  133.29    4.30
   5   3   4  116.19    4.20
  -6  -3  -4    0.90    0.30
  -7  -3  -4    2.20    0.50
  10  -4  -4    0.40    0.40
   9  -4  -4   -0.20    0.50
   9  -4  -4    0.40    0.40
   8  -4  -4   23.60    1.10
   8  -4  -4   20.20    1.30
   8  -4  -4   22.90    1.20
   7  -4  -4    2.80    0.70
   7  -4  -4    2.00    0.50
   7  -4  -4    1.70    0.60
   6  -4  -4  199.48    6.30
   6  -4  -4  199.78    6.20
   6  -4  -4  203.18    6.30
   5  -4  -4   15.10    1.00
   5  -4  -4   14.90    1.00
   5  -4  -4   16.80    1.10
   4  -4  -4  111.29    3.70
   4  -4  -4  112.99    3.70
   4  -4  -4  112.79    3.60
   3  -4  -4   -0.80    0.60
   3  -4  -4    1.30    0.60
  -3   4   4    0.20    0.40
   2  -4  -4    5.20    1.10
  -2   4   4    5.50    0.60
   1  -4  -4    3.80    1.00
  -1   4   4    3.50    0.50
   0  -4  -4  144.09    4.80
   0   4   4  157.38    4.90
  -1  -4  -4  106.59    3.60
   1   4   4  104.29    3.60
  -2  -4  -4   36.60    1.70
   2   4   4   36.10    1.70
  -3  -4  -4   11.40    1.00
   3   4   4   11.80    1.00
  -4  -4  -4  160.18    5.00
   4   4   4  148.59    5.00
  -5  -4  -4   27.20    1.30
  -6  -4  -4   13.80    0.80
 -10   5   4  109.79    3.40
   9  -5  -4    1.70    0.50
   8  -5  -4    4.90    1.00
   7  -5  -4  134.09    4.30
   7  -5  -4  130.59    4.30
   6  -5  -4    4.90    0.70
   5  -5  -4  874.91   24.30
   5  -5  -4  780.22   24.60
   3  -5  -4   60.89    2.30
  -3   5   4   65.59    2.40
   2  -5  -4  108.39    3.70
  -2   5   4  113.59    3.80
   1  -5  -4    1.80    0.60
  -1   5   4    1.30    0.40
   0  -5  -4   19.00    1.30
   0   5   4   20.70    1.10
  -1  -5  -4   11.50    1.10
   1   5   4   14.10    1.00
  -2  -5  -4    4.10    0.90
   2   5   4    3.70    0.70
  -3  -5  -4  416.16   11.90
   3   5   4  374.86   12.00
  -4  -5  -4  103.99    3.40
   4   5   4  103.29    3.60
  -5  -5  -4   25.30    1.10
   9  -6  -4    1.90    0.50
  -9   6   4    0.40    0.50
   8  -6  -4    0.00    0.50
   7  -6  -4   15.80    1.00
   6  -6  -4  262.97    8.10
   5  -6  -4   42.50    1.70
   4  -6  -4   23.60    1.20
  -4   6   4   23.90    1.40
   3  -6  -4  155.98    5.10
  -3   6   4  161.88    5.20
   2  -6  -4   74.29    2.70
  -2   6   4   78.69    2.90
  -1   6   4  147.89    5.10
   0   6   4    7.90    0.80
   1   6   4    1.30    0.50
   2   6   4   53.49    2.20
  -3  -6  -4   -0.30    0.50
   3   6   4    0.20    0.50
   9  -7  -4    0.60    0.40
   8  -7  -4    8.40    0.60
   7  -7  -4   66.69    2.60
   6  -7  -4   24.60    1.40
   5  -7  -4   14.70    0.90
   4  -7  -4    7.30    0.80
  -4   7   4    7.00    1.30
   3  -7  -4   16.40    1.00
  -3   7   4   15.50    1.10
   2  -7  -4   42.40    1.70
  -2   7   4   38.50    1.80
   1  -7  -4   31.00    1.40
  -1   7   4   27.30    1.60
   0   7   4    3.40    0.90
   1   7   4   46.20    1.90
   2   7   4    5.50    0.90
   3   7   4    0.60    0.70
   7  -8  -4   70.69    2.40
   5  -8  -4    3.20    0.50
   4  -8  -4  102.49    3.40
   3  -8  -4  115.39    3.70
  -3   8   4  117.09    4.00
   2  -8  -4   21.60    1.00
  -2   8   4   21.30    1.20
   1  -8  -4   28.30    1.20
  -1   8   4   28.20    1.40
   0  -8  -4   38.40    1.50
   0   8   4   38.80    1.80
   1   8   4    0.90    0.50
   7  -9  -4    1.50    0.40
   6  -9  -4    5.00    0.50
   5  -9  -4   18.50    0.80
   4  -9  -4    3.30    0.40
   3  -9  -4    9.80    0.70
  -3   9   4   11.00    1.20
   2  -9  -4    0.70    0.30
  -2   9   4    0.40    0.50
   1  -9  -4   19.20    0.90
  -1   9   4   18.90    1.10
   0  10  -5   11.20    0.60
  -1  10  -5   48.20    1.90
  -2  10  -5    0.10    0.40
  -3  10  -5   23.00    1.30
   4 -10   5    4.60    0.50
   5 -10   5    8.70    0.60
   3   9  -5   19.40    0.80
   2   9  -5    9.10    0.60
   1   9  -5   12.10    1.10
   1   9  -5   12.10    0.70
   0   9  -5    9.70    0.70
  -1   9  -5   28.60    1.60
  -1   9  -5   28.80    1.30
  -2   9  -5    1.00    0.50
  -2   9  -5    1.70    0.50
  -3   9  -5   18.80    1.20
  -4   9  -5   14.20    1.10
  -5   9  -5   60.49    2.50
   5  -9   5   59.99    2.10
   6  -9   5    3.20    0.50
   7  -9   5    0.30    0.30
   4   8  -5  124.29    4.20
   4   8  -5  127.69    4.00
   3   8  -5   12.00    1.00
   3   8  -5   11.40    0.80
   2   8  -5    3.30    0.60
   2   8  -5    4.80    1.00
   1   8  -5  139.89    4.60
   1   8  -5  143.39    4.80
   1   8  -5  142.79    4.80
   0   8  -5   -0.10    0.50
   0   8  -5    0.80    0.40
  -1   8  -5   25.80    1.30
  -1   8  -5   26.10    1.50
  -2   8  -5    4.60    0.70
  -2   8  -5    3.50    0.80
  -3   8  -5   76.59    3.00
  -4   8  -5  286.07    9.00
  -5   8  -5   66.69    2.60
   5  -8   5   64.09    2.30
   6  -8   5  129.09    4.10
   7  -8   5   43.90    1.60
   8  -8   5   23.10    0.90
   5   7  -5  204.28    6.30
   5   7  -5  208.68    6.30
   4   7  -5    3.30    0.80
   3   7  -5   -0.10    0.40
   3   7  -5    0.80    0.60
   2   7  -5   94.09    3.50
   2   7  -5   97.49    3.50
   2   7  -5   94.29    3.40
   1   7  -5  189.68    6.30
   1   7  -5  188.48    6.20
   1   7  -5  196.38    6.20
   0   7  -5   12.90    1.10
   0   7  -5   12.00    1.10
  -1   7  -5    0.80    0.50
  -2   7  -5    7.30    0.90
  -3   7  -5    1.20    0.50
  -4   7  -5  501.45   15.20
  -5   7  -5   12.50    1.20
   5  -7   5   13.60    0.90
  -6   7  -5    8.40    1.20
   6  -7   5   11.10    0.80
  -7   7  -5    4.40    0.90
   7  -7   5    3.80    0.60
  -8   7  -5    5.20    0.80
   8  -7   5    5.00    0.70
   6   6  -5    1.70    0.60
   6   6  -5    0.90    0.40
   5   6  -5  117.79    4.00
   5   6  -5  117.09    3.90
   4   6  -5    0.90    0.60
   3   6  -5    0.90    0.70
   3   6  -5   -0.10    0.70
   3   6  -5    0.20    0.50
   2   6  -5  161.18    5.60
   2   6  -5  168.78    5.50
   2   6  -5  171.68    5.60
   1   6  -5   18.00    1.30
   1   6  -5   19.90    1.30
   0   6  -5   19.40    1.20
   0   6  -5   19.60    1.30
  -1   6  -5   26.30    1.40
  -2   6  -5   42.50    1.80
  -2   6  -5   42.50    1.90
  -3   6  -5  171.08    5.70
  -4   6  -5   27.80    1.50
  -4   6  -5   27.40    1.60
  -5   6  -5   56.79    2.50
  -5   6  -5   63.29    2.40
   5  -6   5   59.99    2.30
  -6   6  -5   25.90    1.40
   6  -6   5   27.80    1.30
  -7   6  -5    1.20    0.40
   7  -6   5    2.00    0.60
  -8   6  -5   12.20    0.80
   8  -6   5   10.40    0.70
  -9   6  -5    0.20    0.30
   7   5  -5    2.20    0.70
   7   5  -5    1.40    0.40
   6   5  -5   24.00    1.30
   6   5  -5   22.60    1.20
   5   5  -5   35.90    1.70
   5   5  -5   34.60    1.80
   4   5  -5   11.00    1.10
   4   5  -5   11.60    1.30
   3   5  -5  355.66   10.90
   3   5  -5  353.46   11.00
   3   5  -5  356.46   10.90
   2   5  -5  245.08    8.10
   2   5  -5  263.57    8.00
   2   5  -5  256.07    8.00
   1   5  -5  139.39    4.60
   1   5  -5  135.49    4.60
   0   5  -5   10.00    1.20
   0   5  -5   11.00    0.90
  -1   5  -5   42.40    1.90
  -1   5  -5   43.40    1.90
  -2   5  -5  417.26   12.70
  -2   5  -5  416.26   12.40
  -2   5  -5  408.56   12.40
  -3   5  -5   43.40    2.00
  -3   5  -5   45.90    2.00
  -4   5  -5   22.00    1.40
  -4   5  -5   21.70    1.40
  -5   5  -5   35.70    1.80
  -5   5  -5   33.90    1.70
   5  -5   5   34.50    1.60
  -6   5  -5    5.60    0.80
   6  -5   5    4.40    0.80
  -7   5  -5   31.80    1.90
   7  -5   5   40.40    1.60
  -8   5  -5    0.00    0.30
   8  -5   5    0.30    0.40
  -9   5  -5   69.49    2.30
   8   4  -5    1.30    0.40
   8   4  -5    1.50    0.40
   7   4  -5   10.30    0.90
   7   4  -5    8.80    0.80
   7   4  -5    9.10    0.90
   6   4  -5  107.49    3.80
   6   4  -5   99.69    3.50
   6   4  -5  112.79    3.90
   5   4  -5   19.80    1.40
   5   4  -5   20.00    1.40
   5   4  -5   20.70    1.30
   4   4  -5  185.28    6.10
   4   4  -5  188.58    5.80
   4   4  -5  179.88    6.00
   3   4  -5   39.50    2.00
   3   4  -5   42.30    1.90
   3   4  -5   39.70    2.10
   2   4  -5    7.30    0.90
   1   4  -5  106.29    3.60
   0   4  -5   81.59    2.90
  -1   4  -5  519.95   15.60
  -2   4  -5   16.00    1.40
  -2   4  -5   17.90    1.10
  -3   4  -5    5.90    0.80
  -3   4  -5    7.60    1.10
  -4   4  -5    6.70    1.00
  -4   4  -5    8.40    1.00
   4  -4   5    8.70    1.10
  -5   4  -5    2.50    0.90
  -5   4  -5    3.30    1.00
   5  -4   5    2.60    0.90
  -6   4  -5  204.28    6.50
   6  -4   5  202.78    6.40
  -7   4  -5   11.10    0.90
   7  -4   5   10.00    1.00
  -8   4  -5   10.40    0.80
   8  -4   5   10.80    0.80
  -9   4  -5    7.20    0.60
   8   3  -5   33.00    1.40
   8   3  -5   32.80    1.40
   7   3  -5    1.10    0.50
   7   3  -5    1.40    0.40
   7   3  -5    0.50    0.50
   6   3  -5    1.40    0.60
   6   3  -5    1.10    0.50
   6   3  -5    2.20    0.70
   5   3  -5  138.09    4.70
   5   3  -5  131.69    4.50
   5   3  -5  134.29    4.40
   4   3  -5    3.60    1.30
   4   3  -5    1.70    0.60
   4   3  -5    2.10    0.80
   4   3  -5    2.70    0.60
   3   3  -5   20.60    1.40
   3   3  -5   21.70    1.30
   3   3  -5   21.60    1.30
   3   3  -5   21.70    1.90
   2   3  -5   23.20    1.40
  -2  -3   5   23.30    2.00
   1   3  -5   71.39    2.60
  -1  -3   5   73.09    3.10
   0   3  -5  120.69    4.00
  -1   3  -5   28.30    1.50
  -2   3  -5    2.90    0.60
  -2   3  -5    3.00    1.00
  -3   3  -5    0.60    0.40
  -3   3  -5    0.00    0.50
  -4   3  -5   12.10    1.00
  -4   3  -5   11.60    1.10
   4  -3   5   10.10    1.40
  -5   3  -5    0.20    0.40
  -6   3  -5  131.79    4.80
   6  -3   5  119.49    4.10
  -7   3  -5   25.30    1.40
   7  -3   5   24.80    1.40
  -8   3  -5   12.60    0.90
   8  -3   5   13.30    1.00
  -9   3  -5   33.70    1.60
   9   2  -5   11.40    0.80
   9   2  -5   10.50    0.80
   8   2  -5   16.20    1.10
   8   2  -5   17.40    1.10
   8   2  -5   17.30    0.90
   7   2  -5  148.19    5.10
   7   2  -5  148.69    4.90
   7   2  -5  155.18    5.00
   7   2  -5  152.58    4.80
   6   2  -5    1.30    0.70
   6   2  -5    1.10    0.50
   6   2  -5    2.70    0.90
   5   2  -5   10.70    1.50
   5   2  -5   14.10    1.00
   5   2  -5   13.40    1.20
   4   2  -5    5.90    1.20
   4   2  -5    3.90    0.80
   4   2  -5    3.00    0.70
   3   2  -5   27.50    1.30
   3   2  -5   30.10    1.30
  -3  -2   5   28.80    2.00
   2   2  -5   16.10    1.10
  -2  -2   5   17.90    1.40
   1   2  -5   91.59    3.20
  -1  -2   5  100.89    3.60
   0   2  -5    2.90    0.60
  -1   2  -5  173.98    5.50
  -2   2  -5  161.68    5.40
  -3   2  -5  112.19    3.90
  -3   2  -5  112.19    4.00
  -3   2  -5  115.79    3.90
  -4   2  -5  100.99    3.60
  -4   2  -5  109.79    3.70
  -5   2  -5   82.89    3.00
  -5   2  -5   78.49    2.90
  -6   2  -5   33.30    1.60
  -6   2  -5   33.20    1.60
   6  -2   5   32.50    1.70
  -7   2  -5   11.50    1.30
  -7   2  -5    9.10    0.90
   7  -2   5   12.50    1.10
  -8   2  -5    0.60    0.40
  -8   2  -5   -0.30    0.30
  -9   2  -5    1.00    0.30
   9   1  -5    6.40    0.60
   9   1  -5    6.30    0.70
   8   1  -5  103.69    3.60
   8   1  -5   96.09    3.40
   8   1  -5  100.19    3.50
   7   1  -5   12.70    0.90
   7   1  -5   13.20    1.40
   7   1  -5   11.80    0.90
   7   1  -5   12.40    1.10
   6   1  -5   35.30    1.80
   6   1  -5   38.20    1.50
   6   1  -5   35.00    2.00
   6   1  -5   37.90    1.60
   5   1  -5  384.36   11.50
   5   1  -5  395.66   11.70
   5   1  -5  386.06   11.80
   4   1  -5  715.63   20.60
   4   1  -5  683.73   20.50
   4   1  -5  706.33   20.70
  -3  -1   5  799.92   23.80
   2   1  -5  316.57    9.80
  -2  -1   5  331.17   10.10
   1   1  -5    1.80    0.50
  -1  -1   5    1.20    0.40
   0   1  -5  474.25   14.40
   0  -1   5  494.35   14.70
  -1   1  -5  199.58    6.10
   1  -1   5  189.98    6.40
  -2   1  -5  114.39    4.40
  -3   1  -5   42.00    1.80
  -3   1  -5   41.40    1.80
  -4   1  -5   44.20    2.00
  -4   1  -5   45.20    1.90
  -5   1  -5   26.30    1.50
  -5   1  -5   27.20    1.50
   5  -1   5   28.40    1.50
  -6   1  -5   14.00    1.10
  -6   1  -5   13.40    1.00
  -7   1  -5  206.58    6.30
  -7   1  -5  196.88    6.50
  -8   1  -5    6.30    0.60
  -8   1  -5    6.50    0.70
  10   0  -5    3.80    0.60
  10   0  -5    5.50    0.50
   9   0  -5   33.20    1.60
   9   0  -5   32.90    1.40
   8   0  -5    6.30    0.70
   8   0  -5    5.50    1.00
   8   0  -5    6.30    0.80
   7   0  -5   24.90    1.20
   7   0  -5   25.50    1.60
   7   0  -5   23.90    1.40
   6   0  -5   69.39    2.50
   6   0  -5   68.49    2.60
   6   0  -5   67.89    2.40
   5   0  -5   53.49    1.90
   5   0  -5   53.29    2.20
   4   0  -5    0.80    0.40
   4   0  -5    0.70    0.40
   4   0  -5   -0.10    0.80
  -3   0   5  483.75   14.70
  -2   0   5  174.98    5.80
   1   0  -5  933.41   27.10
  -1   0   5  918.91   27.30
   0   0  -5   84.49    2.90
   0   0   5   83.99    3.20
   1   0   5  102.99    3.80
  -2   0  -5   21.00    1.30
  -2   0  -5   19.20    1.20
   2   0   5   19.50    1.90
  -3   0  -5  288.17    8.80
  -3   0  -5  282.77    8.80
  -4   0  -5  162.78    5.40
  -4   0  -5  160.98    5.40
   4   0   5  172.28    5.40
  -5   0  -5   26.90    1.50
  -5   0  -5   24.90    1.40
   5   0   5   26.40    1.40
  -6   0  -5   92.99    3.30
  -6   0  -5   92.59    3.30
  -7   0  -5   29.30    1.40
  -7   0  -5   31.30    1.40
  -8   0  -5   21.60    1.60
  -8   0  -5   19.30    0.90
  10  -1  -5   24.50    1.00
  10  -1  -5   26.50    1.40
   9  -1  -5    7.30    0.60
   9  -1  -5    6.00    0.70
   8  -1  -5  225.48    7.00
   8  -1  -5  215.98    6.80
   8  -1  -5  221.38    6.90
   7  -1  -5   49.50    1.90
   7  -1  -5   50.89    2.00
   7  -1  -5   50.29    2.10
   6  -1  -5   34.50    1.60
   6  -1  -5   33.10    1.40
   6  -1  -5   33.70    1.50
   5  -1  -5   71.19    2.60
   5  -1  -5   67.69    2.40
   4  -1  -5   28.40    1.60
   4  -1  -5   28.10    1.30
   3  -1  -5  167.28    5.50
   3  -1  -5  197.58    5.70
  -3   1   5  169.88    5.70
  -2   1   5  308.67    9.60
  -1   1   5 1095.79   32.20
   0   1   5   58.89    2.50
  -1  -1  -5    3.00    0.90
   1   1   5    1.30    0.50
  -2  -1  -5  144.49    4.70
  -2  -1  -5  146.39    4.80
   2   1   5  148.79    4.80
  -3  -1  -5  101.49    3.50
  -3  -1  -5   97.09    3.50
   3   1   5  105.99    3.60
  -4  -1  -5  538.65   16.10
  -4  -1  -5  530.15   16.20
   4   1   5  556.64   16.20
  -5  -1  -5  193.88    6.10
  -5  -1  -5  194.28    6.00
   5   1   5  181.28    6.00
  -6  -1  -5  357.36   10.10
  -6  -1  -5  301.17   10.30
  -7  -1  -5    0.40    0.30
  -8  -1  -5    1.30    0.40
  10  -2  -5   16.80    0.80
  10  -2  -5   18.20    0.90
   9  -2  -5    1.20    0.40
   9  -2  -5    1.20    0.40
   8  -2  -5   12.10    1.00
   8  -2  -5   11.80    0.90
   8  -2  -5   10.40    0.80
   7  -2  -5   84.79    3.00
   7  -2  -5   82.19    2.90
   7  -2  -5   81.29    2.90
   6  -2  -5    6.60    0.70
   6  -2  -5    5.30    0.90
   6  -2  -5    5.70    0.70
   5  -2  -5   11.50    0.80
   5  -2  -5   11.40    1.00
   5  -2  -5   11.40    0.90
   4  -2  -5    3.80    1.10
   4  -2  -5    6.10    0.70
   4  -2  -5    6.10    0.70
   3  -2  -5   99.89    3.30
   3  -2  -5   98.09    3.20
  -3   2   5  100.79    3.30
  -2   2   5   96.69    3.90
  -2   2   5   99.89    3.30
  -1   2   5  950.70   28.10
  -1   2   5  951.90   27.90
   0  -2  -5    3.40    0.80
   0   2   5    2.80    0.50
   0   2   5    1.80    0.60
  -1  -2  -5   23.60    1.30
   1   2   5   26.20    1.20
  -2  -2  -5  116.99    4.20
  -2  -2  -5  127.59    4.20
   2   2   5  130.49    4.20
  -3  -2  -5  194.58    6.80
  -3  -2  -5  210.88    6.70
   3   2   5  230.18    6.80
  -4  -2  -5  207.48    7.20
   4   2   5  252.77    7.50
  -5  -2  -5   11.60    0.90
   5   2   5    9.60    1.10
  -6  -2  -5    9.80    0.80
  -7  -2  -5    6.00    0.50
  10  -3  -5   28.20    1.20
  10  -3  -5   29.50    1.30
   9  -3  -5    0.00    0.40
   9  -3  -5    0.70    0.40
   8  -3  -5   53.29    2.00
   8  -3  -5   52.89    2.10
   8  -3  -5   53.29    2.00
   7  -3  -5    0.40    0.40
   7  -3  -5    1.10    0.50
   7  -3  -5    2.20    0.70
   6  -3  -5  414.46   12.40
   6  -3  -5  412.46   12.30
   6  -3  -5  414.16   12.40
   5  -3  -5  361.56   10.90
   5  -3  -5  364.26   10.80
   5  -3  -5  362.46   10.90
   4  -3  -5  309.07    9.10
   4  -3  -5  303.47    9.20
   4  -3  -5  304.57    9.20
   3  -3  -5   18.90    1.10
   3  -3  -5   18.10    1.10
   3  -3  -5   17.50    1.40
  -3   3   5   19.20    1.20
   2  -3  -5   30.50    1.60
   2  -3  -5   29.50    1.40
  -2   3   5   32.60    1.40
   1  -3  -5    6.60    0.90
  -1   3   5    5.30    0.60
   0  -3  -5   26.30    1.30
   0   3   5   28.60    1.90
  -1  -3  -5    1.50    0.50
   1   3   5    0.20    0.30
  -2  -3  -5  978.30   28.90
   2   3   5  988.70   28.90
  -3  -3  -5  318.87   10.00
   3   3   5  332.87   10.00
  -4  -3  -5  226.88    7.00
   4   3   5  212.28    6.90
  -5  -3  -5   28.40    1.30
   5   3   5   26.50    1.60
  -6  -3  -5   15.00    0.80
  10  -4  -5    0.70    0.30
   9  -4  -5    3.40    0.60
   9  -4  -5    3.30    0.80
   8  -4  -5    1.60    0.50
   8  -4  -5    1.80    0.50
   7  -4  -5   60.59    2.10
   7  -4  -5   58.69    2.30
   7  -4  -5   57.19    2.20
   6  -4  -5  250.07    7.60
   6  -4  -5  249.58    7.60
   6  -4  -5  242.28    7.50
   5  -4  -5   17.80    1.10
   5  -4  -5   18.50    1.20
   5  -4  -5   17.90    1.00
   4  -4  -5    0.30    0.50
   4  -4  -5    0.60    0.50
   3  -4  -5  162.28    5.40
   3  -4  -5  166.78    5.30
   3  -4  -5  169.88    5.30
  -3   4   5  172.98    5.40
   2  -4  -5    0.60    0.50
   2  -4  -5    1.40    0.70
  -2   4   5    0.70    0.40
   1  -4  -5   86.69    3.00
  -1   4   5   84.09    3.00
   0  -4  -5   16.00    1.10
   0   4   5   15.40    1.00
  -1  -4  -5   12.70    1.00
   1   4   5   10.70    0.90
  -2  -4  -5    2.00    0.50
  -3  -4  -5    7.50    0.80
   3   4   5    6.80    0.80
  -4  -4  -5    4.60    0.90
   4   4   5    3.50    0.80
  -5  -4  -5   36.60    1.50
  -6  -4  -5   13.80    0.70
   9  -5  -5   11.30    0.90
   8  -5  -5    0.30    0.40
   7  -5  -5   23.20    1.20
   7  -5  -5   21.50    1.20
   6  -5  -5   21.10    1.20
   6  -5  -5   20.70    1.10
   6  -5  -5   16.80    1.20
   5  -5  -5   33.20    1.50
   5  -5  -5   30.20    1.50
   5  -5  -5   35.20    1.50
   4  -5  -5  218.38    6.80
   4  -5  -5  222.38    6.80
   3  -5  -5   38.80    1.70
   3  -5  -5   40.90    1.70
  -3   5   5   42.60    1.80
   2  -5  -5    0.90    0.50
   2  -5  -5    0.80    0.60
  -2   5   5    0.20    0.40
   1  -5  -5   67.79    2.50
   1  -5  -5   65.79    2.60
  -1   5   5   70.19    2.60
   0  -5  -5    3.80    0.90
   0   5   5    2.80    0.60
  -1  -5  -5  102.29    3.30
   1   5   5   93.59    3.50
  -2  -5  -5   30.90    1.40
   2   5   5   25.50    1.50
  -3  -5  -5   51.89    2.00
   3   5   5   53.39    2.10
  -4  -5  -5   13.00    0.80
   4   5   5   12.70    1.20
  -5  -5  -5    4.20    0.50
   9  -6  -5   18.70    0.90
   8  -6  -5    4.50    0.60
   7  -6  -5    2.40    0.60
   6  -6  -5   -0.40    0.40
   5  -6  -5  157.58    5.00
   4  -6  -5  171.88    5.40
   3  -6  -5   12.90    1.00
  -3   6   5   11.70    1.00
   2  -6  -5    9.90    1.00
  -2   6   5    9.40    0.90
   1  -6  -5    6.00    1.00
  -1   6   5    3.30    0.80
   0   6   5  114.49    4.20
  -1  -6  -5    3.00    0.80
   1   6   5    2.40    0.60
  -2  -6  -5    5.40    0.80
   2   6   5    6.20    0.70
   3   6   5    4.10    0.80
   8  -7  -5   97.29    3.10
   7  -7  -5    0.40    0.30
   6  -7  -5    1.20    0.40
   5  -7  -5  301.37    9.10
   4  -7  -5   47.30    1.90
  -3   7   5  134.19    4.50
   1  -7  -5  158.58    5.00
  -1   7   5  166.08    5.30
   0   7   5    0.40    0.40
   1   7   5    2.20    0.70
   2   7   5   31.00    1.40
   7  -8  -5    3.10    0.50
   6  -8  -5    2.40    0.50
   5  -8  -5    3.80    0.50
   4  -8  -5   22.30    1.00
   3  -8  -5   32.90    1.30
  -3   8   5   32.60    1.70
   2  -8  -5    8.60    0.80
  -2   8   5    7.60    0.90
  -1   8   5   62.09    2.30
   0   8   5   18.60    1.10
   5  -9  -5   11.60    0.70
   4  -9  -5    1.60    0.60
   3 -10   6   35.00    1.30
   4 -10   6  146.79    4.40
   2   9  -6    3.00    0.50
   1   9  -6    0.40    0.70
   1   9  -6    0.80    0.30
   0   9  -6    5.60    0.80
   0   9  -6    4.70    0.50
  -1   9  -6   49.30    2.00
  -2   9  -6  166.38    5.40
  -3   9  -6   72.29    2.70
  -4   9  -6   31.60    1.60
   4  -9   6   30.50    1.20
   5  -9   6    3.30    0.60
   6  -9   6    0.70    0.40
   4   8  -6    2.70    0.70
   3   8  -6    4.30    0.60
   2   8  -6    6.10    1.20
   2   8  -6    5.40    0.70
   1   8  -6    0.80    0.60
   1   8  -6    0.80    0.40
   0   8  -6   12.20    1.10
   0   8  -6   11.00    0.90
  -1   8  -6  117.29    4.10
  -1   8  -6  116.99    3.80
  -2   8  -6    6.80    0.90
  -3   8  -6    0.00    0.50
  -4   8  -6    8.60    1.00
  -5   8  -6   82.99    3.10
   5  -8   6   87.29    2.80
   6  -8   6    0.10    0.30
   7  -8   6   16.30    0.90
   5   7  -6   82.79    2.90
   5   7  -6   88.69    2.80
   4   7  -6    1.30    0.70
   3   7  -6   20.40    1.50
   3   7  -6   20.00    1.10
   2   7  -6   -0.30    0.60
   2   7  -6   -0.40    0.50
   1   7  -6   52.89    2.10
   1   7  -6   49.40    2.20
   0   7  -6    2.50    0.80
   0   7  -6    1.20    0.50
  -1   7  -6  105.59    3.50
  -1   7  -6  100.09    3.80
  -2   7  -6   64.49    2.60
  -3   7  -6   33.00    1.70
  -4   7  -6  108.69    3.90
  -5   7  -6    8.20    1.10
   5  -7   6    7.80    0.80
  -6   7  -6   16.70    1.10
   6  -7   6   16.90    0.90
  -7   7  -6   14.40    1.00
   7  -7   6   13.10    1.00
   6   6  -6   16.70    1.10
   6   6  -6   19.00    1.10
   5   6  -6  185.58    5.80
   5   6  -6  186.58    5.80
   4   6  -6   49.30    2.00
   4   6  -6   51.69    2.10
   3   6  -6   60.29    2.40
   3   6  -6   58.29    2.60
   2   6  -6   29.20    1.60
   2   6  -6   33.30    1.60
   1   6  -6   33.40    1.80
   1   6  -6   34.30    1.70
   0   6  -6    7.10    1.10
   0   6  -6    8.40    0.90
  -1   6  -6  125.19    4.20
  -1   6  -6  127.69    4.50
  -2   6  -6   88.89    3.30
  -3   6  -6  646.94   19.60
  -3   6  -6  600.44   18.40
  -4   6  -6  309.77    9.20
  -4   6  -6  290.87    9.40
   4  -6   6  297.27    9.10
  -5   6  -6   14.20    1.10
  -5   6  -6   14.20    1.20
   5  -6   6   17.10    1.10
  -6   6  -6   15.50    1.00
   6  -6   6   13.70    1.00
  -7   6  -6    1.90    0.60
   7  -6   6    2.70    0.70
  -8   6  -6   61.39    2.00
   7   5  -6    6.50    0.80
   6   5  -6   68.59    2.40
   6   5  -6   66.99    2.50
   5   5  -6   13.60    1.10
   5   5  -6   12.90    1.20
   4   5  -6    1.70    0.60
   4   5  -6    2.40    0.80
   3   5  -6   40.30    2.00
   3   5  -6   41.60    2.20
   3   5  -6   39.10    2.00
   2   5  -6   23.20    1.60
   2   5  -6   24.20    1.50
   1   5  -6    0.40    0.50
   1   5  -6    0.90    0.70
   0   5  -6   18.70    1.30
  -1   5  -6    1.70    0.70
  -1   5  -6    1.20    0.70
  -2   5  -6  108.69    3.90
  -2   5  -6  112.49    3.90
  -3   5  -6   80.79    3.10
  -3   5  -6   84.19    3.10
  -4   5  -6    2.20    0.60
  -4   5  -6    2.70    0.90
   4  -5   6    2.00    0.60
  -5   5  -6    7.70    1.00
  -5   5  -6    8.00    0.90
   5  -5   6    8.10    1.10
  -6   5  -6    8.10    0.90
   6  -5   6    8.20    1.00
  -7   5  -6   13.40    0.90
   7  -5   6   13.00    1.10
  -8   5  -6   25.00    1.10
   8   4  -6   34.00    1.40
   7   4  -6    7.60    0.80
   7   4  -6    5.90    1.20
   6   4  -6   10.00    0.90
   6   4  -6    9.90    1.10
   6   4  -6   10.20    1.00
   5   4  -6   51.09    2.20
   5   4  -6   47.10    2.10
   5   4  -6   48.10    1.90
   4   4  -6    6.00    1.10
   4   4  -6    5.50    1.00
   4   4  -6    6.20    1.30
   3   4  -6   27.30    1.60
   2   4  -6    0.20    0.50
   1   4  -6    4.30    0.70
   1   4  -6    6.10    1.00
   0   4  -6  331.57   10.00
   0   4  -6  336.77   10.30
  -1   4  -6   82.29    3.00
  -1   4  -6   79.59    2.90
  -2   4  -6    4.00    1.00
  -2   4  -6    4.50    0.80
  -3   4  -6    1.10    0.50
  -4   4  -6   32.80    1.60
  -4   4  -6   35.10    1.70
  -5   4  -6   40.40    1.80
  -6   4  -6   18.80    1.20
  -7   4  -6   20.30    1.10
  -8   4  -6    0.10    0.30
   8   3  -6   34.80    1.40
   8   3  -6   37.40    1.50
   7   3  -6    3.00    0.80
   7   3  -6    4.10    0.60
   6   3  -6    0.70    0.40
   6   3  -6    1.60    0.70
   5   3  -6   -0.50    0.50
   5   3  -6    0.40    0.50
   5   3  -6    0.70    0.80
   4   3  -6   16.00    1.70
   4   3  -6   15.20    1.10
   4   3  -6   13.40    1.00
   3   3  -6   30.20    1.40
   3   3  -6   31.60    1.70
   3   3  -6   31.20    1.40
   2   3  -6    4.00    0.90
   2   3  -6    5.40    0.90
   2   3  -6    5.20    1.00
   1   3  -6    2.60    0.70
   1   3  -6    1.40    0.50
   0   3  -6  190.28    6.00
   0   3  -6  179.98    5.80
  -1   3  -6   12.30    1.10
  -1   3  -6   12.80    1.00
  -2   3  -6   28.90    1.50
  -2   3  -6   30.10    1.50
  -3   3  -6   20.50    1.20
  -3   3  -6   18.80    1.20
  -4   3  -6   10.30    1.00
  -4   3  -6    9.90    1.00
  -5   3  -6   26.70    1.40
  -6   3  -6  110.59    3.80
  -7   3  -6   27.10    1.40
  -8   3  -6    0.70    0.30
   9   2  -6    3.20    0.50
   9   2  -6    3.50    0.70
   8   2  -6   12.20    0.80
   8   2  -6   12.30    1.00
   7   2  -6    9.20    1.00
   7   2  -6    8.30    0.70
   7   2  -6    7.70    0.80
   6   2  -6   11.70    0.90
   6   2  -6   13.60    1.20
   6   2  -6   11.20    0.90
   5   2  -6    4.10    0.90
   5   2  -6    5.20    0.80
   5   2  -6    4.20    0.70
   4   2  -6   67.89    2.90
   4   2  -6   68.09    2.40
   4   2  -6   70.39    2.50
   3   2  -6  351.96   10.50
   3   2  -6  348.57   10.40
   2   2  -6   15.00    1.00
   2   2  -6   15.80    1.20
   2   2  -6   19.60    1.10
   1   2  -6    5.60    0.80
   1   2  -6    5.40    0.80
   1   2  -6    8.20    1.00
   0   2  -6  275.97    8.50
  -1   2  -6   29.30    1.60
  -1   2  -6   34.30    1.60
  -1   2  -6   34.70    1.60
  -2   2  -6   94.29    3.40
  -2   2  -6  101.49    3.40
  -2   2  -6  101.69    3.60
  -3   2  -6    0.30    0.50
  -3   2  -6    1.00    0.60
  -3   2  -6    1.40    0.50
  -4   2  -6   19.80    1.30
  -4   2  -6   22.60    1.30
  -5   2  -6  113.49    4.00
  -5   2  -6  116.59    3.90
   5  -2   6  113.89    4.00
  -6   2  -6    7.40    0.90
  -6   2  -6    7.10    0.90
  -7   2  -6   -0.20    0.30
  -7   2  -6   -0.40    0.40
  -8   2  -6    1.10    0.30
   9   1  -6   38.40    1.40
   9   1  -6   38.90    1.70
   8   1  -6    0.40    0.30
   8   1  -6   -0.20    0.40
   8   1  -6    0.50    0.30
   7   1  -6    2.90    0.60
   7   1  -6    5.10    1.00
   7   1  -6    3.80    0.70
   6   1  -6   51.69    2.30
   6   1  -6   52.79    2.00
   6   1  -6   51.89    1.90
   5   1  -6    1.90    0.60
   5   1  -6    2.80    0.60
   5   1  -6    1.10    0.80
   4   1  -6  167.18    5.00
   4   1  -6  164.88    4.90
   4   1  -6  142.49    5.70
   3   1  -6   55.99    2.10
   3   1  -6   55.09    2.00
   2   1  -6   43.30    1.70
   2   1  -6   41.90    1.70
   1   1  -6    1.40    0.60
   1   1  -6    0.40    0.40
   1   1  -6    1.00    0.50
   0   1  -6  878.01   25.20
   0   1  -6  860.31   25.00
   0   1  -6  829.22   25.00
  -1   1  -6   10.50    1.00
  -1   1  -6   10.20    1.00
  -1   1  -6   11.50    0.90
  -2   1  -6   16.10    1.10
  -2   1  -6   14.40    1.10
  -3   1  -6  187.78    6.10
  -3   1  -6  197.28    6.10
  -4   1  -6    1.70    0.50
  -4   1  -6    1.60    0.50
  -5   1  -6    0.20    0.40
  -5   1  -6    1.10    0.50
   5  -1   6   -0.10    0.50
  -6   1  -6   17.30    1.10
  -6   1  -6   18.40    1.10
  -7   1  -6    5.10    0.60
  -7   1  -6    6.80    0.70
  -8   1  -6   49.30    1.70
  -8   1  -6   47.80    1.60
   9   0  -6    3.40    0.50
   9   0  -6    2.70    0.60
   8   0  -6    6.70    0.90
   8   0  -6    8.20    0.70
   8   0  -6    7.80    0.70
   7   0  -6  369.76   11.40
   7   0  -6  397.86   11.70
   7   0  -6  378.76   11.50
   6   0  -6   93.59    3.10
   6   0  -6   93.09    3.50
   6   0  -6   96.89    3.40
   5   0  -6  175.18    5.40
   5   0  -6  174.78    5.50
   4   0  -6   35.00    1.40
   4   0  -6   35.10    1.50
   3   0  -6   74.19    2.50
   3   0  -6   72.29    2.50
   2   0  -6   12.00    0.90
   2   0  -6   13.40    0.90
   1   0  -6   94.29    3.20
   1   0  -6   97.79    3.20
   0   0  -6  476.35   14.10
   0   0  -6  471.85   14.10
  -1   0  -6    5.20    0.80
  -1   0  -6    8.10    1.00
  -2   0  -6  258.17    8.10
  -2   0  -6  267.67    8.10
  -3   0  -6  169.18    5.90
  -3   0  -6  189.38    6.20
   3   0   6  186.88    5.90
  -4   0  -6   80.09    2.90
  -4   0  -6   78.39    2.90
   4   0   6   80.39    3.00
  -5   0  -6  114.09    3.90
  -5   0  -6  118.69    3.90
   5   0   6  105.49    3.80
  -6   0  -6   24.60    1.20
  -6   0  -6   25.40    1.30
  -7   0  -6   60.59    2.10
  -7   0  -6   59.79    2.10
   9  -1  -6    8.40    0.80
   9  -1  -6    8.50    0.60
   8  -1  -6   79.49    2.80
   8  -1  -6   80.89    2.90
   8  -1  -6   77.09    2.70
   7  -1  -6   83.39    3.00
   7  -1  -6   79.29    2.70
   7  -1  -6   81.29    2.80
   6  -1  -6  270.77    8.20
   6  -1  -6  274.27    8.30
   6  -1  -6  264.17    8.40
   5  -1  -6    4.60    0.60
   5  -1  -6    4.40    0.80
   4  -1  -6  157.98    5.00
   4  -1  -6  157.08    4.90
   3  -1  -6  258.57    7.60
   3  -1  -6  245.58    7.50
  -3   1   6  240.38    8.00
   2  -1  -6    3.50    0.70
   2  -1  -6    4.90    0.80
  -2   1   6    4.40    0.80
   1  -1  -6   11.30    0.90
   1  -1  -6   10.70    0.80
   0  -1  -6  290.67    9.00
   0  -1  -6  305.07    9.00
  -1  -1  -6  421.26   12.40
  -1  -1  -6  402.46   12.40
   1   1   6  419.56   12.60
  -2  -1  -6  497.95   15.30
  -2  -1  -6  502.65   15.30
   2   1   6  543.15   15.60
  -3  -1  -6  338.17   10.40
  -3  -1  -6  343.47   10.50
   3   1   6  353.06   10.60
  -4  -1  -6  172.68    5.40
  -4  -1  -6  170.78    5.50
   4   1   6  165.88    5.50
  -5  -1  -6    3.00    0.70
  -5  -1  -6    3.60    0.90
   5   1   6    3.20    0.80
  -6  -1  -6    2.80    0.80
  -7  -1  -6    4.80    0.50
   9  -2  -6    3.90    0.50
   8  -2  -6  121.49    4.00
   8  -2  -6  127.49    4.10
   8  -2  -6  120.39    4.00
   7  -2  -6   10.20    1.00
   7  -2  -6    9.40    0.80
   7  -2  -6   11.60    0.80
   6  -2  -6    4.00    1.00
   6  -2  -6    2.80    0.60
   5  -2  -6   39.60    1.80
   5  -2  -6   41.50    1.60
   5  -2  -6   41.90    1.70
   4  -2  -6  209.48    6.60
   4  -2  -6  210.68    6.50
   4  -2  -6  209.98    6.40
   3  -2  -6   47.30    1.80
   3  -2  -6   47.90    1.80
  -3   2   6   46.20    1.90
   2  -2  -6  159.48    5.10
   2  -2  -6  155.88    5.00
  -2   2   6  171.08    5.20
   1  -2  -6  143.69    4.70
   1  -2  -6  151.48    4.80
  -1   2   6  152.18    4.90
   0  -2  -6    4.10    1.00
   0  -2  -6    3.70    0.70
   0   2   6    4.40    0.60
  -1  -2  -6   23.20    1.30
  -1  -2  -6   22.10    1.20
   1   2   6   23.70    1.30
  -2  -2  -6  393.36   12.00
   2   2   6  398.36   12.10
  -3  -2  -6  199.18    6.50
  -3  -2  -6  215.88    6.60
  -4  -2  -6    8.00    0.80
   4   2   6    7.40    0.80
  -5  -2  -6    2.50    0.60
   5   2   6    4.00    1.00
  -6  -2  -6    2.70    0.50
  -7  -2  -6   42.70    1.50
   9  -3  -6    5.20    0.70
   9  -3  -6    4.20    0.60
   8  -3  -6    5.10    0.80
   8  -3  -6    3.20    0.60
   8  -3  -6    4.30    0.50
   7  -3  -6   21.90    1.10
   7  -3  -6   19.30    1.30
   7  -3  -6   21.70    1.10
   6  -3  -6  119.29    3.90
   6  -3  -6  121.89    4.00
   6  -3  -6  124.09    4.10
   5  -3  -6  541.55   16.30
   5  -3  -6  559.04   16.30
   5  -3  -6  557.54   16.40
   4  -3  -6    0.30    0.70
   4  -3  -6    0.70    0.40
   4  -3  -6    2.40    0.70
   3  -3  -6    0.50    0.40
   3  -3  -6    0.60    0.40
  -3   3   6    0.20    0.50
   2  -3  -6   55.09    2.10
   2  -3  -6   58.69    2.10
  -2   3   6   61.79    2.30
   1  -3  -6    2.30    0.60
   1  -3  -6    3.30    1.00
  -1   3   6    3.00    0.60
   0  -3  -6    0.10    0.40
   0   3   6    0.60    0.40
  -1  -3  -6    6.90    0.80
   1   3   6    5.00    0.70
  -2  -3  -6   52.99    2.10
  -3  -3  -6   29.80    1.50
   3   3   6   27.20    1.40
  -4  -3  -6    4.90    0.80
   4   3   6    5.10    0.80
  -5  -3  -6   18.60    1.00
   9  -4  -6    9.40    0.70
   9  -4  -6    6.60    0.80
   8  -4  -6   25.50    1.20
   8  -4  -6   24.30    1.10
   8  -4  -6   26.40    1.20
   7  -4  -6   86.09    3.70
   7  -4  -6   97.19    3.10
   6  -4  -6  152.58    4.80
   6  -4  -6  149.09    4.80
   6  -4  -6  155.48    4.90
   5  -4  -6   23.10    1.20
   5  -4  -6   24.00    1.20
   5  -4  -6   23.50    1.30
   4  -4  -6    2.60    0.70
   4  -4  -6   -0.20    0.40
   4  -4  -6    0.20    0.60
   3  -4  -6   13.10    0.90
   3  -4  -6   12.20    1.10
  -3   4   6   14.40    1.10
   2  -4  -6    0.20    0.40
  -2   4   6    0.40    0.40
   1  -4  -6    2.90    0.70
  -1   4   6    2.60    0.60
   0  -4  -6    0.20    0.40
   0   4   6    0.40    0.30
  -1  -4  -6    2.70    0.70
   1   4   6    2.20    0.60
  -2  -4  -6    6.70    0.70
   2   4   6    4.90    0.70
  -3  -4  -6    4.10    0.70
   3   4   6    3.10    0.70
  -4  -4  -6   10.30    0.70
   4   4   6   12.10    0.90
  -5  -4  -6   20.50    0.90
   9  -5  -6   34.10    1.30
   8  -5  -6    0.60    0.40
   7  -5  -6  261.97    8.10
   7  -5  -6  276.97    8.20
   7  -5  -6  271.77    8.10
   6  -5  -6   75.19    2.60
   6  -5  -6   71.49    2.90
   5  -5  -6    7.50    0.90
   5  -5  -6    5.60    1.00
   5  -5  -6    7.00    0.90
   4  -5  -6  137.79    4.40
   4  -5  -6  139.59    4.50
   3  -5  -6   49.90    2.00
   3  -5  -6   52.09    2.00
  -3   5   6   52.29    2.10
   2  -5  -6   50.59    1.90
  -2   5   6   49.30    2.10
   1  -5  -6    2.00    0.50
  -1   5   6    1.60    0.60
   0   5   6    2.90    0.60
  -1  -5  -6    5.80    0.70
   1   5   6    5.80    0.80
  -2  -5  -6   12.00    0.80
   2   5   6   10.90    0.90
  -3  -5  -6    1.40    0.40
   3   5   6    0.90    0.50
  -4  -5  -6    2.80    0.50
   8  -6  -6    1.00    0.40
   7  -6  -6   39.10    1.50
   6  -6  -6   74.19    2.60
   5  -6  -6   50.29    1.90
  -3   6   6   48.20    2.10
  -2   6   6    3.60    0.80
  -1   6   6   11.80    0.90
   0  -6  -6  159.18    5.00
   0   6   6  161.28    5.30
  -1  -6  -6   31.50    1.30
   1   6   6   31.40    1.50
   2   6   6   10.40    0.90
   8  -7  -6   30.00    1.20
   7  -7  -6   50.29    1.80
   6  -7  -6    1.90    0.60
   5  -7  -6    8.50    0.80
   4  -7  -6  120.99    3.80
   3  -7  -6    5.90    0.80
  -3   7   6    5.50    1.10
  -1   7   6    8.90    0.90
   0   7   6    5.40    0.80
   1   7   6   23.80    1.20
   6  -8  -6    3.10    1.00
   5  -8  -6   86.49    2.70
   0   9  -7    1.40    0.70
  -1   9  -7    0.30    0.50
  -2   9  -7   74.89    2.70
  -3   9  -7   73.09    2.60
   3  -9   7   70.19    2.40
   2   8  -7   57.39    2.00
   1   8  -7   61.69    2.40
   1   8  -7   53.59    2.00
   0   8  -7    4.30    0.90
   0   8  -7    6.40    0.70
  -1   8  -7   31.70    1.60
  -2   8  -7   49.00    2.30
  -3   8  -7    1.80    0.60
   3  -8   7    3.30    0.70
  -4   8  -7   18.30    1.20
   4  -8   7   18.60    1.00
  -5   8  -7   15.60    2.20
   2   7  -7   70.69    3.70
   2   7  -7   88.09    2.80
   1   7  -7    0.70    0.60
   1   7  -7    0.50    0.50
   0   7  -7    2.20    0.80
   0   7  -7    2.40    0.80
  -1   7  -7   28.50    1.50
  -2   7  -7  284.07    9.20
  -3   7  -7   47.10    2.20
  -4   7  -7    1.30    0.50
   4  -7   7    1.00    0.50
  -5   7  -7  101.29    3.60
   2   6  -7   84.19    3.20
   1   6  -7   70.49    2.80
   0   6  -7   23.80    1.40
  -1   6  -7   31.20    1.60
  -2   6  -7    3.00    0.80
  -3   6  -7   17.00    1.30
  -3   6  -7   17.30    1.20
  -4   6  -7   50.99    2.20
  -5   6  -7   30.60    1.40
  -5   6  -7   33.10    1.70
  -6   6  -7   -0.20    0.40
  -7   6  -7    0.00    0.30
   2   5  -7    1.20    0.70
   0   5  -7  293.77    9.00
   0   5  -7  277.47    8.60
  -1   5  -7   66.89    2.70
  -1   5  -7   65.29    2.40
  -2   5  -7    9.20    1.00
  -3   5  -7    1.60    0.50
  -3   5  -7    0.90    0.50
  -4   5  -7    2.00    0.80
  -4   5  -7    1.20    0.50
  -5   5  -7  257.27    8.00
  -6   5  -7    0.70    0.40
  -7   5  -7    5.50    0.60
   7   4  -7    1.00    0.70
   6   4  -7    3.00    1.10
   6   4  -7    2.50    0.50
   5   4  -7    1.60    0.90
   5   4  -7    1.60    0.60
   3   4  -7    0.20    0.50
   2   4  -7    9.60    1.10
   2   4  -7    5.70    0.90
   1   4  -7   29.80    1.40
   1   4  -7   31.90    1.70
   0   4  -7    1.80    0.50
   0   4  -7    2.60    0.80
  -1   4  -7    8.10    0.90
  -1   4  -7    8.50    1.00
  -2   4  -7    0.40    0.50
  -2   4  -7   -0.80    0.50
  -3   4  -7    1.40    0.50
  -3   4  -7    2.20    0.80
  -4   4  -7  414.86   12.70
  -4   4  -7  414.86   12.80
  -5   4  -7    0.60    0.40
  -6   4  -7   30.30    1.40
  -7   4  -7    0.40    0.30
  -8   4  -7   45.80    1.60
   8   3  -7   -0.30    0.50
   7   3  -7   25.50    1.20
   7   3  -7   27.10    1.40
   6   3  -7   -0.30    0.40
   6   3  -7    0.20    0.50
   6   3  -7   -0.10    0.70
   5   3  -7    2.40    0.70
   5   3  -7    1.90    0.90
   4   3  -7    1.50    0.40
   4   3  -7    2.00    0.50
   3   3  -7   67.39    2.40
   3   3  -7   69.79    2.40
   2   3  -7   43.60    1.80
   2   3  -7   44.00    1.80
   2   3  -7   45.20    2.00
   1   3  -7  206.38    6.60
   1   3  -7  226.28    6.90
   1   3  -7  211.88    6.60
   0   3  -7   18.30    1.20
   0   3  -7   16.70    1.10
  -1   3  -7   67.29    2.70
  -1   3  -7   71.19    2.70
  -2   3  -7   86.79    3.40
  -2   3  -7   91.99    3.20
  -3   3  -7    1.60    0.50
  -3   3  -7    0.90    0.50
  -4   3  -7   22.10    1.30
  -5   3  -7   47.50    2.00
  -6   3  -7   -0.40    0.30
  -7   3  -7  107.89    3.60
   8   2  -7   16.70    1.10
   8   2  -7   18.90    0.90
   7   2  -7    3.90    0.60
   7   2  -7    3.10    0.60
   7   2  -7    2.70    0.70
   6   2  -7   45.10    1.70
   6   2  -7   45.40    1.80
   5   2  -7    1.10    0.40
   5   2  -7    0.30    1.20
   5   2  -7    0.90    0.40
   4   2  -7   16.20    0.90
   4   2  -7   15.60    1.00
   3   2  -7   46.60    1.80
   3   2  -7   45.00    1.70
   2   2  -7    4.00    0.80
   2   2  -7    3.10    0.80
   1   2  -7   27.80    1.30
   1   2  -7   26.60    1.30
   1   2  -7   29.90    1.50
   0   2  -7   67.99    2.50
   0   2  -7   66.49    2.40
   0   2  -7   68.49    2.60
  -1   2  -7  112.79    3.90
  -1   2  -7  122.39    4.00
  -1   2  -7  127.99    4.30
  -2   2  -7   53.79    2.30
  -2   2  -7   51.49    2.10
  -2   2  -7   52.39    2.10
  -3   2  -7   45.50    1.90
  -3   2  -7   45.00    2.00
  -4   2  -7   11.70    1.00
  -4   2  -7   13.90    1.10
  -5   2  -7   10.40    0.90
  -5   2  -7    9.70    0.90
   5  -2   7    9.40    1.00
  -6   2  -7    5.90    0.70
  -6   2  -7    5.00    0.70
  -7   2  -7   38.90    1.50
   9   1  -7    1.40    0.40
   8   1  -7   16.40    0.90
   8   1  -7   16.80    1.10
   8   1  -7   17.10    0.90
   7   1  -7   84.79    2.80
   7   1  -7   85.59    3.10
   7   1  -7   82.39    2.90
   6   1  -7   75.49    3.00
   6   1  -7   77.19    2.60
   6   1  -7   78.69    2.90
   5   1  -7  576.14   17.10
   5   1  -7  582.24   17.00
   4   1  -7    5.90    0.70
   4   1  -7    4.70    0.70
   3   1  -7   28.10    1.40
   2   1  -7  206.58    6.40
   2   1  -7  209.48    6.40
   1   1  -7   50.69    1.90
   1   1  -7   52.19    1.90
   0   1  -7  257.37    7.90
   0   1  -7  257.57    7.90
  -1   1  -7  197.78    6.10
  -1   1  -7  193.38    6.10
  -2   1  -7  493.35   14.70
  -2   1  -7  490.65   14.70
  -3   1  -7    2.70    0.80
  -3   1  -7    2.20    0.50
  -4   1  -7    2.10    0.70
  -4   1  -7    0.80    0.50
   4  -1   7    0.30    0.50
  -5   1  -7   77.29    2.70
  -5   1  -7   73.89    2.60
   5  -1   7   69.39    2.80
  -6   1  -7   92.19    3.00
  -6   1  -7   91.59    3.10
  -7   1  -7   14.10    0.80
   9   0  -7    1.20    0.50
   9   0  -7    0.60    0.30
   8   0  -7    3.00    0.80
   8   0  -7    2.80    0.50
   8   0  -7    3.90    0.50
   7   0  -7  192.18    6.40
   7   0  -7  210.28    6.60
   6   0  -7   53.39    1.90
   6   0  -7   54.59    2.00
   6   0  -7   51.79    2.30
   5   0  -7   25.80    1.20
   5   0  -7   24.00    1.10
   4   0  -7   34.70    1.40
   4   0  -7   34.20    1.50
   3   0  -7   22.60    1.30
   2   0  -7   18.20    1.00
   2   0  -7   16.50    1.00
   1   0  -7  123.49    4.00
   1   0  -7  119.79    3.90
   0   0  -7   76.89    2.60
   0   0  -7   69.99    2.60
  -1   0  -7  200.48    6.30
  -1   0  -7  202.78    6.50
  -2   0  -7  275.47    8.70
  -2   0  -7  281.87    8.70
   2   0   7  293.57    8.90
  -3   0  -7   18.00    1.10
  -3   0  -7   17.60    1.20
  -4   0  -7    8.90    0.90
  -4   0  -7   10.40    0.90
   4   0   7   10.70    1.00
  -5   0  -7  117.29    3.90
  -5   0  -7  123.79    3.90
   5   0   7  114.79    4.00
  -6   0  -7    5.60    0.60
  -6   0  -7    5.60    0.70
  -7   0  -7    7.00    0.50
   9  -1  -7    0.20    0.30
   9  -1  -7    0.10    0.50
   8  -1  -7    2.80    0.50
   8  -1  -7    3.30    0.80
   8  -1  -7    2.50    0.50
   7  -1  -7  286.17    8.90
   7  -1  -7  289.47    9.00
   7  -1  -7  304.97    8.90
   6  -1  -7  204.18    6.40
   6  -1  -7  203.78    6.50
   6  -1  -7  204.78    6.30
   5  -1  -7    4.70    0.70
   5  -1  -7    3.70    0.60
   4  -1  -7   32.90    1.40
   4  -1  -7   31.90    1.30
   3  -1  -7   82.99    2.90
   3  -1  -7   86.49    2.90
  -3   1   7   87.19    3.10
   2  -1  -7  298.57    9.20
   2  -1  -7  299.97    9.20
  -2   1   7  317.77    9.40
   1  -1  -7   44.40    1.80
   1  -1  -7   43.40    1.80
  -1   1   7   46.20    1.90
   0  -1  -7  112.99    4.10
   0  -1  -7  116.79    3.90
   0   1   7  123.39    4.10
  -1  -1  -7   14.30    1.00
  -1  -1  -7   15.30    1.00
   1   1   7   15.50    1.10
  -2  -1  -7  846.22   24.80
  -2  -1  -7  808.02   24.90
   2   1   7  883.41   25.10
  -3  -1  -7   36.50    1.60
  -3  -1  -7   37.20    1.60
   3   1   7   34.00    1.70
  -4  -1  -7  167.28    5.10
  -4  -1  -7  160.68    5.20
   4   1   7  155.08    5.20
  -5  -1  -7   37.70    1.50
  -5  -1  -7   38.40    1.50
   5   1   7   37.00    1.70
  -6  -1  -7   48.70    1.70
   9  -2  -7    0.20    0.30
   9  -2  -7   -0.40    0.40
   8  -2  -7   88.09    3.00
   8  -2  -7   83.69    2.80
   8  -2  -7   82.99    2.80
   7  -2  -7   47.50    2.00
   7  -2  -7   46.80    2.00
   7  -2  -7   49.20    2.30
   6  -2  -7   46.20    1.70
   6  -2  -7   44.80    2.00
   6  -2  -7   45.20    1.80
   5  -2  -7   10.80    0.90
   5  -2  -7   13.40    0.90
   4  -2  -7   38.90    1.60
   4  -2  -7   40.60    1.60
   3  -2  -7  127.09    4.10
   3  -2  -7  126.89    4.10
  -3   2   7  128.89    4.30
   2  -2  -7   28.40    1.30
   2  -2  -7   30.60    1.30
  -2   2   7   30.70    1.50
   1  -2  -7   27.90    1.30
   1  -2  -7   28.70    1.30
  -1   2   7   29.20    1.50
   0  -2  -7    1.90    0.60
   0   2   7    2.30    0.60
  -1  -2  -7  144.69    4.80
  -1  -2  -7  142.79    4.70
   1   2   7  159.38    5.00
  -2  -2  -7   41.90    1.80
  -2  -2  -7   45.00    2.00
   2   2   7   41.50    1.90
  -3  -2  -7   66.39    2.30
  -3  -2  -7   63.79    2.40
   3   2   7   62.99    2.50
  -4  -2  -7    2.50    0.50
   4   2   7    2.30    0.70
  -5  -2  -7   70.49    2.50
  -6  -2  -7    3.30    0.40
   9  -3  -7    4.90    0.60
   9  -3  -7    4.70    0.70
   8  -3  -7  247.28    7.60
   8  -3  -7  256.27    7.60
   8  -3  -7  241.58    7.50
   7  -3  -7   40.20    1.50
   7  -3  -7   41.10    1.70
   7  -3  -7   39.40    1.60
   6  -3  -7   42.00    1.90
   6  -3  -7   44.20    1.60
   6  -3  -7   42.90    1.70
   5  -3  -7    0.30    0.30
   5  -3  -7   -0.10    0.40
   4  -3  -7  130.49    4.10
   4  -3  -7  125.89    4.10
   3  -3  -7    6.90    0.70
   3  -3  -7    6.90    0.80
  -3   3   7    6.30    0.90
   2  -3  -7    2.20    0.60
   2  -3  -7    2.80    0.80
  -2   3   7    4.20    0.80
   1  -3  -7   10.40    0.80
   1  -3  -7   10.10    1.00
  -1   3   7    8.80    0.90
   0  -3  -7   49.70    2.00
   0  -3  -7   47.80    1.90
   0   3   7   51.89    2.70
  -1  -3  -7    0.50    0.40
   1   3   7    0.60    0.40
  -2  -3  -7   17.90    1.00
   2   3   7   17.60    1.10
  -3  -3  -7    8.90    0.70
   3   3   7    9.30    0.80
  -4  -3  -7   11.40    0.70
   4   3   7   11.80    1.00
  -5  -3  -7   23.80    1.00
   9  -4  -7    0.60    0.50
   8  -4  -7   10.20    0.70
   8  -4  -7    9.60    0.70
   8  -4  -7   11.10    0.80
   7  -4  -7    6.80    0.60
   7  -4  -7    6.70    0.80
   7  -4  -7    6.20    0.60
   6  -4  -7    4.10    0.70
   6  -4  -7    3.50    1.00
   6  -4  -7    3.90    0.60
   5  -4  -7    7.70    0.70
   5  -4  -7    7.80    1.10
   5  -4  -7    6.30    0.70
   4  -4  -7   13.40    1.00
   4  -4  -7   13.90    0.90
   3  -4  -7   34.40    1.50
   3  -4  -7   36.50    1.50
  -3   4   7   37.20    1.70
   2  -4  -7   48.20    1.90
  -2   4   7   49.10    2.00
   1  -4  -7   92.69    3.10
  -1   4   7   90.99    3.30
   0  -4  -7    3.20    0.60
   0   4   7    2.70    0.70
  -1  -4  -7    1.80    0.60
   1   4   7    0.20    0.40
  -2  -4  -7   -0.20    0.30
   2   4   7    0.30    0.40
  -3  -4  -7    2.00    0.50
   3   4   7    2.70    0.70
  -4  -4  -7   24.20    1.00
   8  -5  -7   -0.10    0.50
   7  -5  -7    4.20    0.80
   7  -5  -7    4.00    0.70
   7  -5  -7    7.40    1.20
   6  -5  -7    1.50    0.60
   6  -5  -7    2.30    0.70
   6  -5  -7    2.60    0.70
   5  -5  -7   57.79    2.00
   5  -5  -7   55.39    2.10
   3  -5  -7   29.10    1.30
  -3   5   7   28.70    1.60
   2  -5  -7    8.30    0.70
  -2   5   7    7.90    0.90
   1  -5  -7   81.89    2.80
  -1   5   7   75.49    2.90
   0  -5  -7   10.80    0.80
   0   5   7   11.20    1.00
  -1  -5  -7   33.40    1.30
   1   5   7   32.70    1.50
  -2  -5  -7    2.70    0.50
   2   5   7    2.50    0.60
  -3  -5  -7    0.70    0.30
   7  -6  -7   13.70    0.90
  -3   6   7    1.00    0.80
  -2   6   7   39.70    1.80
   0   6   7   -0.10    0.40
   1   6   7   32.60    1.40
   0   8  -8   23.00    1.40
  -1   8  -8    5.30    0.90
  -2   8  -8    0.40    0.40
  -3   8  -8   14.20    1.00
   1   7  -8   28.00    1.60
   0   7  -8   32.50    1.60
  -1   7  -8   43.40    2.00
  -2   7  -8    4.50    0.90
  -3   7  -8   39.00    1.80
  -4   7  -8    3.60    0.80
   2   6  -8   37.70    1.90
   1   6  -8   71.79    2.80
   0   6  -8  133.99    4.60
  -1   6  -8   70.79    2.80
  -2   6  -8  148.69    4.60
  -3   6  -8    2.80    0.80
  -3   6  -8    2.60    0.70
  -4   6  -8   56.09    2.00
  -4   6  -8   55.59    2.30
  -5   6  -8   75.59    2.50
  -6   6  -8   37.30    1.40
   2   5  -8   99.29    3.60
   1   5  -8   -0.10    0.60
   1   5  -8    0.00    0.50
   0   5  -8   12.10    1.00
   0   5  -8    9.70    1.00
  -1   5  -8  240.48    7.90
  -1   5  -8  250.57    7.50
  -2   5  -8   35.00    1.80
  -2   5  -8   39.50    1.60
  -3   5  -8   10.20    0.90
  -3   5  -8   10.10    1.00
  -4   5  -8   26.30    1.20
  -5   5  -8   32.90    1.40
  -6   5  -8   34.80    1.30
  -7   5  -8   21.50    0.90
   3   4  -8   31.90    1.40
   2   4  -8   82.19    3.20
   2   4  -8   86.49    2.80
   1   4  -8   10.70    0.90
   1   4  -8    9.70    1.00
   0   4  -8    3.40    0.80
   0   4  -8    2.40    0.80
  -1   4  -8   53.89    2.40
  -1   4  -8   56.39    2.10
  -2   4  -8    2.50    0.70
  -2   4  -8    2.70    1.00
  -3   4  -8   23.70    1.20
  -3   4  -8   22.40    2.00
  -4   4  -8   30.80    1.40
  -5   4  -8   24.30    1.20
  -6   4  -8    4.30    0.60
  -7   4  -8    0.20    0.20
   7   3  -8    0.40    0.40
   6   3  -8   53.39    1.90
   6   3  -8   56.59    2.00
   5   3  -8   26.60    1.20
   5   3  -8   28.50    1.20
   4   3  -8   83.49    2.80
   4   3  -8   82.99    2.80
   3   3  -8   -0.10    0.40
   3   3  -8   -0.50    0.30
   2   3  -8   42.80    1.70
   2   3  -8   45.50    1.70
   2   3  -8   42.00    2.40
   1   3  -8   13.40    0.90
   1   3  -8   14.30    1.10
   1   3  -8   13.70    1.10
   0   3  -8    0.20    0.40
   0   3  -8    0.10    0.40
   0   3  -8   -0.20    0.60
  -1   3  -8  166.28    5.30
  -1   3  -8  166.88    5.90
  -2   3  -8    0.50    0.50
  -2   3  -8    0.50    0.40
  -3   3  -8   21.10    1.40
  -4   3  -8   23.70    1.20
  -5   3  -8   25.20    1.20
   5  -3   8   23.90    1.50
  -6   3  -8    0.80    0.30
  -7   3  -8   15.90    0.70
   8   2  -8   15.80    0.80
   7   2  -8    2.00    0.50
   7   2  -8    2.50    0.60
   6   2  -8   69.69    2.30
   6   2  -8   69.99    2.40
   5   2  -8   71.79    2.40
   5   2  -8   71.49    2.50
   4   2  -8    7.60    0.70
   4   2  -8    8.10    0.70
   3   2  -8   52.79    2.00
   3   2  -8   54.19    2.00
   2   2  -8    0.50    0.40
   2   2  -8    0.50    0.30
   1   2  -8   72.69    2.60
   1   2  -8   71.39    2.50
   0   2  -8   15.20    1.00
   0   2  -8   16.60    1.00
  -1   2  -8    5.50    0.70
  -1   2  -8    6.10    0.80
  -2   2  -8   17.40    1.20
  -2   2  -8   20.20    1.10
  -3   2  -8    5.40    0.80
  -3   2  -8    8.40    0.80
  -4   2  -8   15.80    1.00
   4  -2   8   13.80    1.10
  -5   2  -8   -0.10    0.30
  -5   2  -8    0.20    0.40
  -6   2  -8    1.10    0.30
   8   1  -8   15.60    0.90
   8   1  -8   15.50    0.80
   7   1  -8  122.49    3.80
   7   1  -8  124.89    3.90
   6   1  -8    1.70    0.50
   6   1  -8    0.90    0.30
   5   1  -8  132.89    4.20
   5   1  -8  132.69    4.30
   4   1  -8   11.30    0.90
   4   1  -8   11.40    0.80
   3   1  -8    4.70    0.70
   3   1  -8    4.40    0.60
   2   1  -8  155.38    4.90
   1   1  -8   52.69    2.00
   1   1  -8   51.79    2.00
   0   1  -8  343.07   10.40
   0   1  -8  347.57   10.40
  -1   1  -8  738.33   21.40
  -1   1  -8  713.23   21.40
  -2   1  -8   38.70    1.60
  -2   1  -8   37.40    1.60
  -3   1  -8   48.30    1.90
  -3   1  -8   51.59    2.00
   3  -1   8   48.20    2.30
  -4   1  -8   13.40    1.00
  -4   1  -8   12.80    0.90
   4  -1   8   12.00    1.00
  -5   1  -8    4.70    0.60
  -5   1  -8    4.70    0.60
   5  -1   8    4.00    1.00
  -6   1  -8   19.90    0.90
  -6   1  -8   19.70    0.90
   8   0  -8  355.46   10.30
   8   0  -8  344.77   10.40
   7   0  -8    7.30    0.60
   7   0  -8    7.90    0.70
   6   0  -8    1.70    0.60
   6   0  -8    0.80    0.30
   5   0  -8   50.09    1.80
   5   0  -8   48.90    1.90
   4   0  -8   13.50    0.90
   4   0  -8   13.90    0.80
   3   0  -8   12.30    0.80
   3   0  -8   14.10    0.90
  -3   0   8   12.00    1.30
   2   0  -8  135.49    4.50
   2   0  -8  133.09    4.40
  -2   0   8  147.69    4.70
   1   0  -8  278.47    8.60
   1   0  -8  278.27    8.50
   0   0  -8   90.89    3.10
   0   0  -8   90.89    3.10
  -1   0  -8  161.38    5.20
  -1   0  -8  162.48    5.20
  -2   0  -8   35.70    1.60
  -2   0  -8   35.20    1.50
   2   0   8   33.30    1.70
  -3   0  -8   66.69    2.40
  -3   0  -8   68.79    2.40
   3   0   8   64.79    2.60
  -4   0  -8   33.60    1.40
  -4   0  -8   33.80    1.40
   4   0   8   33.00    1.60
  -5   0  -8   -0.10    0.30
  -5   0  -8   -0.20    0.30
   5   0   8    0.30    0.60
  -6   0  -8   67.09    2.20
   8  -1  -8   11.10    0.80
   8  -1  -8   11.30    0.70
   7  -1  -8    0.90    0.30
   7  -1  -8    1.20    0.30
   6  -1  -8    9.60    0.70
   6  -1  -8   10.20    0.70
   5  -1  -8    5.20    0.70
   5  -1  -8    5.20    0.70
   4  -1  -8    5.10    0.60
   4  -1  -8    5.60    0.60
   3  -1  -8    3.30    0.60
   3  -1  -8    3.40    0.60
  -3   1   8    5.10    1.10
   2  -1  -8   67.39    2.50
   2  -1  -8   70.29    2.50
  -2   1   8   72.49    2.70
   1  -1  -8   18.70    1.00
   1  -1  -8   18.00    1.00
  -1   1   8   18.40    1.20
   0  -1  -8  116.39    3.80
  -1  -1  -8   72.89    2.50
  -1  -1  -8   73.59    2.60
   1   1   8   68.99    2.80
  -2  -1  -8    4.70    0.70
  -2  -1  -8    4.50    0.70
   2   1   8    4.00    0.70
  -3  -1  -8   20.70    1.10
  -3  -1  -8   20.80    1.10
   3   1   8   20.30    1.20
  -4  -1  -8   57.09    2.00
  -4  -1  -8   55.99    2.00
  -5  -1  -8    2.80    0.40
   8  -2  -8    0.20    0.20
   8  -2  -8    0.20    0.30
   7  -2  -8    1.30    0.40
   7  -2  -8    0.60    0.30
   6  -2  -8   56.59    2.00
   6  -2  -8   53.39    2.00
   5  -2  -8  161.18    5.00
   5  -2  -8  159.48    5.10
   4  -2  -8   84.89    3.00
   4  -2  -8   86.59    2.90
   3  -2  -8    0.40    0.30
   3  -2  -8    0.30    0.30
  -3   2   8    0.20    0.70
   2  -2  -8  199.78    6.10
   2  -2  -8  196.68    6.20
  -2   2   8  203.08    6.40
   1  -2  -8    2.90    0.70
   1  -2  -8    4.90    0.60
  -1   2   8    5.00    0.80
   0  -2  -8   21.00    1.10
   0   2   8   20.20    1.20
  -1  -2  -8   98.09    3.30
  -1  -2  -8   99.39    3.20
   1   2   8   88.19    3.40
  -2  -2  -8   90.89    3.00
  -2  -2  -8   86.99    2.90
   2   2   8   84.19    3.10
  -3  -2  -8   22.40    1.10
   3   2   8   24.20    1.20
  -4  -2  -8   -0.10    0.30
   4   2   8    0.00    0.50
  -5  -2  -8   38.50    1.30
   8  -3  -8   53.89    2.10
   8  -3  -8   65.09    2.10
   7  -3  -8   18.90    0.90
   7  -3  -8   19.40    0.90
   6  -3  -8   18.10    0.90
   6  -3  -8   17.00    0.80
   5  -3  -8   15.90    0.90
   5  -3  -8   15.60    0.90
   4  -3  -8  100.89    3.40
   4  -3  -8  100.29    3.20
   3  -3  -8   16.20    0.90
   3  -3  -8   16.70    0.90
  -3   3   8   15.60    1.30
   2  -3  -8   14.90    0.90
   2  -3  -8   16.00    1.00
  -2   3   8   14.50    1.00
   1  -3  -8   15.20    0.90
   1  -3  -8   16.20    1.00
  -1   3   8   13.30    1.10
   0  -3  -8    0.10    0.30
   0   3   8   -0.20    0.70
  -1  -3  -8    3.40    0.60
   1   3   8    3.80    0.70
  -2  -3  -8    0.30    0.30
   2   3   8   -0.20    0.40
  -3  -3  -8   83.69    2.80
   3   3   8   81.79    2.90
  -4  -3  -8   12.10    0.70
   7  -4  -8    3.40    0.50
   7  -4  -8    2.70    0.50
   6  -4  -8   14.10    0.80
   6  -4  -8   15.10    0.80
   5  -4  -8    0.50    0.30
   5  -4  -8    0.10    0.30
   4  -4  -8   27.60    1.20
   4  -4  -8   26.50    1.20
   3  -4  -8    2.00    0.50
   3  -4  -8    1.80    0.40
  -3   4   8    2.40    0.80
   2  -4  -8   17.30    0.90
  -2   4   8   13.80    1.10
   1  -4  -8    3.80    0.60
  -1   4   8    3.90    0.70
   0  -4  -8   36.10    1.40
   0   4   8   35.00    1.60
  -1  -4  -8    0.20    0.30
   1   4   8    0.30    0.40
  -2  -4  -8   50.69    1.80
   2   4   8   50.09    1.90
  -3  -4  -8   27.80    1.00
   6  -5  -8    7.40    0.70
   5  -5  -8    0.30    0.30
   4  -5  -8    0.10    0.40
   3  -5  -8    5.90    0.60
   2  -5  -8    8.30    0.60
  -2   5   8    7.80    1.00
   1  -5  -8    0.50    0.30
  -1   5   8    0.60    0.50
   0  -5  -8    2.30    0.50
   0   5   8    2.90    0.70
  -1  -5  -8   69.99    2.40
  -2  -5  -8    4.30    0.50
   0   7  -9  142.49    4.70
  -1   7  -9  128.09    4.30
  -2   7  -9   41.20    1.80
   1   6  -9   57.59    2.30
   0   6  -9    5.50    0.90
  -1   6  -9   11.00    1.00
  -2   6  -9    5.20    0.80
  -2   6  -9    4.10    0.80
  -3   6  -9   -0.60    0.30
  -4   6  -9   48.20    1.70
  -5   6  -9    4.30    0.60
   2   5  -9   60.79    2.60
   1   5  -9   13.30    0.90
   1   5  -9   12.10    1.10
   0   5  -9    3.10    0.80
   0   5  -9    2.90    0.70
  -1   5  -9   -0.20    0.30
  -1   5  -9    0.20    0.50
  -2   5  -9   28.50    1.60
  -2   5  -9   30.00    1.30
  -3   5  -9  113.59    3.60
  -4   5  -9   77.69    2.60
  -5   5  -9    0.30    0.30
   3   4  -9   -0.20    0.30
   2   4  -9    8.50    0.70
   1   4  -9    9.70    0.80
   0   4  -9    2.20    0.80
   0   4  -9    2.00    0.60
  -1   4  -9    5.20    0.90
  -1   4  -9    7.10    0.70
  -3   4  -9   39.30    1.60
  -5   4  -9    0.00    0.20
  -6   4  -9    0.20    0.20
   6   3  -9   29.70    1.20
   5   3  -9   28.90    1.20
   5   3  -9   30.30    1.30
   4   3  -9    1.20    0.40
   4   3  -9    0.50    0.30
   3   3  -9   54.89    2.10
   3   3  -9   60.89    2.30
   2   3  -9    5.50    0.70
   2   3  -9    6.70    0.80
   1   3  -9  287.07    8.60
   1   3  -9  278.87    8.50
   0   3  -9  287.77    8.60
   0   3  -9  277.07    8.50
  -1   3  -9  191.48    6.00
  -2   3  -9   35.20    1.50
  -3   3  -9   15.30    0.90
  -4   3  -9    3.00    0.50
   4  -3   9    1.70    0.70
  -5   3  -9   13.10    0.70
  -6   3  -9    1.30    0.40
   7   2  -9   18.50    0.90
   6   2  -9    1.70    0.50
   6   2  -9    1.00    0.30
   5   2  -9   12.70    0.80
   5   2  -9   15.00    0.80
   4   2  -9    7.70    0.70
   2   2  -9   14.70    0.90
   2   2  -9   16.10    1.00
   1   2  -9  284.27    8.60
   1   2  -9  284.27    8.60
   0   2  -9   56.39    2.00
   0   2  -9   52.69    2.00
  -1   2  -9   69.99    2.50
  -1   2  -9   72.09    2.50
  -2   2  -9   60.09    2.50
  -2   2  -9   63.79    2.30
  -3   2  -9    1.50    0.50
  -3   2  -9    0.70    0.40
   3  -2   9    0.40    0.50
  -4   2  -9    5.50    0.70
  -4   2  -9    5.30    0.60
   4  -2   9    5.20    0.80
  -5   2  -9    1.50    0.40
   7   1  -9    9.00    0.60
   6   1  -9   34.40    1.30
   6   1  -9   35.20    1.40
   5   1  -9   14.30    0.80
   5   1  -9   13.50    0.80
   4   1  -9   30.00    1.30
   4   1  -9   29.20    1.20
   3   1  -9    3.80    0.60
   3   1  -9    3.90    0.60
   2   1  -9  121.29    3.90
   2   1  -9  121.79    3.90
  -2  -1   9  114.89    4.20
   1   1  -9   82.99    2.90
   1   1  -9   79.69    2.80
   0   1  -9   20.30    1.10
   0   1  -9   19.80    1.10
  -1   1  -9   28.40    1.30
  -1   1  -9   28.80    1.30
   1  -1   9   26.70    1.60
  -2   1  -9   37.80    1.50
  -2   1  -9   37.90    1.50
   2  -1   9   34.80    1.80
  -3   1  -9   17.60    0.90
  -3   1  -9   17.00    0.90
   3  -1   9   16.80    1.10
  -4   1  -9   39.70    1.50
  -4   1  -9   40.10    1.50
   4  -1   9   40.40    1.70
  -5   1  -9   10.60    0.60
   7   0  -9   27.50    1.10
   7   0  -9   28.00    1.10
   6   0  -9    9.60    0.70
   6   0  -9   10.40    0.60
   5   0  -9    5.10    0.50
   5   0  -9    5.80    0.50
   4   0  -9    0.60    0.30
   4   0  -9   -0.20    0.30
   3   0  -9    1.20    0.40
   3   0  -9    0.60    0.30
   2   0  -9   29.50    1.30
   2   0  -9   30.30    1.30
  -2   0   9   24.80    1.50
   1   0  -9    2.60    0.60
   1   0  -9    2.50    0.60
  -1   0   9    4.00    0.80
   0   0  -9   66.79    2.40
   0   0  -9   71.39    2.70
   0   0   9   61.99    2.60
  -1   0  -9   71.79    2.50
  -1   0  -9   72.49    2.50
   1   0   9   65.89    2.70
  -2   0  -9    0.60    0.30
  -2   0  -9    1.00    0.40
   2   0   9    0.20    0.60
  -3   0  -9    0.30    0.30
  -3   0  -9    0.50    0.30
   3   0   9    0.30    0.40
  -4   0  -9    0.30    0.20
  -4   0  -9    0.60    0.30
   4   0   9    0.10    0.60
  -5   0  -9  108.89    3.30
   7  -1  -9    3.30    0.40
   7  -1  -9    4.40    0.40
   6  -1  -9   14.10    0.80
   6  -1  -9   12.70    0.70
   5  -1  -9   17.70    1.00
   5  -1  -9   17.70    0.90
   4  -1  -9   -0.60    0.30
   4  -1  -9    0.20    0.30
   3  -1  -9  123.99    4.10
   3  -1  -9  128.39    4.00
   2  -1  -9    2.60    0.60
   2  -1  -9    2.00    0.60
  -2   1   9    3.00    0.80
   1  -1  -9   94.39    3.20
   1  -1  -9   96.79    3.20
  -1   1   9   95.59    3.40
   0  -1  -9  332.67    9.80
   0  -1  -9  331.47    9.90
   0   1   9  317.67   10.10
  -1  -1  -9  180.68    6.00
  -1  -1  -9  187.48    5.90
   1   1   9  194.38    6.30
  -2  -1  -9    1.30    0.40
  -2  -1  -9    1.30    0.30
   2   1   9    0.80    0.40
  -3  -1  -9   -0.30    0.30
   3   1   9   -0.10    0.50
  -4  -1  -9   53.09    1.80
   7  -2  -9    1.40    0.40
   7  -2  -9    1.10    0.40
   6  -2  -9    2.70    0.60
   6  -2  -9    2.60    0.40
   5  -2  -9   41.40    1.60
   4  -2  -9    1.80    0.50
   4  -2  -9    0.40    0.30
   3  -2  -9   20.20    1.00
   3  -2  -9   18.70    1.00
   2  -2  -9   -0.20    0.30
   2  -2  -9    0.40    0.30
  -2   2   9   -0.40    0.50
   1  -2  -9   41.30    1.60
  -1   2   9   39.00    1.80
   0  -2  -9    0.50    0.30
   0  -2  -9    1.20    0.40
   0   2   9    0.60    0.40
  -1  -2  -9   45.10    1.70
  -1  -2  -9   47.50    1.70
   1   2   9   49.80    2.00
  -2  -2  -9    6.80    0.50
   2   2   9    7.40    0.70
  -3  -2  -9    4.20    0.40
   3   2   9    3.40    0.70
  -4  -2  -9    8.70    0.50
   7  -3  -9   -0.20    0.20
   7  -3  -9   -0.10    0.30
   6  -3  -9   35.40    1.30
   6  -3  -9   36.90    1.40
   5  -3  -9   19.30    0.90
   5  -3  -9   18.40    0.90
   4  -3  -9    3.90    0.50
   4  -3  -9    2.60    0.60
   3  -3  -9   21.50    1.00
   3  -3  -9   19.80    1.00
   2  -3  -9    1.80    0.50
   2  -3  -9    2.20    0.60
   1  -3  -9   14.80    0.90
   1  -3  -9   16.50    0.80
  -1   3   9   17.10    1.10
   0  -3  -9    2.90    0.40
   0   3   9    2.10    0.60
  -1  -3  -9   16.20    0.80
   1   3   9   16.50    1.00
  -2  -3  -9   38.40    1.40
   2   3   9   38.50    1.60
  -3  -3  -9   24.90    0.90
   6  -4  -9    9.00    0.70
   6  -4  -9    9.90    0.60
   5  -4  -9   19.80    1.00
   5  -4  -9   21.00    0.90
   4  -4  -9    1.30    0.40
   3  -4  -9   12.40    0.70
   2  -4  -9    2.50    0.50
  -2   4   9    3.30    1.00
   1  -4  -9    1.80    0.40
  -1   4   9    1.90    0.80
   0  -4  -9    1.10    0.30
   0   4   9    1.50    0.50
  -1  -4  -9    0.50    0.20
   1   4   9    0.40    0.50
   4  -5  -9   -0.10    0.30
   3  -5  -9   44.00    1.50
   2  -5  -9   12.90    0.70
   1  -5  -9    4.60    0.50
   0  -5  -9    3.30    0.50
   0   5 -10    2.90    0.60
  -1   5 -10   62.09    2.10
  -2   5 -10   24.80    1.00
  -3   5 -10   -0.20    0.40
  -4   5 -10    5.10    0.50
   3   4 -10   43.60    1.60
   2   4 -10   40.30    1.40
   1   4 -10   38.70    1.40
   0   4 -10   83.69    2.70
  -1   4 -10   78.89    2.60
  -2   4 -10    4.80    0.50
  -3   4 -10   66.69    2.20
   3  -4  10   67.59    2.50
   4   3 -10   14.10    0.70
   3   3 -10   27.90    1.10
   3   3 -10   27.70    1.30
   2   3 -10   17.20    0.80
   1   3 -10   13.10    0.80
   0   3 -10   74.89    2.50
  -1   3 -10   -0.10    0.30
  -2   3 -10    0.20    0.30
   2  -3  10    0.20    0.70
  -3   3 -10   11.80    0.70
   3  -3  10   13.90    1.00
  -4   3 -10    1.60    0.40
   6   2 -10    0.10    0.40
   6   2 -10    1.60    0.50
   5   2 -10   79.59    2.60
   5   2 -10   75.99    2.50
   4   2 -10   23.60    1.00
   4   2 -10   23.40    1.00
   3   2 -10    6.90    0.60
   3   2 -10    7.30    0.60
   2   2 -10    9.80    0.70
   2   2 -10   10.70    0.70
  -2  -2  10    9.00    1.30
   1   2 -10   86.89    3.00
   1   2 -10   89.29    2.90
  -1  -2  10   88.69    3.20
   0   2 -10    3.40    0.50
   0   2 -10    3.50    0.60
   0  -2  10    2.50    0.70
  -1   2 -10   -0.20    0.40
   1  -2  10    0.30    0.40
  -2   2 -10    2.50    0.60
  -2   2 -10    3.00    0.50
   2  -2  10    3.10    0.80
  -3   2 -10   27.50    1.10
   3  -2  10   25.10    1.30
  -4   2 -10   40.10    1.40
   6   1 -10    7.10    0.50
   6   1 -10    7.30    0.50
   5   1 -10   25.40    1.10
   5   1 -10   30.20    1.40
   4   1 -10   36.20    1.30
   4   1 -10   33.90    1.40
   3   1 -10    8.80    0.60
   3   1 -10    8.50    0.70
   2   1 -10  121.19    3.80
   2   1 -10  119.89    3.80
  -2  -1  10  115.09    4.10
   1   1 -10   48.40    1.80
   1   1 -10   49.70    1.80
  -1  -1  10   49.99    2.10
   0   1 -10   23.50    1.10
   0   1 -10   23.90    1.10
   0  -1  10   24.40    1.40
  -1   1 -10    9.20    0.70
  -1   1 -10   10.40    0.70
   1  -1  10    8.50    0.90
  -2   1 -10   19.40    1.20
  -2   1 -10   18.00    0.90
   2  -1  10   16.70    1.10
  -3   1 -10   10.00    0.60
  -3   1 -10   10.40    0.70
   3  -1  10    9.50    0.90
  -4   1 -10   46.40    1.50
   6   0 -10    6.80    0.50
   6   0 -10    8.00    0.60
   5   0 -10    4.50    0.60
   5   0 -10    3.70    0.50
   4   0 -10    5.50    0.60
   4   0 -10    5.30    0.50
   3   0 -10   19.00    0.90
   3   0 -10   18.30    0.90
   2   0 -10   29.20    1.20
   2   0 -10   30.90    1.30
  -2   0  10   28.00    1.60
   1   0 -10  147.79    4.70
   1   0 -10  147.89    4.60
  -1   0  10  151.28    4.90
   0   0 -10   34.20    1.40
   0   0 -10   35.50    1.40
   0   0  10   32.80    1.60
  -1   0 -10   89.39    2.90
  -1   0 -10   91.49    2.90
   1   0  10   85.69    3.10
  -2   0 -10    7.00    0.50
  -2   0 -10    7.40    0.60
   2   0  10    7.80    0.80
  -3   0 -10   28.30    1.10
  -3   0 -10   28.40    1.20
   3   0  10   26.50    1.40
   6  -1 -10    3.20    0.40
   6  -1 -10    3.70    0.40
   5  -1 -10    4.40    0.40
   5  -1 -10    5.30    0.60
   4  -1 -10   37.60    1.40
   4  -1 -10   37.50    1.40
   3  -1 -10   65.99    2.20
   3  -1 -10   66.89    2.30
   2  -1 -10   42.50    1.50
   2  -1 -10   43.00    1.60
  -2   1  10   43.50    1.90
   1  -1 -10    3.90    0.50
   1  -1 -10    4.80    0.50
  -1   1  10    4.50    0.90
   0  -1 -10   45.40    1.70
   0  -1 -10   45.40    1.60
  -1  -1 -10   18.50    0.90
  -1  -1 -10   18.30    0.90
   1   1  10   20.60    1.10
  -2  -1 -10    5.60    0.50
  -2  -1 -10    5.90    0.60
   2   1  10    5.30    0.70
  -3  -1 -10    8.80    0.50
   6  -2 -10   42.50    1.50
   6  -2 -10   44.10    1.40
   5  -2 -10    2.20    0.40
   5  -2 -10    2.10    0.40
   4  -2 -10   30.10    1.20
   4  -2 -10   30.30    1.10
   3  -2 -10    0.50    0.30
   3  -2 -10    0.50    0.20
   2  -2 -10   11.50    0.70
   2  -2 -10   12.60    0.70
  -2   2  10   10.80    1.20
   1  -2 -10    6.50    0.60
   1  -2 -10    6.40    0.50
  -1   2  10    7.60    0.80
   0  -2 -10   44.00    1.60
   0  -2 -10   45.00    1.60
   0   2  10   44.90    1.80
  -1  -2 -10   31.70    1.20
   1   2  10   35.00    1.50
  -2  -2 -10   42.50    1.40
   6  -3 -10    0.30    0.40
   6  -3 -10    0.10    0.20
   5  -3 -10    2.10    0.50
   5  -3 -10    1.50    0.50
   4  -3 -10   28.50    1.10
   4  -3 -10   27.60    1.10
   3  -3 -10    5.70    0.50
   3  -3 -10    5.00    0.60
   2  -3 -10    4.90    0.40
   1  -3 -10    0.60    0.30
  -1   3  10    0.60    0.60
   0  -3 -10   23.10    0.90
  -1  -3 -10  173.78    5.20
   4  -4 -10   28.80    1.00
   3  -4 -10    0.60    0.30
   2  -4 -10   78.79    2.50
   1  -4 -10    1.70    0.40
   2   4 -11   43.10    1.50
   1   4 -11   59.29    1.90
   0   4 -11    0.30    0.20
  -1   4 -11    0.10    0.20
  -2   4 -11    1.70    0.40
   3   3 -11  135.39    4.10
   2   3 -11   32.50    1.20
   1   3 -11   28.40    1.10
   0   3 -11    7.70    0.60
   0  -3  11    5.80    0.90
  -1   3 -11   18.80    0.80
   1  -3  11   18.30    1.10
  -2   3 -11    4.30    0.40
   4   2 -11    3.50    0.40
   3   2 -11   36.20    1.30
   3   2 -11   37.30    1.30
   2   2 -11    8.80    0.70
   2   2 -11    9.20    0.50
   1   2 -11    6.40    0.50
   1   2 -11    6.60    0.60
  -1  -2  11    6.80    1.00
   0   2 -11    6.50    0.50
   0   2 -11    7.50    0.70
   0  -2  11    6.90    0.90
  -1   2 -11   33.30    1.20
   1  -2  11   33.50    1.50
  -2   2 -11    2.30    0.50
   5   1 -11   49.60    1.60
   5   1 -11   48.00    1.60
   4   1 -11    0.00    0.30
   4   1 -11    0.00    0.20
   3   1 -11   -0.10    0.20
   3   1 -11   -0.20    0.20
   2   1 -11   -0.20    0.20
   2   1 -11    0.40    0.30
   1   1 -11    0.30    0.20
   1   1 -11    1.40    0.50
  -1  -1  11   -0.20    0.70
   0   1 -11   17.80    0.80
   0   1 -11   16.60    0.80
   0  -1  11   17.70    1.10
  -1   1 -11    0.10    0.20
  -1   1 -11    0.60    0.30
   1  -1  11    0.00    0.50
  -2   1 -11   20.20    0.80
   5   0 -11   18.60    0.70
   5   0 -11   17.00    0.70
   4   0 -11   26.20    0.90
   4   0 -11   22.60    1.00
   3   0 -11    6.70    0.50
   3   0 -11    5.50    0.40
   2   0 -11    7.50    0.50
   2   0 -11    8.10    0.50
   1   0 -11    0.60    0.30
   1   0 -11    0.70    0.30
   0   0 -11   27.60    1.10
   0   0 -11   26.90    1.00
   0   0  11   28.10    1.40
  -1   0 -11   27.80    1.00
  -1   0 -11   27.10    1.00
   4  -1 -11    1.90    0.30
   4  -1 -11    1.50    0.40
   3  -1 -11   20.90    1.00
   3  -1 -11   19.90    0.80
   2  -1 -11  109.99    3.40
   2  -1 -11  108.49    3.40
   1  -1 -11  388.46   11.30
   1  -1 -11  386.56   11.40
   0  -1 -11   17.30    0.70
   0  -1 -11   17.00    0.70
   3  -2 -11   15.00    0.70
   3  -2 -11   16.90    0.70
   2  -2 -11    0.50    0.20
   1  -2 -11    0.60    0.20
   0   0   0    0.00    0.00
_computing_structure_solution     'SHELXT 2014/5 (Sheldrick, 2014)'
;
_shelx_hkl_checksum              62777
_shelx_res_file
;
TITL JTM904_0m_a.res in P-1
    JTM904_0m_a.res
    created by SHELXL-2018/1 at 15:44:16 on 14-Mar-2018
REM Old TITL JTM904_0m in P-1
REM SHELXT solution in P-1
REM R1 0.109,  Rweak 0.005,  Alpha 0.027,  Orientation as input
REM Formula found by SHELXT:  C16 N2 O2
CELL  1.54178   8.8546   8.9841   9.5523   98.481   96.412  106.772
ZERR    2.000   0.0002   0.0002   0.0002    0.001    0.001    0.001
LATT  1
SFAC C H N O
UNIT 32 40 4 4
TEMP -123
SIZE 0.066 0.148 0.307
L.S. 5
BOND $H
LIST 4
FMAP 2
PLAN 5
CONF
HTAB N1 O2
EQIV $1 -x+1, -y+2, -z+2
HTAB C12 O2_$1
ACTA 136
WGHT    0.037700    0.272200
EXTI    0.010660
FVAR       0.96526
O1    4    0.203433    0.416850    0.354919    11.00000    0.02903    0.02163 =
         0.03618    0.00578    0.00270    0.00950
O2    4    0.419435    0.998014    0.769400    11.00000    0.03207    0.03232 =
         0.02281    0.00064    0.00169    0.01558
N1    3    0.263162    0.871826    0.507807    11.00000    0.02101    0.02300 =
         0.01813    0.00113    0.00021    0.00950
H1    2    0.282139    0.940050    0.589795    11.00000    0.04012
N2    3    0.060872    0.582642    0.311115    11.00000    0.01793    0.02034 =
         0.02460    0.00371    0.00148    0.00397
C1    1    0.050906    0.735838    0.299830    11.00000    0.01882    0.02272 =
         0.02173    0.00489    0.00393    0.00810
C2    1   -0.065843    0.749860    0.195358    11.00000    0.02341    0.03072 =
         0.02600    0.00276   -0.00155    0.00930
H2    2   -0.131111    0.655133    0.126641    11.00000    0.03628
C3    1   -0.090677    0.893547    0.187861    11.00000    0.02707    0.03758 =
         0.02888    0.00847   -0.00049    0.01595
H3    2   -0.175035    0.901515    0.116536    11.00000    0.04209
C4    1    0.002962    1.028769    0.284453    11.00000    0.02785    0.02891 =
         0.03092    0.00989    0.00731    0.01522
H4    2   -0.013088    1.132880    0.280318    11.00000    0.03113
C5    1    0.120196    1.017904    0.386578    11.00000    0.02185    0.02403 =
         0.02508    0.00435    0.00576    0.00886
H5    2    0.187668    1.111960    0.458311    11.00000    0.03142
C6    1    0.146345    0.873310    0.395974    11.00000    0.01785    0.02383 =
         0.01886    0.00478    0.00442    0.00814
C7    1    0.369129    0.789685    0.499512    11.00000    0.01780    0.01875 =
         0.02103    0.00445    0.00461    0.00471
C8    1    0.353908    0.687909    0.354736    11.00000    0.01897    0.02243 =
         0.01921    0.00306    0.00246    0.00669
H8    2    0.335710    0.752010    0.280192    11.00000    0.02201
C9    1    0.201025    0.549106    0.339853    11.00000    0.02116    0.02235 =
         0.01915    0.00193    0.00172    0.00751
C10   1    0.480328    0.799911    0.615848    11.00000    0.01940    0.02377 =
         0.02112    0.00402    0.00265    0.00774
H10   2    0.552466    0.735831    0.606391    11.00000    0.02298
C11   1    0.500908    0.906197    0.749164    11.00000    0.02150    0.02589 =
         0.02024    0.00635    0.00390    0.00653
C12   1    0.628339    0.909272    0.868999    11.00000    0.03046    0.04273 =
         0.02066    0.00321   -0.00024    0.01514
H12A  2    0.584515    0.902080    0.958380    11.00000    0.05887
H12B  2    0.713199    1.014191    0.883258    11.00000    0.07149
H12C  2    0.680081    0.827712    0.847367    11.00000    0.04154
C13   1   -0.088857    0.448859    0.289774    11.00000    0.01971    0.02421 =
         0.03142    0.00573    0.00390    0.00195
H13A  2   -0.174597    0.495991    0.309873    11.00000    0.03137
H13B  2   -0.072153    0.383992    0.362407    11.00000    0.02817
C14   1   -0.127765    0.346389    0.140728    11.00000    0.03179    0.02713 =
         0.03406    0.00216   -0.00348    0.00143
H14A  2   -0.221217    0.252688    0.136348    11.00000    0.04984
H14B  2   -0.155439    0.406163    0.066973    11.00000    0.05117
H14C  2   -0.034328    0.310108    0.121180    11.00000    0.03390
C15   1    0.497433    0.632174    0.329490    11.00000    0.02209    0.02999 =
         0.02251    0.00173    0.00309    0.01136
H15A  2    0.509007    0.552703    0.392099    11.00000    0.02365
H15B  2    0.597845    0.727386    0.357555    11.00000    0.02968
C16   1    0.482686    0.558586    0.172492    11.00000    0.03109    0.04285 =
         0.02586   -0.00157    0.00659    0.01535
H16A  2    0.380198    0.468393    0.141267    11.00000    0.04419
H16B  2    0.573946    0.512343    0.156874    11.00000    0.04583
H16C  2    0.478577    0.638076    0.111082    11.00000    0.04975
HKLF 4
REM  JTM904_0m_a.res in P-1
REM R1 =  0.0369 for    2387 Fo > 4sig(Fo)  and  0.0404 for all    2616 data
REM    262 parameters refined using      0 restraints
END
WGHT      0.0377      0.2711
REM Highest difference peak  0.209,  deepest hole -0.216,  1-sigma level  0.045
Q1    1  -0.0036  0.7443  0.2438  11.00000  0.05    0.21
Q2    1   0.5738  0.9127  0.8040  11.00000  0.05    0.21
Q3    1   0.1509  0.9493  0.3805  11.00000  0.05    0.19
Q4    1   0.4550  0.8195  0.6965  11.00000  0.05    0.19
Q5    1   0.1983  0.8652  0.4503  11.00000  0.05    0.18
;
_shelx_res_checksum              49234
loop_
_space_group_symop_operation_xyz
'x, y, z'
'-x, -y, -z'
loop_
_atom_site_type_symbol
_atom_site_label
_atom_site_fract_x
_atom_site_fract_y
_atom_site_fract_z
_atom_site_U_iso_or_equiv
_atom_site_adp_type
_atom_site_calc_flag
_atom_site_occupancy
O O1 0.20343(11) 0.41685(11) 0.35492(10) 0.0288(2) Uani d 1
O O2 0.41944(11) 0.99801(11) 0.76940(9) 0.0286(2) Uani d 1
N N1 0.26316(12) 0.87183(13) 0.50781(11) 0.0207(2) Uani d 1
H H1 0.282(2) 0.940(2) 0.590(2) 0.040(5) Uiso d 1
N N2 0.06087(12) 0.58264(12) 0.31111(11) 0.0216(2) Uani d 1
C C1 0.05091(14) 0.73584(15) 0.29983(13) 0.0206(3) Uani d 1
C C2 -0.06584(15) 0.74986(17) 0.19536(14) 0.0272(3) Uani d 1
H H2 -0.131(2) 0.655(2) 0.1266(18) 0.036(4) Uiso d 1
C C3 -0.09068(16) 0.89355(17) 0.18786(15) 0.0301(3) Uani d 1
H H3 -0.175(2) 0.902(2) 0.1165(19) 0.042(5) Uiso d 1
C C4 0.00296(16) 1.02877(16) 0.28445(15) 0.0272(3) Uani d 1
H H4 -0.0131(19) 1.1329(19) 0.2803(17) 0.031(4) Uiso d 1
C C5 0.12020(15) 1.01790(15) 0.38658(14) 0.0231(3) Uani d 1
H H5 0.1877(19) 1.1120(19) 0.4583(17) 0.031(4) Uiso d 1
C C6 0.14635(14) 0.87331(15) 0.39597(12) 0.0196(3) Uani d 1
C C7 0.36913(13) 0.78969(14) 0.49951(13) 0.0192(3) Uani d 1
C C8 0.35391(14) 0.68791(15) 0.35474(13) 0.0203(3) Uani d 1
H H8 0.3357(17) 0.7520(17) 0.2802(16) 0.022(3) Uiso d 1
C C9 0.20103(14) 0.54911(15) 0.33985(13) 0.0211(3) Uani d 1
C C10 0.48033(14) 0.79991(15) 0.61585(13) 0.0213(3) Uani d 1
H H10 0.5525(18) 0.7358(17) 0.6064(16) 0.023(4) Uiso d 1
C C11 0.50091(14) 0.90620(15) 0.74916(13) 0.0225(3) Uani d 1
C C12 0.62834(17) 0.9093(2) 0.86900(15) 0.0311(3) Uani d 1
H H12A 0.585(3) 0.902(2) 0.958(2) 0.059(6) Uiso d 1
H H12B 0.713(3) 1.014(3) 0.883(2) 0.071(7) Uiso d 1
H H12C 0.680(2) 0.828(2) 0.8474(19) 0.042(5) Uiso d 1
C C13 -0.08886(15) 0.44886(16) 0.28977(15) 0.0261(3) Uani d 1
H H13A -0.175(2) 0.4960(19) 0.3099(17) 0.031(4) Uiso d 1
H H13B -0.0722(18) 0.3840(19) 0.3624(17) 0.028(4) Uiso d 1
C C14 -0.12777(18) 0.34639(18) 0.14073(16) 0.0338(3) Uani d 1
H H14A -0.221(2) 0.253(2) 0.136(2) 0.050(5) Uiso d 1
H H14B -0.155(2) 0.406(2) 0.067(2) 0.051(5) Uiso d 1
H H14C -0.034(2) 0.3101(19) 0.1212(17) 0.034(4) Uiso d 1
C C15 0.49743(15) 0.63217(16) 0.32949(13) 0.0245(3) Uani d 1
H H15A 0.5090(17) 0.5527(18) 0.3921(16) 0.024(4) Uiso d 1
H H15B 0.598(2) 0.7274(19) 0.3576(17) 0.030(4) Uiso d 1
C C16 0.48269(18) 0.5586(2) 0.17249(15) 0.0331(3) Uani d 1
H H16A 0.380(2) 0.468(2) 0.1413(19) 0.044(5) Uiso d 1
H H16B 0.574(2) 0.512(2) 0.157(2) 0.046(5) Uiso d 1
H H16C 0.479(2) 0.638(2) 0.111(2) 0.050(5) Uiso d 1
loop_
_atom_site_aniso_label
_atom_site_aniso_U_11
_atom_site_aniso_U_22
_atom_site_aniso_U_33
_atom_site_aniso_U_12
_atom_site_aniso_U_13
_atom_site_aniso_U_23
O1 0.0290(5) 0.0216(5) 0.0362(5) 0.0095(4) 0.0027(4) 0.0058(4)
O2 0.0321(5) 0.0323(5) 0.0228(4) 0.0156(4) 0.0017(4) 0.0006(4)
N1 0.0210(5) 0.0230(5) 0.0181(5) 0.0095(4) 0.0002(4) 0.0011(4)
N2 0.0179(5) 0.0203(5) 0.0246(5) 0.0040(4) 0.0015(4) 0.0037(4)
C1 0.0188(5) 0.0227(6) 0.0217(6) 0.0081(5) 0.0039(4) 0.0049(5)
C2 0.0234(6) 0.0307(7) 0.0260(6) 0.0093(5) -0.0015(5) 0.0028(6)
C3 0.0271(6) 0.0376(8) 0.0289(7) 0.0159(6) -0.0005(5) 0.0085(6)
C4 0.0279(6) 0.0289(7) 0.0309(7) 0.0152(5) 0.0073(5) 0.0099(6)
C5 0.0218(6) 0.0240(6) 0.0251(6) 0.0089(5) 0.0058(5) 0.0044(5)
C6 0.0179(5) 0.0238(6) 0.0189(6) 0.0081(5) 0.0044(4) 0.0048(5)
C7 0.0178(5) 0.0187(6) 0.0210(6) 0.0047(4) 0.0046(4) 0.0044(5)
C8 0.0190(6) 0.0224(6) 0.0192(6) 0.0067(5) 0.0025(4) 0.0031(5)
C9 0.0212(6) 0.0224(6) 0.0192(6) 0.0075(5) 0.0017(4) 0.0019(5)
C10 0.0194(6) 0.0238(6) 0.0211(6) 0.0077(5) 0.0027(5) 0.0040(5)
C11 0.0215(6) 0.0259(6) 0.0202(6) 0.0065(5) 0.0039(5) 0.0063(5)
C12 0.0305(7) 0.0427(8) 0.0207(6) 0.0151(6) -0.0002(5) 0.0032(6)
C13 0.0197(6) 0.0242(6) 0.0314(7) 0.0020(5) 0.0039(5) 0.0057(6)
C14 0.0318(7) 0.0271(7) 0.0341(8) 0.0014(6) -0.0035(6) 0.0022(6)
C15 0.0221(6) 0.0300(7) 0.0225(6) 0.0114(5) 0.0031(5) 0.0017(6)
C16 0.0311(7) 0.0428(9) 0.0259(7) 0.0154(7) 0.0066(6) -0.0016(6)
loop_
_atom_type_symbol
_atom_type_description
_atom_type_scat_dispersion_real
_atom_type_scat_dispersion_imag
_atom_type_scat_source
C C 0.0181 0.0091 'International Tables Vol C Tables 4.2.6.8 and 6.1.1.4'
H H 0.0000 0.0000 'International Tables Vol C Tables 4.2.6.8 and 6.1.1.4'
N N 0.0311 0.0180 'International Tables Vol C Tables 4.2.6.8 and 6.1.1.4'
O O 0.0492 0.0322 'International Tables Vol C Tables 4.2.6.8 and 6.1.1.4'
loop_
_geom_angle_atom_site_label_1
_geom_angle_atom_site_label_2
_geom_angle_atom_site_label_3
_geom_angle
C7 N1 C6 126.56(10)
C7 N1 H1 113.3(12)
C6 N1 H1 119.5(11)
C9 N2 C1 124.31(10)
C9 N2 C13 116.88(10)
C1 N2 C13 118.80(10)
C2 C1 C6 118.27(12)
C2 C1 N2 119.06(11)
C6 C1 N2 122.52(10)
C3 C2 C1 121.58(12)
C3 C2 H2 119.7(10)
C1 C2 H2 118.8(10)
C2 C3 C4 119.82(12)
C2 C3 H3 121.0(10)
C4 C3 H3 119.2(10)
C5 C4 C3 119.49(12)
C5 C4 H4 119.7(9)
C3 C4 H4 120.8(9)
C4 C5 C6 121.39(12)
C4 C5 H5 121.4(9)
C6 C5 H5 117.2(9)
C5 C6 C1 119.44(11)
C5 C6 N1 117.53(11)
C1 C6 N1 122.94(11)
N1 C7 C10 121.37(11)
N1 C7 C8 114.87(10)
C10 C7 C8 123.76(11)
C7 C8 C15 115.57(10)
C7 C8 C9 105.80(9)
C15 C8 C9 111.94(10)
C7 C8 H8 107.0(8)
C15 C8 H8 108.7(8)
C9 C8 H8 107.4(8)
O1 C9 N2 121.94(11)
O1 C9 C8 122.29(11)
N2 C9 C8 115.77(10)
C7 C10 C11 122.91(11)
C7 C10 H10 118.9(9)
C11 C10 H10 118.2(9)
O2 C11 C10 122.89(11)
O2 C11 C12 118.70(11)
C10 C11 C12 118.40(11)
C11 C12 H12A 110.3(13)
C11 C12 H12B 107.1(13)
H12A C12 H12B 107.8(18)
C11 C12 H12C 113.4(11)
H12A C12 H12C 110.9(16)
H12B C12 H12C 107.0(17)
N2 C13 C14 113.09(11)
N2 C13 H13A 106.4(9)
C14 C13 H13A 111.7(9)
N2 C13 H13B 105.9(9)
C14 C13 H13B 109.3(9)
H13A C13 H13B 110.3(13)
C13 C14 H14A 109.5(11)
C13 C14 H14B 110.6(11)
H14A C14 H14B 107.8(16)
C13 C14 H14C 109.2(10)
H14A C14 H14C 108.8(14)
H14B C14 H14C 111.0(15)
C16 C15 C8 110.84(10)
C16 C15 H15A 109.6(8)
C8 C15 H15A 111.1(8)
C16 C15 H15B 109.4(9)
C8 C15 H15B 108.3(9)
H15A C15 H15B 107.5(12)
C15 C16 H16A 110.4(10)
C15 C16 H16B 111.0(10)
H16A C16 H16B 106.7(14)
C15 C16 H16C 110.0(11)
H16A C16 H16C 106.9(15)
H16B C16 H16C 111.7(15)
loop_
_geom_bond_atom_site_label_1
_geom_bond_atom_site_label_2
_geom_bond_distance
O1 C9 1.2237(15)
O2 C11 1.2513(15)
N1 C7 1.3529(15)
N1 C6 1.4059(15)
N1 H1 0.887(19)
N2 C9 1.3676(15)
N2 C1 1.4232(15)
N2 C13 1.4804(15)
C1 C2 1.4008(17)
C1 C6 1.4045(17)
C2 C3 1.3811(19)
C2 H2 0.978(18)
C3 C4 1.390(2)
C3 H3 0.979(18)
C4 C5 1.3781(18)
C4 H4 0.991(16)
C5 C6 1.3973(17)
C5 H5 0.993(17)
C7 C10 1.3734(17)
C7 C8 1.5103(16)
C8 C15 1.5245(16)
C8 C9 1.5291(17)
C8 H8 1.007(15)
C10 C11 1.4338(17)
C10 H10 0.978(15)
C11 C12 1.5061(17)
C12 H12A 0.98(2)
C12 H12B 1.00(3)
C12 H12C 0.980(19)
C13 C14 1.5212(19)
C13 H13A 0.993(16)
C13 H13B 0.994(16)
C14 H14A 0.99(2)
C14 H14B 1.00(2)
C14 H14C 0.999(17)
C15 C16 1.5222(18)
C15 H15A 1.016(15)
C15 H15B 1.017(17)
C16 H16A 1.01(2)
C16 H16B 1.025(19)
C16 H16C 0.99(2)
loop_
_geom_hbond_atom_site_label_D
_geom_hbond_atom_site_label_H
_geom_hbond_atom_site_label_A
_geom_hbond_site_symmetry_A
_geom_hbond_distance_DH
_geom_hbond_distance_HA
_geom_hbond_distance_DA
_geom_hbond_angle_DHA
_geom_hbond_publ_flag
N1 H1 O2 . 0.887(19) 1.897(19) 2.6326(13) 139.2(16) yes
C12 H12A O2 2_677 0.98(2) 2.63(2) 3.5334(17) 153.4(17) yes
loop_
_geom_torsion_atom_site_label_1
_geom_torsion_atom_site_label_2
_geom_torsion_atom_site_label_3
_geom_torsion_atom_site_label_4
_geom_torsion
C9 N2 C1 C2 141.65(12)
C13 N2 C1 C2 -37.92(16)
C9 N2 C1 C6 -42.92(17)
C13 N2 C1 C6 137.50(12)
C6 C1 C2 C3 -1.59(19)
N2 C1 C2 C3 174.03(12)
C1 C2 C3 C4 0.8(2)
C2 C3 C4 C5 0.2(2)
C3 C4 C5 C6 -0.50(19)
C4 C5 C6 C1 -0.26(18)
C4 C5 C6 N1 -176.96(11)
C2 C1 C6 C5 1.28(17)
N2 C1 C6 C5 -174.19(11)
C2 C1 C6 N1 177.79(11)
N2 C1 C6 N1 2.32(18)
C7 N1 C6 C5 -140.34(12)
C7 N1 C6 C1 43.09(18)
C6 N1 C7 C10 178.73(12)
C6 N1 C7 C8 -1.52(17)
N1 C7 C8 C15 163.37(11)
C10 C7 C8 C15 -16.89(18)
N1 C7 C8 C9 -72.16(13)
C10 C7 C8 C9 107.58(13)
C1 N2 C9 O1 176.65(11)
C13 N2 C9 O1 -3.77(17)
C1 N2 C9 C8 -2.22(16)
C13 N2 C9 C8 177.36(10)
C7 C8 C9 O1 -103.76(13)
C15 C8 C9 O1 22.94(16)
C7 C8 C9 N2 75.10(13)
C15 C8 C9 N2 -158.19(10)
N1 C7 C10 C11 -5.14(19)
C8 C7 C10 C11 175.13(11)
C7 C10 C11 O2 -0.2(2)
C7 C10 C11 C12 -179.09(12)
C9 N2 C13 C14 -79.55(14)
C1 N2 C13 C14 100.05(13)
C7 C8 C15 C16 -169.08(11)
C9 C8 C15 C16 69.70(14)

_cod_database_fobs_code 1549346
